*************************************************
   ChampSim Multicore Out-of-Order Simulator
   Last compiled: Dec 11 2024 17:59:53
*************************************************
parsing config file: /home/functionmain/桌面/Pythia/config/mlop.ini

trace_0 /home/functionmain/桌面/Pythia/traces/403.gcc-16B.champsimtrace.xz
adding L2C_PREFETCHER: MLOP
Initialize SHIP state
warmup_instructions 100000000
simulation_instructions 500000000
champsim_seed 169
measure_ipc 0
measure_ipc_epoch 1000
measure_dram_bw 1
measure_dram_bw_epoch 256
measure_cache_acc 1
measure_cache_acc_epoch 1024
l1d_perfect 0
l2c_perfect 0
llc_perfect 0
l1d_semi_perfect 0
l2c_semi_perfect 0
llc_semi_perfect 0
semi_perfect_cache_page_buffer_size 64

num_cpus 1
cpu_freq 4000
dram_io_freq 600
page_size 4096
block_size 64
max_read_per_cycle 8
max_fill_per_cycle 1
dram_channels 1
log2_dram_channels 0
dram_ranks 1
dram_banks 8
dram_rows 65536
dram_columns 128
dram_row_size 8
dram_size 4096
dram_pages 1048576

fetch_width 6
decode_width 6
exec_width 4
lq_width 2
sq_width 2
retire_width 4
scheduler_size 128
branch_mispredict_penalty 20
rob_size 256
lq_size 72
sq_size 56
num_instr_destinations_sparc 4
num_instr_destinations 2
num_instr_sources 4

itlb_set 16
itlb_way 8
itlb_rq_size 16
itlb_wq_size 16
itlb_pq_size 0
itlb_mshr_size 8
itlb_latency 1

dtlb_set 16
dtlb_way 4
dtlb_rq_size 16
dtlb_wq_size 16
dtlb_pq_size 0
dtlb_mshr_size 8
dtlb_latency 1

stlb_set 128
stlb_way 12
stlb_rq_size 32
stlb_wq_size 32
stlb_pq_size 0
stlb_mshr_size 16
stlb_latency 8

l1i_size 32
l1i_set 64
l1i_way 8
l1i_rq_size 64
l1i_wq_size 64
l1i_pq_size 8
l1i_mshr_size 8
l1i_latency 1

l1d_size 32
l1d_set 64
l1d_way 8
l1d_rq_size 64
l1d_wq_size 64
l1d_pq_size 8
l1d_mshr_size 16
l1d_latency 4

l2c_size 256
l2c_set 512
l2c_way 8
l2c_rq_size 32
l2c_wq_size 32
l2c_pq_size 32
l2c_mshr_size 32
l2c_latency 10

llc_size 2048
llc_set 2048
llc_way 16
llc_rq_size 32
llc_wq_size 32
llc_pq_size 32
llc_mshr_size 64
llc_latency 20

dram_channel_width 8
dram_wq_size 64
dram_rq_size 64
tRP 15
tRCD 15
tCAS 12.5
dram_dbus_turn_around_time 30
dram_write_high_wm 56
dram_write_low_wm 48
min_dram_writes_per_switch 16
dram_mtps 600
dram_dbus_return_time 53

mlop_pref_degree 16
mlop_num_updates 500
mlop_l1d_thresh 2
mlop_l2c_thresh 0.75
mlop_llc_thresh 0.3
mlop_debug_level 0
mlop_blocks_in_cache 4096
mlop_blocks_in_zone 64
mlop_amt_size 2048
mlop_PF_DEGREE 16
mlop_NUM_UPDATES 500
mlop_L1D_THRESH 1000
mlop_L2C_THRESH 375
mlop_LLC_THRESH 150
mlop_ORIGIN 63
mlop_MAX_OFFSET 63
mlop_MIN_OFFSET -63
mlop_ORIGIN 63
mlop_NUM_OFFSETS 127


Heartbeat CPU  0 instructions:    1000000 cycles:     453084 heartbeat IPC: 2.20710 cumulative IPC: 2.20710 (Simulation time: 0 hr 0 min 1 sec) 
Heartbeat CPU  0 instructions:    2000000 cycles:     861340 heartbeat IPC: 2.44944 cumulative IPC: 2.32196 (Simulation time: 0 hr 0 min 3 sec) 
Heartbeat CPU  0 instructions:    3000003 cycles:    1299524 heartbeat IPC: 2.28215 cumulative IPC: 2.30854 (Simulation time: 0 hr 0 min 4 sec) 
Heartbeat CPU  0 instructions:    4000000 cycles:    1765757 heartbeat IPC: 2.14484 cumulative IPC: 2.26532 (Simulation time: 0 hr 0 min 6 sec) 
Heartbeat CPU  0 instructions:    5000000 cycles:    2181238 heartbeat IPC: 2.40685 cumulative IPC: 2.29228 (Simulation time: 0 hr 0 min 7 sec) 
Heartbeat CPU  0 instructions:    6000000 cycles:    2658583 heartbeat IPC: 2.09492 cumulative IPC: 2.25684 (Simulation time: 0 hr 0 min 9 sec) 
Heartbeat CPU  0 instructions:    7000002 cycles:    3082228 heartbeat IPC: 2.36047 cumulative IPC: 2.27109 (Simulation time: 0 hr 0 min 10 sec) 
Heartbeat CPU  0 instructions:    8000000 cycles:    3488428 heartbeat IPC: 2.46184 cumulative IPC: 2.29330 (Simulation time: 0 hr 0 min 12 sec) 
Heartbeat CPU  0 instructions:    9000003 cycles:    3937097 heartbeat IPC: 2.22882 cumulative IPC: 2.28595 (Simulation time: 0 hr 0 min 13 sec) 
Heartbeat CPU  0 instructions:   10000001 cycles:    4377769 heartbeat IPC: 2.26926 cumulative IPC: 2.28427 (Simulation time: 0 hr 0 min 15 sec) 
Heartbeat CPU  0 instructions:   11000000 cycles:    4781974 heartbeat IPC: 2.47399 cumulative IPC: 2.30031 (Simulation time: 0 hr 0 min 16 sec) 
Heartbeat CPU  0 instructions:   12000000 cycles:    5196200 heartbeat IPC: 2.41414 cumulative IPC: 2.30938 (Simulation time: 0 hr 0 min 18 sec) 
Heartbeat CPU  0 instructions:   13000001 cycles:    5649332 heartbeat IPC: 2.20686 cumulative IPC: 2.30116 (Simulation time: 0 hr 0 min 19 sec) 
Heartbeat CPU  0 instructions:   14000003 cycles:    6084643 heartbeat IPC: 2.29721 cumulative IPC: 2.30087 (Simulation time: 0 hr 0 min 21 sec) 
Heartbeat CPU  0 instructions:   15000000 cycles:    6489740 heartbeat IPC: 2.46854 cumulative IPC: 2.31134 (Simulation time: 0 hr 0 min 22 sec) 
Heartbeat CPU  0 instructions:   16000000 cycles:    6909947 heartbeat IPC: 2.37978 cumulative IPC: 2.31550 (Simulation time: 0 hr 0 min 24 sec) 
Heartbeat CPU  0 instructions:   17000001 cycles:    7352906 heartbeat IPC: 2.25755 cumulative IPC: 2.31201 (Simulation time: 0 hr 0 min 25 sec) 
Heartbeat CPU  0 instructions:   18000000 cycles:    7788206 heartbeat IPC: 2.29726 cumulative IPC: 2.31119 (Simulation time: 0 hr 0 min 27 sec) 
Heartbeat CPU  0 instructions:   19000001 cycles:    8188800 heartbeat IPC: 2.49630 cumulative IPC: 2.32024 (Simulation time: 0 hr 0 min 28 sec) 
Heartbeat CPU  0 instructions:   20000000 cycles:    8635547 heartbeat IPC: 2.23840 cumulative IPC: 2.31601 (Simulation time: 0 hr 0 min 30 sec) 
Heartbeat CPU  0 instructions:   21000001 cycles:    9080752 heartbeat IPC: 2.24616 cumulative IPC: 2.31258 (Simulation time: 0 hr 0 min 31 sec) 
Heartbeat CPU  0 instructions:   22000000 cycles:    9481476 heartbeat IPC: 2.49548 cumulative IPC: 2.32031 (Simulation time: 0 hr 0 min 33 sec) 
Heartbeat CPU  0 instructions:   23000003 cycles:    9895765 heartbeat IPC: 2.41378 cumulative IPC: 2.32423 (Simulation time: 0 hr 0 min 34 sec) 
Heartbeat CPU  0 instructions:   24000000 cycles:   10338022 heartbeat IPC: 2.26112 cumulative IPC: 2.32153 (Simulation time: 0 hr 0 min 36 sec) 
Heartbeat CPU  0 instructions:   25000000 cycles:   10787006 heartbeat IPC: 2.22725 cumulative IPC: 2.31760 (Simulation time: 0 hr 0 min 37 sec) 
Heartbeat CPU  0 instructions:   26000000 cycles:   11183308 heartbeat IPC: 2.52333 cumulative IPC: 2.32489 (Simulation time: 0 hr 0 min 39 sec) 
Heartbeat CPU  0 instructions:   27000001 cycles:   11598130 heartbeat IPC: 2.41068 cumulative IPC: 2.32796 (Simulation time: 0 hr 0 min 40 sec) 
Heartbeat CPU  0 instructions:   28000000 cycles:   12045877 heartbeat IPC: 2.23340 cumulative IPC: 2.32445 (Simulation time: 0 hr 0 min 42 sec) 
Heartbeat CPU  0 instructions:   29000000 cycles:   12478754 heartbeat IPC: 2.31013 cumulative IPC: 2.32395 (Simulation time: 0 hr 0 min 43 sec) 
Heartbeat CPU  0 instructions:   30000003 cycles:   12886550 heartbeat IPC: 2.45221 cumulative IPC: 2.32801 (Simulation time: 0 hr 0 min 45 sec) 
Heartbeat CPU  0 instructions:   31000003 cycles:   13376799 heartbeat IPC: 2.03978 cumulative IPC: 2.31745 (Simulation time: 0 hr 0 min 46 sec) 
Heartbeat CPU  0 instructions:   32000000 cycles:   13779516 heartbeat IPC: 2.48313 cumulative IPC: 2.32229 (Simulation time: 0 hr 0 min 48 sec) 
Heartbeat CPU  0 instructions:   33000001 cycles:   14203515 heartbeat IPC: 2.35850 cumulative IPC: 2.32337 (Simulation time: 0 hr 0 min 49 sec) 
Heartbeat CPU  0 instructions:   34000003 cycles:   14655668 heartbeat IPC: 2.21165 cumulative IPC: 2.31992 (Simulation time: 0 hr 0 min 51 sec) 
Heartbeat CPU  0 instructions:   35000002 cycles:   15077104 heartbeat IPC: 2.37284 cumulative IPC: 2.32140 (Simulation time: 0 hr 0 min 52 sec) 
Heartbeat CPU  0 instructions:   36000000 cycles:   15474339 heartbeat IPC: 2.51740 cumulative IPC: 2.32643 (Simulation time: 0 hr 0 min 54 sec) 
Heartbeat CPU  0 instructions:   37000001 cycles:   15909780 heartbeat IPC: 2.29652 cumulative IPC: 2.32561 (Simulation time: 0 hr 0 min 55 sec) 
Heartbeat CPU  0 instructions:   38000000 cycles:   16358002 heartbeat IPC: 2.23103 cumulative IPC: 2.32302 (Simulation time: 0 hr 0 min 57 sec) 
Heartbeat CPU  0 instructions:   39000000 cycles:   16774291 heartbeat IPC: 2.40218 cumulative IPC: 2.32499 (Simulation time: 0 hr 0 min 58 sec) 
Heartbeat CPU  0 instructions:   40000000 cycles:   17172792 heartbeat IPC: 2.50940 cumulative IPC: 2.32927 (Simulation time: 0 hr 1 min 0 sec) 
Heartbeat CPU  0 instructions:   41000003 cycles:   17614898 heartbeat IPC: 2.26191 cumulative IPC: 2.32758 (Simulation time: 0 hr 1 min 1 sec) 
Heartbeat CPU  0 instructions:   42000003 cycles:   18057159 heartbeat IPC: 2.26111 cumulative IPC: 2.32595 (Simulation time: 0 hr 1 min 3 sec) 
Heartbeat CPU  0 instructions:   43000002 cycles:   18463348 heartbeat IPC: 2.46191 cumulative IPC: 2.32894 (Simulation time: 0 hr 1 min 4 sec) 
Heartbeat CPU  0 instructions:   44000000 cycles:   18913754 heartbeat IPC: 2.22021 cumulative IPC: 2.32635 (Simulation time: 0 hr 1 min 6 sec) 
Heartbeat CPU  0 instructions:   45000000 cycles:   19361550 heartbeat IPC: 2.23316 cumulative IPC: 2.32419 (Simulation time: 0 hr 1 min 7 sec) 
Heartbeat CPU  0 instructions:   46000003 cycles:   19774904 heartbeat IPC: 2.41924 cumulative IPC: 2.32618 (Simulation time: 0 hr 1 min 9 sec) 
Heartbeat CPU  0 instructions:   47000003 cycles:   20228308 heartbeat IPC: 2.20554 cumulative IPC: 2.32348 (Simulation time: 0 hr 1 min 10 sec) 
Heartbeat CPU  0 instructions:   48000000 cycles:   20652037 heartbeat IPC: 2.35999 cumulative IPC: 2.32423 (Simulation time: 0 hr 1 min 12 sec) 
Heartbeat CPU  0 instructions:   49000003 cycles:   21060772 heartbeat IPC: 2.44658 cumulative IPC: 2.32660 (Simulation time: 0 hr 1 min 13 sec) 
Heartbeat CPU  0 instructions:   50000000 cycles:   21501079 heartbeat IPC: 2.27114 cumulative IPC: 2.32546 (Simulation time: 0 hr 1 min 15 sec) 
Heartbeat CPU  0 instructions:   51000003 cycles:   21938113 heartbeat IPC: 2.28816 cumulative IPC: 2.32472 (Simulation time: 0 hr 1 min 16 sec) 
Heartbeat CPU  0 instructions:   52000000 cycles:   22345456 heartbeat IPC: 2.45493 cumulative IPC: 2.32710 (Simulation time: 0 hr 1 min 18 sec) 
Heartbeat CPU  0 instructions:   53000000 cycles:   22760907 heartbeat IPC: 2.40702 cumulative IPC: 2.32855 (Simulation time: 0 hr 1 min 19 sec) 
Heartbeat CPU  0 instructions:   54000001 cycles:   23200777 heartbeat IPC: 2.27340 cumulative IPC: 2.32751 (Simulation time: 0 hr 1 min 21 sec) 
Heartbeat CPU  0 instructions:   55000001 cycles:   23635740 heartbeat IPC: 2.29905 cumulative IPC: 2.32698 (Simulation time: 0 hr 1 min 22 sec) 
Heartbeat CPU  0 instructions:   56000000 cycles:   24043049 heartbeat IPC: 2.45514 cumulative IPC: 2.32916 (Simulation time: 0 hr 1 min 24 sec) 
Heartbeat CPU  0 instructions:   57000003 cycles:   24458788 heartbeat IPC: 2.40536 cumulative IPC: 2.33045 (Simulation time: 0 hr 1 min 26 sec) 
Heartbeat CPU  0 instructions:   58000001 cycles:   24905970 heartbeat IPC: 2.23622 cumulative IPC: 2.32876 (Simulation time: 0 hr 1 min 27 sec) 
Heartbeat CPU  0 instructions:   59000000 cycles:   25336649 heartbeat IPC: 2.32191 cumulative IPC: 2.32864 (Simulation time: 0 hr 1 min 29 sec) 
Heartbeat CPU  0 instructions:   60000000 cycles:   25732362 heartbeat IPC: 2.52708 cumulative IPC: 2.33169 (Simulation time: 0 hr 1 min 30 sec) 
Heartbeat CPU  0 instructions:   61000001 cycles:   26184069 heartbeat IPC: 2.21383 cumulative IPC: 2.32966 (Simulation time: 0 hr 1 min 32 sec) 
Heartbeat CPU  0 instructions:   62000001 cycles:   26622144 heartbeat IPC: 2.28271 cumulative IPC: 2.32889 (Simulation time: 0 hr 1 min 33 sec) 
Heartbeat CPU  0 instructions:   63000000 cycles:   27026167 heartbeat IPC: 2.47510 cumulative IPC: 2.33107 (Simulation time: 0 hr 1 min 35 sec) 
Heartbeat CPU  0 instructions:   64000000 cycles:   27435807 heartbeat IPC: 2.44117 cumulative IPC: 2.33272 (Simulation time: 0 hr 1 min 36 sec) 
Heartbeat CPU  0 instructions:   65000001 cycles:   27883780 heartbeat IPC: 2.23228 cumulative IPC: 2.33110 (Simulation time: 0 hr 1 min 38 sec) 
Heartbeat CPU  0 instructions:   66000003 cycles:   28322210 heartbeat IPC: 2.28087 cumulative IPC: 2.33033 (Simulation time: 0 hr 1 min 39 sec) 
Heartbeat CPU  0 instructions:   67000000 cycles:   28721536 heartbeat IPC: 2.50421 cumulative IPC: 2.33274 (Simulation time: 0 hr 1 min 41 sec) 
Heartbeat CPU  0 instructions:   68000000 cycles:   29137702 heartbeat IPC: 2.40289 cumulative IPC: 2.33375 (Simulation time: 0 hr 1 min 42 sec) 
Heartbeat CPU  0 instructions:   69000001 cycles:   29579082 heartbeat IPC: 2.26562 cumulative IPC: 2.33273 (Simulation time: 0 hr 1 min 44 sec) 
Heartbeat CPU  0 instructions:   70000001 cycles:   30012578 heartbeat IPC: 2.30683 cumulative IPC: 2.33236 (Simulation time: 0 hr 1 min 45 sec) 
Heartbeat CPU  0 instructions:   71000003 cycles:   30437933 heartbeat IPC: 2.35098 cumulative IPC: 2.33262 (Simulation time: 0 hr 1 min 47 sec) 
Heartbeat CPU  0 instructions:   72000000 cycles:   30913585 heartbeat IPC: 2.10237 cumulative IPC: 2.32907 (Simulation time: 0 hr 1 min 48 sec) 
Heartbeat CPU  0 instructions:   73000001 cycles:   31310013 heartbeat IPC: 2.52253 cumulative IPC: 2.33152 (Simulation time: 0 hr 1 min 50 sec) 
Heartbeat CPU  0 instructions:   74000000 cycles:   31749846 heartbeat IPC: 2.27359 cumulative IPC: 2.33072 (Simulation time: 0 hr 1 min 51 sec) 
Heartbeat CPU  0 instructions:   75000003 cycles:   32201054 heartbeat IPC: 2.21628 cumulative IPC: 2.32912 (Simulation time: 0 hr 1 min 53 sec) 
Heartbeat CPU  0 instructions:   76000000 cycles:   32602023 heartbeat IPC: 2.49395 cumulative IPC: 2.33114 (Simulation time: 0 hr 1 min 54 sec) 
Heartbeat CPU  0 instructions:   77000001 cycles:   33018914 heartbeat IPC: 2.39871 cumulative IPC: 2.33200 (Simulation time: 0 hr 1 min 56 sec) 
Heartbeat CPU  0 instructions:   78000001 cycles:   33454065 heartbeat IPC: 2.29805 cumulative IPC: 2.33156 (Simulation time: 0 hr 1 min 57 sec) 
Heartbeat CPU  0 instructions:   79000000 cycles:   33900532 heartbeat IPC: 2.23980 cumulative IPC: 2.33035 (Simulation time: 0 hr 1 min 59 sec) 
Heartbeat CPU  0 instructions:   80000000 cycles:   34296586 heartbeat IPC: 2.52491 cumulative IPC: 2.33259 (Simulation time: 0 hr 2 min 0 sec) 
Heartbeat CPU  0 instructions:   81000003 cycles:   34714452 heartbeat IPC: 2.39312 cumulative IPC: 2.33332 (Simulation time: 0 hr 2 min 2 sec) 
Heartbeat CPU  0 instructions:   82000003 cycles:   35155770 heartbeat IPC: 2.26594 cumulative IPC: 2.33248 (Simulation time: 0 hr 2 min 3 sec) 
Heartbeat CPU  0 instructions:   83000000 cycles:   35590878 heartbeat IPC: 2.29827 cumulative IPC: 2.33206 (Simulation time: 0 hr 2 min 5 sec) 
Heartbeat CPU  0 instructions:   84000000 cycles:   35984287 heartbeat IPC: 2.54188 cumulative IPC: 2.33435 (Simulation time: 0 hr 2 min 6 sec) 
Heartbeat CPU  0 instructions:   85000000 cycles:   36424783 heartbeat IPC: 2.27017 cumulative IPC: 2.33358 (Simulation time: 0 hr 2 min 8 sec) 
Heartbeat CPU  0 instructions:   86000001 cycles:   36865580 heartbeat IPC: 2.26862 cumulative IPC: 2.33280 (Simulation time: 0 hr 2 min 9 sec) 
Heartbeat CPU  0 instructions:   87000002 cycles:   37276953 heartbeat IPC: 2.43089 cumulative IPC: 2.33388 (Simulation time: 0 hr 2 min 11 sec) 
Heartbeat CPU  0 instructions:   88000000 cycles:   37692949 heartbeat IPC: 2.40386 cumulative IPC: 2.33465 (Simulation time: 0 hr 2 min 12 sec) 
Heartbeat CPU  0 instructions:   89000001 cycles:   38129248 heartbeat IPC: 2.29201 cumulative IPC: 2.33417 (Simulation time: 0 hr 2 min 14 sec) 
Heartbeat CPU  0 instructions:   90000000 cycles:   38563896 heartbeat IPC: 2.30071 cumulative IPC: 2.33379 (Simulation time: 0 hr 2 min 16 sec) 
Heartbeat CPU  0 instructions:   91000000 cycles:   38969944 heartbeat IPC: 2.46276 cumulative IPC: 2.33513 (Simulation time: 0 hr 2 min 17 sec) 
Heartbeat CPU  0 instructions:   92000000 cycles:   39388424 heartbeat IPC: 2.38960 cumulative IPC: 2.33571 (Simulation time: 0 hr 2 min 18 sec) 
Heartbeat CPU  0 instructions:   93000000 cycles:   39821956 heartbeat IPC: 2.30663 cumulative IPC: 2.33540 (Simulation time: 0 hr 2 min 20 sec) 
Heartbeat CPU  0 instructions:   94000002 cycles:   40262114 heartbeat IPC: 2.27192 cumulative IPC: 2.33470 (Simulation time: 0 hr 2 min 22 sec) 
Heartbeat CPU  0 instructions:   95000000 cycles:   40654150 heartbeat IPC: 2.55078 cumulative IPC: 2.33678 (Simulation time: 0 hr 2 min 23 sec) 
Heartbeat CPU  0 instructions:   96000000 cycles:   41088062 heartbeat IPC: 2.30461 cumulative IPC: 2.33645 (Simulation time: 0 hr 2 min 25 sec) 
Heartbeat CPU  0 instructions:   97000001 cycles:   41550645 heartbeat IPC: 2.16178 cumulative IPC: 2.33450 (Simulation time: 0 hr 2 min 26 sec) 
Heartbeat CPU  0 instructions:   98000003 cycles:   41969776 heartbeat IPC: 2.38589 cumulative IPC: 2.33501 (Simulation time: 0 hr 2 min 28 sec) 
Heartbeat CPU  0 instructions:   99000001 cycles:   42412147 heartbeat IPC: 2.26054 cumulative IPC: 2.33424 (Simulation time: 0 hr 2 min 29 sec) 
Heartbeat CPU  0 instructions:  100000000 cycles:   42843344 heartbeat IPC: 2.31912 cumulative IPC: 2.33408 (Simulation time: 0 hr 2 min 31 sec) 

Warmup complete CPU  0 instructions:  100000001 cycles:   42843345 (Simulation time: 0 hr 2 min 31 sec) 

Heartbeat CPU  0 instructions:  101000001 cycles:   43519052 heartbeat IPC: 1.47993 cumulative IPC: 1.47993 (Simulation time: 0 hr 2 min 32 sec) 
Heartbeat CPU  0 instructions:  102000003 cycles:   44204639 heartbeat IPC: 1.45861 cumulative IPC: 1.46919 (Simulation time: 0 hr 2 min 34 sec) 
Heartbeat CPU  0 instructions:  103000003 cycles:   44887550 heartbeat IPC: 1.46432 cumulative IPC: 1.46756 (Simulation time: 0 hr 2 min 36 sec) 
Heartbeat CPU  0 instructions:  104000000 cycles:   45571916 heartbeat IPC: 1.46120 cumulative IPC: 1.46597 (Simulation time: 0 hr 2 min 38 sec) 
Heartbeat CPU  0 instructions:  105000001 cycles:   46260425 heartbeat IPC: 1.45242 cumulative IPC: 1.46324 (Simulation time: 0 hr 2 min 39 sec) 
Heartbeat CPU  0 instructions:  106000000 cycles:   46941177 heartbeat IPC: 1.46896 cumulative IPC: 1.46419 (Simulation time: 0 hr 2 min 41 sec) 
Heartbeat CPU  0 instructions:  107000001 cycles:   47622763 heartbeat IPC: 1.46717 cumulative IPC: 1.46461 (Simulation time: 0 hr 2 min 43 sec) 
Heartbeat CPU  0 instructions:  108000000 cycles:   48341724 heartbeat IPC: 1.39089 cumulative IPC: 1.45497 (Simulation time: 0 hr 2 min 44 sec) 
Heartbeat CPU  0 instructions:  109000001 cycles:   49022445 heartbeat IPC: 1.46903 cumulative IPC: 1.45652 (Simulation time: 0 hr 2 min 46 sec) 
Heartbeat CPU  0 instructions:  110000003 cycles:   49803360 heartbeat IPC: 1.28055 cumulative IPC: 1.43678 (Simulation time: 0 hr 2 min 48 sec) 
Heartbeat CPU  0 instructions:  111000000 cycles:   50656635 heartbeat IPC: 1.17195 cumulative IPC: 1.40786 (Simulation time: 0 hr 2 min 50 sec) 
Heartbeat CPU  0 instructions:  112000000 cycles:   51465031 heartbeat IPC: 1.23702 cumulative IPC: 1.39184 (Simulation time: 0 hr 2 min 52 sec) 
Heartbeat CPU  0 instructions:  113000003 cycles:   52168839 heartbeat IPC: 1.42085 cumulative IPC: 1.39403 (Simulation time: 0 hr 2 min 53 sec) 
Heartbeat CPU  0 instructions:  114000001 cycles:   52867355 heartbeat IPC: 1.43160 cumulative IPC: 1.39665 (Simulation time: 0 hr 2 min 55 sec) 
Heartbeat CPU  0 instructions:  115000002 cycles:   53585306 heartbeat IPC: 1.39285 cumulative IPC: 1.39639 (Simulation time: 0 hr 2 min 57 sec) 
Heartbeat CPU  0 instructions:  116000000 cycles:   54272527 heartbeat IPC: 1.45513 cumulative IPC: 1.39993 (Simulation time: 0 hr 2 min 58 sec) 
Heartbeat CPU  0 instructions:  117000000 cycles:   54941358 heartbeat IPC: 1.49515 cumulative IPC: 1.40519 (Simulation time: 0 hr 3 min 0 sec) 
Heartbeat CPU  0 instructions:  118000000 cycles:   55592152 heartbeat IPC: 1.53658 cumulative IPC: 1.41190 (Simulation time: 0 hr 3 min 2 sec) 
Heartbeat CPU  0 instructions:  119000002 cycles:   56317539 heartbeat IPC: 1.37858 cumulative IPC: 1.41010 (Simulation time: 0 hr 3 min 4 sec) 
Heartbeat CPU  0 instructions:  120000000 cycles:   56996078 heartbeat IPC: 1.47375 cumulative IPC: 1.41315 (Simulation time: 0 hr 3 min 5 sec) 
Heartbeat CPU  0 instructions:  121000002 cycles:   57665094 heartbeat IPC: 1.49474 cumulative IPC: 1.41684 (Simulation time: 0 hr 3 min 7 sec) 
Heartbeat CPU  0 instructions:  122000000 cycles:   58340805 heartbeat IPC: 1.47992 cumulative IPC: 1.41959 (Simulation time: 0 hr 3 min 9 sec) 
Heartbeat CPU  0 instructions:  123000002 cycles:   59069846 heartbeat IPC: 1.37167 cumulative IPC: 1.41743 (Simulation time: 0 hr 3 min 11 sec) 
Heartbeat CPU  0 instructions:  124000000 cycles:   59813259 heartbeat IPC: 1.34514 cumulative IPC: 1.41427 (Simulation time: 0 hr 3 min 12 sec) 
Heartbeat CPU  0 instructions:  125000000 cycles:   60488844 heartbeat IPC: 1.48020 cumulative IPC: 1.41679 (Simulation time: 0 hr 3 min 14 sec) 
Heartbeat CPU  0 instructions:  126000000 cycles:   61199530 heartbeat IPC: 1.40709 cumulative IPC: 1.41642 (Simulation time: 0 hr 3 min 16 sec) 
Heartbeat CPU  0 instructions:  127000003 cycles:   61923212 heartbeat IPC: 1.38183 cumulative IPC: 1.41510 (Simulation time: 0 hr 3 min 18 sec) 
Heartbeat CPU  0 instructions:  128000000 cycles:   62596511 heartbeat IPC: 1.48522 cumulative IPC: 1.41749 (Simulation time: 0 hr 3 min 19 sec) 
Heartbeat CPU  0 instructions:  129000001 cycles:   63242901 heartbeat IPC: 1.54706 cumulative IPC: 1.42160 (Simulation time: 0 hr 3 min 21 sec) 
Heartbeat CPU  0 instructions:  130000001 cycles:   63934470 heartbeat IPC: 1.44599 cumulative IPC: 1.42240 (Simulation time: 0 hr 3 min 23 sec) 
Heartbeat CPU  0 instructions:  131000002 cycles:   64653429 heartbeat IPC: 1.39090 cumulative IPC: 1.42136 (Simulation time: 0 hr 3 min 25 sec) 
Heartbeat CPU  0 instructions:  132000000 cycles:   65316559 heartbeat IPC: 1.50800 cumulative IPC: 1.42392 (Simulation time: 0 hr 3 min 26 sec) 
Heartbeat CPU  0 instructions:  133000003 cycles:   65968908 heartbeat IPC: 1.53293 cumulative IPC: 1.42699 (Simulation time: 0 hr 3 min 28 sec) 
Heartbeat CPU  0 instructions:  134000001 cycles:   66701844 heartbeat IPC: 1.36437 cumulative IPC: 1.42507 (Simulation time: 0 hr 3 min 30 sec) 
Heartbeat CPU  0 instructions:  135000001 cycles:   67414013 heartbeat IPC: 1.40416 cumulative IPC: 1.42446 (Simulation time: 0 hr 3 min 32 sec) 
Heartbeat CPU  0 instructions:  136000000 cycles:   68164613 heartbeat IPC: 1.33227 cumulative IPC: 1.42173 (Simulation time: 0 hr 3 min 33 sec) 
Heartbeat CPU  0 instructions:  137000003 cycles:   69056747 heartbeat IPC: 1.12091 cumulative IPC: 1.41149 (Simulation time: 0 hr 3 min 35 sec) 
Heartbeat CPU  0 instructions:  138000002 cycles:   69772738 heartbeat IPC: 1.39666 cumulative IPC: 1.41110 (Simulation time: 0 hr 3 min 37 sec) 
Heartbeat CPU  0 instructions:  139000002 cycles:   70435189 heartbeat IPC: 1.50955 cumulative IPC: 1.41346 (Simulation time: 0 hr 3 min 39 sec) 
Heartbeat CPU  0 instructions:  140000000 cycles:   71193570 heartbeat IPC: 1.31860 cumulative IPC: 1.41092 (Simulation time: 0 hr 3 min 40 sec) 
Heartbeat CPU  0 instructions:  141000001 cycles:   71883020 heartbeat IPC: 1.45043 cumulative IPC: 1.41186 (Simulation time: 0 hr 3 min 42 sec) 
Heartbeat CPU  0 instructions:  142000001 cycles:   72545793 heartbeat IPC: 1.50881 cumulative IPC: 1.41402 (Simulation time: 0 hr 3 min 44 sec) 
Heartbeat CPU  0 instructions:  143000002 cycles:   73205221 heartbeat IPC: 1.51647 cumulative IPC: 1.41625 (Simulation time: 0 hr 3 min 46 sec) 
Heartbeat CPU  0 instructions:  144000000 cycles:   73917864 heartbeat IPC: 1.40322 cumulative IPC: 1.41595 (Simulation time: 0 hr 3 min 47 sec) 
Heartbeat CPU  0 instructions:  145000003 cycles:   74608092 heartbeat IPC: 1.44880 cumulative IPC: 1.41666 (Simulation time: 0 hr 3 min 49 sec) 
Heartbeat CPU  0 instructions:  146000000 cycles:   75265302 heartbeat IPC: 1.52158 cumulative IPC: 1.41879 (Simulation time: 0 hr 3 min 51 sec) 
Heartbeat CPU  0 instructions:  147000003 cycles:   75953850 heartbeat IPC: 1.45234 cumulative IPC: 1.41949 (Simulation time: 0 hr 3 min 52 sec) 
Heartbeat CPU  0 instructions:  148000000 cycles:   76661548 heartbeat IPC: 1.41303 cumulative IPC: 1.41935 (Simulation time: 0 hr 3 min 54 sec) 
Heartbeat CPU  0 instructions:  149000001 cycles:   77400780 heartbeat IPC: 1.35276 cumulative IPC: 1.41793 (Simulation time: 0 hr 3 min 56 sec) 
Heartbeat CPU  0 instructions:  150000003 cycles:   78221088 heartbeat IPC: 1.21906 cumulative IPC: 1.41332 (Simulation time: 0 hr 3 min 58 sec) 
Heartbeat CPU  0 instructions:  151000000 cycles:   79031183 heartbeat IPC: 1.23442 cumulative IPC: 1.40931 (Simulation time: 0 hr 4 min 0 sec) 
Heartbeat CPU  0 instructions:  152000000 cycles:   79773493 heartbeat IPC: 1.34715 cumulative IPC: 1.40806 (Simulation time: 0 hr 4 min 1 sec) 
Heartbeat CPU  0 instructions:  153000001 cycles:   80538945 heartbeat IPC: 1.30642 cumulative IPC: 1.40600 (Simulation time: 0 hr 4 min 3 sec) 
Heartbeat CPU  0 instructions:  154000000 cycles:   81302978 heartbeat IPC: 1.30884 cumulative IPC: 1.40407 (Simulation time: 0 hr 4 min 5 sec) 
Heartbeat CPU  0 instructions:  155000000 cycles:   82078966 heartbeat IPC: 1.28868 cumulative IPC: 1.40179 (Simulation time: 0 hr 4 min 7 sec) 
Heartbeat CPU  0 instructions:  156000000 cycles:   82990274 heartbeat IPC: 1.09732 cumulative IPC: 1.39488 (Simulation time: 0 hr 4 min 8 sec) 
Heartbeat CPU  0 instructions:  157000002 cycles:   83714155 heartbeat IPC: 1.38145 cumulative IPC: 1.39464 (Simulation time: 0 hr 4 min 10 sec) 
Heartbeat CPU  0 instructions:  158000001 cycles:   84584563 heartbeat IPC: 1.14889 cumulative IPC: 1.38951 (Simulation time: 0 hr 4 min 12 sec) 
Heartbeat CPU  0 instructions:  159000001 cycles:   85330897 heartbeat IPC: 1.33988 cumulative IPC: 1.38864 (Simulation time: 0 hr 4 min 14 sec) 
Heartbeat CPU  0 instructions:  160000000 cycles:   86025899 heartbeat IPC: 1.43884 cumulative IPC: 1.38945 (Simulation time: 0 hr 4 min 15 sec) 
Heartbeat CPU  0 instructions:  161000001 cycles:   86744808 heartbeat IPC: 1.39100 cumulative IPC: 1.38948 (Simulation time: 0 hr 4 min 17 sec) 
Heartbeat CPU  0 instructions:  162000003 cycles:   87470311 heartbeat IPC: 1.37836 cumulative IPC: 1.38929 (Simulation time: 0 hr 4 min 19 sec) 
Heartbeat CPU  0 instructions:  163000000 cycles:   88140787 heartbeat IPC: 1.49147 cumulative IPC: 1.39081 (Simulation time: 0 hr 4 min 21 sec) 
Heartbeat CPU  0 instructions:  164000000 cycles:   88850292 heartbeat IPC: 1.40943 cumulative IPC: 1.39109 (Simulation time: 0 hr 4 min 22 sec) 
Heartbeat CPU  0 instructions:  165000001 cycles:   89541147 heartbeat IPC: 1.44748 cumulative IPC: 1.39193 (Simulation time: 0 hr 4 min 24 sec) 
Heartbeat CPU  0 instructions:  166000001 cycles:   90214585 heartbeat IPC: 1.48492 cumulative IPC: 1.39325 (Simulation time: 0 hr 4 min 26 sec) 
Heartbeat CPU  0 instructions:  167000002 cycles:   90936776 heartbeat IPC: 1.38468 cumulative IPC: 1.39312 (Simulation time: 0 hr 4 min 28 sec) 
Heartbeat CPU  0 instructions:  168000000 cycles:   91685678 heartbeat IPC: 1.33529 cumulative IPC: 1.39223 (Simulation time: 0 hr 4 min 29 sec) 
Heartbeat CPU  0 instructions:  169000000 cycles:   92413778 heartbeat IPC: 1.37344 cumulative IPC: 1.39196 (Simulation time: 0 hr 4 min 31 sec) 
Heartbeat CPU  0 instructions:  170000001 cycles:   93087985 heartbeat IPC: 1.48323 cumulative IPC: 1.39318 (Simulation time: 0 hr 4 min 33 sec) 
Heartbeat CPU  0 instructions:  171000000 cycles:   93834573 heartbeat IPC: 1.33943 cumulative IPC: 1.39240 (Simulation time: 0 hr 4 min 35 sec) 
Heartbeat CPU  0 instructions:  172000000 cycles:   94568968 heartbeat IPC: 1.36167 cumulative IPC: 1.39196 (Simulation time: 0 hr 4 min 36 sec) 
Heartbeat CPU  0 instructions:  173000001 cycles:   95256609 heartbeat IPC: 1.45425 cumulative IPC: 1.39278 (Simulation time: 0 hr 4 min 38 sec) 
Heartbeat CPU  0 instructions:  174000000 cycles:   95991734 heartbeat IPC: 1.36031 cumulative IPC: 1.39233 (Simulation time: 0 hr 4 min 40 sec) 
Heartbeat CPU  0 instructions:  175000000 cycles:   96692747 heartbeat IPC: 1.42651 cumulative IPC: 1.39277 (Simulation time: 0 hr 4 min 42 sec) 
Heartbeat CPU  0 instructions:  176000000 cycles:   97413529 heartbeat IPC: 1.38738 cumulative IPC: 1.39270 (Simulation time: 0 hr 4 min 43 sec) 
Heartbeat CPU  0 instructions:  177000002 cycles:   98191092 heartbeat IPC: 1.28607 cumulative IPC: 1.39120 (Simulation time: 0 hr 4 min 45 sec) 
Heartbeat CPU  0 instructions:  178000001 cycles:   98988658 heartbeat IPC: 1.25381 cumulative IPC: 1.38925 (Simulation time: 0 hr 4 min 47 sec) 
Heartbeat CPU  0 instructions:  179000003 cycles:   99732848 heartbeat IPC: 1.34375 cumulative IPC: 1.38866 (Simulation time: 0 hr 4 min 49 sec) 
Heartbeat CPU  0 instructions:  180000000 cycles:  100505404 heartbeat IPC: 1.29440 cumulative IPC: 1.38739 (Simulation time: 0 hr 4 min 50 sec) 
Heartbeat CPU  0 instructions:  181000000 cycles:  101275743 heartbeat IPC: 1.29813 cumulative IPC: 1.38622 (Simulation time: 0 hr 4 min 52 sec) 
Heartbeat CPU  0 instructions:  182000003 cycles:  102044177 heartbeat IPC: 1.30135 cumulative IPC: 1.38512 (Simulation time: 0 hr 4 min 54 sec) 
Heartbeat CPU  0 instructions:  183000002 cycles:  102838724 heartbeat IPC: 1.25858 cumulative IPC: 1.38344 (Simulation time: 0 hr 4 min 56 sec) 
Heartbeat CPU  0 instructions:  184000000 cycles:  103537335 heartbeat IPC: 1.43141 cumulative IPC: 1.38399 (Simulation time: 0 hr 4 min 57 sec) 
Heartbeat CPU  0 instructions:  185000002 cycles:  104272294 heartbeat IPC: 1.36062 cumulative IPC: 1.38371 (Simulation time: 0 hr 4 min 59 sec) 
Heartbeat CPU  0 instructions:  186000000 cycles:  104970456 heartbeat IPC: 1.43233 cumulative IPC: 1.38426 (Simulation time: 0 hr 5 min 1 sec) 
Heartbeat CPU  0 instructions:  187000001 cycles:  105662421 heartbeat IPC: 1.44516 cumulative IPC: 1.38493 (Simulation time: 0 hr 5 min 3 sec) 
Heartbeat CPU  0 instructions:  188000000 cycles:  106470700 heartbeat IPC: 1.23720 cumulative IPC: 1.38305 (Simulation time: 0 hr 5 min 5 sec) 
Heartbeat CPU  0 instructions:  189000000 cycles:  107265414 heartbeat IPC: 1.25831 cumulative IPC: 1.38151 (Simulation time: 0 hr 5 min 6 sec) 
Heartbeat CPU  0 instructions:  190000000 cycles:  108012537 heartbeat IPC: 1.33847 cumulative IPC: 1.38102 (Simulation time: 0 hr 5 min 8 sec) 
Heartbeat CPU  0 instructions:  191000003 cycles:  108781975 heartbeat IPC: 1.29965 cumulative IPC: 1.38007 (Simulation time: 0 hr 5 min 10 sec) 
Heartbeat CPU  0 instructions:  192000000 cycles:  109519076 heartbeat IPC: 1.35666 cumulative IPC: 1.37981 (Simulation time: 0 hr 5 min 12 sec) 
Heartbeat CPU  0 instructions:  193000000 cycles:  110316239 heartbeat IPC: 1.25445 cumulative IPC: 1.37833 (Simulation time: 0 hr 5 min 13 sec) 
Heartbeat CPU  0 instructions:  194000001 cycles:  111120768 heartbeat IPC: 1.24296 cumulative IPC: 1.37674 (Simulation time: 0 hr 5 min 15 sec) 
Heartbeat CPU  0 instructions:  195000001 cycles:  111817192 heartbeat IPC: 1.43591 cumulative IPC: 1.37733 (Simulation time: 0 hr 5 min 17 sec) 
Heartbeat CPU  0 instructions:  196000000 cycles:  112622040 heartbeat IPC: 1.24247 cumulative IPC: 1.37578 (Simulation time: 0 hr 5 min 19 sec) 
Heartbeat CPU  0 instructions:  197000001 cycles:  113381672 heartbeat IPC: 1.31643 cumulative IPC: 1.37514 (Simulation time: 0 hr 5 min 20 sec) 
Heartbeat CPU  0 instructions:  198000002 cycles:  114187233 heartbeat IPC: 1.24137 cumulative IPC: 1.37363 (Simulation time: 0 hr 5 min 22 sec) 
Heartbeat CPU  0 instructions:  199000002 cycles:  115051763 heartbeat IPC: 1.15670 cumulative IPC: 1.37103 (Simulation time: 0 hr 5 min 24 sec) 
Heartbeat CPU  0 instructions:  200000000 cycles:  115838333 heartbeat IPC: 1.27134 cumulative IPC: 1.36996 (Simulation time: 0 hr 5 min 26 sec) 
Heartbeat CPU  0 instructions:  201000000 cycles:  116685530 heartbeat IPC: 1.18036 cumulative IPC: 1.36778 (Simulation time: 0 hr 5 min 28 sec) 
Heartbeat CPU  0 instructions:  202000000 cycles:  117462731 heartbeat IPC: 1.28667 cumulative IPC: 1.36694 (Simulation time: 0 hr 5 min 29 sec) 
Heartbeat CPU  0 instructions:  203000000 cycles:  118348952 heartbeat IPC: 1.12839 cumulative IPC: 1.36414 (Simulation time: 0 hr 5 min 31 sec) 
Heartbeat CPU  0 instructions:  204000000 cycles:  119137053 heartbeat IPC: 1.26887 cumulative IPC: 1.36315 (Simulation time: 0 hr 5 min 33 sec) 
Heartbeat CPU  0 instructions:  205000001 cycles:  119989022 heartbeat IPC: 1.17375 cumulative IPC: 1.36106 (Simulation time: 0 hr 5 min 35 sec) 
Heartbeat CPU  0 instructions:  206000003 cycles:  120758063 heartbeat IPC: 1.30032 cumulative IPC: 1.36046 (Simulation time: 0 hr 5 min 37 sec) 
Heartbeat CPU  0 instructions:  207000003 cycles:  121506057 heartbeat IPC: 1.33691 cumulative IPC: 1.36024 (Simulation time: 0 hr 5 min 38 sec) 
Heartbeat CPU  0 instructions:  208000000 cycles:  122249983 heartbeat IPC: 1.34422 cumulative IPC: 1.36009 (Simulation time: 0 hr 5 min 40 sec) 
Heartbeat CPU  0 instructions:  209000001 cycles:  123034418 heartbeat IPC: 1.27480 cumulative IPC: 1.35925 (Simulation time: 0 hr 5 min 42 sec) 
Heartbeat CPU  0 instructions:  210000003 cycles:  123893976 heartbeat IPC: 1.16339 cumulative IPC: 1.35718 (Simulation time: 0 hr 5 min 44 sec) 
Heartbeat CPU  0 instructions:  211000001 cycles:  124636944 heartbeat IPC: 1.34595 cumulative IPC: 1.35707 (Simulation time: 0 hr 5 min 46 sec) 
Heartbeat CPU  0 instructions:  212000000 cycles:  125351296 heartbeat IPC: 1.39987 cumulative IPC: 1.35744 (Simulation time: 0 hr 5 min 47 sec) 
Heartbeat CPU  0 instructions:  213000000 cycles:  126154583 heartbeat IPC: 1.24489 cumulative IPC: 1.35636 (Simulation time: 0 hr 5 min 49 sec) 
Heartbeat CPU  0 instructions:  214000000 cycles:  126928805 heartbeat IPC: 1.29162 cumulative IPC: 1.35576 (Simulation time: 0 hr 5 min 51 sec) 
Heartbeat CPU  0 instructions:  215000001 cycles:  127767853 heartbeat IPC: 1.19183 cumulative IPC: 1.35414 (Simulation time: 0 hr 5 min 53 sec) 
Heartbeat CPU  0 instructions:  216000000 cycles:  128557961 heartbeat IPC: 1.26565 cumulative IPC: 1.35333 (Simulation time: 0 hr 5 min 54 sec) 
Heartbeat CPU  0 instructions:  217000003 cycles:  129438184 heartbeat IPC: 1.13608 cumulative IPC: 1.35112 (Simulation time: 0 hr 5 min 56 sec) 
Heartbeat CPU  0 instructions:  218000002 cycles:  130209860 heartbeat IPC: 1.29588 cumulative IPC: 1.35063 (Simulation time: 0 hr 5 min 58 sec) 
Heartbeat CPU  0 instructions:  219000001 cycles:  130926701 heartbeat IPC: 1.39501 cumulative IPC: 1.35099 (Simulation time: 0 hr 6 min 0 sec) 
Heartbeat CPU  0 instructions:  220000000 cycles:  131633539 heartbeat IPC: 1.41475 cumulative IPC: 1.35150 (Simulation time: 0 hr 6 min 2 sec) 
Heartbeat CPU  0 instructions:  221000000 cycles:  132304421 heartbeat IPC: 1.49058 cumulative IPC: 1.35254 (Simulation time: 0 hr 6 min 3 sec) 
Heartbeat CPU  0 instructions:  222000003 cycles:  133124720 heartbeat IPC: 1.21907 cumulative IPC: 1.35133 (Simulation time: 0 hr 6 min 5 sec) 
Heartbeat CPU  0 instructions:  223000002 cycles:  133831748 heartbeat IPC: 1.41437 cumulative IPC: 1.35182 (Simulation time: 0 hr 6 min 7 sec) 
Heartbeat CPU  0 instructions:  224000000 cycles:  134512426 heartbeat IPC: 1.46912 cumulative IPC: 1.35269 (Simulation time: 0 hr 6 min 9 sec) 
Heartbeat CPU  0 instructions:  225000000 cycles:  135221979 heartbeat IPC: 1.40934 cumulative IPC: 1.35313 (Simulation time: 0 hr 6 min 10 sec) 
Heartbeat CPU  0 instructions:  226000001 cycles:  136026405 heartbeat IPC: 1.24312 cumulative IPC: 1.35218 (Simulation time: 0 hr 6 min 12 sec) 
Heartbeat CPU  0 instructions:  227000002 cycles:  136705328 heartbeat IPC: 1.47292 cumulative IPC: 1.35305 (Simulation time: 0 hr 6 min 14 sec) 
Heartbeat CPU  0 instructions:  228000000 cycles:  137428261 heartbeat IPC: 1.38325 cumulative IPC: 1.35328 (Simulation time: 0 hr 6 min 16 sec) 
Heartbeat CPU  0 instructions:  229000000 cycles:  138131999 heartbeat IPC: 1.42098 cumulative IPC: 1.35378 (Simulation time: 0 hr 6 min 17 sec) 
Heartbeat CPU  0 instructions:  230000002 cycles:  138836174 heartbeat IPC: 1.42010 cumulative IPC: 1.35427 (Simulation time: 0 hr 6 min 19 sec) 
Heartbeat CPU  0 instructions:  231000000 cycles:  139613557 heartbeat IPC: 1.28636 cumulative IPC: 1.35372 (Simulation time: 0 hr 6 min 21 sec) 
Heartbeat CPU  0 instructions:  232000000 cycles:  140330478 heartbeat IPC: 1.39485 cumulative IPC: 1.35402 (Simulation time: 0 hr 6 min 23 sec) 
Heartbeat CPU  0 instructions:  233000001 cycles:  141017214 heartbeat IPC: 1.45617 cumulative IPC: 1.35474 (Simulation time: 0 hr 6 min 24 sec) 
Heartbeat CPU  0 instructions:  234000003 cycles:  141747488 heartbeat IPC: 1.36935 cumulative IPC: 1.35485 (Simulation time: 0 hr 6 min 26 sec) 
Heartbeat CPU  0 instructions:  235000002 cycles:  142522811 heartbeat IPC: 1.28978 cumulative IPC: 1.35434 (Simulation time: 0 hr 6 min 28 sec) 
Heartbeat CPU  0 instructions:  236000000 cycles:  143221132 heartbeat IPC: 1.43200 cumulative IPC: 1.35488 (Simulation time: 0 hr 6 min 29 sec) 
Heartbeat CPU  0 instructions:  237000002 cycles:  143903790 heartbeat IPC: 1.46487 cumulative IPC: 1.35562 (Simulation time: 0 hr 6 min 31 sec) 
Heartbeat CPU  0 instructions:  238000000 cycles:  144655216 heartbeat IPC: 1.33080 cumulative IPC: 1.35544 (Simulation time: 0 hr 6 min 33 sec) 
Heartbeat CPU  0 instructions:  239000000 cycles:  145406141 heartbeat IPC: 1.33169 cumulative IPC: 1.35527 (Simulation time: 0 hr 6 min 35 sec) 
Heartbeat CPU  0 instructions:  240000000 cycles:  146095816 heartbeat IPC: 1.44996 cumulative IPC: 1.35590 (Simulation time: 0 hr 6 min 36 sec) 
Heartbeat CPU  0 instructions:  241000002 cycles:  146809561 heartbeat IPC: 1.40106 cumulative IPC: 1.35621 (Simulation time: 0 hr 6 min 38 sec) 
Heartbeat CPU  0 instructions:  242000002 cycles:  147546677 heartbeat IPC: 1.35664 cumulative IPC: 1.35621 (Simulation time: 0 hr 6 min 40 sec) 
Heartbeat CPU  0 instructions:  243000002 cycles:  148289596 heartbeat IPC: 1.34604 cumulative IPC: 1.35614 (Simulation time: 0 hr 6 min 42 sec) 
Heartbeat CPU  0 instructions:  244000000 cycles:  149009210 heartbeat IPC: 1.38963 cumulative IPC: 1.35637 (Simulation time: 0 hr 6 min 44 sec) 
Heartbeat CPU  0 instructions:  245000000 cycles:  149710025 heartbeat IPC: 1.42691 cumulative IPC: 1.35683 (Simulation time: 0 hr 6 min 45 sec) 
Heartbeat CPU  0 instructions:  246000000 cycles:  150375970 heartbeat IPC: 1.50163 cumulative IPC: 1.35773 (Simulation time: 0 hr 6 min 47 sec) 
Heartbeat CPU  0 instructions:  247000001 cycles:  151115746 heartbeat IPC: 1.35176 cumulative IPC: 1.35769 (Simulation time: 0 hr 6 min 49 sec) 
Heartbeat CPU  0 instructions:  248000000 cycles:  151932119 heartbeat IPC: 1.22493 cumulative IPC: 1.35669 (Simulation time: 0 hr 6 min 50 sec) 
Heartbeat CPU  0 instructions:  249000000 cycles:  152611172 heartbeat IPC: 1.47264 cumulative IPC: 1.35741 (Simulation time: 0 hr 6 min 52 sec) 
Heartbeat CPU  0 instructions:  250000001 cycles:  153331154 heartbeat IPC: 1.38892 cumulative IPC: 1.35762 (Simulation time: 0 hr 6 min 54 sec) 
Heartbeat CPU  0 instructions:  251000000 cycles:  154028244 heartbeat IPC: 1.43453 cumulative IPC: 1.35810 (Simulation time: 0 hr 6 min 56 sec) 
Heartbeat CPU  0 instructions:  252000000 cycles:  154718373 heartbeat IPC: 1.44900 cumulative IPC: 1.35866 (Simulation time: 0 hr 6 min 57 sec) 
Heartbeat CPU  0 instructions:  253000002 cycles:  155556234 heartbeat IPC: 1.19352 cumulative IPC: 1.35743 (Simulation time: 0 hr 6 min 59 sec) 
Heartbeat CPU  0 instructions:  254000002 cycles:  156260001 heartbeat IPC: 1.42092 cumulative IPC: 1.35783 (Simulation time: 0 hr 7 min 1 sec) 
Heartbeat CPU  0 instructions:  255000000 cycles:  156935693 heartbeat IPC: 1.47996 cumulative IPC: 1.35855 (Simulation time: 0 hr 7 min 3 sec) 
Heartbeat CPU  0 instructions:  256000000 cycles:  157744017 heartbeat IPC: 1.23713 cumulative IPC: 1.35769 (Simulation time: 0 hr 7 min 5 sec) 
Heartbeat CPU  0 instructions:  257000000 cycles:  158447470 heartbeat IPC: 1.42156 cumulative IPC: 1.35808 (Simulation time: 0 hr 7 min 6 sec) 
Heartbeat CPU  0 instructions:  258000002 cycles:  159122352 heartbeat IPC: 1.48174 cumulative IPC: 1.35880 (Simulation time: 0 hr 7 min 8 sec) 
Heartbeat CPU  0 instructions:  259000000 cycles:  159935236 heartbeat IPC: 1.23019 cumulative IPC: 1.35791 (Simulation time: 0 hr 7 min 10 sec) 
Heartbeat CPU  0 instructions:  260000000 cycles:  160640666 heartbeat IPC: 1.41758 cumulative IPC: 1.35827 (Simulation time: 0 hr 7 min 12 sec) 
Heartbeat CPU  0 instructions:  261000002 cycles:  161318202 heartbeat IPC: 1.47594 cumulative IPC: 1.35894 (Simulation time: 0 hr 7 min 13 sec) 
Heartbeat CPU  0 instructions:  262000000 cycles:  162126078 heartbeat IPC: 1.23781 cumulative IPC: 1.35812 (Simulation time: 0 hr 7 min 15 sec) 
Heartbeat CPU  0 instructions:  263000002 cycles:  162828353 heartbeat IPC: 1.42395 cumulative IPC: 1.35850 (Simulation time: 0 hr 7 min 17 sec) 
Heartbeat CPU  0 instructions:  264000000 cycles:  163502845 heartbeat IPC: 1.48259 cumulative IPC: 1.35920 (Simulation time: 0 hr 7 min 19 sec) 
Heartbeat CPU  0 instructions:  265000000 cycles:  164315186 heartbeat IPC: 1.23101 cumulative IPC: 1.35834 (Simulation time: 0 hr 7 min 20 sec) 
Heartbeat CPU  0 instructions:  266000000 cycles:  165017938 heartbeat IPC: 1.42298 cumulative IPC: 1.35871 (Simulation time: 0 hr 7 min 22 sec) 
Heartbeat CPU  0 instructions:  267000002 cycles:  165692509 heartbeat IPC: 1.48243 cumulative IPC: 1.35939 (Simulation time: 0 hr 7 min 24 sec) 
Heartbeat CPU  0 instructions:  268000000 cycles:  166498342 heartbeat IPC: 1.24095 cumulative IPC: 1.35862 (Simulation time: 0 hr 7 min 26 sec) 
Heartbeat CPU  0 instructions:  269000002 cycles:  167201699 heartbeat IPC: 1.42176 cumulative IPC: 1.35898 (Simulation time: 0 hr 7 min 27 sec) 
Heartbeat CPU  0 instructions:  270000002 cycles:  167876212 heartbeat IPC: 1.48255 cumulative IPC: 1.35964 (Simulation time: 0 hr 7 min 29 sec) 
Heartbeat CPU  0 instructions:  271000000 cycles:  168688154 heartbeat IPC: 1.23161 cumulative IPC: 1.35882 (Simulation time: 0 hr 7 min 31 sec) 
Heartbeat CPU  0 instructions:  272000000 cycles:  169391276 heartbeat IPC: 1.42223 cumulative IPC: 1.35917 (Simulation time: 0 hr 7 min 33 sec) 
Heartbeat CPU  0 instructions:  273000002 cycles:  170065593 heartbeat IPC: 1.48299 cumulative IPC: 1.35983 (Simulation time: 0 hr 7 min 34 sec) 
Heartbeat CPU  0 instructions:  274000002 cycles:  170875774 heartbeat IPC: 1.23429 cumulative IPC: 1.35903 (Simulation time: 0 hr 7 min 36 sec) 
Heartbeat CPU  0 instructions:  275000000 cycles:  171579217 heartbeat IPC: 1.42158 cumulative IPC: 1.35937 (Simulation time: 0 hr 7 min 38 sec) 
Heartbeat CPU  0 instructions:  276000000 cycles:  172253724 heartbeat IPC: 1.48256 cumulative IPC: 1.36001 (Simulation time: 0 hr 7 min 40 sec) 
Heartbeat CPU  0 instructions:  277000003 cycles:  173064919 heartbeat IPC: 1.23275 cumulative IPC: 1.35922 (Simulation time: 0 hr 7 min 41 sec) 
Heartbeat CPU  0 instructions:  278000002 cycles:  173772460 heartbeat IPC: 1.41334 cumulative IPC: 1.35951 (Simulation time: 0 hr 7 min 43 sec) 
Heartbeat CPU  0 instructions:  279000001 cycles:  174444219 heartbeat IPC: 1.48863 cumulative IPC: 1.36017 (Simulation time: 0 hr 7 min 45 sec) 
Heartbeat CPU  0 instructions:  280000000 cycles:  175254946 heartbeat IPC: 1.23346 cumulative IPC: 1.35940 (Simulation time: 0 hr 7 min 47 sec) 
Heartbeat CPU  0 instructions:  281000000 cycles:  175958893 heartbeat IPC: 1.42056 cumulative IPC: 1.35972 (Simulation time: 0 hr 7 min 48 sec) 
Heartbeat CPU  0 instructions:  282000002 cycles:  176633303 heartbeat IPC: 1.48278 cumulative IPC: 1.36034 (Simulation time: 0 hr 7 min 50 sec) 
Heartbeat CPU  0 instructions:  283000002 cycles:  177443983 heartbeat IPC: 1.23353 cumulative IPC: 1.35958 (Simulation time: 0 hr 7 min 52 sec) 
Heartbeat CPU  0 instructions:  284000000 cycles:  178147270 heartbeat IPC: 1.42189 cumulative IPC: 1.35990 (Simulation time: 0 hr 7 min 54 sec) 
Heartbeat CPU  0 instructions:  285000000 cycles:  178822527 heartbeat IPC: 1.48092 cumulative IPC: 1.36050 (Simulation time: 0 hr 7 min 55 sec) 
Heartbeat CPU  0 instructions:  286000000 cycles:  179632732 heartbeat IPC: 1.23426 cumulative IPC: 1.35975 (Simulation time: 0 hr 7 min 57 sec) 
Heartbeat CPU  0 instructions:  287000000 cycles:  180339313 heartbeat IPC: 1.41527 cumulative IPC: 1.36004 (Simulation time: 0 hr 7 min 59 sec) 
Heartbeat CPU  0 instructions:  288000000 cycles:  181012948 heartbeat IPC: 1.48448 cumulative IPC: 1.36065 (Simulation time: 0 hr 8 min 1 sec) 
Heartbeat CPU  0 instructions:  289000003 cycles:  181825211 heartbeat IPC: 1.23113 cumulative IPC: 1.35989 (Simulation time: 0 hr 8 min 2 sec) 
Heartbeat CPU  0 instructions:  290000002 cycles:  182533588 heartbeat IPC: 1.41168 cumulative IPC: 1.36015 (Simulation time: 0 hr 8 min 4 sec) 
Heartbeat CPU  0 instructions:  291000001 cycles:  183201114 heartbeat IPC: 1.49807 cumulative IPC: 1.36081 (Simulation time: 0 hr 8 min 6 sec) 
Heartbeat CPU  0 instructions:  292000000 cycles:  183952362 heartbeat IPC: 1.33112 cumulative IPC: 1.36065 (Simulation time: 0 hr 8 min 8 sec) 
Heartbeat CPU  0 instructions:  293000001 cycles:  184668276 heartbeat IPC: 1.39682 cumulative IPC: 1.36083 (Simulation time: 0 hr 8 min 10 sec) 
Heartbeat CPU  0 instructions:  294000001 cycles:  185348468 heartbeat IPC: 1.47017 cumulative IPC: 1.36135 (Simulation time: 0 hr 8 min 11 sec) 
Heartbeat CPU  0 instructions:  295000002 cycles:  186071777 heartbeat IPC: 1.38254 cumulative IPC: 1.36146 (Simulation time: 0 hr 8 min 13 sec) 
Heartbeat CPU  0 instructions:  296000000 cycles:  186789782 heartbeat IPC: 1.39275 cumulative IPC: 1.36162 (Simulation time: 0 hr 8 min 15 sec) 
Heartbeat CPU  0 instructions:  297000001 cycles:  187478946 heartbeat IPC: 1.45103 cumulative IPC: 1.36204 (Simulation time: 0 hr 8 min 16 sec) 
Heartbeat CPU  0 instructions:  298000000 cycles:  188200244 heartbeat IPC: 1.38639 cumulative IPC: 1.36216 (Simulation time: 0 hr 8 min 18 sec) 
Heartbeat CPU  0 instructions:  299000000 cycles:  188921669 heartbeat IPC: 1.38615 cumulative IPC: 1.36228 (Simulation time: 0 hr 8 min 20 sec) 
Heartbeat CPU  0 instructions:  300000000 cycles:  189616702 heartbeat IPC: 1.43878 cumulative IPC: 1.36265 (Simulation time: 0 hr 8 min 22 sec) 
Heartbeat CPU  0 instructions:  301000003 cycles:  190324054 heartbeat IPC: 1.41373 cumulative IPC: 1.36289 (Simulation time: 0 hr 8 min 23 sec) 
Heartbeat CPU  0 instructions:  302000003 cycles:  191042759 heartbeat IPC: 1.39139 cumulative IPC: 1.36303 (Simulation time: 0 hr 8 min 25 sec) 
Heartbeat CPU  0 instructions:  303000002 cycles:  191745764 heartbeat IPC: 1.42246 cumulative IPC: 1.36331 (Simulation time: 0 hr 8 min 27 sec) 
Heartbeat CPU  0 instructions:  304000000 cycles:  192472256 heartbeat IPC: 1.37647 cumulative IPC: 1.36337 (Simulation time: 0 hr 8 min 29 sec) 
Heartbeat CPU  0 instructions:  305000001 cycles:  193162963 heartbeat IPC: 1.44779 cumulative IPC: 1.36376 (Simulation time: 0 hr 8 min 30 sec) 
Heartbeat CPU  0 instructions:  306000003 cycles:  193867544 heartbeat IPC: 1.41929 cumulative IPC: 1.36402 (Simulation time: 0 hr 8 min 32 sec) 
Heartbeat CPU  0 instructions:  307000000 cycles:  194602239 heartbeat IPC: 1.36110 cumulative IPC: 1.36401 (Simulation time: 0 hr 8 min 34 sec) 
Heartbeat CPU  0 instructions:  308000000 cycles:  195283994 heartbeat IPC: 1.46680 cumulative IPC: 1.36447 (Simulation time: 0 hr 8 min 36 sec) 
Heartbeat CPU  0 instructions:  309000002 cycles:  196002011 heartbeat IPC: 1.39273 cumulative IPC: 1.36460 (Simulation time: 0 hr 8 min 37 sec) 
Heartbeat CPU  0 instructions:  310000000 cycles:  196792307 heartbeat IPC: 1.26535 cumulative IPC: 1.36409 (Simulation time: 0 hr 8 min 39 sec) 
Heartbeat CPU  0 instructions:  311000001 cycles:  197471755 heartbeat IPC: 1.47178 cumulative IPC: 1.36456 (Simulation time: 0 hr 8 min 41 sec) 
Heartbeat CPU  0 instructions:  312000000 cycles:  198187522 heartbeat IPC: 1.39710 cumulative IPC: 1.36471 (Simulation time: 0 hr 8 min 43 sec) 
Heartbeat CPU  0 instructions:  313000002 cycles:  199033271 heartbeat IPC: 1.18239 cumulative IPC: 1.36372 (Simulation time: 0 hr 8 min 45 sec) 
Heartbeat CPU  0 instructions:  314000001 cycles:  199777560 heartbeat IPC: 1.34356 cumulative IPC: 1.36363 (Simulation time: 0 hr 8 min 46 sec) 
Heartbeat CPU  0 instructions:  315000000 cycles:  200497957 heartbeat IPC: 1.38812 cumulative IPC: 1.36374 (Simulation time: 0 hr 8 min 48 sec) 
Heartbeat CPU  0 instructions:  316000000 cycles:  201227824 heartbeat IPC: 1.37011 cumulative IPC: 1.36377 (Simulation time: 0 hr 8 min 50 sec) 
Heartbeat CPU  0 instructions:  317000001 cycles:  202023699 heartbeat IPC: 1.25648 cumulative IPC: 1.36323 (Simulation time: 0 hr 8 min 52 sec) 
Heartbeat CPU  0 instructions:  318000001 cycles:  202877446 heartbeat IPC: 1.17131 cumulative IPC: 1.36221 (Simulation time: 0 hr 8 min 53 sec) 
Heartbeat CPU  0 instructions:  319000003 cycles:  203569057 heartbeat IPC: 1.44590 cumulative IPC: 1.36257 (Simulation time: 0 hr 8 min 55 sec) 
Heartbeat CPU  0 instructions:  320000000 cycles:  204276059 heartbeat IPC: 1.41442 cumulative IPC: 1.36280 (Simulation time: 0 hr 8 min 57 sec) 
Heartbeat CPU  0 instructions:  321000001 cycles:  205065766 heartbeat IPC: 1.26629 cumulative IPC: 1.36233 (Simulation time: 0 hr 8 min 59 sec) 
Heartbeat CPU  0 instructions:  322000003 cycles:  205853282 heartbeat IPC: 1.26982 cumulative IPC: 1.36188 (Simulation time: 0 hr 9 min 0 sec) 
Heartbeat CPU  0 instructions:  323000001 cycles:  206637786 heartbeat IPC: 1.27469 cumulative IPC: 1.36146 (Simulation time: 0 hr 9 min 2 sec) 
Heartbeat CPU  0 instructions:  324000000 cycles:  207353355 heartbeat IPC: 1.39749 cumulative IPC: 1.36162 (Simulation time: 0 hr 9 min 4 sec) 
Heartbeat CPU  0 instructions:  325000000 cycles:  208083931 heartbeat IPC: 1.36878 cumulative IPC: 1.36165 (Simulation time: 0 hr 9 min 6 sec) 
Heartbeat CPU  0 instructions:  326000003 cycles:  208884173 heartbeat IPC: 1.24963 cumulative IPC: 1.36111 (Simulation time: 0 hr 9 min 8 sec) 
Heartbeat CPU  0 instructions:  327000000 cycles:  209624692 heartbeat IPC: 1.35040 cumulative IPC: 1.36106 (Simulation time: 0 hr 9 min 9 sec) 
Heartbeat CPU  0 instructions:  328000000 cycles:  210407988 heartbeat IPC: 1.27666 cumulative IPC: 1.36067 (Simulation time: 0 hr 9 min 11 sec) 
Heartbeat CPU  0 instructions:  329000001 cycles:  211203588 heartbeat IPC: 1.25691 cumulative IPC: 1.36018 (Simulation time: 0 hr 9 min 13 sec) 
Heartbeat CPU  0 instructions:  330000001 cycles:  211867484 heartbeat IPC: 1.50626 cumulative IPC: 1.36075 (Simulation time: 0 hr 9 min 15 sec) 
Heartbeat CPU  0 instructions:  331000000 cycles:  212569185 heartbeat IPC: 1.42511 cumulative IPC: 1.36102 (Simulation time: 0 hr 9 min 16 sec) 
Heartbeat CPU  0 instructions:  332000000 cycles:  213288375 heartbeat IPC: 1.39045 cumulative IPC: 1.36114 (Simulation time: 0 hr 9 min 18 sec) 
Heartbeat CPU  0 instructions:  333000001 cycles:  214065487 heartbeat IPC: 1.28682 cumulative IPC: 1.36081 (Simulation time: 0 hr 9 min 20 sec) 
Heartbeat CPU  0 instructions:  334000002 cycles:  214831035 heartbeat IPC: 1.30626 cumulative IPC: 1.36056 (Simulation time: 0 hr 9 min 22 sec) 
Heartbeat CPU  0 instructions:  335000000 cycles:  215646242 heartbeat IPC: 1.22668 cumulative IPC: 1.35993 (Simulation time: 0 hr 9 min 23 sec) 
Heartbeat CPU  0 instructions:  336000000 cycles:  216364714 heartbeat IPC: 1.39184 cumulative IPC: 1.36006 (Simulation time: 0 hr 9 min 25 sec) 
Heartbeat CPU  0 instructions:  337000002 cycles:  217076855 heartbeat IPC: 1.40422 cumulative IPC: 1.36024 (Simulation time: 0 hr 9 min 27 sec) 
Heartbeat CPU  0 instructions:  338000003 cycles:  217865625 heartbeat IPC: 1.26780 cumulative IPC: 1.35983 (Simulation time: 0 hr 9 min 29 sec) 
Heartbeat CPU  0 instructions:  339000002 cycles:  218608478 heartbeat IPC: 1.34616 cumulative IPC: 1.35977 (Simulation time: 0 hr 9 min 30 sec) 
Heartbeat CPU  0 instructions:  340000000 cycles:  219379282 heartbeat IPC: 1.29734 cumulative IPC: 1.35950 (Simulation time: 0 hr 9 min 32 sec) 
Heartbeat CPU  0 instructions:  341000001 cycles:  220176810 heartbeat IPC: 1.25388 cumulative IPC: 1.35902 (Simulation time: 0 hr 9 min 34 sec) 
Heartbeat CPU  0 instructions:  342000003 cycles:  220854032 heartbeat IPC: 1.47662 cumulative IPC: 1.35947 (Simulation time: 0 hr 9 min 36 sec) 
Heartbeat CPU  0 instructions:  343000003 cycles:  221615418 heartbeat IPC: 1.31339 cumulative IPC: 1.35927 (Simulation time: 0 hr 9 min 37 sec) 
Heartbeat CPU  0 instructions:  344000000 cycles:  222343088 heartbeat IPC: 1.37425 cumulative IPC: 1.35933 (Simulation time: 0 hr 9 min 39 sec) 
Heartbeat CPU  0 instructions:  345000003 cycles:  223013137 heartbeat IPC: 1.49243 cumulative IPC: 1.35983 (Simulation time: 0 hr 9 min 41 sec) 
Heartbeat CPU  0 instructions:  346000000 cycles:  223728846 heartbeat IPC: 1.39721 cumulative IPC: 1.35998 (Simulation time: 0 hr 9 min 43 sec) 
Heartbeat CPU  0 instructions:  347000001 cycles:  224461136 heartbeat IPC: 1.36558 cumulative IPC: 1.36000 (Simulation time: 0 hr 9 min 44 sec) 
Heartbeat CPU  0 instructions:  348000000 cycles:  225188461 heartbeat IPC: 1.37490 cumulative IPC: 1.36006 (Simulation time: 0 hr 9 min 46 sec) 
Heartbeat CPU  0 instructions:  349000003 cycles:  225917684 heartbeat IPC: 1.37133 cumulative IPC: 1.36010 (Simulation time: 0 hr 9 min 48 sec) 
Heartbeat CPU  0 instructions:  350000003 cycles:  226633969 heartbeat IPC: 1.39609 cumulative IPC: 1.36024 (Simulation time: 0 hr 9 min 50 sec) 
Heartbeat CPU  0 instructions:  351000002 cycles:  227414663 heartbeat IPC: 1.28091 cumulative IPC: 1.35991 (Simulation time: 0 hr 9 min 51 sec) 
Heartbeat CPU  0 instructions:  352000000 cycles:  228106076 heartbeat IPC: 1.44631 cumulative IPC: 1.36023 (Simulation time: 0 hr 9 min 53 sec) 
Heartbeat CPU  0 instructions:  353000003 cycles:  228850229 heartbeat IPC: 1.34381 cumulative IPC: 1.36016 (Simulation time: 0 hr 9 min 55 sec) 
Heartbeat CPU  0 instructions:  354000002 cycles:  229539519 heartbeat IPC: 1.45077 cumulative IPC: 1.36050 (Simulation time: 0 hr 9 min 56 sec) 
Heartbeat CPU  0 instructions:  355000002 cycles:  230249977 heartbeat IPC: 1.40754 cumulative IPC: 1.36068 (Simulation time: 0 hr 9 min 58 sec) 
Heartbeat CPU  0 instructions:  356000000 cycles:  231013781 heartbeat IPC: 1.30923 cumulative IPC: 1.36047 (Simulation time: 0 hr 10 min 0 sec) 
Heartbeat CPU  0 instructions:  357000002 cycles:  231780954 heartbeat IPC: 1.30349 cumulative IPC: 1.36024 (Simulation time: 0 hr 10 min 2 sec) 
Heartbeat CPU  0 instructions:  358000002 cycles:  232474622 heartbeat IPC: 1.44161 cumulative IPC: 1.36054 (Simulation time: 0 hr 10 min 3 sec) 
Heartbeat CPU  0 instructions:  359000002 cycles:  233186768 heartbeat IPC: 1.40421 cumulative IPC: 1.36070 (Simulation time: 0 hr 10 min 5 sec) 
Heartbeat CPU  0 instructions:  360000000 cycles:  233877154 heartbeat IPC: 1.44846 cumulative IPC: 1.36102 (Simulation time: 0 hr 10 min 7 sec) 
Heartbeat CPU  0 instructions:  361000000 cycles:  234564238 heartbeat IPC: 1.45543 cumulative IPC: 1.36135 (Simulation time: 0 hr 10 min 9 sec) 
Heartbeat CPU  0 instructions:  362000003 cycles:  235297906 heartbeat IPC: 1.36302 cumulative IPC: 1.36136 (Simulation time: 0 hr 10 min 10 sec) 
Heartbeat CPU  0 instructions:  363000000 cycles:  236017531 heartbeat IPC: 1.38961 cumulative IPC: 1.36147 (Simulation time: 0 hr 10 min 12 sec) 
Heartbeat CPU  0 instructions:  364000000 cycles:  236732087 heartbeat IPC: 1.39947 cumulative IPC: 1.36161 (Simulation time: 0 hr 10 min 14 sec) 
Heartbeat CPU  0 instructions:  365000001 cycles:  237458727 heartbeat IPC: 1.37620 cumulative IPC: 1.36166 (Simulation time: 0 hr 10 min 16 sec) 
Heartbeat CPU  0 instructions:  366000003 cycles:  238253496 heartbeat IPC: 1.25823 cumulative IPC: 1.36124 (Simulation time: 0 hr 10 min 17 sec) 
Heartbeat CPU  0 instructions:  367000001 cycles:  239001468 heartbeat IPC: 1.33695 cumulative IPC: 1.36115 (Simulation time: 0 hr 10 min 19 sec) 
Heartbeat CPU  0 instructions:  368000000 cycles:  239807342 heartbeat IPC: 1.24089 cumulative IPC: 1.36065 (Simulation time: 0 hr 10 min 21 sec) 
Heartbeat CPU  0 instructions:  369000000 cycles:  240541528 heartbeat IPC: 1.36205 cumulative IPC: 1.36066 (Simulation time: 0 hr 10 min 23 sec) 
Heartbeat CPU  0 instructions:  370000001 cycles:  241211435 heartbeat IPC: 1.49275 cumulative IPC: 1.36111 (Simulation time: 0 hr 10 min 24 sec) 
Heartbeat CPU  0 instructions:  371000001 cycles:  241942761 heartbeat IPC: 1.36738 cumulative IPC: 1.36113 (Simulation time: 0 hr 10 min 26 sec) 
Heartbeat CPU  0 instructions:  372000000 cycles:  242711529 heartbeat IPC: 1.30078 cumulative IPC: 1.36090 (Simulation time: 0 hr 10 min 28 sec) 
Heartbeat CPU  0 instructions:  373000000 cycles:  243434308 heartbeat IPC: 1.38355 cumulative IPC: 1.36098 (Simulation time: 0 hr 10 min 30 sec) 
Heartbeat CPU  0 instructions:  374000002 cycles:  244192808 heartbeat IPC: 1.31839 cumulative IPC: 1.36082 (Simulation time: 0 hr 10 min 31 sec) 
Heartbeat CPU  0 instructions:  375000000 cycles:  244917538 heartbeat IPC: 1.37982 cumulative IPC: 1.36089 (Simulation time: 0 hr 10 min 33 sec) 
Heartbeat CPU  0 instructions:  376000000 cycles:  245650071 heartbeat IPC: 1.36513 cumulative IPC: 1.36090 (Simulation time: 0 hr 10 min 35 sec) 
Heartbeat CPU  0 instructions:  377000001 cycles:  246362209 heartbeat IPC: 1.40422 cumulative IPC: 1.36105 (Simulation time: 0 hr 10 min 37 sec) 
Heartbeat CPU  0 instructions:  378000003 cycles:  247153021 heartbeat IPC: 1.26453 cumulative IPC: 1.36068 (Simulation time: 0 hr 10 min 38 sec) 
Heartbeat CPU  0 instructions:  379000002 cycles:  247851094 heartbeat IPC: 1.43251 cumulative IPC: 1.36092 (Simulation time: 0 hr 10 min 40 sec) 
Heartbeat CPU  0 instructions:  380000000 cycles:  248578725 heartbeat IPC: 1.37432 cumulative IPC: 1.36097 (Simulation time: 0 hr 10 min 42 sec) 
Heartbeat CPU  0 instructions:  381000000 cycles:  249354942 heartbeat IPC: 1.28830 cumulative IPC: 1.36070 (Simulation time: 0 hr 10 min 44 sec) 
Heartbeat CPU  0 instructions:  382000001 cycles:  250043913 heartbeat IPC: 1.45144 cumulative IPC: 1.36100 (Simulation time: 0 hr 10 min 45 sec) 
Heartbeat CPU  0 instructions:  383000002 cycles:  250752487 heartbeat IPC: 1.41129 cumulative IPC: 1.36117 (Simulation time: 0 hr 10 min 47 sec) 
Heartbeat CPU  0 instructions:  384000000 cycles:  251458375 heartbeat IPC: 1.41665 cumulative IPC: 1.36136 (Simulation time: 0 hr 10 min 49 sec) 
Heartbeat CPU  0 instructions:  385000001 cycles:  252234724 heartbeat IPC: 1.28808 cumulative IPC: 1.36109 (Simulation time: 0 hr 10 min 50 sec) 
Heartbeat CPU  0 instructions:  386000003 cycles:  252984458 heartbeat IPC: 1.33381 cumulative IPC: 1.36099 (Simulation time: 0 hr 10 min 52 sec) 
Heartbeat CPU  0 instructions:  387000002 cycles:  253703032 heartbeat IPC: 1.39164 cumulative IPC: 1.36109 (Simulation time: 0 hr 10 min 54 sec) 
Heartbeat CPU  0 instructions:  388000000 cycles:  254425726 heartbeat IPC: 1.38371 cumulative IPC: 1.36117 (Simulation time: 0 hr 10 min 56 sec) 
Heartbeat CPU  0 instructions:  389000000 cycles:  255086323 heartbeat IPC: 1.51378 cumulative IPC: 1.36165 (Simulation time: 0 hr 10 min 57 sec) 
Heartbeat CPU  0 instructions:  390000003 cycles:  255783000 heartbeat IPC: 1.43539 cumulative IPC: 1.36189 (Simulation time: 0 hr 10 min 59 sec) 
Heartbeat CPU  0 instructions:  391000000 cycles:  256516821 heartbeat IPC: 1.36273 cumulative IPC: 1.36189 (Simulation time: 0 hr 11 min 1 sec) 
Heartbeat CPU  0 instructions:  392000000 cycles:  257238064 heartbeat IPC: 1.38650 cumulative IPC: 1.36197 (Simulation time: 0 hr 11 min 3 sec) 
Heartbeat CPU  0 instructions:  393000000 cycles:  257919876 heartbeat IPC: 1.46668 cumulative IPC: 1.36231 (Simulation time: 0 hr 11 min 4 sec) 
Heartbeat CPU  0 instructions:  394000000 cycles:  258656088 heartbeat IPC: 1.35830 cumulative IPC: 1.36229 (Simulation time: 0 hr 11 min 6 sec) 
Heartbeat CPU  0 instructions:  395000000 cycles:  259425776 heartbeat IPC: 1.29923 cumulative IPC: 1.36207 (Simulation time: 0 hr 11 min 8 sec) 
Heartbeat CPU  0 instructions:  396000000 cycles:  260161738 heartbeat IPC: 1.35877 cumulative IPC: 1.36206 (Simulation time: 0 hr 11 min 10 sec) 
Heartbeat CPU  0 instructions:  397000000 cycles:  261006619 heartbeat IPC: 1.18360 cumulative IPC: 1.36137 (Simulation time: 0 hr 11 min 12 sec) 
Heartbeat CPU  0 instructions:  398000000 cycles:  261710132 heartbeat IPC: 1.42144 cumulative IPC: 1.36156 (Simulation time: 0 hr 11 min 13 sec) 
Heartbeat CPU  0 instructions:  399000003 cycles:  262455474 heartbeat IPC: 1.34167 cumulative IPC: 1.36149 (Simulation time: 0 hr 11 min 15 sec) 
Heartbeat CPU  0 instructions:  400000000 cycles:  263168630 heartbeat IPC: 1.40221 cumulative IPC: 1.36162 (Simulation time: 0 hr 11 min 17 sec) 
Heartbeat CPU  0 instructions:  401000001 cycles:  263894587 heartbeat IPC: 1.37749 cumulative IPC: 1.36168 (Simulation time: 0 hr 11 min 18 sec) 
Heartbeat CPU  0 instructions:  402000003 cycles:  264607004 heartbeat IPC: 1.40368 cumulative IPC: 1.36181 (Simulation time: 0 hr 11 min 20 sec) 
Heartbeat CPU  0 instructions:  403000002 cycles:  265356807 heartbeat IPC: 1.33368 cumulative IPC: 1.36172 (Simulation time: 0 hr 11 min 22 sec) 
Heartbeat CPU  0 instructions:  404000000 cycles:  266125762 heartbeat IPC: 1.30046 cumulative IPC: 1.36150 (Simulation time: 0 hr 11 min 24 sec) 
Heartbeat CPU  0 instructions:  405000002 cycles:  266812841 heartbeat IPC: 1.45544 cumulative IPC: 1.36179 (Simulation time: 0 hr 11 min 25 sec) 
Heartbeat CPU  0 instructions:  406000000 cycles:  267557374 heartbeat IPC: 1.34312 cumulative IPC: 1.36173 (Simulation time: 0 hr 11 min 27 sec) 
Heartbeat CPU  0 instructions:  407000000 cycles:  268284380 heartbeat IPC: 1.37550 cumulative IPC: 1.36178 (Simulation time: 0 hr 11 min 29 sec) 
Heartbeat CPU  0 instructions:  408000000 cycles:  268981476 heartbeat IPC: 1.43452 cumulative IPC: 1.36200 (Simulation time: 0 hr 11 min 31 sec) 
Heartbeat CPU  0 instructions:  409000003 cycles:  269768099 heartbeat IPC: 1.27126 cumulative IPC: 1.36168 (Simulation time: 0 hr 11 min 32 sec) 
Heartbeat CPU  0 instructions:  410000000 cycles:  270482318 heartbeat IPC: 1.40013 cumulative IPC: 1.36181 (Simulation time: 0 hr 11 min 34 sec) 
Heartbeat CPU  0 instructions:  411000003 cycles:  271199109 heartbeat IPC: 1.39511 cumulative IPC: 1.36191 (Simulation time: 0 hr 11 min 36 sec) 
Heartbeat CPU  0 instructions:  412000000 cycles:  272069169 heartbeat IPC: 1.14934 cumulative IPC: 1.36110 (Simulation time: 0 hr 11 min 38 sec) 
Heartbeat CPU  0 instructions:  413000000 cycles:  273019294 heartbeat IPC: 1.05249 cumulative IPC: 1.35983 (Simulation time: 0 hr 11 min 39 sec) 
Heartbeat CPU  0 instructions:  414000001 cycles:  281393400 heartbeat IPC: 0.11942 cumulative IPC: 1.31629 (Simulation time: 0 hr 11 min 45 sec) 
Heartbeat CPU  0 instructions:  415000002 cycles:  285788777 heartbeat IPC: 0.22751 cumulative IPC: 1.29659 (Simulation time: 0 hr 11 min 48 sec) 
Heartbeat CPU  0 instructions:  416000000 cycles:  289698785 heartbeat IPC: 0.25575 cumulative IPC: 1.28010 (Simulation time: 0 hr 11 min 51 sec) 
Heartbeat CPU  0 instructions:  417000001 cycles:  293269483 heartbeat IPC: 0.28006 cumulative IPC: 1.26584 (Simulation time: 0 hr 11 min 54 sec) 
Heartbeat CPU  0 instructions:  418000003 cycles:  299187539 heartbeat IPC: 0.16897 cumulative IPC: 1.24052 (Simulation time: 0 hr 11 min 58 sec) 
Heartbeat CPU  0 instructions:  419000001 cycles:  308553269 heartbeat IPC: 0.10677 cumulative IPC: 1.20056 (Simulation time: 0 hr 12 min 4 sec) 
Heartbeat CPU  0 instructions:  420000000 cycles:  315367432 heartbeat IPC: 0.14675 cumulative IPC: 1.17421 (Simulation time: 0 hr 12 min 7 sec) 
Heartbeat CPU  0 instructions:  421000003 cycles:  321180587 heartbeat IPC: 0.17202 cumulative IPC: 1.15328 (Simulation time: 0 hr 12 min 11 sec) 
Heartbeat CPU  0 instructions:  422000001 cycles:  326432125 heartbeat IPC: 0.19042 cumulative IPC: 1.13545 (Simulation time: 0 hr 12 min 14 sec) 
Heartbeat CPU  0 instructions:  423000000 cycles:  331368968 heartbeat IPC: 0.20256 cumulative IPC: 1.11948 (Simulation time: 0 hr 12 min 17 sec) 
Heartbeat CPU  0 instructions:  424000000 cycles:  336808245 heartbeat IPC: 0.18385 cumulative IPC: 1.10217 (Simulation time: 0 hr 12 min 22 sec) 
Heartbeat CPU  0 instructions:  425000002 cycles:  340646888 heartbeat IPC: 0.26051 cumulative IPC: 1.09132 (Simulation time: 0 hr 12 min 25 sec) 
Heartbeat CPU  0 instructions:  426000002 cycles:  343822964 heartbeat IPC: 0.31485 cumulative IPC: 1.08313 (Simulation time: 0 hr 12 min 28 sec) 
Heartbeat CPU  0 instructions:  427000000 cycles:  346965251 heartbeat IPC: 0.31824 cumulative IPC: 1.07523 (Simulation time: 0 hr 12 min 31 sec) 
Heartbeat CPU  0 instructions:  428000000 cycles:  350020146 heartbeat IPC: 0.32734 cumulative IPC: 1.06779 (Simulation time: 0 hr 12 min 34 sec) 
Heartbeat CPU  0 instructions:  429000000 cycles:  352996663 heartbeat IPC: 0.33596 cumulative IPC: 1.06077 (Simulation time: 0 hr 12 min 37 sec) 
Heartbeat CPU  0 instructions:  430000001 cycles:  356152729 heartbeat IPC: 0.31685 cumulative IPC: 1.05327 (Simulation time: 0 hr 12 min 40 sec) 
Heartbeat CPU  0 instructions:  431000000 cycles:  363338341 heartbeat IPC: 0.13917 cumulative IPC: 1.03278 (Simulation time: 0 hr 12 min 44 sec) 
Heartbeat CPU  0 instructions:  432000000 cycles:  369564541 heartbeat IPC: 0.16061 cumulative IPC: 1.01616 (Simulation time: 0 hr 12 min 49 sec) 
Heartbeat CPU  0 instructions:  433000000 cycles:  377925742 heartbeat IPC: 0.11960 cumulative IPC: 0.99379 (Simulation time: 0 hr 12 min 54 sec) 
Heartbeat CPU  0 instructions:  434000001 cycles:  386135407 heartbeat IPC: 0.12181 cumulative IPC: 0.97293 (Simulation time: 0 hr 12 min 58 sec) 
Heartbeat CPU  0 instructions:  435000003 cycles:  392248690 heartbeat IPC: 0.16358 cumulative IPC: 0.95877 (Simulation time: 0 hr 13 min 2 sec) 
Heartbeat CPU  0 instructions:  436000000 cycles:  397784753 heartbeat IPC: 0.18063 cumulative IPC: 0.94664 (Simulation time: 0 hr 13 min 5 sec) 
Heartbeat CPU  0 instructions:  437000002 cycles:  402237298 heartbeat IPC: 0.22459 cumulative IPC: 0.93769 (Simulation time: 0 hr 13 min 8 sec) 
Heartbeat CPU  0 instructions:  438000001 cycles:  407179614 heartbeat IPC: 0.20233 cumulative IPC: 0.92771 (Simulation time: 0 hr 13 min 12 sec) 
Heartbeat CPU  0 instructions:  439000000 cycles:  412211001 heartbeat IPC: 0.19875 cumulative IPC: 0.91778 (Simulation time: 0 hr 13 min 16 sec) 
Heartbeat CPU  0 instructions:  440000000 cycles:  415580454 heartbeat IPC: 0.29678 cumulative IPC: 0.91217 (Simulation time: 0 hr 13 min 20 sec) 
Heartbeat CPU  0 instructions:  441000000 cycles:  418723028 heartbeat IPC: 0.31821 cumulative IPC: 0.90721 (Simulation time: 0 hr 13 min 23 sec) 
Heartbeat CPU  0 instructions:  442000002 cycles:  421808582 heartbeat IPC: 0.32409 cumulative IPC: 0.90246 (Simulation time: 0 hr 13 min 26 sec) 
Heartbeat CPU  0 instructions:  443000000 cycles:  424777051 heartbeat IPC: 0.33687 cumulative IPC: 0.89806 (Simulation time: 0 hr 13 min 29 sec) 
Heartbeat CPU  0 instructions:  444000000 cycles:  427906660 heartbeat IPC: 0.31953 cumulative IPC: 0.89336 (Simulation time: 0 hr 13 min 32 sec) 
Heartbeat CPU  0 instructions:  445000002 cycles:  431593452 heartbeat IPC: 0.27124 cumulative IPC: 0.88746 (Simulation time: 0 hr 13 min 35 sec) 
Heartbeat CPU  0 instructions:  446000003 cycles:  440155766 heartbeat IPC: 0.11679 cumulative IPC: 0.87085 (Simulation time: 0 hr 13 min 40 sec) 
Heartbeat CPU  0 instructions:  447000000 cycles:  447801607 heartbeat IPC: 0.13079 cumulative IPC: 0.85688 (Simulation time: 0 hr 13 min 45 sec) 
Heartbeat CPU  0 instructions:  448000000 cycles:  456853358 heartbeat IPC: 0.11048 cumulative IPC: 0.84056 (Simulation time: 0 hr 13 min 50 sec) 
Heartbeat CPU  0 instructions:  449000001 cycles:  463263280 heartbeat IPC: 0.15601 cumulative IPC: 0.83012 (Simulation time: 0 hr 13 min 53 sec) 
Heartbeat CPU  0 instructions:  450000000 cycles:  469033705 heartbeat IPC: 0.17330 cumulative IPC: 0.82123 (Simulation time: 0 hr 13 min 57 sec) 
Heartbeat CPU  0 instructions:  451000000 cycles:  473696591 heartbeat IPC: 0.21446 cumulative IPC: 0.81466 (Simulation time: 0 hr 14 min 0 sec) 
Heartbeat CPU  0 instructions:  452000000 cycles:  478319614 heartbeat IPC: 0.21631 cumulative IPC: 0.80831 (Simulation time: 0 hr 14 min 4 sec) 
Heartbeat CPU  0 instructions:  453000001 cycles:  483850769 heartbeat IPC: 0.18079 cumulative IPC: 0.80044 (Simulation time: 0 hr 14 min 8 sec) 
Heartbeat CPU  0 instructions:  454000000 cycles:  487459897 heartbeat IPC: 0.27707 cumulative IPC: 0.79619 (Simulation time: 0 hr 14 min 11 sec) 
Heartbeat CPU  0 instructions:  455000001 cycles:  490568020 heartbeat IPC: 0.32174 cumulative IPC: 0.79290 (Simulation time: 0 hr 14 min 14 sec) 
Heartbeat CPU  0 instructions:  456000000 cycles:  493681807 heartbeat IPC: 0.32115 cumulative IPC: 0.78964 (Simulation time: 0 hr 14 min 17 sec) 
Heartbeat CPU  0 instructions:  457000002 cycles:  496698342 heartbeat IPC: 0.33151 cumulative IPC: 0.78659 (Simulation time: 0 hr 14 min 20 sec) 
Heartbeat CPU  0 instructions:  458000000 cycles:  499745276 heartbeat IPC: 0.32820 cumulative IPC: 0.78354 (Simulation time: 0 hr 14 min 23 sec) 
Heartbeat CPU  0 instructions:  459000001 cycles:  503021179 heartbeat IPC: 0.30526 cumulative IPC: 0.78013 (Simulation time: 0 hr 14 min 27 sec) 
Heartbeat CPU  0 instructions:  460000000 cycles:  510951594 heartbeat IPC: 0.12610 cumulative IPC: 0.76905 (Simulation time: 0 hr 14 min 31 sec) 
Heartbeat CPU  0 instructions:  461000002 cycles:  518272362 heartbeat IPC: 0.13660 cumulative IPC: 0.75931 (Simulation time: 0 hr 14 min 36 sec) 
Heartbeat CPU  0 instructions:  462000000 cycles:  527431899 heartbeat IPC: 0.10918 cumulative IPC: 0.74703 (Simulation time: 0 hr 14 min 41 sec) 
Heartbeat CPU  0 instructions:  463000000 cycles:  534400935 heartbeat IPC: 0.14349 cumulative IPC: 0.73847 (Simulation time: 0 hr 14 min 45 sec) 
Heartbeat CPU  0 instructions:  464000000 cycles:  540168554 heartbeat IPC: 0.17338 cumulative IPC: 0.73192 (Simulation time: 0 hr 14 min 48 sec) 
Heartbeat CPU  0 instructions:  465000000 cycles:  545186118 heartbeat IPC: 0.19930 cumulative IPC: 0.72660 (Simulation time: 0 hr 14 min 52 sec) 
Heartbeat CPU  0 instructions:  466000000 cycles:  549910417 heartbeat IPC: 0.21167 cumulative IPC: 0.72180 (Simulation time: 0 hr 14 min 55 sec) 
Heartbeat CPU  0 instructions:  467000000 cycles:  555451397 heartbeat IPC: 0.18047 cumulative IPC: 0.71595 (Simulation time: 0 hr 14 min 59 sec) 
Heartbeat CPU  0 instructions:  468000000 cycles:  559199137 heartbeat IPC: 0.26683 cumulative IPC: 0.71269 (Simulation time: 0 hr 15 min 3 sec) 
Heartbeat CPU  0 instructions:  469000000 cycles:  562339545 heartbeat IPC: 0.31843 cumulative IPC: 0.71030 (Simulation time: 0 hr 15 min 6 sec) 
Heartbeat CPU  0 instructions:  470000002 cycles:  565471528 heartbeat IPC: 0.31929 cumulative IPC: 0.70796 (Simulation time: 0 hr 15 min 9 sec) 
Heartbeat CPU  0 instructions:  471000000 cycles:  568511334 heartbeat IPC: 0.32897 cumulative IPC: 0.70577 (Simulation time: 0 hr 15 min 12 sec) 
Heartbeat CPU  0 instructions:  472000000 cycles:  571523260 heartbeat IPC: 0.33201 cumulative IPC: 0.70364 (Simulation time: 0 hr 15 min 15 sec) 
Heartbeat CPU  0 instructions:  473000002 cycles:  574848432 heartbeat IPC: 0.30074 cumulative IPC: 0.70112 (Simulation time: 0 hr 15 min 18 sec) 
Heartbeat CPU  0 instructions:  474000000 cycles:  582128344 heartbeat IPC: 0.13736 cumulative IPC: 0.69351 (Simulation time: 0 hr 15 min 22 sec) 
Heartbeat CPU  0 instructions:  475000002 cycles:  588802219 heartbeat IPC: 0.14984 cumulative IPC: 0.68686 (Simulation time: 0 hr 15 min 27 sec) 
Heartbeat CPU  0 instructions:  476000000 cycles:  597769218 heartbeat IPC: 0.11152 cumulative IPC: 0.67757 (Simulation time: 0 hr 15 min 32 sec) 
Heartbeat CPU  0 instructions:  477000000 cycles:  605290760 heartbeat IPC: 0.13295 cumulative IPC: 0.67028 (Simulation time: 0 hr 15 min 36 sec) 
Heartbeat CPU  0 instructions:  478000002 cycles:  611252110 heartbeat IPC: 0.16775 cumulative IPC: 0.66501 (Simulation time: 0 hr 15 min 39 sec) 
Heartbeat CPU  0 instructions:  479000000 cycles:  616626333 heartbeat IPC: 0.18607 cumulative IPC: 0.66053 (Simulation time: 0 hr 15 min 43 sec) 
Heartbeat CPU  0 instructions:  480000000 cycles:  621350034 heartbeat IPC: 0.21170 cumulative IPC: 0.65686 (Simulation time: 0 hr 15 min 46 sec) 
Heartbeat CPU  0 instructions:  481000000 cycles:  627052029 heartbeat IPC: 0.17538 cumulative IPC: 0.65216 (Simulation time: 0 hr 15 min 51 sec) 
Heartbeat CPU  0 instructions:  482000000 cycles:  630842594 heartbeat IPC: 0.26381 cumulative IPC: 0.64966 (Simulation time: 0 hr 15 min 54 sec) 
Heartbeat CPU  0 instructions:  483000000 cycles:  634077460 heartbeat IPC: 0.30913 cumulative IPC: 0.64780 (Simulation time: 0 hr 15 min 57 sec) 
Heartbeat CPU  0 instructions:  484000000 cycles:  637237114 heartbeat IPC: 0.31649 cumulative IPC: 0.64604 (Simulation time: 0 hr 16 min 0 sec) 
Heartbeat CPU  0 instructions:  485000002 cycles:  640302098 heartbeat IPC: 0.32627 cumulative IPC: 0.64440 (Simulation time: 0 hr 16 min 3 sec) 
Heartbeat CPU  0 instructions:  486000003 cycles:  643296767 heartbeat IPC: 0.33393 cumulative IPC: 0.64285 (Simulation time: 0 hr 16 min 6 sec) 
Heartbeat CPU  0 instructions:  487000000 cycles:  646439075 heartbeat IPC: 0.31824 cumulative IPC: 0.64116 (Simulation time: 0 hr 16 min 9 sec) 
Heartbeat CPU  0 instructions:  488000000 cycles:  652193321 heartbeat IPC: 0.17378 cumulative IPC: 0.63674 (Simulation time: 0 hr 16 min 13 sec) 
Heartbeat CPU  0 instructions:  489000000 cycles:  659463744 heartbeat IPC: 0.13754 cumulative IPC: 0.63086 (Simulation time: 0 hr 16 min 18 sec) 
Heartbeat CPU  0 instructions:  490000003 cycles:  667716404 heartbeat IPC: 0.12117 cumulative IPC: 0.62413 (Simulation time: 0 hr 16 min 23 sec) 
Heartbeat CPU  0 instructions:  491000003 cycles:  676116282 heartbeat IPC: 0.11905 cumulative IPC: 0.61743 (Simulation time: 0 hr 16 min 27 sec) 
Heartbeat CPU  0 instructions:  492000000 cycles:  682293490 heartbeat IPC: 0.16188 cumulative IPC: 0.61303 (Simulation time: 0 hr 16 min 31 sec) 
Heartbeat CPU  0 instructions:  493000002 cycles:  687932766 heartbeat IPC: 0.17733 cumulative IPC: 0.60922 (Simulation time: 0 hr 16 min 34 sec) 
Heartbeat CPU  0 instructions:  494000001 cycles:  692420981 heartbeat IPC: 0.22281 cumulative IPC: 0.60655 (Simulation time: 0 hr 16 min 37 sec) 
Heartbeat CPU  0 instructions:  495000002 cycles:  697304311 heartbeat IPC: 0.20478 cumulative IPC: 0.60355 (Simulation time: 0 hr 16 min 41 sec) 
Heartbeat CPU  0 instructions:  496000000 cycles:  702473013 heartbeat IPC: 0.19347 cumulative IPC: 0.60034 (Simulation time: 0 hr 16 min 45 sec) 
Heartbeat CPU  0 instructions:  497000001 cycles:  705886735 heartbeat IPC: 0.29294 cumulative IPC: 0.59875 (Simulation time: 0 hr 16 min 48 sec) 
Heartbeat CPU  0 instructions:  498000001 cycles:  709017727 heartbeat IPC: 0.31939 cumulative IPC: 0.59744 (Simulation time: 0 hr 16 min 51 sec) 
Heartbeat CPU  0 instructions:  499000000 cycles:  712103475 heartbeat IPC: 0.32407 cumulative IPC: 0.59618 (Simulation time: 0 hr 16 min 54 sec) 
Heartbeat CPU  0 instructions:  500000000 cycles:  715089324 heartbeat IPC: 0.33491 cumulative IPC: 0.59502 (Simulation time: 0 hr 16 min 57 sec) 
Heartbeat CPU  0 instructions:  501000000 cycles:  718191491 heartbeat IPC: 0.32236 cumulative IPC: 0.59377 (Simulation time: 0 hr 17 min 0 sec) 
Heartbeat CPU  0 instructions:  502000002 cycles:  721758544 heartbeat IPC: 0.28034 cumulative IPC: 0.59212 (Simulation time: 0 hr 17 min 3 sec) 
Heartbeat CPU  0 instructions:  503000003 cycles:  730050201 heartbeat IPC: 0.12060 cumulative IPC: 0.58643 (Simulation time: 0 hr 17 min 8 sec) 
Heartbeat CPU  0 instructions:  504000000 cycles:  737501671 heartbeat IPC: 0.13420 cumulative IPC: 0.58158 (Simulation time: 0 hr 17 min 13 sec) 
Heartbeat CPU  0 instructions:  505000000 cycles:  746803498 heartbeat IPC: 0.10751 cumulative IPC: 0.57532 (Simulation time: 0 hr 17 min 18 sec) 
Heartbeat CPU  0 instructions:  506000001 cycles:  753367512 heartbeat IPC: 0.15235 cumulative IPC: 0.57141 (Simulation time: 0 hr 17 min 22 sec) 
Heartbeat CPU  0 instructions:  507000000 cycles:  759168458 heartbeat IPC: 0.17239 cumulative IPC: 0.56818 (Simulation time: 0 hr 17 min 25 sec) 
Heartbeat CPU  0 instructions:  508000000 cycles:  763890026 heartbeat IPC: 0.21179 cumulative IPC: 0.56584 (Simulation time: 0 hr 17 min 28 sec) 
Heartbeat CPU  0 instructions:  509000002 cycles:  768501874 heartbeat IPC: 0.21683 cumulative IPC: 0.56363 (Simulation time: 0 hr 17 min 32 sec) 
Heartbeat CPU  0 instructions:  510000001 cycles:  774109470 heartbeat IPC: 0.17833 cumulative IPC: 0.56067 (Simulation time: 0 hr 17 min 36 sec) 
Heartbeat CPU  0 instructions:  511000001 cycles:  777750805 heartbeat IPC: 0.27462 cumulative IPC: 0.55925 (Simulation time: 0 hr 17 min 39 sec) 
Heartbeat CPU  0 instructions:  512000000 cycles:  780844794 heartbeat IPC: 0.32321 cumulative IPC: 0.55826 (Simulation time: 0 hr 17 min 42 sec) 
Heartbeat CPU  0 instructions:  513000003 cycles:  783957820 heartbeat IPC: 0.32123 cumulative IPC: 0.55727 (Simulation time: 0 hr 17 min 45 sec) 
Heartbeat CPU  0 instructions:  514000003 cycles:  786984984 heartbeat IPC: 0.33034 cumulative IPC: 0.55635 (Simulation time: 0 hr 17 min 48 sec) 
Heartbeat CPU  0 instructions:  515000001 cycles:  790011896 heartbeat IPC: 0.33037 cumulative IPC: 0.55543 (Simulation time: 0 hr 17 min 51 sec) 
Heartbeat CPU  0 instructions:  516000000 cycles:  793309780 heartbeat IPC: 0.30322 cumulative IPC: 0.55432 (Simulation time: 0 hr 17 min 54 sec) 
Heartbeat CPU  0 instructions:  517000000 cycles:  800960637 heartbeat IPC: 0.13070 cumulative IPC: 0.55005 (Simulation time: 0 hr 17 min 59 sec) 
Heartbeat CPU  0 instructions:  518000002 cycles:  808085218 heartbeat IPC: 0.14036 cumulative IPC: 0.54623 (Simulation time: 0 hr 18 min 4 sec) 
Heartbeat CPU  0 instructions:  519000001 cycles:  817199348 heartbeat IPC: 0.10972 cumulative IPC: 0.54109 (Simulation time: 0 hr 18 min 9 sec) 
Heartbeat CPU  0 instructions:  520000000 cycles:  824437438 heartbeat IPC: 0.13816 cumulative IPC: 0.53736 (Simulation time: 0 hr 18 min 13 sec) 
Heartbeat CPU  0 instructions:  521000001 cycles:  830247089 heartbeat IPC: 0.17213 cumulative IPC: 0.53467 (Simulation time: 0 hr 18 min 16 sec) 
Heartbeat CPU  0 instructions:  522000001 cycles:  835314431 heartbeat IPC: 0.19734 cumulative IPC: 0.53251 (Simulation time: 0 hr 18 min 19 sec) 
Heartbeat CPU  0 instructions:  523000001 cycles:  840113983 heartbeat IPC: 0.20835 cumulative IPC: 0.53056 (Simulation time: 0 hr 18 min 22 sec) 
Heartbeat CPU  0 instructions:  524000000 cycles:  845569831 heartbeat IPC: 0.18329 cumulative IPC: 0.52820 (Simulation time: 0 hr 18 min 27 sec) 
Heartbeat CPU  0 instructions:  525000000 cycles:  849357434 heartbeat IPC: 0.26402 cumulative IPC: 0.52696 (Simulation time: 0 hr 18 min 30 sec) 
Heartbeat CPU  0 instructions:  526000000 cycles:  852507927 heartbeat IPC: 0.31741 cumulative IPC: 0.52614 (Simulation time: 0 hr 18 min 33 sec) 
Heartbeat CPU  0 instructions:  527000000 cycles:  855657400 heartbeat IPC: 0.31751 cumulative IPC: 0.52534 (Simulation time: 0 hr 18 min 36 sec) 
Heartbeat CPU  0 instructions:  528000000 cycles:  858697379 heartbeat IPC: 0.32895 cumulative IPC: 0.52460 (Simulation time: 0 hr 18 min 39 sec) 
[...]
IIIIIIII2IIAIIAIIIIAIIIIIIIIAIIIIIIIIIIIIIIIIAAAII22A22A2A22AAAA
IIIIIIII2IIAIIAIIIIAIIIIIIIIAIIIIIIIIIIIIIIIIAAAIII2A22A2A22AAAA
IIIIIIII2IIAIIAIIIIAIIIIIIIIAIIIIIIIIIIIIIIIIAAAIIIIA22A2A22AAAA
IIIIIIII2IIAIIAIIIIAIIIIIIIIAIIIIIIIIIIIIIIIIAAAIIIII22A2A22AAAA
IIIIIIII2IIAIIAIIIIAIIIIIIIIAIIIIIIIIIIIIIIIIAAAIIIIII2A2A22AAAA
IIIIIIII2IIAIIAIIIIAIIIIIIIIAIIIIIIIIIIIIIIIIAAAIIIIIIIA2A22AAAA
IIIIIIII2IIAIIAIIIIAIIIIIIIIAIIIIIIIIIIIIIIIIAAAIIIIIIII2A22AAAA
IIIIIIII2IIAIIAIIIIAIIIIIIIIAIIIIIIIIIIIIIIIIAAAIIIIIIIIIA22AAAA
IIIIIIII2IIAIIAIIIIAIIIIIIIIAIIIIIIIIIIIIIIIIAAAIIIIIIIIII22AAAA
IIIIIIII2IIAIIAIIIIAIIIIIIIIAIIIIIIIIIIIIIIIIAAAIIIIIIIIIII2AAAA
IIIIIIII2IIAIIAIIIIAIIIIIIIIAIIIIIIIIIIIIIIIIAAAIIIIIIIIIIIIAAAA
IIIIIIII2IIAIIAIIIIAIIIIIIIIAIIIIIIIIIIIIIIIIAAAIIIIIIIIIIIIIAAA
IIIIIIII2IIAIIAIIIIAIIIIIIIIAIIIIIIIIIIIIIIIIAAAIIIIIIIIIIIIIIAA
IIIIIIII2IIAIIAIIIIAIIIIIIIIAIIIIIIIIIIIIIIIIAAAIIIIIIIIIIIIIIIA
IIIIIIII2IIAIIAIIIIAIIIIIIIIAIIIIIIIIIIIIIIIIAAAIIIIIIIIIIIIIIII
IIIIIIII2IIAIIAIIIIAIIIIIIIIAIIIIIIIIIIIIIIIIAAAIIIIIIIIIIA2I222
IIIIIIII2IIAIIAIIIIAIIIIIIIIAIIIIIIIIIIIIIIIIAAAIIIIIIAI22A22222
IIIIIIII2IIAIIAIIIIAIIIIIIIIAIIIIIIIIIIIIIIIIAAAIIIIIIAI22A222I2
IIIIIIII2IIAIIAIIIIAIIIIIIIIAIIIIIIIIIIIIIIIIAAAIIIIIIAI22A222II
IIIIIIII2IIAIIAIIIIAIIIIIIIIAIIIIIIIIIIIIIIIIAAAIIIIIIAI22I222II
IIIIIIII2IIAIIAIIIIAIIIIIIIIAIIIIIIIIIIIIIIIIAAAIIIIIIAI22II22II
IIIIIIII2IIAIIAIIIIAIIIIIIIIAIIIIIIIIIIIIIIIIAAAIIIIIIAI22II2III
IIIIIIII2IIAIIAIIIIAIIIIIIIIAIIIIIIIIIIIIIIIIAAAIIAI22A222242444
IIIIIIII2IIAIIAIIIIAIIIIIIIIAIIIIIIIIIIIIIIIIAAAIIAI22I222242444
IIIIIIII2IIAIIAIIIIAIIIIIIIIAIIIIIIIIIIIIIIIIAAAIIAI22I2I2242444
IIIIIIII2IIAIIAIIIIAIIIIIIIIAIIIIIIIIIIIIIIIIAAAIIAI22I2II242444
IIIIIIII2IIAIIAIIIIAIIIIIIIIAIIIIIIIIIIIIIIIIAAAIIAI22I2II24I444
IIIIIIII2IIAIIAIIIIAIIIIIIIIAIIIIIIIIIIIIIIIIAAAIIAI2A222222I222
IIIIIIII2IIAIIAIIIIAIIIIIIIIAIIIIIIIIIIIIIIIIAAAIIAI2A2I2222I222
IIIIIIII2IIAIIAIIIIAIIIIIIIIAIIIIIIIIIIIIIIIIAAAIIII2A2I2222I222
IIIIIIII2IIAIIAIIIIAIIIIIIIIAIIIIIIIIIIIIIIIIAAAIIIIIA2I2222I222
IIIIIIII2IIAIIAIIIIAIIIIIIIIAIIIIIIIIIIIIIIIIAAAIIIIIA2I22I2I222
IIIIIIII2IIAIIAIIIIAIIIIIIIIAIIIIIIIIIIIIIIIIAAAIIIIIA2I22I2II22
IIIIIIII2IIAIIAIIIIAIIIIIIIIAIIIIIIIA22222244AAA44444A2I22I2II22
IIIIIIII2IIAIIAIIIIAIIIIIIIIAIIIIIIIA22222244AAA44444A2I22I2II2I
IIIIIIII2IIAIIAIIIIAIIIIIIIIAIIIIIIIA22222222AAA44444A2I22I2II2I
IIIIIIII2IIAIIAIIIIAIIIIIIIIAIAI22I2A22222222AAA44444A2I22I2II2I
IIIIIIII2IIAIIAIIIIAIIIIIIIIAIAI22I2AI2222222AAA44444A2I22I2II2I
IIIIIIII2IIAIIAIIIIAIIIIIIIIAIAI22I2AII222222AAA44444A2I22I2II2I
IIIIIIII2IIAIIAIIIIAIIIIIIIIAIAI22I2AIII22222AAA44444A2I22I2II2I
IIIIIIII2IIAIIAIIIIAIIIIIIIIAIAI22I2AIIII2222AAA44444A2I22I2II2I
IIIIIIII2IIAIIAIIIIAIIIIIIIIAIAI22I2AIIII2I22AAA44444A2I22I2II2I
IIIIIIII2IIAIIAIIIIAIIIIIIIIAIAI22I2IIIII2I22AAA44444A2I22I2II2I
IIIIIIII2IIAIIAIIIIAIIIIIIIIAIAI22I2IIIII2II2AAA44444A2I22I2II2I
IIIIIIII2IIAIIAIIIIAIIIIIIIIAIAI22I2IIIII2IIIAAA44444A2I22I2II2I
IIIIIIII2IIAIIAIIIIAIIIIIIIIAIII22I2IIIII2IIIAAA44444A2I22I2II2I
IIIIIIII2IIAIIAIIIIAIIIIIIIIAIIII2I2IIIII2IIIAAA44444A2I22I2II2I
IIIIIIII2IIAIIAIAI2A22222244A44442I2IIIII2IIIAAA44444A2I22I2II2I
IIIIIIII2IIAIIAIAI2A22222244A44442I2IIIIA2222AAA22444A2422I2II2I
IIIIIIII2IIAIIAIAI2A222A2222A22222424444A2222AAA22444A2422I2II2I
IAI22222244A44A4A42A222A2222A22222424444A2222AAA22444A2422I2II2I
IAI22222244A44A4A42A222A2222A22222424444A2222AAA22444A2422I2AI22
IAI22222244A44A4A42A222A2222A22222424444A2222AAA22A44A2422I2AI22
IAI22222244A44A4A42A222A2222A22222424444A2222AAA22A44A242242AI22
IAI22222244A44A4A42A222A2222A22222424444A2222AAA22A44I242242AI22
IAI22222244A44A4A42A222A2222A22222424444A2222AAA22I44I242242AI22
IIIIIIIIIIIIIIIIIIIIIIIIIIIIIIIIIIIIIIIIIIIIIIIIIIIIIIIIIIIIA222
IIIIIIIIIIIIIIIIIIIIIIIIIIIIIIIIIIIIIIIIIIIIIIIIIIIIIIIIIIIIA22A
IIIIIIIIIIIIIIIIIIIIIIIIIIIIIIIIIIIIIIIIIIIIIIIIIIIIIIIIIIIIA2AA
IIIIIIIIIIIIIIIIIIIIIIIIIIIIIIIIIIIIIIIIIIIIIIIIIIIIIIIIIA22A2AA
IIIIIIIIIIIIIIIIIIIIIIIIIIIIIIIIIIIIIIIIIIIIIIIIIIIIIIIIIA22AAAA
IIIIIIIIIIIIIIIIIIIIIIIIIIIIIIIIIIIIIIIIIIIIIIIIIIIIA222IA22AAAA
IIIIIIIIIIIIIIIIIIIIIIIIIIIIIIIIIIIIIIIIIIIIIIIIIIIIA22A2A22AAAA
IIIIIIIIIIIIIIIIIIIIIIIIIIIIIIIIIIIIIIIIIIIIIIIIIA22A22A2A22AAAA
IIIIIIIIIIIIIIIIIIIIIIIIIIIIIIIIIIIIIIIIIIIIIA222A22A22A2A22AAAA
IIIIIIIIIIIIIIIIIIIIIIIIIIIIIIIIIIIIIIIIIIIIIA22AA22A22A2A22AAAA
IIIIIIIIIIIIIIIIIIIIIIIIIIIIIIIIIIIIIIIIIIIA2A22AA22A22A2A22AAAA
IIIIIIIIIIIIIIIIIIIIIIIIIIIIIIIIIIIIIIIIIIIA2AA2AA22A22A2A22AAAA
IIIIIIIIIIIIIIIIIIIIIIIIIIIIIIIIIIIIIIIIIIIA2AAAAA22A22A2A22AAAA
IIIIIIIIIIIIIIIIIIIIIIIIIIIIIIIIIIIIIIIIIIIAAAAAAA22A22A2A22AAAA
IIIIIIIIIIIIIIIIIIIIIIIIIIIIIIIIIIIIIIA222IAAAAAAA22A22A2A22AAAA
IIIIIIIIIIIIIIIIIIIIIIIIIIIIIIIIA222I2A2224AAAAAAA22A22A2A22AAAA
IIIIIIIIIIIIIIIIIIIIIIIIIIIIIIIIA222I2AA222AAAAAAA22A22A2A22AAAA
IIIIIIIIIIIIIIIIIIIIIIIIIIIIIA22A22222AA222AAAAAAA22A22A2A22AAAA
IIIIIIIIIIIIIIIIIIIIIIIIIIIIIA22A2A222AA222AAAAAAA22A22A2A22AAAA
IIIIIIIIIIIIIIIIIIIIIIIIIIIIAA22A2A222AA222AAAAAAA22A22A2A22AAAA
IIIIIIIIIIIIIIIIIIIIIA222224AA22A2A222AA222AAAAAAA22A22A2A22AAAA
IIIIIIIIIIIIIIIIIIIIIA222224AA2AA2A222AA222AAAAAAA22A22A2A22AAAA
IIIIIIIIIIIIIIIIIIIIIAA22222AA2AA2A222AA222AAAAAAA22A22A2A22AAAA
IIIIIIIIIIIIIIIIIIIIIAA222A2AA2AA2A222AA222AAAAAAA22A22A2A22AAAA
IIIIIIIIIIIIIIIIIIIIIAA222AAAA2AA2A222AA222AAAAAAA22A22A2A22AAAA
IIIIIIIIIIIIIIA222224AA222AAAA2AA2A222AA222AAAAAAA22A22A2A22AAAA
IIIIIIIIIIIIIIA22222AAA222AAAA2AA2A222AA222AAAAAAA22A22A2A22AAAA
IIIIIIIIIIIIIIA2222AAAA222AAAA2AA2A222AA222AAAAAAA22A22A2A22AAAA
IIIIIIIIIIIIIAA2222AAAA222AAAA2AA2A222AA222AAAAAAA22A22A2A22AAAA
IIIIIIIIIIIA2AA2222AAAA222AAAA2AA2A222AA222AAAAAAA22A22A2A22AAAA
IIIIA222224A2AA2222AAAA222AAAA2AA2A222AA222AAAAAAA22A22A2A22AAAA
IIIIA222224A2AAA222AAAA222AAAA2AA2A222AA222AAAAAAA22A22A2A22AAAA
IIIIAA22222A2AAA222AAAA222AAAA2AA2A222AA222AAAAAAA22A22A2A22AAAA
IIIIAAA2222A2AAA222AAAA222AAAA2AA2A222AA222AAAAAAA22A22A2A22AAAA
IIIIAAA2222A2AAA222AAAA22IAAAA2AA2A222AA222AAAAAAA22A22A2A22AAAA
IIIIAAA2222A2AAA222AAAA22IAAAAIAA2A222AA222AAAAAAA22A22A2A22AAAA
IIIIAAA2222A2AAA222AAAA22IAAAAIAI2A222AA222AAAAAAA22A22A2A22AAAA
IIIIAAA2222A2AAA222AAAA22IAAAAIAIIA222AA222AAAAAAA22A22A2A22AAAA
IIIIAAA2222A2AAA222AAAA22IAAAAIAIII222AA222AAAAAAA22A22A2A22AAAA
IIIIAAA2222A2AAA222AAAA22IAAAAIAIIII22AA222AAAAAAA22A22A2A22AAAA
IIIIAAA2222A2AAA222AAAA22IAAAAIAIIIII2AA222AAAAAAA22A22A2A22AAAA
IIIIAAA2222A2AAA222AAAA22IAAAAIAIIIIIIAA222AAAAAAA22A22A2A22AAAA
IIIIAAA2222A2AAA222AAAA22IAAAAIAIIIIIIIA222AAAAAAA22A22A2A22AAAA
IIIIAAA2222A2AAA222AAAA22IAAAAIAIIIIIIII222AAAAAAA22A22A2A22AAAA
IIIIAAA2222A2AAA222AAAA22IAAAAIAIIIIIIIII22AAAAAAA22A22A2A22AAAA
IIIIAAA2222A2AAA222AAAA22IAAAAIAIIIIIIIIII2AAAAAAA22A22A2A22AAAA
IIIIAAA2222A2AAA222AAAA22IAAAAIAIIIIIIIIIIIAAAAAAA22A22A2A22AAAA
IIIIAAA2222A2AAA222AAAA22IAAAAIAIIIIIIIIIIIIAAAAAA22A22A2A22AAAA
IIIIAAA2222A2AAA222AAAA22IAAAAIAIIIIIIIIIIIIIAAAAA22A22A2A22AAAA
IIIIAAA2222A2AAA222AAIA22IAAAAIAIIIIIIIIIIIIIAAAAA22A22A2A22AAAA
IIIIAAA2222A2AAA222AAII22IAAAAIAIIIIIIIIIIIIIAAAAA22A22A2A22AAAA
IIIIAAAI222A2AAA222AAII22IAAAAIAIIIIIIIIIIIIIAAAAA22A22A2A22AAAA
IIIIAAAI222A2AAA222AAIII2IAAAAIAIIIIIIIIIIIIIAAAAA22A22A2A22AAAA
IIIIAIAI222A2AAA222AAIII2IAAAAIAIIIIIIIIIIIIIAAAAA22A22A2A22AAAA
IIIIAIAI222A2AAA222AAIIIIIAAAAIAIIIIIIIIIIIIIAAAAA22A22A2A22AAAA
IIIIAIII222A2AAA222AAIIIIIAAAAIAIIIIIIIIIIIIIAAAAA22A22A2A22AAAA
IIIIAIII2I2A2AAA222AAIIIIIAAAAIAIIIIIIIIIIIIIAAAAA22A22A2A22AAAA
IIIIIIII2I2A2AAA222AAIIIIIAAAAIAIIIIIIIIIIIIIAAAAA22A22A2A22AAAA
IIIIIIII2IIA2AAA222AAIIIIIAAAAIAIIIIIIIIIIIIIAAAAA22A22A2A22AAAA
IIIIIIII2IIA2AAA222AAIIIIIIAAAIAIIIIIIIIIIIIIAAAAA22A22A2A22AAAA
IIIIIIII2IIAIAAA222AAIIIIIIAAAIAIIIIIIIIIIIIIAAAAA22A22A2A22AAAA
IIIIIIII2IIAIIAA222AAIIIIIIAAAIAIIIIIIIIIIIIIAAAAA22A22A2A22AAAA
IIIIIIII2IIAIIAA222AAIIIIIIAAIIAIIIIIIIIIIIIIAAAAA22A22A2A22AAAA
IIIIIIII2IIAIIAI222AAIIIIIIAAIIAIIIIIIIIIIIIIAAAAA22A22A2A22AAAA
IIIIIIII2IIAIIAII22AAIIIIIIAAIIAIIIIIIIIIIIIIAAAAA22A22A2A22AAAA
IIIIIIII2IIAIIAII22AAIIIIIIAAIIIIIIIIIIIIIIIIAAAAA22A22A2A22AAAA
IIIIIIII2IIAIIAIII2AAIIIIIIAAIIIIIIIIIIIIIIIIAAAAA22A22A2A22AAAA
IIIIIIII2IIAIIAIIIIAAIIIIIIAAIIIIIIIIIIIIIIIIAAAAA22A22A2A22AAAA
IIIIIIII2IIAIIAIIIIAIIIIIIIAAIIIIIIIIIIIIIIIIAAAAA22A22A2A22AAAA
IIIIIIII2IIAIIAIIIIAIIIIIIIIAIIIIIIIIIIIIIIIIAAAAA22A22A2A22AAAA
IIIIIIII2IIAIIAIIIIAIIIIIIIIAIIIIIIIIIIIIIIIIAAAIA22A22A2A22AAAA
IIIIIIII2IIAIIAIIIIAIIIIIIIIAIIIIIIIIIIIIIIIIAAAII22A22A2A22AAAA
IIIIIIII2IIAIIAIIIIAIIIIIIIIAIIIIIIIIIIIIIIIIAAAIII2A22A2A22AAAA
IIIIIIII2IIAIIAIIIIAIIIIIIIIAIIIIIIIIIIIIIIIIAAAIIIIA22A2A22AAAA
IIIIIIII2IIAIIAIIIIAIIIIIIIIAIIIIIIIIIIIIIIIIAAAIIIII22A2A22AAAA
IIIIIIII2IIAIIAIIIIAIIIIIIIIAIIIIIIIIIIIIIIIIAAAIIIIII2A2A22AAAA
IIIIIIII2IIAIIAIIIIAIIIIIIIIAIIIIIIIIIIIIIIIIAAAIIIIIIIA2A22AAAA
IIIIIIII2IIAIIAIIIIAIIIIIIIIAIIIIIIIIIIIIIIIIAAAIIIIIIII2A22AAAA
IIIIIIII2IIAIIAIIIIAIIIIIIIIAIIIIIIIIIIIIIIIIAAAIIIIIIIIIA22AAAA
IIIIIIII2IIAIIAIIIIAIIIIIIIIAIIIIIIIIIIIIIIIIAAAIIIIIIIIII22AAAA
IIIIIIII2IIAIIAIIIIAIIIIIIIIAIIIIIIIIIIIIIIIIAAAIIIIIIIIIII2AAAA
IIIIIIII2IIAIIAIIIIAIIIIIIIIAIIIIIIIIIIIIIIIIAAAIIIIIIIIIIIIAAAA
IIIIIIII2IIAIIAIIIIAIIIIIIIIAIIIIIIIIIIIIIIIIAAAIIIIIIIIIIIIIAAA
IIIIIIII2IIAIIAIIIIAIIIIIIIIAIIIIIIIIIIIIIIIIAAAIIIIIIIIIIIIIIAA
IIIIIIII2IIAIIAIIIIAIIIIIIIIAIIIIIIIIIIIIIIIIAAAIIIIIIIIIIIIIIIA
IIIIIIII2IIAIIAIIIIAIIIIIIIIAIIIIIIIIIIIIIIIIAAAIIIIIIIIIIIIIIII
IIIIIIII2IIAIIAIIIIAIIIIIIIIAIIIIIIIIIIIIIIIIAAAIIIIIIIIIIA2I2I2
IIIIIIII2IIAIIAIIIIAIIIIIIIIAIIIIIIIIIIIIIIIIAAAIIIIIIAI22A2I2I2
IIIIIIII2IIAIIAIIIIAIIIIIIIIAIIIIIIIIIIIIIIIIAAAIIIIIIAI22A2I2II
IIIIIIII2IIAIIAIIIIAIIIIIIIIAIIIIIIIIIIIIIIIIAAAIIIIIIAI22I2I2II
IIIIIIII2IIAIIAIIIIAIIIIIIIIAIIIIIIIIIIIIIIIIAAAIIIIIIAI22I2IIII
IIIIIIII2IIAIIAIIIIAIIIIIIIIAIIIIIIIIIIIIIIIIAAAIIIIIIAI22IIIIII
IIIIIIII2IIAIIAIIIIAIIIIIIIIAIIIIIIIIIIIIIIIIAAAIIAI22A222244I44
IIIIIIII2IIAIIAIIIIAIIIIIIIIAIIIIIIIIIIIIIIIIAAAIIAI22I222244I44
IIIIIIII2IIAIIAIIIIAIIIIIIIIAIIIIIIIIIIIIIIIIAAAIIAI22I2I2244I44
IIIIIIII2IIAIIAIIIIAIIIIIIIIAIIIIIIIIIIIIIIIIAAAIIAI22I2II244I44
IIIIIIII2IIAIIAIIIIAIIIIIIIIAIIIIIIIIIIIIIIIIAAAIIAI2AI222242244
IIIIIIII2IIAIIAIIIIAIIIIIIIIAIIIIIIIIIIIIIIIIAAAIIAI2AII22242244
IIIIIIII2IIAIIAIIIIAIIIIIIIIAIIIIIIIIIIIIIIIIAAAIIII2AII22242244
IIIIIIII2IIAIIAIIIIAIIIIIIIIAIIIIIIIIIIIIIIIIAAAIIIIIAII22242244
IIIIIIII2IIAIIAIIIIAIIIIIIIIAIIIIIIIIIIIIIIIIAAAIIIIIAII22I42244
IIIIIIII2IIAIIAIIIIAIIIIIIIIAIIIIIIIIIIIIIIIIAAAIIIIIAII22I42I44
IIIIIIII2IIAIIAIIIIAIIIIIIIIAIIIIIIIA22222244AAA44444AII22I42I44
IIIIIIII2IIAIIAIIIIAIIIIIIIIAIIIIIIIA22222222AAA44444AII22I42I44
IIIIIIII2IIAIIAIIIIAIIIIIIIIAIAI2222A22222222AAA44444AII22I42I44
IIIIIIII2IIAIIAIIIIAIIIIIIIIAIAI2222A2I222222AAA44444AII22I42I44
IIIIIIII2IIAIIAIIIIAIIIIIIIIAIAI2222A2II22222AAA44444AII22I42I44
IIIIIIII2IIAIIAIIIIAIIIIIIIIAIAI2222A2III2222AAA44444AII22I42I44
IIIIIIII2IIAIIAIIIIAIIIIIIIIAIAI2222A2III2I22AAA44444AII22I42I44
IIIIIIII2IIAIIAIIIIAIIIIIIIIAIAI2222AIIII2I22AAA44444AII22I42I44
IIIIIIII2IIAIIAIIIIAIIIIIIIIAIAI2222IIIII2I22AAA44444AII22I42I44
IIIIIIII2IIAIIAIIIIAIIIIIIIIAIAI2222IIIII2II2AAA44444AII22I42I44
IIIIIIII2IIAIIAIIIIAIIIIIIIIAIAI2222IIIII2IIIAAA44444AII22I42I44
IIIIIIII2IIAIIAIIIIAIIIIIIIIAIII2222IIIII2IIIAAA44444AII22I42I44
IIIIIIII2IIAIIAIIIIAIIIIIIIIAIIII222IIIII2IIIAAA44444AII22I42I44
IIIIIIII2IIAIIAIIIIAIIIIIIIIAIIIII22IIIII2IIIAAA44444AII22I42I44
IIIIIIII2IIAIIAIIIIAIIIIIIIIAIIIIII2IIIII2IIIAAA44444AII22I42I44
IIIIIIII2IIAIIAIIIIAIIIIIIIIAIIIIIIIIIIII2IIIAAA44444AII22I42I44
IIIIIIII2IIAIIAIAI2A2222I444A4444IIIIIIII2IIIAAA44444AII22I42I44
IIIIIIII2IIAIIAIAI2A2222I444A4444IIIIIIIA2222AAA44444A4422I42I44
IIIIIIII2IIAIIAIAI2A222AI222A22444444444A2222AAA44444A4422I42I44
IAI222222I4A44A4A42A222AI222A22444444444A2222AAA44444A4422I42I44
IAI222222I4A44A4A42A222AI222A22444444444A2222AAA44444A4422I4AI22
IAI222222I4A44A4A42A222AI222A22444444444A2222AAA44A44A4422I4AI22
IAI222222I4A44A4A42A222AI222A22444444444A2222AAA44A44I4422I4AI22
IAI222222I4A44A4A42A222AI222A22444444444A2222AAA44I44I4422I4AI22
IIIIIIIIIIIIIIIIIIIIIIIIIIIIIIIIIIIIIIIIIIIIIIIIIIIIIIIIIIIIA222
IIIIIIIIIIIIIIIIIIIIIIIIIIIIIIIIIIIIIIIIIIIIIIIIIIIIIIIIIIIIA22A
IIIIIIIIIIIIIIIIIIIIIIIIIIIIIIIIIIIIIIIIIIIIIIIIIIIIIIIIIIIIA2AA
IIIIIIIIIIIIIIIIIIIIIIIIIIIIIIIIIIIIIIIIIIIIIIIIIIIIIIIIIA22A2AA
IIIIIIIIIIIIIIIIIIIIIIIIIIIIIIIIIIIIIIIIIIIIIIIIIIIIIIIIIA22AAAA
IIIIIIIIIIIIIIIIIIIIIIIIIIIIIIIIIIIIIIIIIIIIIIIIIIIIA2222A22AAAA
IIIIIIIIIIIIIIIIIIIIIIIIIIIIIIIIIIIIIIIIIIIIIIIIIIIIA22A2A22AAAA
IIIIIIIIIIIIIIIIIIIIIIIIIIIIIIIIIIIIIIIIIIIIIIIIIA22A22A2A22AAAA
IIIIIIIIIIIIIIIIIIIIIIIIIIIIIIIIIIIIIIIIIIIIIA222A22A22A2A22AAAA
IIIIIIIIIIIIIIIIIIIIIIIIIIIIIIIIIIIIIIIIIIIIIA22AA22A22A2A22AAAA
IIIIIIIIIIIIIIIIIIIIIIIIIIIIIIIIIIIIIIIIIIIA2A22AA22A22A2A22AAAA
IIIIIIIIIIIIIIIIIIIIIIIIIIIIIIIIIIIIIIIIIIIA2AA2AA22A22A2A22AAAA
IIIIIIIIIIIIIIIIIIIIIIIIIIIIIIIIIIIIIIIIIIIA2AAAAA22A22A2A22AAAA
IIIIIIIIIIIIIIIIIIIIIIIIIIIIIIIIIIIIIIIIIIIAAAAAAA22A22A2A22AAAA
IIIIIIIIIIIIIIIIIIIIIIIIIIIIIIIIIIIIIIA2222AAAAAAA22A22A2A22AAAA
IIIIIIIIIIIIIIIIIIIIIIIIIIIIIIIIA22222A2222AAAAAAA22A22A2A22AAAA
IIIIIIIIIIIIIIIIIIIIIIIIIIIIIIIIA22222AA222AAAAAAA22A22A2A22AAAA
IIIIIIIIIIIIIIIIIIIIIIIIIIIIIA22A22222AA222AAAAAAA22A22A2A22AAAA
IIIIIIIIIIIIIIIIIIIIIIIIIIIIIA22A2A222AA222AAAAAAA22A22A2A22AAAA
IIIIIIIIIIIIIIIIIIIIIIIIIIIIAA22A2A222AA222AAAAAAA22A22A2A22AAAA
IIIIIIIIIIIIIIIIIIIIIA22222IAA22A2A222AA222AAAAAAA22A22A2A22AAAA
IIIIIIIIIIIIIIIIIIIIIA22222IAA2AA2A222AA222AAAAAAA22A22A2A22AAAA
IIIIIIIIIIIIIIIIIIIIIAA22222AA2AA2A222AA222AAAAAAA22A22A2A22AAAA
IIIIIIIIIIIIIIIIIIIIIAA222A2AA2AA2A222AA222AAAAAAA22A22A2A22AAAA
IIIIIIIIIIIIIIIIIIIIIAA222AAAA2AA2A222AA222AAAAAAA22A22A2A22AAAA
IIIIIIIIIIIIIIA22222IAA222AAAA2AA2A222AA222AAAAAAA22A22A2A22AAAA
IIIIIIIIIIIIIIA22222AAA222AAAA2AA2A222AA222AAAAAAA22A22A2A22AAAA
IIIIIIIIIIIIIIA2222AAAA222AAAA2AA2A222AA222AAAAAAA22A22A2A22AAAA
IIIIIIIIIIIIIAA2222AAAA222AAAA2AA2A222AA222AAAAAAA22A22A2A22AAAA
IIIIIIIIIIIA2AA2222AAAA222AAAA2AA2A222AA222AAAAAAA22A22A2A22AAAA
IIIIA22222IA2AA2222AAAA222AAAA2AA2A222AA222AAAAAAA22A22A2A22AAAA
IIIIA22222IA2AAA222AAAA222AAAA2AA2A222AA222AAAAAAA22A22A2A22AAAA
IIIIAA22222A2AAA222AAAA222AAAA2AA2A222AA222AAAAAAA22A22A2A22AAAA
IIIIAAA2222A2AAA222AAAA222AAAA2AA2A222AA222AAAAAAA22A22A2A22AAAA
IIIIAAA2222A2AAA222AAAA22IAAAA2AA2A222AA222AAAAAAA22A22A2A22AAAA
IIIIAAA2222A2AAA222AAAA22IAAAAIAA2A222AA222AAAAAAA22A22A2A22AAAA
IIIIAAA2222A2AAA222AAAA22IAAAAIAI2A222AA222AAAAAAA22A22A2A22AAAA
IIIIAAA2222A2AAA222AAAA22IAAAAIAIIA222AA222AAAAAAA22A22A2A22AAAA
IIIIAAA2222A2AAA222AAAA22IAAAAIAIII222AA222AAAAAAA22A22A2A22AAAA
IIIIAAA2222A2AAA222AAAA22IAAAAIAIIII22AA222AAAAAAA22A22A2A22AAAA
IIIIAAA2222A2AAA222AAAA22IAAAAIAIIIII2AA222AAAAAAA22A22A2A22AAAA
IIIIAAA2222A2AAA222AAAA22IAAAAIAIIIIIIAA222AAAAAAA22A22A2A22AAAA
IIIIAAA2222A2AAA222AAAA22IAAAAIAIIIIIIIA222AAAAAAA22A22A2A22AAAA
IIIIAAA2222A2AAA222AAAA22IAAAAIAIIIIIIII222AAAAAAA22A22A2A22AAAA
IIIIAAA2222A2AAA222AAAA22IAAAAIAIIIIIIIII22AAAAAAA22A22A2A22AAAA
IIIIAAA2222A2AAA222AAAA22IAAAAIAIIIIIIIIII2AAAAAAA22A22A2A22AAAA
IIIIAAA2222A2AAA222AAAA22IAAAAIAIIIIIIIIIIIAAAAAAA22A22A2A22AAAA
IIIIAAA2222A2AAA222AAAA22IAAAAIAIIIIIIIIIIIIAAAAAA22A22A2A22AAAA
IIIIAAA2222A2AAA222AAAA22IAAAAIAIIIIIIIIIIIIIAAAAA22A22A2A22AAAA
IIIIAAA2222A2AAA222AAIA22IAAAAIAIIIIIIIIIIIIIAAAAA22A22A2A22AAAA
IIIIAAA2222A2AAA222AAII22IAAAAIAIIIIIIIIIIIIIAAAAA22A22A2A22AAAA
IIIIAAA2222A2AAA222AAIII2IAAAAIAIIIIIIIIIIIIIAAAAA22A22A2A22AAAA
IIIIAAAI222A2AAA222AAIII2IAAAAIAIIIIIIIIIIIIIAAAAA22A22A2A22AAAA
IIIIAAAI222A2AAA222AAIIIIIAAAAIAIIIIIIIIIIIIIAAAAA22A22A2A22AAAA
IIIIAIAI222A2AAA222AAIIIIIAAAAIAIIIIIIIIIIIIIAAAAA22A22A2A22AAAA
IIIIAIII222A2AAA222AAIIIIIAAAAIAIIIIIIIIIIIIIAAAAA22A22A2A22AAAA
IIIIIIII222A2AAA222AAIIIIIAAAAIAIIIIIIIIIIIIIAAAAA22A22A2A22AAAA
IIIIIIII2I2A2AAA222AAIIIIIAAAAIAIIIIIIIIIIIIIAAAAA22A22A2A22AAAA
IIIIIIII2IIA2AAA222AAIIIIIAAAAIAIIIIIIIIIIIIIAAAAA22A22A2A22AAAA
IIIIIIII2IIA2AAA222AAIIIIIIAAAIAIIIIIIIIIIIIIAAAAA22A22A2A22AAAA
IIIIIIII2IIAIAAA222AAIIIIIIAAAIAIIIIIIIIIIIIIAAAAA22A22A2A22AAAA
IIIIIIII2IIAIIAA222AAIIIIIIAAAIAIIIIIIIIIIIIIAAAAA22A22A2A22AAAA
IIIIIIII2IIAIIAA222AAIIIIIIAAIIAIIIIIIIIIIIIIAAAAA22A22A2A22AAAA
IIIIIIII2IIAIIAI222AAIIIIIIAAIIAIIIIIIIIIIIIIAAAAA22A22A2A22AAAA
IIIIIIII2IIAIIAII22AAIIIIIIAAIIAIIIIIIIIIIIIIAAAAA22A22A2A22AAAA
IIIIIIII2IIAIIAII22AAIIIIIIAAIIIIIIIIIIIIIIIIAAAAA22A22A2A22AAAA
IIIIIIII2IIAIIAIII2AAIIIIIIAAIIIIIIIIIIIIIIIIAAAAA22A22A2A22AAAA
IIIIIIII2IIAIIAIIIIAAIIIIIIAAIIIIIIIIIIIIIIIIAAAAA22A22A2A22AAAA
IIIIIIII2IIAIIAIIIIAIIIIIIIAAIIIIIIIIIIIIIIIIAAAAA22A22A2A22AAAA
IIIIIIII2IIAIIAIIIIAIIIIIIIIAIIIIIIIIIIIIIIIIAAAAA22A22A2A22AAAA
IIIIIIII2IIAIIAIIIIAIIIIIIIIAIIIIIIIIIIIIIIIIAAAIA22A22A2A22AAAA
IIIIIIII2IIAIIAIIIIAIIIIIIIIAIIIIIIIIIIIIIIIIAAAII22A22A2A22AAAA
IIIIIIII2IIAIIAIIIIAIIIIIIIIAIIIIIIIIIIIIIIIIAAAIII2A22A2A22AAAA
IIIIIIII2IIAIIAIIIIAIIIIIIIIAIIIIIIIIIIIIIIIIAAAIIIIA22A2A22AAAA
IIIIIIII2IIAIIAIIIIAIIIIIIIIAIIIIIIIIIIIIIIIIAAAIIIII22A2A22AAAA
IIIIIIII2IIAIIAIIIIAIIIIIIIIAIIIIIIIIIIIIIIIIAAAIIIIII2A2A22AAAA
IIIIIIII2IIAIIAIIIIAIIIIIIIIAIIIIIIIIIIIIIIIIAAAIIIIIIIA2A22AAAA
IIIIIIII2IIAIIAIIIIAIIIIIIIIAIIIIIIIIIIIIIIIIAAAIIIIIIII2A22AAAA
IIIIIIII2IIAIIAIIIIAIIIIIIIIAIIIIIIIIIIIIIIIIAAAIIIIIIIIIA22AAAA
IIIIIIII2IIAIIAIIIIAIIIIIIIIAIIIIIIIIIIIIIIIIAAAIIIIIIIIII22AAAA
IIIIIIII2IIAIIAIIIIAIIIIIIIIAIIIIIIIIIIIIIIIIAAAIIIIIIIIIII2AAAA
IIIIIIII2IIAIIAIIIIAIIIIIIIIAIIIIIIIIIIIIIIIIAAAIIIIIIIIIIIIAAAA
IIIIIIII2IIAIIAIIIIAIIIIIIIIAIIIIIIIIIIIIIIIIAAAIIIIIIIIIIIIIAAA
IIIIIIII2IIAIIAIIIIAIIIIIIIIAIIIIIIIIIIIIIIIIAAAIIIIIIIIIIIIIIAA
IIIIIIII2IIAIIAIIIIAIIIIIIIIAIIIIIIIIIIIIIIIIAAAIIIIIIIIIIIIIIIA
IIIIIIII2IIAIIAIIIIAIIIIIIIIAIIIIIIIIIIIIIIIIAAAIIIIIIIIIIIIIIII
IIIIIIII2IIAIIAIIIIAIIIIIIIIAIIIIIIIIIIIIIIIIAAAIIIIIIIIIIA22222
IIIIIIII2IIAIIAIIIIAIIIIIIIIAIIIIIIIIIIIIIIIIAAAIIIIIIAI22A22222
IIIIIIII2IIAIIAIIIIAIIIIIIIIAIIIIIIIIIIIIIIIIAAAIIIIIIAI22A222I2
IIIIIIII2IIAIIAIIIIAIIIIIIIIAIIIIIIIIIIIIIIIIAAAIIIIIIAI22A222II
IIIIIIII2IIAIIAIIIIAIIIIIIIIAIIIIIIIIIIIIIIIIAAAIIIIIIAI22I222II
IIIIIIII2IIAIIAIIIIAIIIIIIIIAIIIIIIIIIIIIIIIIAAAIIIIIIAI22II22II
IIIIIIII2IIAIIAIIIIAIIIIIIIIAIIIIIIIIIIIIIIIIAAAIIIIIIAI22II2III
IIIIIIII2IIAIIAIIIIAIIIIIIIIAIIIIIIIIIIIIIIIIAAAIIAI22A222242444
IIIIIIII2IIAIIAIIIIAIIIIIIIIAIIIIIIIIIIIIIIIIAAAIIAI22I222242444
IIIIIIII2IIAIIAIIIIAIIIIIIIIAIIIIIIIIIIIIIIIIAAAIIAI22I2I2242444
IIIIIIII2IIAIIAIIIIAIIIIIIIIAIIIIIIIIIIIIIIIIAAAIIAI22I2II242444
IIIIIIII2IIAIIAIIIIAIIIIIIIIAIIIIIIIIIIIIIIIIAAAIIAI2AI222242244
IIIIIIII2IIAIIAIIIIAIIIIIIIIAIIIIIIIIIIIIIIIIAAAIIAI2AII22242244
IIIIIIII2IIAIIAIIIIAIIIIIIIIAIIIIIIIIIIIIIIIIAAAIIII2AII22242244
IIIIIIII2IIAIIAIIIIAIIIIIIIIAIIIIIIIIIIIIIIIIAAAIIIIIAII22242244
IIIIIIII2IIAIIAIIIIAIIIIIIIIAIIIIIIIIIIIIIIIIAAAIIIIIAII22I42244
IIIIIIII2IIAIIAIIIIAIIIIIIIIAIIIIIIIIIIIIIIIIAAAIIIIIAII22I42I44
IIIIIIII2IIAIIAIIIIAIIIIIIIIAIIIIIIIAI2222244AAA44444AII22I42I44
IIIIIIII2IIAIIAIIIIAIIIIIIIIAIIIIIIIAI2222222AAA44444AII22I42I44
IIIIIIII2IIAIIAIIIIAIIIIIIIIAIAI22I2A22222222AAA44444AII22I42I44
IIIIIIII2IIAIIAIIIIAIIIIIIIIAIAI22I2A22222I22AAA44444AII22I42I44
IIIIIIII2IIAIIAIIIIAIIIIIIIIAIAI22I2A2I222I22AAA44444AII22I42I44
IIIIIIII2IIAIIAIIIIAIIIIIIIIAIAI22I2A2II22I22AAA44444AII22I42I44
IIIIIIII2IIAIIAIIIIAIIIIIIIIAIAI22I2A2III2I22AAA44444AII22I42I44
IIIIIIII2IIAIIAIIIIAIIIIIIIIAIAI22I2I2III2I22AAA44444AII22I42I44
IIIIIIII2IIAIIAIIIIAIIIIIIIIAIAI22I2I2III2II2AAA44444AII22I42I44
IIIIIIII2IIAIIAIIIIAIIIIIIIIAIAI22I2I2III2IIIAAA44444AII22I42I44
IIIIIIII2IIAIIAIIIIAIIIIIIIIAIII22I2I2III2IIIAAA44444AII22I42I44
IIIIIIII2IIAIIAIIIIAIIIIIIIIAIIII2I2I2III2IIIAAA44444AII22I42I44
IIIIIIII2IIAIIAIIIIAIIIIIIIIAIIII2I2IIIII2IIIAAA44444AII22I42I44
[MLOP] Prefetch Degree Mean: 7.81990
[MLOP] Prefetch Degree SD: 5.98442
[MLOP] Max Score Left Mean (%): 34.83325
[MLOP] Max Score Left SD (%): 26.10180
[MLOP] Max Score Right Mean (%): 66.40398
[MLOP] Max Score Right SD (%): 22.13803

Channel_0_RQ_row_buffer_hit 3298759
Channel_0_RQ_row_buffer_miss 5736963
Channel_0_WQ_row_buffer_hit 793112
Channel_0_WQ_row_buffer_miss 2516865
Channel_0_WQ_full 0
Channel_0_dbus_congested 10415166

avg_congested_cycle 48

DRAM_bw_pochs 4779890
DRAM_bw_level_0 1892085
DRAM_bw_level_1 547433
DRAM_bw_level_2 455847
DRAM_bw_level_3 1884525
