*************************************************
   ChampSim Multicore Out-of-Order Simulator
   Last compiled: Dec 11 2024 17:59:53
*************************************************
parsing config file: /home/functionmain/桌面/Pythia/config/spp_dev2.ini

trace_0 /home/functionmain/桌面/Pythia/traces/403.gcc-16B.champsimtrace.xz
adding L2C_PREFETCHER: SPP_dev2
Initialize SIGNATURE TABLE
ST_SET: 1
ST_WAY: 256
ST_TAG_BIT: 16
ST_TAG_MASK: ffff

Initialize PATTERN TABLE
PT_SET: 512
PT_WAY: 4
SIG_DELTA_BIT: 7
C_SIG_BIT: 4
C_DELTA_BIT: 4

Initialize PREFETCH FILTER
FILTER_SET: 1024
fill_threshold: 90
pf_threshold: 40

Initialize SHIP state
warmup_instructions 100000000
simulation_instructions 500000000
champsim_seed 169
measure_ipc 0
measure_ipc_epoch 1000
measure_dram_bw 1
measure_dram_bw_epoch 256
measure_cache_acc 1
measure_cache_acc_epoch 1024
l1d_perfect 0
l2c_perfect 0
llc_perfect 0
l1d_semi_perfect 0
l2c_semi_perfect 0
llc_semi_perfect 0
semi_perfect_cache_page_buffer_size 64

num_cpus 1
cpu_freq 4000
dram_io_freq 300
page_size 4096
block_size 64
max_read_per_cycle 8
max_fill_per_cycle 1
dram_channels 1
log2_dram_channels 0
dram_ranks 1
dram_banks 8
dram_rows 65536
dram_columns 128
dram_row_size 8
dram_size 4096
dram_pages 1048576

fetch_width 6
decode_width 6
exec_width 4
lq_width 2
sq_width 2
retire_width 4
scheduler_size 128
branch_mispredict_penalty 20
rob_size 256
lq_size 72
sq_size 56
num_instr_destinations_sparc 4
num_instr_destinations 2
num_instr_sources 4

itlb_set 16
itlb_way 8
itlb_rq_size 16
itlb_wq_size 16
itlb_pq_size 0
itlb_mshr_size 8
itlb_latency 1

dtlb_set 16
dtlb_way 4
dtlb_rq_size 16
dtlb_wq_size 16
dtlb_pq_size 0
dtlb_mshr_size 8
dtlb_latency 1

stlb_set 128
stlb_way 12
stlb_rq_size 32
stlb_wq_size 32
stlb_pq_size 0
stlb_mshr_size 16
stlb_latency 8

l1i_size 32
l1i_set 64
l1i_way 8
l1i_rq_size 64
l1i_wq_size 64
l1i_pq_size 8
l1i_mshr_size 8
l1i_latency 1

l1d_size 32
l1d_set 64
l1d_way 8
l1d_rq_size 64
l1d_wq_size 64
l1d_pq_size 8
l1d_mshr_size 16
l1d_latency 4

l2c_size 256
l2c_set 512
l2c_way 8
l2c_rq_size 32
l2c_wq_size 32
l2c_pq_size 32
l2c_mshr_size 32
l2c_latency 10

llc_size 2048
llc_set 2048
llc_way 16
llc_rq_size 32
llc_wq_size 32
llc_pq_size 32
llc_mshr_size 64
llc_latency 20

dram_channel_width 8
dram_wq_size 64
dram_rq_size 64
tRP 15
tRCD 15
tCAS 12.5
dram_dbus_turn_around_time 30
dram_write_high_wm 56
dram_write_low_wm 48
min_dram_writes_per_switch 16
dram_mtps 300
dram_dbus_return_time 106


Heartbeat CPU  0 instructions:    1000000 cycles:     453077 heartbeat IPC: 2.20713 cumulative IPC: 2.20713 (Simulation time: 0 hr 0 min 1 sec) 
Heartbeat CPU  0 instructions:    2000000 cycles:     861359 heartbeat IPC: 2.44929 cumulative IPC: 2.32191 (Simulation time: 0 hr 0 min 3 sec) 
Heartbeat CPU  0 instructions:    3000003 cycles:    1299549 heartbeat IPC: 2.28212 cumulative IPC: 2.30850 (Simulation time: 0 hr 0 min 4 sec) 
Heartbeat CPU  0 instructions:    4000000 cycles:    1765800 heartbeat IPC: 2.14476 cumulative IPC: 2.26526 (Simulation time: 0 hr 0 min 6 sec) 
Heartbeat CPU  0 instructions:    5000000 cycles:    2181292 heartbeat IPC: 2.40679 cumulative IPC: 2.29222 (Simulation time: 0 hr 0 min 7 sec) 
Heartbeat CPU  0 instructions:    6000000 cycles:    2658649 heartbeat IPC: 2.09487 cumulative IPC: 2.25679 (Simulation time: 0 hr 0 min 9 sec) 
Heartbeat CPU  0 instructions:    7000002 cycles:    3082296 heartbeat IPC: 2.36046 cumulative IPC: 2.27103 (Simulation time: 0 hr 0 min 10 sec) 
Heartbeat CPU  0 instructions:    8000000 cycles:    3488503 heartbeat IPC: 2.46179 cumulative IPC: 2.29325 (Simulation time: 0 hr 0 min 12 sec) 
Heartbeat CPU  0 instructions:    9000003 cycles:    3937173 heartbeat IPC: 2.22882 cumulative IPC: 2.28590 (Simulation time: 0 hr 0 min 14 sec) 
Heartbeat CPU  0 instructions:   10000001 cycles:    4377848 heartbeat IPC: 2.26924 cumulative IPC: 2.28423 (Simulation time: 0 hr 0 min 15 sec) 
Heartbeat CPU  0 instructions:   11000000 cycles:    4782061 heartbeat IPC: 2.47394 cumulative IPC: 2.30026 (Simulation time: 0 hr 0 min 17 sec) 
Heartbeat CPU  0 instructions:   12000000 cycles:    5196292 heartbeat IPC: 2.41411 cumulative IPC: 2.30934 (Simulation time: 0 hr 0 min 18 sec) 
Heartbeat CPU  0 instructions:   13000001 cycles:    5649430 heartbeat IPC: 2.20684 cumulative IPC: 2.30112 (Simulation time: 0 hr 0 min 20 sec) 
Heartbeat CPU  0 instructions:   14000003 cycles:    6084744 heartbeat IPC: 2.29720 cumulative IPC: 2.30084 (Simulation time: 0 hr 0 min 21 sec) 
Heartbeat CPU  0 instructions:   15000000 cycles:    6489858 heartbeat IPC: 2.46843 cumulative IPC: 2.31130 (Simulation time: 0 hr 0 min 23 sec) 
Heartbeat CPU  0 instructions:   16000000 cycles:    6910079 heartbeat IPC: 2.37970 cumulative IPC: 2.31546 (Simulation time: 0 hr 0 min 24 sec) 
Heartbeat CPU  0 instructions:   17000001 cycles:    7353041 heartbeat IPC: 2.25753 cumulative IPC: 2.31197 (Simulation time: 0 hr 0 min 26 sec) 
Heartbeat CPU  0 instructions:   18000000 cycles:    7788351 heartbeat IPC: 2.29721 cumulative IPC: 2.31114 (Simulation time: 0 hr 0 min 27 sec) 
Heartbeat CPU  0 instructions:   19000001 cycles:    8188945 heartbeat IPC: 2.49630 cumulative IPC: 2.32020 (Simulation time: 0 hr 0 min 29 sec) 
Heartbeat CPU  0 instructions:   20000000 cycles:    8635696 heartbeat IPC: 2.23838 cumulative IPC: 2.31597 (Simulation time: 0 hr 0 min 30 sec) 
Heartbeat CPU  0 instructions:   21000001 cycles:    9080899 heartbeat IPC: 2.24617 cumulative IPC: 2.31255 (Simulation time: 0 hr 0 min 32 sec) 
Heartbeat CPU  0 instructions:   22000000 cycles:    9481624 heartbeat IPC: 2.49547 cumulative IPC: 2.32028 (Simulation time: 0 hr 0 min 33 sec) 
Heartbeat CPU  0 instructions:   23000003 cycles:    9895914 heartbeat IPC: 2.41378 cumulative IPC: 2.32419 (Simulation time: 0 hr 0 min 35 sec) 
Heartbeat CPU  0 instructions:   24000000 cycles:   10338175 heartbeat IPC: 2.26110 cumulative IPC: 2.32149 (Simulation time: 0 hr 0 min 36 sec) 
Heartbeat CPU  0 instructions:   25000000 cycles:   10787162 heartbeat IPC: 2.22724 cumulative IPC: 2.31757 (Simulation time: 0 hr 0 min 38 sec) 
Heartbeat CPU  0 instructions:   26000000 cycles:   11183469 heartbeat IPC: 2.52330 cumulative IPC: 2.32486 (Simulation time: 0 hr 0 min 39 sec) 
Heartbeat CPU  0 instructions:   27000001 cycles:   11598299 heartbeat IPC: 2.41063 cumulative IPC: 2.32793 (Simulation time: 0 hr 0 min 41 sec) 
Heartbeat CPU  0 instructions:   28000000 cycles:   12046057 heartbeat IPC: 2.23335 cumulative IPC: 2.32441 (Simulation time: 0 hr 0 min 42 sec) 
Heartbeat CPU  0 instructions:   29000000 cycles:   12478937 heartbeat IPC: 2.31011 cumulative IPC: 2.32392 (Simulation time: 0 hr 0 min 44 sec) 
Heartbeat CPU  0 instructions:   30000003 cycles:   12886750 heartbeat IPC: 2.45211 cumulative IPC: 2.32797 (Simulation time: 0 hr 0 min 45 sec) 
Heartbeat CPU  0 instructions:   31000003 cycles:   13377015 heartbeat IPC: 2.03971 cumulative IPC: 2.31741 (Simulation time: 0 hr 0 min 47 sec) 
Heartbeat CPU  0 instructions:   32000000 cycles:   13779741 heartbeat IPC: 2.48307 cumulative IPC: 2.32225 (Simulation time: 0 hr 0 min 48 sec) 
Heartbeat CPU  0 instructions:   33000001 cycles:   14203744 heartbeat IPC: 2.35848 cumulative IPC: 2.32333 (Simulation time: 0 hr 0 min 50 sec) 
Heartbeat CPU  0 instructions:   34000003 cycles:   14655903 heartbeat IPC: 2.21162 cumulative IPC: 2.31988 (Simulation time: 0 hr 0 min 51 sec) 
Heartbeat CPU  0 instructions:   35000002 cycles:   15077346 heartbeat IPC: 2.37280 cumulative IPC: 2.32136 (Simulation time: 0 hr 0 min 53 sec) 
Heartbeat CPU  0 instructions:   36000000 cycles:   15474581 heartbeat IPC: 2.51740 cumulative IPC: 2.32640 (Simulation time: 0 hr 0 min 54 sec) 
Heartbeat CPU  0 instructions:   37000001 cycles:   15910024 heartbeat IPC: 2.29651 cumulative IPC: 2.32558 (Simulation time: 0 hr 0 min 56 sec) 
Heartbeat CPU  0 instructions:   38000000 cycles:   16358253 heartbeat IPC: 2.23100 cumulative IPC: 2.32299 (Simulation time: 0 hr 0 min 57 sec) 
Heartbeat CPU  0 instructions:   39000000 cycles:   16774566 heartbeat IPC: 2.40204 cumulative IPC: 2.32495 (Simulation time: 0 hr 0 min 59 sec) 
Heartbeat CPU  0 instructions:   40000000 cycles:   17173069 heartbeat IPC: 2.50939 cumulative IPC: 2.32923 (Simulation time: 0 hr 1 min 0 sec) 
Heartbeat CPU  0 instructions:   41000003 cycles:   17615181 heartbeat IPC: 2.26188 cumulative IPC: 2.32754 (Simulation time: 0 hr 1 min 2 sec) 
Heartbeat CPU  0 instructions:   42000003 cycles:   18057454 heartbeat IPC: 2.26105 cumulative IPC: 2.32591 (Simulation time: 0 hr 1 min 4 sec) 
Heartbeat CPU  0 instructions:   43000002 cycles:   18463657 heartbeat IPC: 2.46182 cumulative IPC: 2.32890 (Simulation time: 0 hr 1 min 5 sec) 
Heartbeat CPU  0 instructions:   44000000 cycles:   18914073 heartbeat IPC: 2.22017 cumulative IPC: 2.32631 (Simulation time: 0 hr 1 min 7 sec) 
Heartbeat CPU  0 instructions:   45000000 cycles:   19361887 heartbeat IPC: 2.23307 cumulative IPC: 2.32415 (Simulation time: 0 hr 1 min 8 sec) 
Heartbeat CPU  0 instructions:   46000003 cycles:   19775250 heartbeat IPC: 2.41919 cumulative IPC: 2.32614 (Simulation time: 0 hr 1 min 10 sec) 
Heartbeat CPU  0 instructions:   47000003 cycles:   20228669 heartbeat IPC: 2.20547 cumulative IPC: 2.32344 (Simulation time: 0 hr 1 min 11 sec) 
Heartbeat CPU  0 instructions:   48000000 cycles:   20652403 heartbeat IPC: 2.35996 cumulative IPC: 2.32418 (Simulation time: 0 hr 1 min 13 sec) 
Heartbeat CPU  0 instructions:   49000003 cycles:   21061143 heartbeat IPC: 2.44655 cumulative IPC: 2.32656 (Simulation time: 0 hr 1 min 14 sec) 
Heartbeat CPU  0 instructions:   50000000 cycles:   21501457 heartbeat IPC: 2.27110 cumulative IPC: 2.32542 (Simulation time: 0 hr 1 min 16 sec) 
Heartbeat CPU  0 instructions:   51000003 cycles:   21938490 heartbeat IPC: 2.28816 cumulative IPC: 2.32468 (Simulation time: 0 hr 1 min 17 sec) 
Heartbeat CPU  0 instructions:   52000000 cycles:   22345835 heartbeat IPC: 2.45491 cumulative IPC: 2.32706 (Simulation time: 0 hr 1 min 19 sec) 
Heartbeat CPU  0 instructions:   53000000 cycles:   22761289 heartbeat IPC: 2.40701 cumulative IPC: 2.32851 (Simulation time: 0 hr 1 min 20 sec) 
Heartbeat CPU  0 instructions:   54000001 cycles:   23201173 heartbeat IPC: 2.27333 cumulative IPC: 2.32747 (Simulation time: 0 hr 1 min 22 sec) 
Heartbeat CPU  0 instructions:   55000001 cycles:   23636139 heartbeat IPC: 2.29903 cumulative IPC: 2.32695 (Simulation time: 0 hr 1 min 23 sec) 
Heartbeat CPU  0 instructions:   56000000 cycles:   24043459 heartbeat IPC: 2.45507 cumulative IPC: 2.32912 (Simulation time: 0 hr 1 min 25 sec) 
Heartbeat CPU  0 instructions:   57000003 cycles:   24459210 heartbeat IPC: 2.40529 cumulative IPC: 2.33041 (Simulation time: 0 hr 1 min 26 sec) 
Heartbeat CPU  0 instructions:   58000001 cycles:   24906420 heartbeat IPC: 2.23608 cumulative IPC: 2.32872 (Simulation time: 0 hr 1 min 28 sec) 
Heartbeat CPU  0 instructions:   59000000 cycles:   25337099 heartbeat IPC: 2.32191 cumulative IPC: 2.32860 (Simulation time: 0 hr 1 min 29 sec) 
Heartbeat CPU  0 instructions:   60000000 cycles:   25732816 heartbeat IPC: 2.52706 cumulative IPC: 2.33165 (Simulation time: 0 hr 1 min 31 sec) 
Heartbeat CPU  0 instructions:   61000001 cycles:   26184516 heartbeat IPC: 2.21386 cumulative IPC: 2.32962 (Simulation time: 0 hr 1 min 32 sec) 
Heartbeat CPU  0 instructions:   62000001 cycles:   26622588 heartbeat IPC: 2.28273 cumulative IPC: 2.32885 (Simulation time: 0 hr 1 min 34 sec) 
Heartbeat CPU  0 instructions:   63000000 cycles:   27026611 heartbeat IPC: 2.47510 cumulative IPC: 2.33104 (Simulation time: 0 hr 1 min 35 sec) 
Heartbeat CPU  0 instructions:   64000000 cycles:   27436250 heartbeat IPC: 2.44117 cumulative IPC: 2.33268 (Simulation time: 0 hr 1 min 37 sec) 
Heartbeat CPU  0 instructions:   65000001 cycles:   27884226 heartbeat IPC: 2.23226 cumulative IPC: 2.33107 (Simulation time: 0 hr 1 min 38 sec) 
Heartbeat CPU  0 instructions:   66000003 cycles:   28322666 heartbeat IPC: 2.28082 cumulative IPC: 2.33029 (Simulation time: 0 hr 1 min 40 sec) 
Heartbeat CPU  0 instructions:   67000000 cycles:   28721998 heartbeat IPC: 2.50417 cumulative IPC: 2.33271 (Simulation time: 0 hr 1 min 41 sec) 
Heartbeat CPU  0 instructions:   68000000 cycles:   29138173 heartbeat IPC: 2.40284 cumulative IPC: 2.33371 (Simulation time: 0 hr 1 min 43 sec) 
Heartbeat CPU  0 instructions:   69000001 cycles:   29579556 heartbeat IPC: 2.26561 cumulative IPC: 2.33269 (Simulation time: 0 hr 1 min 44 sec) 
Heartbeat CPU  0 instructions:   70000001 cycles:   30013068 heartbeat IPC: 2.30674 cumulative IPC: 2.33232 (Simulation time: 0 hr 1 min 46 sec) 
Heartbeat CPU  0 instructions:   71000003 cycles:   30438442 heartbeat IPC: 2.35088 cumulative IPC: 2.33258 (Simulation time: 0 hr 1 min 47 sec) 
Heartbeat CPU  0 instructions:   72000000 cycles:   30914124 heartbeat IPC: 2.10224 cumulative IPC: 2.32903 (Simulation time: 0 hr 1 min 49 sec) 
Heartbeat CPU  0 instructions:   73000001 cycles:   31310569 heartbeat IPC: 2.52242 cumulative IPC: 2.33148 (Simulation time: 0 hr 1 min 50 sec) 
Heartbeat CPU  0 instructions:   74000000 cycles:   31750402 heartbeat IPC: 2.27359 cumulative IPC: 2.33068 (Simulation time: 0 hr 1 min 52 sec) 
Heartbeat CPU  0 instructions:   75000003 cycles:   32201616 heartbeat IPC: 2.21625 cumulative IPC: 2.32908 (Simulation time: 0 hr 1 min 54 sec) 
Heartbeat CPU  0 instructions:   76000000 cycles:   32602587 heartbeat IPC: 2.49394 cumulative IPC: 2.33110 (Simulation time: 0 hr 1 min 55 sec) 
Heartbeat CPU  0 instructions:   77000001 cycles:   33019478 heartbeat IPC: 2.39871 cumulative IPC: 2.33196 (Simulation time: 0 hr 1 min 57 sec) 
Heartbeat CPU  0 instructions:   78000001 cycles:   33454632 heartbeat IPC: 2.29804 cumulative IPC: 2.33152 (Simulation time: 0 hr 1 min 58 sec) 
Heartbeat CPU  0 instructions:   79000000 cycles:   33901101 heartbeat IPC: 2.23979 cumulative IPC: 2.33031 (Simulation time: 0 hr 2 min 0 sec) 
Heartbeat CPU  0 instructions:   80000000 cycles:   34297183 heartbeat IPC: 2.52473 cumulative IPC: 2.33255 (Simulation time: 0 hr 2 min 1 sec) 
Heartbeat CPU  0 instructions:   81000003 cycles:   34715051 heartbeat IPC: 2.39311 cumulative IPC: 2.33328 (Simulation time: 0 hr 2 min 3 sec) 
Heartbeat CPU  0 instructions:   82000003 cycles:   35156385 heartbeat IPC: 2.26586 cumulative IPC: 2.33244 (Simulation time: 0 hr 2 min 4 sec) 
Heartbeat CPU  0 instructions:   83000000 cycles:   35591515 heartbeat IPC: 2.29816 cumulative IPC: 2.33202 (Simulation time: 0 hr 2 min 6 sec) 
Heartbeat CPU  0 instructions:   84000000 cycles:   35984940 heartbeat IPC: 2.54178 cumulative IPC: 2.33431 (Simulation time: 0 hr 2 min 7 sec) 
Heartbeat CPU  0 instructions:   85000000 cycles:   36425452 heartbeat IPC: 2.27009 cumulative IPC: 2.33353 (Simulation time: 0 hr 2 min 9 sec) 
Heartbeat CPU  0 instructions:   86000001 cycles:   36866251 heartbeat IPC: 2.26861 cumulative IPC: 2.33276 (Simulation time: 0 hr 2 min 10 sec) 
Heartbeat CPU  0 instructions:   87000002 cycles:   37277624 heartbeat IPC: 2.43089 cumulative IPC: 2.33384 (Simulation time: 0 hr 2 min 12 sec) 
Heartbeat CPU  0 instructions:   88000000 cycles:   37693627 heartbeat IPC: 2.40382 cumulative IPC: 2.33461 (Simulation time: 0 hr 2 min 13 sec) 
Heartbeat CPU  0 instructions:   89000001 cycles:   38129927 heartbeat IPC: 2.29200 cumulative IPC: 2.33412 (Simulation time: 0 hr 2 min 15 sec) 
Heartbeat CPU  0 instructions:   90000000 cycles:   38564580 heartbeat IPC: 2.30068 cumulative IPC: 2.33375 (Simulation time: 0 hr 2 min 16 sec) 
Heartbeat CPU  0 instructions:   91000000 cycles:   38970622 heartbeat IPC: 2.46280 cumulative IPC: 2.33509 (Simulation time: 0 hr 2 min 18 sec) 
Heartbeat CPU  0 instructions:   92000000 cycles:   39389103 heartbeat IPC: 2.38959 cumulative IPC: 2.33567 (Simulation time: 0 hr 2 min 19 sec) 
Heartbeat CPU  0 instructions:   93000000 cycles:   39822638 heartbeat IPC: 2.30662 cumulative IPC: 2.33536 (Simulation time: 0 hr 2 min 21 sec) 
Heartbeat CPU  0 instructions:   94000002 cycles:   40262800 heartbeat IPC: 2.27190 cumulative IPC: 2.33466 (Simulation time: 0 hr 2 min 22 sec) 
Heartbeat CPU  0 instructions:   95000000 cycles:   40654840 heartbeat IPC: 2.55076 cumulative IPC: 2.33675 (Simulation time: 0 hr 2 min 24 sec) 
Heartbeat CPU  0 instructions:   96000000 cycles:   41088773 heartbeat IPC: 2.30450 cumulative IPC: 2.33640 (Simulation time: 0 hr 2 min 25 sec) 
Heartbeat CPU  0 instructions:   97000001 cycles:   41551378 heartbeat IPC: 2.16167 cumulative IPC: 2.33446 (Simulation time: 0 hr 2 min 27 sec) 
Heartbeat CPU  0 instructions:   98000003 cycles:   41970530 heartbeat IPC: 2.38577 cumulative IPC: 2.33497 (Simulation time: 0 hr 2 min 28 sec) 
Heartbeat CPU  0 instructions:   99000001 cycles:   42412898 heartbeat IPC: 2.26056 cumulative IPC: 2.33420 (Simulation time: 0 hr 2 min 30 sec) 
Heartbeat CPU  0 instructions:  100000000 cycles:   42844099 heartbeat IPC: 2.31910 cumulative IPC: 2.33404 (Simulation time: 0 hr 2 min 31 sec) 

Warmup complete CPU  0 instructions:  100000001 cycles:   42844100 (Simulation time: 0 hr 2 min 31 sec) 

Heartbeat CPU  0 instructions:  101000001 cycles:   43521729 heartbeat IPC: 1.47573 cumulative IPC: 1.47573 (Simulation time: 0 hr 2 min 33 sec) 
Heartbeat CPU  0 instructions:  102000003 cycles:   44209588 heartbeat IPC: 1.45379 cumulative IPC: 1.46468 (Simulation time: 0 hr 2 min 35 sec) 
Heartbeat CPU  0 instructions:  103000003 cycles:   44893028 heartbeat IPC: 1.46319 cumulative IPC: 1.46418 (Simulation time: 0 hr 2 min 37 sec) 
Heartbeat CPU  0 instructions:  104000000 cycles:   45578674 heartbeat IPC: 1.45847 cumulative IPC: 1.46275 (Simulation time: 0 hr 2 min 38 sec) 
Heartbeat CPU  0 instructions:  105000001 cycles:   46268372 heartbeat IPC: 1.44991 cumulative IPC: 1.46016 (Simulation time: 0 hr 2 min 40 sec) 
Heartbeat CPU  0 instructions:  106000000 cycles:   46952135 heartbeat IPC: 1.46249 cumulative IPC: 1.46055 (Simulation time: 0 hr 2 min 42 sec) 
Heartbeat CPU  0 instructions:  107000001 cycles:   47636424 heartbeat IPC: 1.46137 cumulative IPC: 1.46067 (Simulation time: 0 hr 2 min 43 sec) 
Heartbeat CPU  0 instructions:  108000000 cycles:   48362798 heartbeat IPC: 1.37670 cumulative IPC: 1.44962 (Simulation time: 0 hr 2 min 45 sec) 
Heartbeat CPU  0 instructions:  109000001 cycles:   49047653 heartbeat IPC: 1.46016 cumulative IPC: 1.45078 (Simulation time: 0 hr 2 min 47 sec) 
Heartbeat CPU  0 instructions:  110000003 cycles:   49844605 heartbeat IPC: 1.25478 cumulative IPC: 1.42847 (Simulation time: 0 hr 2 min 49 sec) 
Heartbeat CPU  0 instructions:  111000000 cycles:   50706981 heartbeat IPC: 1.15958 cumulative IPC: 1.39898 (Simulation time: 0 hr 2 min 50 sec) 
Heartbeat CPU  0 instructions:  112000000 cycles:   51528863 heartbeat IPC: 1.21672 cumulative IPC: 1.38173 (Simulation time: 0 hr 2 min 52 sec) 
Heartbeat CPU  0 instructions:  113000003 cycles:   52236019 heartbeat IPC: 1.41412 cumulative IPC: 1.38417 (Simulation time: 0 hr 2 min 54 sec) 
Heartbeat CPU  0 instructions:  114000001 cycles:   52939475 heartbeat IPC: 1.42155 cumulative IPC: 1.38677 (Simulation time: 0 hr 2 min 56 sec) 
Heartbeat CPU  0 instructions:  115000002 cycles:   53660013 heartbeat IPC: 1.38785 cumulative IPC: 1.38685 (Simulation time: 0 hr 2 min 58 sec) 
Heartbeat CPU  0 instructions:  116000000 cycles:   54348423 heartbeat IPC: 1.45262 cumulative IPC: 1.39078 (Simulation time: 0 hr 2 min 59 sec) 
Heartbeat CPU  0 instructions:  117000000 cycles:   55018308 heartbeat IPC: 1.49279 cumulative IPC: 1.39639 (Simulation time: 0 hr 3 min 1 sec) 
Heartbeat CPU  0 instructions:  118000000 cycles:   55670064 heartbeat IPC: 1.53432 cumulative IPC: 1.40340 (Simulation time: 0 hr 3 min 3 sec) 
Heartbeat CPU  0 instructions:  119000002 cycles:   56397219 heartbeat IPC: 1.37523 cumulative IPC: 1.40189 (Simulation time: 0 hr 3 min 4 sec) 
Heartbeat CPU  0 instructions:  120000000 cycles:   57078790 heartbeat IPC: 1.46720 cumulative IPC: 1.40502 (Simulation time: 0 hr 3 min 6 sec) 
Heartbeat CPU  0 instructions:  121000002 cycles:   57750653 heartbeat IPC: 1.48840 cumulative IPC: 1.40878 (Simulation time: 0 hr 3 min 8 sec) 
Heartbeat CPU  0 instructions:  122000000 cycles:   58431763 heartbeat IPC: 1.46819 cumulative IPC: 1.41137 (Simulation time: 0 hr 3 min 10 sec) 
Heartbeat CPU  0 instructions:  123000002 cycles:   59169081 heartbeat IPC: 1.35627 cumulative IPC: 1.40888 (Simulation time: 0 hr 3 min 11 sec) 
Heartbeat CPU  0 instructions:  124000000 cycles:   59923784 heartbeat IPC: 1.32502 cumulative IPC: 1.40518 (Simulation time: 0 hr 3 min 13 sec) 
Heartbeat CPU  0 instructions:  125000000 cycles:   60601365 heartbeat IPC: 1.47584 cumulative IPC: 1.40787 (Simulation time: 0 hr 3 min 15 sec) 
Heartbeat CPU  0 instructions:  126000000 cycles:   61316115 heartbeat IPC: 1.39909 cumulative IPC: 1.40753 (Simulation time: 0 hr 3 min 17 sec) 
Heartbeat CPU  0 instructions:  127000003 cycles:   62040425 heartbeat IPC: 1.38063 cumulative IPC: 1.40652 (Simulation time: 0 hr 3 min 18 sec) 
Heartbeat CPU  0 instructions:  128000000 cycles:   62714486 heartbeat IPC: 1.48354 cumulative IPC: 1.40913 (Simulation time: 0 hr 3 min 20 sec) 
Heartbeat CPU  0 instructions:  129000001 cycles:   63361611 heartbeat IPC: 1.54530 cumulative IPC: 1.41343 (Simulation time: 0 hr 3 min 22 sec) 
Heartbeat CPU  0 instructions:  130000001 cycles:   64053226 heartbeat IPC: 1.44589 cumulative IPC: 1.41449 (Simulation time: 0 hr 3 min 24 sec) 
Heartbeat CPU  0 instructions:  131000002 cycles:   64774119 heartbeat IPC: 1.38717 cumulative IPC: 1.41359 (Simulation time: 0 hr 3 min 25 sec) 
Heartbeat CPU  0 instructions:  132000000 cycles:   65438004 heartbeat IPC: 1.50628 cumulative IPC: 1.41631 (Simulation time: 0 hr 3 min 27 sec) 
Heartbeat CPU  0 instructions:  133000003 cycles:   66092633 heartbeat IPC: 1.52759 cumulative IPC: 1.41944 (Simulation time: 0 hr 3 min 29 sec) 
Heartbeat CPU  0 instructions:  134000001 cycles:   66833432 heartbeat IPC: 1.34989 cumulative IPC: 1.41730 (Simulation time: 0 hr 3 min 30 sec) 
Heartbeat CPU  0 instructions:  135000001 cycles:   67551150 heartbeat IPC: 1.39330 cumulative IPC: 1.41660 (Simulation time: 0 hr 3 min 32 sec) 
Heartbeat CPU  0 instructions:  136000000 cycles:   68317045 heartbeat IPC: 1.30566 cumulative IPC: 1.41326 (Simulation time: 0 hr 3 min 34 sec) 
Heartbeat CPU  0 instructions:  137000003 cycles:   69227163 heartbeat IPC: 1.09876 cumulative IPC: 1.40241 (Simulation time: 0 hr 3 min 36 sec) 
Heartbeat CPU  0 instructions:  138000002 cycles:   69944498 heartbeat IPC: 1.39405 cumulative IPC: 1.40219 (Simulation time: 0 hr 3 min 38 sec) 
Heartbeat CPU  0 instructions:  139000002 cycles:   70607801 heartbeat IPC: 1.50761 cumulative IPC: 1.40471 (Simulation time: 0 hr 3 min 39 sec) 
Heartbeat CPU  0 instructions:  140000000 cycles:   71371496 heartbeat IPC: 1.30942 cumulative IPC: 1.40216 (Simulation time: 0 hr 3 min 41 sec) 
Heartbeat CPU  0 instructions:  141000001 cycles:   72063497 heartbeat IPC: 1.44509 cumulative IPC: 1.40318 (Simulation time: 0 hr 3 min 43 sec) 
Heartbeat CPU  0 instructions:  142000001 cycles:   72726296 heartbeat IPC: 1.50875 cumulative IPC: 1.40552 (Simulation time: 0 hr 3 min 44 sec) 
Heartbeat CPU  0 instructions:  143000002 cycles:   73386585 heartbeat IPC: 1.51449 cumulative IPC: 1.40787 (Simulation time: 0 hr 3 min 46 sec) 
Heartbeat CPU  0 instructions:  144000000 cycles:   74103378 heartbeat IPC: 1.39510 cumulative IPC: 1.40758 (Simulation time: 0 hr 3 min 48 sec) 
Heartbeat CPU  0 instructions:  145000003 cycles:   74795538 heartbeat IPC: 1.44476 cumulative IPC: 1.40839 (Simulation time: 0 hr 3 min 50 sec) 
Heartbeat CPU  0 instructions:  146000000 cycles:   75453363 heartbeat IPC: 1.52016 cumulative IPC: 1.41064 (Simulation time: 0 hr 3 min 51 sec) 
Heartbeat CPU  0 instructions:  147000003 cycles:   76147383 heartbeat IPC: 1.44088 cumulative IPC: 1.41127 (Simulation time: 0 hr 3 min 53 sec) 
Heartbeat CPU  0 instructions:  148000000 cycles:   76863944 heartbeat IPC: 1.39555 cumulative IPC: 1.41094 (Simulation time: 0 hr 3 min 55 sec) 
Heartbeat CPU  0 instructions:  149000001 cycles:   77617751 heartbeat IPC: 1.32660 cumulative IPC: 1.40911 (Simulation time: 0 hr 3 min 57 sec) 
Heartbeat CPU  0 instructions:  150000003 cycles:   78451408 heartbeat IPC: 1.19954 cumulative IPC: 1.40421 (Simulation time: 0 hr 3 min 58 sec) 
Heartbeat CPU  0 instructions:  151000000 cycles:   79275872 heartbeat IPC: 1.21291 cumulative IPC: 1.39988 (Simulation time: 0 hr 4 min 0 sec) 
Heartbeat CPU  0 instructions:  152000000 cycles:   80023740 heartbeat IPC: 1.33713 cumulative IPC: 1.39861 (Simulation time: 0 hr 4 min 2 sec) 
Heartbeat CPU  0 instructions:  153000001 cycles:   80797059 heartbeat IPC: 1.29313 cumulative IPC: 1.39647 (Simulation time: 0 hr 4 min 4 sec) 
Heartbeat CPU  0 instructions:  154000000 cycles:   81573408 heartbeat IPC: 1.28808 cumulative IPC: 1.39429 (Simulation time: 0 hr 4 min 5 sec) 
Heartbeat CPU  0 instructions:  155000000 cycles:   82358748 heartbeat IPC: 1.27333 cumulative IPC: 1.39189 (Simulation time: 0 hr 4 min 7 sec) 
Heartbeat CPU  0 instructions:  156000000 cycles:   83292622 heartbeat IPC: 1.07081 cumulative IPC: 1.38448 (Simulation time: 0 hr 4 min 9 sec) 
Heartbeat CPU  0 instructions:  157000002 cycles:   84027464 heartbeat IPC: 1.36084 cumulative IPC: 1.38405 (Simulation time: 0 hr 4 min 11 sec) 
Heartbeat CPU  0 instructions:  158000001 cycles:   84911811 heartbeat IPC: 1.13078 cumulative IPC: 1.37873 (Simulation time: 0 hr 4 min 13 sec) 
Heartbeat CPU  0 instructions:  159000001 cycles:   85665349 heartbeat IPC: 1.32707 cumulative IPC: 1.37782 (Simulation time: 0 hr 4 min 14 sec) 
Heartbeat CPU  0 instructions:  160000000 cycles:   86363998 heartbeat IPC: 1.43133 cumulative IPC: 1.37868 (Simulation time: 0 hr 4 min 16 sec) 
Heartbeat CPU  0 instructions:  161000001 cycles:   87086108 heartbeat IPC: 1.38483 cumulative IPC: 1.37878 (Simulation time: 0 hr 4 min 18 sec) 
Heartbeat CPU  0 instructions:  162000003 cycles:   87819347 heartbeat IPC: 1.36381 cumulative IPC: 1.37854 (Simulation time: 0 hr 4 min 20 sec) 
Heartbeat CPU  0 instructions:  163000000 cycles:   88488809 heartbeat IPC: 1.49373 cumulative IPC: 1.38023 (Simulation time: 0 hr 4 min 21 sec) 
Heartbeat CPU  0 instructions:  164000000 cycles:   89203359 heartbeat IPC: 1.39948 cumulative IPC: 1.38052 (Simulation time: 0 hr 4 min 23 sec) 
Heartbeat CPU  0 instructions:  165000001 cycles:   89895905 heartbeat IPC: 1.44395 cumulative IPC: 1.38146 (Simulation time: 0 hr 4 min 25 sec) 
Heartbeat CPU  0 instructions:  166000001 cycles:   90572524 heartbeat IPC: 1.47794 cumulative IPC: 1.38282 (Simulation time: 0 hr 4 min 27 sec) 
Heartbeat CPU  0 instructions:  167000002 cycles:   91298878 heartbeat IPC: 1.37674 cumulative IPC: 1.38273 (Simulation time: 0 hr 4 min 28 sec) 
Heartbeat CPU  0 instructions:  168000000 cycles:   92050488 heartbeat IPC: 1.33047 cumulative IPC: 1.38193 (Simulation time: 0 hr 4 min 30 sec) 
Heartbeat CPU  0 instructions:  169000000 cycles:   92781454 heartbeat IPC: 1.36805 cumulative IPC: 1.38173 (Simulation time: 0 hr 4 min 32 sec) 
Heartbeat CPU  0 instructions:  170000001 cycles:   93457214 heartbeat IPC: 1.47982 cumulative IPC: 1.38304 (Simulation time: 0 hr 4 min 34 sec) 
Heartbeat CPU  0 instructions:  171000000 cycles:   94216919 heartbeat IPC: 1.31630 cumulative IPC: 1.38205 (Simulation time: 0 hr 4 min 35 sec) 
Heartbeat CPU  0 instructions:  172000000 cycles:   94962288 heartbeat IPC: 1.34162 cumulative IPC: 1.38148 (Simulation time: 0 hr 4 min 37 sec) 
Heartbeat CPU  0 instructions:  173000001 cycles:   95652108 heartbeat IPC: 1.44965 cumulative IPC: 1.38237 (Simulation time: 0 hr 4 min 39 sec) 
Heartbeat CPU  0 instructions:  174000000 cycles:   96388184 heartbeat IPC: 1.35855 cumulative IPC: 1.38204 (Simulation time: 0 hr 4 min 41 sec) 
Heartbeat CPU  0 instructions:  175000000 cycles:   97093344 heartbeat IPC: 1.41812 cumulative IPC: 1.38251 (Simulation time: 0 hr 4 min 42 sec) 
Heartbeat CPU  0 instructions:  176000000 cycles:   97818107 heartbeat IPC: 1.37976 cumulative IPC: 1.38247 (Simulation time: 0 hr 4 min 44 sec) 
Heartbeat CPU  0 instructions:  177000002 cycles:   98600036 heartbeat IPC: 1.27889 cumulative IPC: 1.38102 (Simulation time: 0 hr 4 min 46 sec) 
Heartbeat CPU  0 instructions:  178000001 cycles:   99407845 heartbeat IPC: 1.23792 cumulative IPC: 1.37898 (Simulation time: 0 hr 4 min 48 sec) 
Heartbeat CPU  0 instructions:  179000003 cycles:  100156247 heartbeat IPC: 1.33618 cumulative IPC: 1.37842 (Simulation time: 0 hr 4 min 50 sec) 
Heartbeat CPU  0 instructions:  180000000 cycles:  100933383 heartbeat IPC: 1.28677 cumulative IPC: 1.37719 (Simulation time: 0 hr 4 min 51 sec) 
Heartbeat CPU  0 instructions:  181000000 cycles:  101706380 heartbeat IPC: 1.29367 cumulative IPC: 1.37609 (Simulation time: 0 hr 4 min 53 sec) 
Heartbeat CPU  0 instructions:  182000003 cycles:  102482834 heartbeat IPC: 1.28791 cumulative IPC: 1.37495 (Simulation time: 0 hr 4 min 55 sec) 
Heartbeat CPU  0 instructions:  183000002 cycles:  103282096 heartbeat IPC: 1.25115 cumulative IPC: 1.37331 (Simulation time: 0 hr 4 min 57 sec) 
Heartbeat CPU  0 instructions:  184000000 cycles:  103983484 heartbeat IPC: 1.42574 cumulative IPC: 1.37391 (Simulation time: 0 hr 4 min 58 sec) 
Heartbeat CPU  0 instructions:  185000002 cycles:  104719504 heartbeat IPC: 1.35866 cumulative IPC: 1.37373 (Simulation time: 0 hr 5 min 0 sec) 
Heartbeat CPU  0 instructions:  186000000 cycles:  105420829 heartbeat IPC: 1.42587 cumulative IPC: 1.37431 (Simulation time: 0 hr 5 min 2 sec) 
Heartbeat CPU  0 instructions:  187000001 cycles:  106113534 heartbeat IPC: 1.44362 cumulative IPC: 1.37507 (Simulation time: 0 hr 5 min 4 sec) 
Heartbeat CPU  0 instructions:  188000000 cycles:  106927176 heartbeat IPC: 1.22904 cumulative IPC: 1.37322 (Simulation time: 0 hr 5 min 5 sec) 
Heartbeat CPU  0 instructions:  189000000 cycles:  107728214 heartbeat IPC: 1.24838 cumulative IPC: 1.37168 (Simulation time: 0 hr 5 min 7 sec) 
Heartbeat CPU  0 instructions:  190000000 cycles:  108480892 heartbeat IPC: 1.32859 cumulative IPC: 1.37118 (Simulation time: 0 hr 5 min 9 sec) 
Heartbeat CPU  0 instructions:  191000003 cycles:  109258123 heartbeat IPC: 1.28662 cumulative IPC: 1.37019 (Simulation time: 0 hr 5 min 11 sec) 
Heartbeat CPU  0 instructions:  192000000 cycles:  109999043 heartbeat IPC: 1.34967 cumulative IPC: 1.36997 (Simulation time: 0 hr 5 min 13 sec) 
Heartbeat CPU  0 instructions:  193000000 cycles:  110803750 heartbeat IPC: 1.24269 cumulative IPC: 1.36846 (Simulation time: 0 hr 5 min 14 sec) 
Heartbeat CPU  0 instructions:  194000001 cycles:  111617697 heartbeat IPC: 1.22858 cumulative IPC: 1.36680 (Simulation time: 0 hr 5 min 16 sec) 
Heartbeat CPU  0 instructions:  195000001 cycles:  112324640 heartbeat IPC: 1.41454 cumulative IPC: 1.36729 (Simulation time: 0 hr 5 min 18 sec) 
Heartbeat CPU  0 instructions:  196000000 cycles:  113145843 heartbeat IPC: 1.21772 cumulative IPC: 1.36554 (Simulation time: 0 hr 5 min 20 sec) 
Heartbeat CPU  0 instructions:  197000001 cycles:  113918937 heartbeat IPC: 1.29351 cumulative IPC: 1.36476 (Simulation time: 0 hr 5 min 21 sec) 
Heartbeat CPU  0 instructions:  198000002 cycles:  114736716 heartbeat IPC: 1.22283 cumulative IPC: 1.36314 (Simulation time: 0 hr 5 min 23 sec) 
Heartbeat CPU  0 instructions:  199000002 cycles:  115621255 heartbeat IPC: 1.13053 cumulative IPC: 1.36032 (Simulation time: 0 hr 5 min 25 sec) 
Heartbeat CPU  0 instructions:  200000000 cycles:  116418324 heartbeat IPC: 1.25459 cumulative IPC: 1.35917 (Simulation time: 0 hr 5 min 27 sec) 
Heartbeat CPU  0 instructions:  201000000 cycles:  117283116 heartbeat IPC: 1.15635 cumulative IPC: 1.35682 (Simulation time: 0 hr 5 min 29 sec) 
Heartbeat CPU  0 instructions:  202000000 cycles:  118071226 heartbeat IPC: 1.26886 cumulative IPC: 1.35589 (Simulation time: 0 hr 5 min 31 sec) 
Heartbeat CPU  0 instructions:  203000000 cycles:  118982075 heartbeat IPC: 1.09788 cumulative IPC: 1.35281 (Simulation time: 0 hr 5 min 32 sec) 
Heartbeat CPU  0 instructions:  204000000 cycles:  119783469 heartbeat IPC: 1.24783 cumulative IPC: 1.35171 (Simulation time: 0 hr 5 min 34 sec) 
Heartbeat CPU  0 instructions:  205000001 cycles:  120655918 heartbeat IPC: 1.14620 cumulative IPC: 1.34941 (Simulation time: 0 hr 5 min 36 sec) 
Heartbeat CPU  0 instructions:  206000003 cycles:  121436972 heartbeat IPC: 1.28032 cumulative IPC: 1.34872 (Simulation time: 0 hr 5 min 38 sec) 
Heartbeat CPU  0 instructions:  207000003 cycles:  122186952 heartbeat IPC: 1.33337 cumulative IPC: 1.34858 (Simulation time: 0 hr 5 min 40 sec) 
Heartbeat CPU  0 instructions:  208000000 cycles:  122939994 heartbeat IPC: 1.32794 cumulative IPC: 1.34838 (Simulation time: 0 hr 5 min 41 sec) 
Heartbeat CPU  0 instructions:  209000001 cycles:  123731163 heartbeat IPC: 1.26395 cumulative IPC: 1.34756 (Simulation time: 0 hr 5 min 43 sec) 
Heartbeat CPU  0 instructions:  210000003 cycles:  124609509 heartbeat IPC: 1.13851 cumulative IPC: 1.34531 (Simulation time: 0 hr 5 min 45 sec) 
Heartbeat CPU  0 instructions:  211000001 cycles:  125357748 heartbeat IPC: 1.33647 cumulative IPC: 1.34523 (Simulation time: 0 hr 5 min 47 sec) 
Heartbeat CPU  0 instructions:  212000000 cycles:  126073387 heartbeat IPC: 1.39735 cumulative IPC: 1.34568 (Simulation time: 0 hr 5 min 49 sec) 
Heartbeat CPU  0 instructions:  213000000 cycles:  126895168 heartbeat IPC: 1.21687 cumulative IPC: 1.34442 (Simulation time: 0 hr 5 min 50 sec) 
Heartbeat CPU  0 instructions:  214000000 cycles:  127681127 heartbeat IPC: 1.27233 cumulative IPC: 1.34375 (Simulation time: 0 hr 5 min 52 sec) 
Heartbeat CPU  0 instructions:  215000001 cycles:  128537581 heartbeat IPC: 1.16761 cumulative IPC: 1.34199 (Simulation time: 0 hr 5 min 54 sec) 
Heartbeat CPU  0 instructions:  216000000 cycles:  129343723 heartbeat IPC: 1.24048 cumulative IPC: 1.34105 (Simulation time: 0 hr 5 min 56 sec) 
Heartbeat CPU  0 instructions:  217000003 cycles:  130243048 heartbeat IPC: 1.11195 cumulative IPC: 1.33869 (Simulation time: 0 hr 5 min 58 sec) 
Heartbeat CPU  0 instructions:  218000002 cycles:  131019341 heartbeat IPC: 1.28817 cumulative IPC: 1.33824 (Simulation time: 0 hr 5 min 59 sec) 
Heartbeat CPU  0 instructions:  219000001 cycles:  131739397 heartbeat IPC: 1.38878 cumulative IPC: 1.33865 (Simulation time: 0 hr 6 min 1 sec) 
Heartbeat CPU  0 instructions:  220000000 cycles:  132447560 heartbeat IPC: 1.41210 cumulative IPC: 1.33923 (Simulation time: 0 hr 6 min 3 sec) 
Heartbeat CPU  0 instructions:  221000000 cycles:  133118542 heartbeat IPC: 1.49035 cumulative IPC: 1.34036 (Simulation time: 0 hr 6 min 5 sec) 
Heartbeat CPU  0 instructions:  222000003 cycles:  133954962 heartbeat IPC: 1.19558 cumulative IPC: 1.33903 (Simulation time: 0 hr 6 min 6 sec) 
Heartbeat CPU  0 instructions:  223000002 cycles:  134663793 heartbeat IPC: 1.41077 cumulative IPC: 1.33958 (Simulation time: 0 hr 6 min 8 sec) 
Heartbeat CPU  0 instructions:  224000000 cycles:  135345262 heartbeat IPC: 1.46742 cumulative IPC: 1.34052 (Simulation time: 0 hr 6 min 10 sec) 
Heartbeat CPU  0 instructions:  225000000 cycles:  136055216 heartbeat IPC: 1.40854 cumulative IPC: 1.34104 (Simulation time: 0 hr 6 min 12 sec) 
Heartbeat CPU  0 instructions:  226000001 cycles:  136874323 heartbeat IPC: 1.22084 cumulative IPC: 1.33999 (Simulation time: 0 hr 6 min 13 sec) 
Heartbeat CPU  0 instructions:  227000002 cycles:  137554805 heartbeat IPC: 1.46955 cumulative IPC: 1.34093 (Simulation time: 0 hr 6 min 15 sec) 
Heartbeat CPU  0 instructions:  228000000 cycles:  138280003 heartbeat IPC: 1.37893 cumulative IPC: 1.34121 (Simulation time: 0 hr 6 min 17 sec) 
Heartbeat CPU  0 instructions:  229000000 cycles:  138983810 heartbeat IPC: 1.42084 cumulative IPC: 1.34180 (Simulation time: 0 hr 6 min 19 sec) 
Heartbeat CPU  0 instructions:  230000002 cycles:  139700870 heartbeat IPC: 1.39459 cumulative IPC: 1.34219 (Simulation time: 0 hr 6 min 20 sec) 
Heartbeat CPU  0 instructions:  231000000 cycles:  140483435 heartbeat IPC: 1.27785 cumulative IPC: 1.34167 (Simulation time: 0 hr 6 min 22 sec) 
Heartbeat CPU  0 instructions:  232000000 cycles:  141202601 heartbeat IPC: 1.39050 cumulative IPC: 1.34203 (Simulation time: 0 hr 6 min 24 sec) 
Heartbeat CPU  0 instructions:  233000001 cycles:  141889871 heartbeat IPC: 1.45503 cumulative IPC: 1.34281 (Simulation time: 0 hr 6 min 26 sec) 
Heartbeat CPU  0 instructions:  234000003 cycles:  142630377 heartbeat IPC: 1.35043 cumulative IPC: 1.34287 (Simulation time: 0 hr 6 min 27 sec) 
Heartbeat CPU  0 instructions:  235000002 cycles:  143411930 heartbeat IPC: 1.27950 cumulative IPC: 1.34238 (Simulation time: 0 hr 6 min 29 sec) 
Heartbeat CPU  0 instructions:  236000000 cycles:  144111952 heartbeat IPC: 1.42852 cumulative IPC: 1.34297 (Simulation time: 0 hr 6 min 31 sec) 
Heartbeat CPU  0 instructions:  237000002 cycles:  144795023 heartbeat IPC: 1.46398 cumulative IPC: 1.34378 (Simulation time: 0 hr 6 min 33 sec) 
Heartbeat CPU  0 instructions:  238000000 cycles:  145556592 heartbeat IPC: 1.31308 cumulative IPC: 1.34356 (Simulation time: 0 hr 6 min 35 sec) 
Heartbeat CPU  0 instructions:  239000000 cycles:  146313086 heartbeat IPC: 1.32189 cumulative IPC: 1.34340 (Simulation time: 0 hr 6 min 36 sec) 
Heartbeat CPU  0 instructions:  240000000 cycles:  147003248 heartbeat IPC: 1.44894 cumulative IPC: 1.34410 (Simulation time: 0 hr 6 min 38 sec) 
Heartbeat CPU  0 instructions:  241000002 cycles:  147717505 heartbeat IPC: 1.40006 cumulative IPC: 1.34448 (Simulation time: 0 hr 6 min 40 sec) 
Heartbeat CPU  0 instructions:  242000002 cycles:  148464271 heartbeat IPC: 1.33911 cumulative IPC: 1.34444 (Simulation time: 0 hr 6 min 42 sec) 
Heartbeat CPU  0 instructions:  243000002 cycles:  149211461 heartbeat IPC: 1.33835 cumulative IPC: 1.34440 (Simulation time: 0 hr 6 min 43 sec) 
Heartbeat CPU  0 instructions:  244000000 cycles:  149933861 heartbeat IPC: 1.38427 cumulative IPC: 1.34467 (Simulation time: 0 hr 6 min 45 sec) 
Heartbeat CPU  0 instructions:  245000000 cycles:  150635924 heartbeat IPC: 1.42437 cumulative IPC: 1.34519 (Simulation time: 0 hr 6 min 47 sec) 
Heartbeat CPU  0 instructions:  246000000 cycles:  151305879 heartbeat IPC: 1.49264 cumulative IPC: 1.34610 (Simulation time: 0 hr 6 min 49 sec) 
Heartbeat CPU  0 instructions:  247000001 cycles:  152055579 heartbeat IPC: 1.33387 cumulative IPC: 1.34601 (Simulation time: 0 hr 6 min 50 sec) 
Heartbeat CPU  0 instructions:  248000000 cycles:  152885183 heartbeat IPC: 1.20539 cumulative IPC: 1.34495 (Simulation time: 0 hr 6 min 52 sec) 
Heartbeat CPU  0 instructions:  249000000 cycles:  153564811 heartbeat IPC: 1.47139 cumulative IPC: 1.34573 (Simulation time: 0 hr 6 min 54 sec) 
Heartbeat CPU  0 instructions:  250000001 cycles:  154286493 heartbeat IPC: 1.38565 cumulative IPC: 1.34599 (Simulation time: 0 hr 6 min 56 sec) 
Heartbeat CPU  0 instructions:  251000000 cycles:  154986852 heartbeat IPC: 1.42784 cumulative IPC: 1.34650 (Simulation time: 0 hr 6 min 57 sec) 
Heartbeat CPU  0 instructions:  252000000 cycles:  155678641 heartbeat IPC: 1.44553 cumulative IPC: 1.34711 (Simulation time: 0 hr 6 min 59 sec) 
Heartbeat CPU  0 instructions:  253000002 cycles:  156535714 heartbeat IPC: 1.16676 cumulative IPC: 1.34575 (Simulation time: 0 hr 7 min 1 sec) 
Heartbeat CPU  0 instructions:  254000002 cycles:  157241670 heartbeat IPC: 1.41652 cumulative IPC: 1.34618 (Simulation time: 0 hr 7 min 3 sec) 
Heartbeat CPU  0 instructions:  255000000 cycles:  157917133 heartbeat IPC: 1.48046 cumulative IPC: 1.34697 (Simulation time: 0 hr 7 min 4 sec) 
Heartbeat CPU  0 instructions:  256000000 cycles:  158738757 heartbeat IPC: 1.21710 cumulative IPC: 1.34605 (Simulation time: 0 hr 7 min 6 sec) 
Heartbeat CPU  0 instructions:  257000000 cycles:  159444428 heartbeat IPC: 1.41709 cumulative IPC: 1.34648 (Simulation time: 0 hr 7 min 8 sec) 
Heartbeat CPU  0 instructions:  258000002 cycles:  160119691 heartbeat IPC: 1.48091 cumulative IPC: 1.34725 (Simulation time: 0 hr 7 min 10 sec) 
Heartbeat CPU  0 instructions:  259000000 cycles:  160944324 heartbeat IPC: 1.21266 cumulative IPC: 1.34631 (Simulation time: 0 hr 7 min 11 sec) 
Heartbeat CPU  0 instructions:  260000000 cycles:  161651578 heartbeat IPC: 1.41392 cumulative IPC: 1.34672 (Simulation time: 0 hr 7 min 13 sec) 
Heartbeat CPU  0 instructions:  261000002 cycles:  162328455 heartbeat IPC: 1.47738 cumulative IPC: 1.34746 (Simulation time: 0 hr 7 min 15 sec) 
Heartbeat CPU  0 instructions:  262000000 cycles:  163149305 heartbeat IPC: 1.21825 cumulative IPC: 1.34658 (Simulation time: 0 hr 7 min 17 sec) 
Heartbeat CPU  0 instructions:  263000002 cycles:  163855227 heartbeat IPC: 1.41659 cumulative IPC: 1.34698 (Simulation time: 0 hr 7 min 18 sec) 
Heartbeat CPU  0 instructions:  264000000 cycles:  164529942 heartbeat IPC: 1.48210 cumulative IPC: 1.34773 (Simulation time: 0 hr 7 min 20 sec) 
Heartbeat CPU  0 instructions:  265000000 cycles:  165354728 heartbeat IPC: 1.21244 cumulative IPC: 1.34682 (Simulation time: 0 hr 7 min 22 sec) 
Heartbeat CPU  0 instructions:  266000000 cycles:  166059647 heartbeat IPC: 1.41860 cumulative IPC: 1.34723 (Simulation time: 0 hr 7 min 24 sec) 
Heartbeat CPU  0 instructions:  267000002 cycles:  166733841 heartbeat IPC: 1.48326 cumulative IPC: 1.34797 (Simulation time: 0 hr 7 min 25 sec) 
Heartbeat CPU  0 instructions:  268000000 cycles:  167553898 heartbeat IPC: 1.21942 cumulative IPC: 1.34713 (Simulation time: 0 hr 7 min 27 sec) 
Heartbeat CPU  0 instructions:  269000002 cycles:  168259900 heartbeat IPC: 1.41643 cumulative IPC: 1.34752 (Simulation time: 0 hr 7 min 29 sec) 
Heartbeat CPU  0 instructions:  270000002 cycles:  168934843 heartbeat IPC: 1.48161 cumulative IPC: 1.34824 (Simulation time: 0 hr 7 min 31 sec) 
Heartbeat CPU  0 instructions:  271000000 cycles:  169759861 heartbeat IPC: 1.21209 cumulative IPC: 1.34735 (Simulation time: 0 hr 7 min 33 sec) 
Heartbeat CPU  0 instructions:  272000000 cycles:  170465337 heartbeat IPC: 1.41748 cumulative IPC: 1.34774 (Simulation time: 0 hr 7 min 34 sec) 
Heartbeat CPU  0 instructions:  273000002 cycles:  171139747 heartbeat IPC: 1.48278 cumulative IPC: 1.34845 (Simulation time: 0 hr 7 min 36 sec) 
Heartbeat CPU  0 instructions:  274000002 cycles:  171961522 heartbeat IPC: 1.21688 cumulative IPC: 1.34761 (Simulation time: 0 hr 7 min 38 sec) 
Heartbeat CPU  0 instructions:  275000000 cycles:  172667090 heartbeat IPC: 1.41729 cumulative IPC: 1.34799 (Simulation time: 0 hr 7 min 40 sec) 
Heartbeat CPU  0 instructions:  276000000 cycles:  173341799 heartbeat IPC: 1.48212 cumulative IPC: 1.34868 (Simulation time: 0 hr 7 min 41 sec) 
Heartbeat CPU  0 instructions:  277000003 cycles:  174167097 heartbeat IPC: 1.21169 cumulative IPC: 1.34782 (Simulation time: 0 hr 7 min 43 sec) 
Heartbeat CPU  0 instructions:  278000002 cycles:  174877596 heartbeat IPC: 1.40746 cumulative IPC: 1.34814 (Simulation time: 0 hr 7 min 45 sec) 
Heartbeat CPU  0 instructions:  279000001 cycles:  175549967 heartbeat IPC: 1.48727 cumulative IPC: 1.34885 (Simulation time: 0 hr 7 min 46 sec) 
Heartbeat CPU  0 instructions:  280000000 cycles:  176372511 heartbeat IPC: 1.21574 cumulative IPC: 1.34803 (Simulation time: 0 hr 7 min 48 sec) 
Heartbeat CPU  0 instructions:  281000000 cycles:  177079063 heartbeat IPC: 1.41532 cumulative IPC: 1.34838 (Simulation time: 0 hr 7 min 50 sec) 
Heartbeat CPU  0 instructions:  282000002 cycles:  177753238 heartbeat IPC: 1.48330 cumulative IPC: 1.34906 (Simulation time: 0 hr 7 min 52 sec) 
Heartbeat CPU  0 instructions:  283000002 cycles:  178576217 heartbeat IPC: 1.21510 cumulative IPC: 1.34824 (Simulation time: 0 hr 7 min 54 sec) 
Heartbeat CPU  0 instructions:  284000000 cycles:  179282545 heartbeat IPC: 1.41577 cumulative IPC: 1.34859 (Simulation time: 0 hr 7 min 55 sec) 
Heartbeat CPU  0 instructions:  285000000 cycles:  179957506 heartbeat IPC: 1.48157 cumulative IPC: 1.34925 (Simulation time: 0 hr 7 min 57 sec) 
Heartbeat CPU  0 instructions:  286000000 cycles:  180776425 heartbeat IPC: 1.22112 cumulative IPC: 1.34849 (Simulation time: 0 hr 7 min 59 sec) 
Heartbeat CPU  0 instructions:  287000000 cycles:  181486656 heartbeat IPC: 1.40799 cumulative IPC: 1.34879 (Simulation time: 0 hr 8 min 1 sec) 
Heartbeat CPU  0 instructions:  288000000 cycles:  182160388 heartbeat IPC: 1.48427 cumulative IPC: 1.34945 (Simulation time: 0 hr 8 min 2 sec) 
Heartbeat CPU  0 instructions:  289000003 cycles:  182986428 heartbeat IPC: 1.21060 cumulative IPC: 1.34863 (Simulation time: 0 hr 8 min 4 sec) 
Heartbeat CPU  0 instructions:  290000002 cycles:  183696987 heartbeat IPC: 1.40734 cumulative IPC: 1.34893 (Simulation time: 0 hr 8 min 6 sec) 
Heartbeat CPU  0 instructions:  291000001 cycles:  184364944 heartbeat IPC: 1.49710 cumulative IPC: 1.34962 (Simulation time: 0 hr 8 min 8 sec) 
Heartbeat CPU  0 instructions:  292000000 cycles:  185125523 heartbeat IPC: 1.31479 cumulative IPC: 1.34944 (Simulation time: 0 hr 8 min 9 sec) 
Heartbeat CPU  0 instructions:  293000001 cycles:  185843295 heartbeat IPC: 1.39320 cumulative IPC: 1.34966 (Simulation time: 0 hr 8 min 11 sec) 
Heartbeat CPU  0 instructions:  294000001 cycles:  186526597 heartbeat IPC: 1.46348 cumulative IPC: 1.35020 (Simulation time: 0 hr 8 min 13 sec) 
Heartbeat CPU  0 instructions:  295000002 cycles:  187255685 heartbeat IPC: 1.37158 cumulative IPC: 1.35031 (Simulation time: 0 hr 8 min 15 sec) 
Heartbeat CPU  0 instructions:  296000000 cycles:  187975399 heartbeat IPC: 1.38944 cumulative IPC: 1.35050 (Simulation time: 0 hr 8 min 16 sec) 
Heartbeat CPU  0 instructions:  297000001 cycles:  188668487 heartbeat IPC: 1.44282 cumulative IPC: 1.35094 (Simulation time: 0 hr 8 min 18 sec) 
Heartbeat CPU  0 instructions:  298000000 cycles:  189396256 heartbeat IPC: 1.37406 cumulative IPC: 1.35105 (Simulation time: 0 hr 8 min 20 sec) 
Heartbeat CPU  0 instructions:  299000000 cycles:  190120353 heartbeat IPC: 1.38103 cumulative IPC: 1.35120 (Simulation time: 0 hr 8 min 22 sec) 
Heartbeat CPU  0 instructions:  300000000 cycles:  190819414 heartbeat IPC: 1.43049 cumulative IPC: 1.35158 (Simulation time: 0 hr 8 min 23 sec) 
Heartbeat CPU  0 instructions:  301000003 cycles:  191532518 heartbeat IPC: 1.40232 cumulative IPC: 1.35182 (Simulation time: 0 hr 8 min 25 sec) 
Heartbeat CPU  0 instructions:  302000003 cycles:  192254367 heartbeat IPC: 1.38533 cumulative IPC: 1.35198 (Simulation time: 0 hr 8 min 27 sec) 
Heartbeat CPU  0 instructions:  303000002 cycles:  192961106 heartbeat IPC: 1.41495 cumulative IPC: 1.35228 (Simulation time: 0 hr 8 min 29 sec) 
Heartbeat CPU  0 instructions:  304000000 cycles:  193693601 heartbeat IPC: 1.36519 cumulative IPC: 1.35234 (Simulation time: 0 hr 8 min 30 sec) 
Heartbeat CPU  0 instructions:  305000001 cycles:  194385332 heartbeat IPC: 1.44565 cumulative IPC: 1.35277 (Simulation time: 0 hr 8 min 32 sec) 
Heartbeat CPU  0 instructions:  306000003 cycles:  195093617 heartbeat IPC: 1.41186 cumulative IPC: 1.35304 (Simulation time: 0 hr 8 min 34 sec) 
Heartbeat CPU  0 instructions:  307000000 cycles:  195835303 heartbeat IPC: 1.34828 cumulative IPC: 1.35302 (Simulation time: 0 hr 8 min 36 sec) 
Heartbeat CPU  0 instructions:  308000000 cycles:  196517457 heartbeat IPC: 1.46594 cumulative IPC: 1.35352 (Simulation time: 0 hr 8 min 37 sec) 
Heartbeat CPU  0 instructions:  309000002 cycles:  197240696 heartbeat IPC: 1.38267 cumulative IPC: 1.35366 (Simulation time: 0 hr 8 min 39 sec) 
Heartbeat CPU  0 instructions:  310000000 cycles:  198040129 heartbeat IPC: 1.25088 cumulative IPC: 1.35313 (Simulation time: 0 hr 8 min 41 sec) 
Heartbeat CPU  0 instructions:  311000001 cycles:  198720283 heartbeat IPC: 1.47026 cumulative IPC: 1.35364 (Simulation time: 0 hr 8 min 43 sec) 
Heartbeat CPU  0 instructions:  312000000 cycles:  199443498 heartbeat IPC: 1.38271 cumulative IPC: 1.35377 (Simulation time: 0 hr 8 min 44 sec) 
Heartbeat CPU  0 instructions:  313000002 cycles:  200307490 heartbeat IPC: 1.15742 cumulative IPC: 1.35270 (Simulation time: 0 hr 8 min 46 sec) 
Heartbeat CPU  0 instructions:  314000001 cycles:  201055589 heartbeat IPC: 1.33672 cumulative IPC: 1.35262 (Simulation time: 0 hr 8 min 48 sec) 
Heartbeat CPU  0 instructions:  315000000 cycles:  201776622 heartbeat IPC: 1.38690 cumulative IPC: 1.35278 (Simulation time: 0 hr 8 min 50 sec) 
Heartbeat CPU  0 instructions:  316000000 cycles:  202517471 heartbeat IPC: 1.34980 cumulative IPC: 1.35276 (Simulation time: 0 hr 8 min 51 sec) 
Heartbeat CPU  0 instructions:  317000001 cycles:  203324653 heartbeat IPC: 1.23888 cumulative IPC: 1.35219 (Simulation time: 0 hr 8 min 53 sec) 
Heartbeat CPU  0 instructions:  318000001 cycles:  204192284 heartbeat IPC: 1.15256 cumulative IPC: 1.35112 (Simulation time: 0 hr 8 min 55 sec) 
Heartbeat CPU  0 instructions:  319000003 cycles:  204885608 heartbeat IPC: 1.44233 cumulative IPC: 1.35151 (Simulation time: 0 hr 8 min 57 sec) 
Heartbeat CPU  0 instructions:  320000000 cycles:  205593851 heartbeat IPC: 1.41194 cumulative IPC: 1.35177 (Simulation time: 0 hr 8 min 59 sec) 
Heartbeat CPU  0 instructions:  321000001 cycles:  206400760 heartbeat IPC: 1.23930 cumulative IPC: 1.35121 (Simulation time: 0 hr 9 min 0 sec) 
Heartbeat CPU  0 instructions:  322000003 cycles:  207194288 heartbeat IPC: 1.26020 cumulative IPC: 1.35077 (Simulation time: 0 hr 9 min 2 sec) 
Heartbeat CPU  0 instructions:  323000001 cycles:  207982734 heartbeat IPC: 1.26832 cumulative IPC: 1.35038 (Simulation time: 0 hr 9 min 4 sec) 
Heartbeat CPU  0 instructions:  324000000 cycles:  208702756 heartbeat IPC: 1.38885 cumulative IPC: 1.35055 (Simulation time: 0 hr 9 min 6 sec) 
Heartbeat CPU  0 instructions:  325000000 cycles:  209439812 heartbeat IPC: 1.35675 cumulative IPC: 1.35057 (Simulation time: 0 hr 9 min 7 sec) 
Heartbeat CPU  0 instructions:  326000003 cycles:  210248334 heartbeat IPC: 1.23683 cumulative IPC: 1.35003 (Simulation time: 0 hr 9 min 9 sec) 
Heartbeat CPU  0 instructions:  327000000 cycles:  210991312 heartbeat IPC: 1.34593 cumulative IPC: 1.35001 (Simulation time: 0 hr 9 min 11 sec) 
Heartbeat CPU  0 instructions:  328000000 cycles:  211776640 heartbeat IPC: 1.27335 cumulative IPC: 1.34965 (Simulation time: 0 hr 9 min 13 sec) 
Heartbeat CPU  0 instructions:  329000001 cycles:  212575999 heartbeat IPC: 1.25100 cumulative IPC: 1.34919 (Simulation time: 0 hr 9 min 14 sec) 
Heartbeat CPU  0 instructions:  330000001 cycles:  213240817 heartbeat IPC: 1.50417 cumulative IPC: 1.34979 (Simulation time: 0 hr 9 min 16 sec) 
Heartbeat CPU  0 instructions:  331000000 cycles:  213942869 heartbeat IPC: 1.42439 cumulative IPC: 1.35010 (Simulation time: 0 hr 9 min 18 sec) 
Heartbeat CPU  0 instructions:  332000000 cycles:  214667000 heartbeat IPC: 1.38097 cumulative IPC: 1.35023 (Simulation time: 0 hr 9 min 20 sec) 
Heartbeat CPU  0 instructions:  333000001 cycles:  215445251 heartbeat IPC: 1.28493 cumulative IPC: 1.34993 (Simulation time: 0 hr 9 min 21 sec) 
Heartbeat CPU  0 instructions:  334000002 cycles:  216220433 heartbeat IPC: 1.29002 cumulative IPC: 1.34967 (Simulation time: 0 hr 9 min 23 sec) 
Heartbeat CPU  0 instructions:  335000000 cycles:  217043296 heartbeat IPC: 1.21527 cumulative IPC: 1.34903 (Simulation time: 0 hr 9 min 25 sec) 
Heartbeat CPU  0 instructions:  336000000 cycles:  217765262 heartbeat IPC: 1.38511 cumulative IPC: 1.34918 (Simulation time: 0 hr 9 min 27 sec) 
Heartbeat CPU  0 instructions:  337000002 cycles:  218481671 heartbeat IPC: 1.39585 cumulative IPC: 1.34937 (Simulation time: 0 hr 9 min 28 sec) 
Heartbeat CPU  0 instructions:  338000003 cycles:  219277320 heartbeat IPC: 1.25684 cumulative IPC: 1.34895 (Simulation time: 0 hr 9 min 30 sec) 
Heartbeat CPU  0 instructions:  339000002 cycles:  220020782 heartbeat IPC: 1.34506 cumulative IPC: 1.34894 (Simulation time: 0 hr 9 min 32 sec) 
Heartbeat CPU  0 instructions:  340000000 cycles:  220792944 heartbeat IPC: 1.29506 cumulative IPC: 1.34870 (Simulation time: 0 hr 9 min 34 sec) 
Heartbeat CPU  0 instructions:  341000001 cycles:  221592870 heartbeat IPC: 1.25012 cumulative IPC: 1.34826 (Simulation time: 0 hr 9 min 35 sec) 
Heartbeat CPU  0 instructions:  342000003 cycles:  222270309 heartbeat IPC: 1.47615 cumulative IPC: 1.34874 (Simulation time: 0 hr 9 min 37 sec) 
Heartbeat CPU  0 instructions:  343000003 cycles:  223037316 heartbeat IPC: 1.30377 cumulative IPC: 1.34855 (Simulation time: 0 hr 9 min 39 sec) 
Heartbeat CPU  0 instructions:  344000000 cycles:  223766797 heartbeat IPC: 1.37083 cumulative IPC: 1.34864 (Simulation time: 0 hr 9 min 41 sec) 
Heartbeat CPU  0 instructions:  345000003 cycles:  224437432 heartbeat IPC: 1.49113 cumulative IPC: 1.34917 (Simulation time: 0 hr 9 min 42 sec) 
Heartbeat CPU  0 instructions:  346000000 cycles:  225155712 heartbeat IPC: 1.39221 cumulative IPC: 1.34934 (Simulation time: 0 hr 9 min 44 sec) 
Heartbeat CPU  0 instructions:  347000001 cycles:  225888774 heartbeat IPC: 1.36414 cumulative IPC: 1.34940 (Simulation time: 0 hr 9 min 46 sec) 
Heartbeat CPU  0 instructions:  348000000 cycles:  226621591 heartbeat IPC: 1.36460 cumulative IPC: 1.34946 (Simulation time: 0 hr 9 min 48 sec) 
Heartbeat CPU  0 instructions:  349000003 cycles:  227354485 heartbeat IPC: 1.36446 cumulative IPC: 1.34952 (Simulation time: 0 hr 9 min 49 sec) 
Heartbeat CPU  0 instructions:  350000003 cycles:  228074451 heartbeat IPC: 1.38895 cumulative IPC: 1.34967 (Simulation time: 0 hr 9 min 51 sec) 
Heartbeat CPU  0 instructions:  351000002 cycles:  228861888 heartbeat IPC: 1.26994 cumulative IPC: 1.34933 (Simulation time: 0 hr 9 min 53 sec) 
Heartbeat CPU  0 instructions:  352000000 cycles:  229555206 heartbeat IPC: 1.44234 cumulative IPC: 1.34968 (Simulation time: 0 hr 9 min 55 sec) 
Heartbeat CPU  0 instructions:  353000003 cycles:  230300478 heartbeat IPC: 1.34180 cumulative IPC: 1.34965 (Simulation time: 0 hr 9 min 56 sec) 
Heartbeat CPU  0 instructions:  354000002 cycles:  230991602 heartbeat IPC: 1.44692 cumulative IPC: 1.35000 (Simulation time: 0 hr 9 min 58 sec) 
Heartbeat CPU  0 instructions:  355000002 cycles:  231708401 heartbeat IPC: 1.39509 cumulative IPC: 1.35018 (Simulation time: 0 hr 10 min 0 sec) 
Heartbeat CPU  0 instructions:  356000000 cycles:  232476162 heartbeat IPC: 1.30249 cumulative IPC: 1.34998 (Simulation time: 0 hr 10 min 2 sec) 
Heartbeat CPU  0 instructions:  357000002 cycles:  233246147 heartbeat IPC: 1.29873 cumulative IPC: 1.34978 (Simulation time: 0 hr 10 min 3 sec) 
Heartbeat CPU  0 instructions:  358000002 cycles:  233943986 heartbeat IPC: 1.43300 cumulative IPC: 1.35008 (Simulation time: 0 hr 10 min 5 sec) 
Heartbeat CPU  0 instructions:  359000002 cycles:  234659170 heartbeat IPC: 1.39824 cumulative IPC: 1.35026 (Simulation time: 0 hr 10 min 7 sec) 
Heartbeat CPU  0 instructions:  360000000 cycles:  235353391 heartbeat IPC: 1.44046 cumulative IPC: 1.35058 (Simulation time: 0 hr 10 min 9 sec) 
Heartbeat CPU  0 instructions:  361000000 cycles:  236043866 heartbeat IPC: 1.44828 cumulative IPC: 1.35093 (Simulation time: 0 hr 10 min 10 sec) 
Heartbeat CPU  0 instructions:  362000003 cycles:  236780079 heartbeat IPC: 1.35831 cumulative IPC: 1.35096 (Simulation time: 0 hr 10 min 12 sec) 
Heartbeat CPU  0 instructions:  363000000 cycles:  237503214 heartbeat IPC: 1.38286 cumulative IPC: 1.35108 (Simulation time: 0 hr 10 min 14 sec) 
Heartbeat CPU  0 instructions:  364000000 cycles:  238219710 heartbeat IPC: 1.39568 cumulative IPC: 1.35124 (Simulation time: 0 hr 10 min 15 sec) 
Heartbeat CPU  0 instructions:  365000001 cycles:  238951020 heartbeat IPC: 1.36741 cumulative IPC: 1.35130 (Simulation time: 0 hr 10 min 17 sec) 
Heartbeat CPU  0 instructions:  366000003 cycles:  239752840 heartbeat IPC: 1.24717 cumulative IPC: 1.35088 (Simulation time: 0 hr 10 min 19 sec) 
Heartbeat CPU  0 instructions:  367000001 cycles:  240501584 heartbeat IPC: 1.33557 cumulative IPC: 1.35082 (Simulation time: 0 hr 10 min 21 sec) 
Heartbeat CPU  0 instructions:  368000000 cycles:  241308705 heartbeat IPC: 1.23897 cumulative IPC: 1.35037 (Simulation time: 0 hr 10 min 23 sec) 
Heartbeat CPU  0 instructions:  369000000 cycles:  242043354 heartbeat IPC: 1.36119 cumulative IPC: 1.35041 (Simulation time: 0 hr 10 min 24 sec) 
Heartbeat CPU  0 instructions:  370000001 cycles:  242717136 heartbeat IPC: 1.48416 cumulative IPC: 1.35086 (Simulation time: 0 hr 10 min 26 sec) 
Heartbeat CPU  0 instructions:  371000001 cycles:  243453567 heartbeat IPC: 1.35790 cumulative IPC: 1.35088 (Simulation time: 0 hr 10 min 28 sec) 
Heartbeat CPU  0 instructions:  372000000 cycles:  244224615 heartbeat IPC: 1.29693 cumulative IPC: 1.35068 (Simulation time: 0 hr 10 min 30 sec) 
Heartbeat CPU  0 instructions:  373000000 cycles:  244954892 heartbeat IPC: 1.36934 cumulative IPC: 1.35074 (Simulation time: 0 hr 10 min 31 sec) 
Heartbeat CPU  0 instructions:  374000002 cycles:  245717825 heartbeat IPC: 1.31073 cumulative IPC: 1.35059 (Simulation time: 0 hr 10 min 33 sec) 
Heartbeat CPU  0 instructions:  375000000 cycles:  246446555 heartbeat IPC: 1.37225 cumulative IPC: 1.35067 (Simulation time: 0 hr 10 min 35 sec) 
Heartbeat CPU  0 instructions:  376000000 cycles:  247187120 heartbeat IPC: 1.35032 cumulative IPC: 1.35067 (Simulation time: 0 hr 10 min 37 sec) 
Heartbeat CPU  0 instructions:  377000001 cycles:  247901297 heartbeat IPC: 1.40021 cumulative IPC: 1.35084 (Simulation time: 0 hr 10 min 38 sec) 
Heartbeat CPU  0 instructions:  378000003 cycles:  248695446 heartbeat IPC: 1.25921 cumulative IPC: 1.35049 (Simulation time: 0 hr 10 min 40 sec) 
Heartbeat CPU  0 instructions:  379000002 cycles:  249395834 heartbeat IPC: 1.42778 cumulative IPC: 1.35075 (Simulation time: 0 hr 10 min 42 sec) 
Heartbeat CPU  0 instructions:  380000000 cycles:  250128615 heartbeat IPC: 1.36466 cumulative IPC: 1.35080 (Simulation time: 0 hr 10 min 44 sec) 
Heartbeat CPU  0 instructions:  381000000 cycles:  250905259 heartbeat IPC: 1.28759 cumulative IPC: 1.35056 (Simulation time: 0 hr 10 min 45 sec) 
Heartbeat CPU  0 instructions:  382000001 cycles:  251596460 heartbeat IPC: 1.44676 cumulative IPC: 1.35088 (Simulation time: 0 hr 10 min 47 sec) 
Heartbeat CPU  0 instructions:  383000002 cycles:  252305590 heartbeat IPC: 1.41018 cumulative IPC: 1.35108 (Simulation time: 0 hr 10 min 49 sec) 
Heartbeat CPU  0 instructions:  384000000 cycles:  253013083 heartbeat IPC: 1.41344 cumulative IPC: 1.35129 (Simulation time: 0 hr 10 min 51 sec) 
Heartbeat CPU  0 instructions:  385000001 cycles:  253795935 heartbeat IPC: 1.27738 cumulative IPC: 1.35102 (Simulation time: 0 hr 10 min 52 sec) 
Heartbeat CPU  0 instructions:  386000003 cycles:  254550123 heartbeat IPC: 1.32593 cumulative IPC: 1.35093 (Simulation time: 0 hr 10 min 54 sec) 
Heartbeat CPU  0 instructions:  387000002 cycles:  255270812 heartbeat IPC: 1.38756 cumulative IPC: 1.35105 (Simulation time: 0 hr 10 min 56 sec) 
Heartbeat CPU  0 instructions:  388000000 cycles:  255997478 heartbeat IPC: 1.37615 cumulative IPC: 1.35114 (Simulation time: 0 hr 10 min 58 sec) 
Heartbeat CPU  0 instructions:  389000000 cycles:  256659195 heartbeat IPC: 1.51122 cumulative IPC: 1.35164 (Simulation time: 0 hr 10 min 59 sec) 
Heartbeat CPU  0 instructions:  390000003 cycles:  257359210 heartbeat IPC: 1.42855 cumulative IPC: 1.35189 (Simulation time: 0 hr 11 min 1 sec) 
Heartbeat CPU  0 instructions:  391000000 cycles:  258096551 heartbeat IPC: 1.35622 cumulative IPC: 1.35190 (Simulation time: 0 hr 11 min 3 sec) 
Heartbeat CPU  0 instructions:  392000000 cycles:  258819651 heartbeat IPC: 1.38293 cumulative IPC: 1.35200 (Simulation time: 0 hr 11 min 5 sec) 
Heartbeat CPU  0 instructions:  393000000 cycles:  259503150 heartbeat IPC: 1.46306 cumulative IPC: 1.35236 (Simulation time: 0 hr 11 min 6 sec) 
Heartbeat CPU  0 instructions:  394000000 cycles:  260240983 heartbeat IPC: 1.35532 cumulative IPC: 1.35237 (Simulation time: 0 hr 11 min 8 sec) 
Heartbeat CPU  0 instructions:  395000000 cycles:  261016248 heartbeat IPC: 1.28988 cumulative IPC: 1.35214 (Simulation time: 0 hr 11 min 10 sec) 
Heartbeat CPU  0 instructions:  396000000 cycles:  261755563 heartbeat IPC: 1.35260 cumulative IPC: 1.35214 (Simulation time: 0 hr 11 min 12 sec) 
Heartbeat CPU  0 instructions:  397000000 cycles:  262601806 heartbeat IPC: 1.18169 cumulative IPC: 1.35149 (Simulation time: 0 hr 11 min 13 sec) 
Heartbeat CPU  0 instructions:  398000000 cycles:  263305144 heartbeat IPC: 1.42179 cumulative IPC: 1.35171 (Simulation time: 0 hr 11 min 15 sec) 
Heartbeat CPU  0 instructions:  399000003 cycles:  264051493 heartbeat IPC: 1.33986 cumulative IPC: 1.35167 (Simulation time: 0 hr 11 min 17 sec) 
Heartbeat CPU  0 instructions:  400000000 cycles:  264769178 heartbeat IPC: 1.39336 cumulative IPC: 1.35181 (Simulation time: 0 hr 11 min 19 sec) 
Heartbeat CPU  0 instructions:  401000001 cycles:  265498172 heartbeat IPC: 1.37175 cumulative IPC: 1.35187 (Simulation time: 0 hr 11 min 20 sec) 
Heartbeat CPU  0 instructions:  402000003 cycles:  266218192 heartbeat IPC: 1.38885 cumulative IPC: 1.35199 (Simulation time: 0 hr 11 min 22 sec) 
Heartbeat CPU  0 instructions:  403000002 cycles:  266976665 heartbeat IPC: 1.31844 cumulative IPC: 1.35188 (Simulation time: 0 hr 11 min 24 sec) 
Heartbeat CPU  0 instructions:  404000000 cycles:  267749935 heartbeat IPC: 1.29321 cumulative IPC: 1.35168 (Simulation time: 0 hr 11 min 26 sec) 
Heartbeat CPU  0 instructions:  405000002 cycles:  268442820 heartbeat IPC: 1.44324 cumulative IPC: 1.35196 (Simulation time: 0 hr 11 min 27 sec) 
Heartbeat CPU  0 instructions:  406000000 cycles:  269192973 heartbeat IPC: 1.33306 cumulative IPC: 1.35190 (Simulation time: 0 hr 11 min 29 sec) 
Heartbeat CPU  0 instructions:  407000000 cycles:  269923040 heartbeat IPC: 1.36974 cumulative IPC: 1.35195 (Simulation time: 0 hr 11 min 31 sec) 
Heartbeat CPU  0 instructions:  408000000 cycles:  270624143 heartbeat IPC: 1.42632 cumulative IPC: 1.35218 (Simulation time: 0 hr 11 min 33 sec) 
Heartbeat CPU  0 instructions:  409000003 cycles:  271416008 heartbeat IPC: 1.26285 cumulative IPC: 1.35187 (Simulation time: 0 hr 11 min 34 sec) 
Heartbeat CPU  0 instructions:  410000000 cycles:  272132737 heartbeat IPC: 1.39522 cumulative IPC: 1.35201 (Simulation time: 0 hr 11 min 36 sec) 
Heartbeat CPU  0 instructions:  411000003 cycles:  272852166 heartbeat IPC: 1.39000 cumulative IPC: 1.35213 (Simulation time: 0 hr 11 min 38 sec) 
Heartbeat CPU  0 instructions:  412000000 cycles:  273733296 heartbeat IPC: 1.13490 cumulative IPC: 1.35130 (Simulation time: 0 hr 11 min 40 sec) 
Heartbeat CPU  0 instructions:  413000000 cycles:  274922800 heartbeat IPC: 0.84069 cumulative IPC: 1.34868 (Simulation time: 0 hr 11 min 42 sec) 
Heartbeat CPU  0 instructions:  414000001 cycles:  286916616 heartbeat IPC: 0.08338 cumulative IPC: 1.28650 (Simulation time: 0 hr 11 min 49 sec) 
Heartbeat CPU  0 instructions:  415000002 cycles:  291802848 heartbeat IPC: 0.20466 cumulative IPC: 1.26527 (Simulation time: 0 hr 11 min 52 sec) 
Heartbeat CPU  0 instructions:  416000000 cycles:  295814113 heartbeat IPC: 0.24930 cumulative IPC: 1.24916 (Simulation time: 0 hr 11 min 55 sec) 
Heartbeat CPU  0 instructions:  417000001 cycles:  299781092 heartbeat IPC: 0.25208 cumulative IPC: 1.23377 (Simulation time: 0 hr 11 min 58 sec) 
Heartbeat CPU  0 instructions:  418000001 cycles:  310267247 heartbeat IPC: 0.09536 cumulative IPC: 1.18913 (Simulation time: 0 hr 12 min 5 sec) 
Heartbeat CPU  0 instructions:  419000001 cycles:  322861755 heartbeat IPC: 0.07940 cumulative IPC: 1.13921 (Simulation time: 0 hr 12 min 11 sec) 
Heartbeat CPU  0 instructions:  420000000 cycles:  331432847 heartbeat IPC: 0.11667 cumulative IPC: 1.10884 (Simulation time: 0 hr 12 min 15 sec) 
Heartbeat CPU  0 instructions:  421000003 cycles:  339146223 heartbeat IPC: 0.12965 cumulative IPC: 1.08335 (Simulation time: 0 hr 12 min 19 sec) 
Heartbeat CPU  0 instructions:  422000001 cycles:  346069949 heartbeat IPC: 0.14443 cumulative IPC: 1.06191 (Simulation time: 0 hr 12 min 22 sec) 
Heartbeat CPU  0 instructions:  423000000 cycles:  352543263 heartbeat IPC: 0.15448 cumulative IPC: 1.04295 (Simulation time: 0 hr 12 min 25 sec) 
Heartbeat CPU  0 instructions:  424000000 cycles:  362068973 heartbeat IPC: 0.10498 cumulative IPC: 1.01496 (Simulation time: 0 hr 12 min 32 sec) 
Heartbeat CPU  0 instructions:  425000002 cycles:  368402340 heartbeat IPC: 0.15789 cumulative IPC: 0.99829 (Simulation time: 0 hr 12 min 36 sec) 
Heartbeat CPU  0 instructions:  426000002 cycles:  373686328 heartbeat IPC: 0.18925 cumulative IPC: 0.98536 (Simulation time: 0 hr 12 min 40 sec) 
Heartbeat CPU  0 instructions:  427000000 cycles:  379051060 heartbeat IPC: 0.18640 cumulative IPC: 0.97262 (Simulation time: 0 hr 12 min 44 sec) 
Heartbeat CPU  0 instructions:  428000000 cycles:  384227772 heartbeat IPC: 0.19317 cumulative IPC: 0.96080 (Simulation time: 0 hr 12 min 48 sec) 
Heartbeat CPU  0 instructions:  429000000 cycles:  389428736 heartbeat IPC: 0.19227 cumulative IPC: 0.94926 (Simulation time: 0 hr 12 min 51 sec) 
Heartbeat CPU  0 instructions:  430000001 cycles:  394979025 heartbeat IPC: 0.18017 cumulative IPC: 0.93714 (Simulation time: 0 hr 12 min 55 sec) 
Heartbeat CPU  0 instructions:  431000000 cycles:  404798238 heartbeat IPC: 0.10184 cumulative IPC: 0.91448 (Simulation time: 0 hr 13 min 0 sec) 
Heartbeat CPU  0 instructions:  432000000 cycles:  415465629 heartbeat IPC: 0.09374 cumulative IPC: 0.89098 (Simulation time: 0 hr 13 min 7 sec) 
Heartbeat CPU  0 instructions:  433000000 cycles:  428429875 heartbeat IPC: 0.07714 cumulative IPC: 0.86362 (Simulation time: 0 hr 13 min 14 sec) 
Heartbeat CPU  0 instructions:  434000001 cycles:  437770097 heartbeat IPC: 0.10706 cumulative IPC: 0.84573 (Simulation time: 0 hr 13 min 18 sec) 
Heartbeat CPU  0 instructions:  435000003 cycles:  445755110 heartbeat IPC: 0.12523 cumulative IPC: 0.83145 (Simulation time: 0 hr 13 min 22 sec) 
Heartbeat CPU  0 instructions:  436000000 cycles:  453051101 heartbeat IPC: 0.13706 cumulative IPC: 0.81910 (Simulation time: 0 hr 13 min 25 sec) 
Heartbeat CPU  0 instructions:  437000002 cycles:  458994445 heartbeat IPC: 0.16826 cumulative IPC: 0.80980 (Simulation time: 0 hr 13 min 28 sec) 
Heartbeat CPU  0 instructions:  438000002 cycles:  466997805 heartbeat IPC: 0.12495 cumulative IPC: 0.79688 (Simulation time: 0 hr 13 min 33 sec) 
Heartbeat CPU  0 instructions:  439000000 cycles:  475260286 heartbeat IPC: 0.12103 cumulative IPC: 0.78397 (Simulation time: 0 hr 13 min 39 sec) 
Heartbeat CPU  0 instructions:  440000000 cycles:  480967684 heartbeat IPC: 0.17521 cumulative IPC: 0.77604 (Simulation time: 0 hr 13 min 43 sec) 
Heartbeat CPU  0 instructions:  441000000 cycles:  486266119 heartbeat IPC: 0.18873 cumulative IPC: 0.76902 (Simulation time: 0 hr 13 min 47 sec) 
Heartbeat CPU  0 instructions:  442000002 cycles:  491471177 heartbeat IPC: 0.19212 cumulative IPC: 0.76233 (Simulation time: 0 hr 13 min 50 sec) 
Heartbeat CPU  0 instructions:  443000001 cycles:  496655357 heartbeat IPC: 0.19289 cumulative IPC: 0.75582 (Simulation time: 0 hr 13 min 54 sec) 
Heartbeat CPU  0 instructions:  444000000 cycles:  502115122 heartbeat IPC: 0.18316 cumulative IPC: 0.74901 (Simulation time: 0 hr 13 min 58 sec) 
Heartbeat CPU  0 instructions:  445000002 cycles:  507738777 heartbeat IPC: 0.17782 cumulative IPC: 0.74210 (Simulation time: 0 hr 14 min 2 sec) 
Heartbeat CPU  0 instructions:  446000001 cycles:  520598196 heartbeat IPC: 0.07776 cumulative IPC: 0.72422 (Simulation time: 0 hr 14 min 9 sec) 
Heartbeat CPU  0 instructions:  447000000 cycles:  533519913 heartbeat IPC: 0.07739 cumulative IPC: 0.70719 (Simulation time: 0 hr 14 min 16 sec) 
Heartbeat CPU  0 instructions:  448000000 cycles:  544307872 heartbeat IPC: 0.09270 cumulative IPC: 0.69397 (Simulation time: 0 hr 14 min 21 sec) 
Heartbeat CPU  0 instructions:  449000001 cycles:  552415074 heartbeat IPC: 0.12335 cumulative IPC: 0.68489 (Simulation time: 0 hr 14 min 25 sec) 
Heartbeat CPU  0 instructions:  450000000 cycles:  559956287 heartbeat IPC: 0.13260 cumulative IPC: 0.67684 (Simulation time: 0 hr 14 min 28 sec) 
Heartbeat CPU  0 instructions:  451000000 cycles:  566172440 heartbeat IPC: 0.16087 cumulative IPC: 0.67071 (Simulation time: 0 hr 14 min 32 sec) 
Heartbeat CPU  0 instructions:  452000000 cycles:  572997894 heartbeat IPC: 0.14651 cumulative IPC: 0.66396 (Simulation time: 0 hr 14 min 36 sec) 
Heartbeat CPU  0 instructions:  453000001 cycles:  582232669 heartbeat IPC: 0.10829 cumulative IPC: 0.65444 (Simulation time: 0 hr 14 min 42 sec) 
Heartbeat CPU  0 instructions:  454000000 cycles:  588329580 heartbeat IPC: 0.16402 cumulative IPC: 0.64896 (Simulation time: 0 hr 14 min 46 sec) 
Heartbeat CPU  0 instructions:  455000001 cycles:  593524704 heartbeat IPC: 0.19249 cumulative IPC: 0.64466 (Simulation time: 0 hr 14 min 50 sec) 
Heartbeat CPU  0 instructions:  456000000 cycles:  598815547 heartbeat IPC: 0.18901 cumulative IPC: 0.64032 (Simulation time: 0 hr 14 min 54 sec) 
Heartbeat CPU  0 instructions:  457000002 cycles:  604032808 heartbeat IPC: 0.19167 cumulative IPC: 0.63615 (Simulation time: 0 hr 14 min 57 sec) 
Heartbeat CPU  0 instructions:  458000000 cycles:  609291745 heartbeat IPC: 0.19015 cumulative IPC: 0.63201 (Simulation time: 0 hr 15 min 1 sec) 
Heartbeat CPU  0 instructions:  459000001 cycles:  614824287 heartbeat IPC: 0.18075 cumulative IPC: 0.62764 (Simulation time: 0 hr 15 min 5 sec) 
Heartbeat CPU  0 instructions:  460000000 cycles:  626347543 heartbeat IPC: 0.08678 cumulative IPC: 0.61696 (Simulation time: 0 hr 15 min 11 sec) 
Heartbeat CPU  0 instructions:  461000002 cycles:  638900892 heartbeat IPC: 0.07966 cumulative IPC: 0.60565 (Simulation time: 0 hr 15 min 19 sec) 
Heartbeat CPU  0 instructions:  462000000 cycles:  650915939 heartbeat IPC: 0.08323 cumulative IPC: 0.59532 (Simulation time: 0 hr 15 min 24 sec) 
Heartbeat CPU  0 instructions:  463000000 cycles:  659140627 heartbeat IPC: 0.12159 cumulative IPC: 0.58900 (Simulation time: 0 hr 15 min 28 sec) 
Heartbeat CPU  0 instructions:  464000000 cycles:  666710415 heartbeat IPC: 0.13210 cumulative IPC: 0.58346 (Simulation time: 0 hr 15 min 31 sec) 
Heartbeat CPU  0 instructions:  465000000 cycles:  673349795 heartbeat IPC: 0.15062 cumulative IPC: 0.57890 (Simulation time: 0 hr 15 min 35 sec) 
Heartbeat CPU  0 instructions:  466000000 cycles:  679873535 heartbeat IPC: 0.15329 cumulative IPC: 0.57454 (Simulation time: 0 hr 15 min 38 sec) 
Heartbeat CPU  0 instructions:  467000000 cycles:  689320711 heartbeat IPC: 0.10585 cumulative IPC: 0.56769 (Simulation time: 0 hr 15 min 45 sec) 
Heartbeat CPU  0 instructions:  468000000 cycles:  695536991 heartbeat IPC: 0.16087 cumulative IPC: 0.56382 (Simulation time: 0 hr 15 min 49 sec) 
Heartbeat CPU  0 instructions:  469000000 cycles:  700774191 heartbeat IPC: 0.19094 cumulative IPC: 0.56085 (Simulation time: 0 hr 15 min 53 sec) 
Heartbeat CPU  0 instructions:  470000002 cycles:  706127719 heartbeat IPC: 0.18679 cumulative IPC: 0.55783 (Simulation time: 0 hr 15 min 57 sec) 
Heartbeat CPU  0 instructions:  471000000 cycles:  711328786 heartbeat IPC: 0.19227 cumulative IPC: 0.55499 (Simulation time: 0 hr 16 min 0 sec) 
Heartbeat CPU  0 instructions:  472000000 cycles:  716544668 heartbeat IPC: 0.19172 cumulative IPC: 0.55217 (Simulation time: 0 hr 16 min 4 sec) 
Heartbeat CPU  0 instructions:  473000002 cycles:  722135723 heartbeat IPC: 0.17886 cumulative IPC: 0.54910 (Simulation time: 0 hr 16 min 8 sec) 
Heartbeat CPU  0 instructions:  474000000 cycles:  732309039 heartbeat IPC: 0.09830 cumulative IPC: 0.54245 (Simulation time: 0 hr 16 min 13 sec) 
Heartbeat CPU  0 instructions:  475000002 cycles:  743995899 heartbeat IPC: 0.08557 cumulative IPC: 0.53483 (Simulation time: 0 hr 16 min 21 sec) 
Heartbeat CPU  0 instructions:  476000000 cycles:  757072888 heartbeat IPC: 0.07647 cumulative IPC: 0.52644 (Simulation time: 0 hr 16 min 27 sec) 
Heartbeat CPU  0 instructions:  477000000 cycles:  765607791 heartbeat IPC: 0.11717 cumulative IPC: 0.52161 (Simulation time: 0 hr 16 min 31 sec) 
Heartbeat CPU  0 instructions:  478000002 cycles:  773381334 heartbeat IPC: 0.12864 cumulative IPC: 0.51743 (Simulation time: 0 hr 16 min 35 sec) 
Heartbeat CPU  0 instructions:  479000000 cycles:  780486274 heartbeat IPC: 0.14075 cumulative IPC: 0.51380 (Simulation time: 0 hr 16 min 38 sec) 
Heartbeat CPU  0 instructions:  480000000 cycles:  786721578 heartbeat IPC: 0.16038 cumulative IPC: 0.51084 (Simulation time: 0 hr 16 min 41 sec) 
Heartbeat CPU  0 instructions:  481000000 cycles:  796196083 heartbeat IPC: 0.10555 cumulative IPC: 0.50574 (Simulation time: 0 hr 16 min 48 sec) 
Heartbeat CPU  0 instructions:  482000000 cycles:  802644125 heartbeat IPC: 0.15509 cumulative IPC: 0.50276 (Simulation time: 0 hr 16 min 52 sec) 
Heartbeat CPU  0 instructions:  483000000 cycles:  808096709 heartbeat IPC: 0.18340 cumulative IPC: 0.50049 (Simulation time: 0 hr 16 min 56 sec) 
Heartbeat CPU  0 instructions:  484000000 cycles:  813446071 heartbeat IPC: 0.18694 cumulative IPC: 0.49831 (Simulation time: 0 hr 17 min 0 sec) 
Heartbeat CPU  0 instructions:  485000002 cycles:  818641190 heartbeat IPC: 0.19249 cumulative IPC: 0.49626 (Simulation time: 0 hr 17 min 3 sec) 
Heartbeat CPU  0 instructions:  486000003 cycles:  823840297 heartbeat IPC: 0.19234 cumulative IPC: 0.49424 (Simulation time: 0 hr 17 min 7 sec) 
Heartbeat CPU  0 instructions:  487000000 cycles:  829355695 heartbeat IPC: 0.18131 cumulative IPC: 0.49205 (Simulation time: 0 hr 17 min 11 sec) 
Heartbeat CPU  0 instructions:  488000000 cycles:  837407934 heartbeat IPC: 0.12419 cumulative IPC: 0.48832 (Simulation time: 0 hr 17 min 15 sec) 
Heartbeat CPU  0 instructions:  489000000 cycles:  849390197 heartbeat IPC: 0.08346 cumulative IPC: 0.48230 (Simulation time: 0 hr 17 min 22 sec) 
Heartbeat CPU  0 instructions:  490000003 cycles:  862516263 heartbeat IPC: 0.07618 cumulative IPC: 0.47580 (Simulation time: 0 hr 17 min 30 sec) 
Heartbeat CPU  0 instructions:  491000003 cycles:  872226348 heartbeat IPC: 0.10299 cumulative IPC: 0.47144 (Simulation time: 0 hr 17 min 34 sec) 
Heartbeat CPU  0 instructions:  492000000 cycles:  880137400 heartbeat IPC: 0.12641 cumulative IPC: 0.46818 (Simulation time: 0 hr 17 min 38 sec) 
Heartbeat CPU  0 instructions:  493000002 cycles:  887500453 heartbeat IPC: 0.13581 cumulative IPC: 0.46528 (Simulation time: 0 hr 17 min 41 sec) 
Heartbeat CPU  0 instructions:  494000001 cycles:  893477528 heartbeat IPC: 0.16731 cumulative IPC: 0.46318 (Simulation time: 0 hr 17 min 44 sec) 
Heartbeat CPU  0 instructions:  495000001 cycles:  901205817 heartbeat IPC: 0.12939 cumulative IPC: 0.46018 (Simulation time: 0 hr 17 min 49 sec) 
Heartbeat CPU  0 instructions:  496000000 cycles:  909707083 heartbeat IPC: 0.11763 cumulative IPC: 0.45682 (Simulation time: 0 hr 17 min 55 sec) 
Heartbeat CPU  0 instructions:  497000001 cycles:  915502639 heartbeat IPC: 0.17255 cumulative IPC: 0.45493 (Simulation time: 0 hr 17 min 59 sec) 
Heartbeat CPU  0 instructions:  498000001 cycles:  920771898 heartbeat IPC: 0.18978 cumulative IPC: 0.45334 (Simulation time: 0 hr 18 min 3 sec) 
Heartbeat CPU  0 instructions:  499000000 cycles:  925993362 heartbeat IPC: 0.19152 cumulative IPC: 0.45179 (Simulation time: 0 hr 18 min 6 sec) 
Heartbeat CPU  0 instructions:  500000000 cycles:  931194252 heartbeat IPC: 0.19227 cumulative IPC: 0.45027 (Simulation time: 0 hr 18 min 10 sec) 
Heartbeat CPU  0 instructions:  501000000 cycles:  936607552 heartbeat IPC: 0.18473 cumulative IPC: 0.44866 (Simulation time: 0 hr 18 min 14 sec) 
Heartbeat CPU  0 instructions:  502000002 cycles:  942236160 heartbeat IPC: 0.17766 cumulative IPC: 0.44697 (Simulation time: 0 hr 18 min 18 sec) 
Heartbeat CPU  0 instructions:  503000000 cycles:  954622856 heartbeat IPC: 0.08073 cumulative IPC: 0.44199 (Simulation time: 0 hr 18 min 24 sec) 
Heartbeat CPU  0 instructions:  504000000 cycles:  967462359 heartbeat IPC: 0.07788 cumulative IPC: 0.43694 (Simulation time: 0 hr 18 min 32 sec) 
Heartbeat CPU  0 instructions:  505000000 cycles:  978735942 heartbeat IPC: 0.08870 cumulative IPC: 0.43274 (Simulation time: 0 hr 18 min 37 sec) 
Heartbeat CPU  0 instructions:  506000001 cycles:  986828558 heartbeat IPC: 0.12357 cumulative IPC: 0.43009 (Simulation time: 0 hr 18 min 41 sec) 
Heartbeat CPU  0 instructions:  507000000 cycles:  994364156 heartbeat IPC: 0.13270 cumulative IPC: 0.42774 (Simulation time: 0 hr 18 min 44 sec) 
Heartbeat CPU  0 instructions:  508000000 cycles: 1000686288 heartbeat IPC: 0.15817 cumulative IPC: 0.42596 (Simulation time: 0 hr 18 min 48 sec) 
Heartbeat CPU  0 instructions:  509000002 cycles: 1007373617 heartbeat IPC: 0.14954 cumulative IPC: 0.42404 (Simulation time: 0 hr 18 min 51 sec) 
Heartbeat CPU  0 instructions:  510000001 cycles: 1016740004 heartbeat IPC: 0.10676 cumulative IPC: 0.42099 (Simulation time: 0 hr 18 min 58 sec) 
Heartbeat CPU  0 instructions:  511000001 cycles: 1022900175 heartbeat IPC: 0.16233 cumulative IPC: 0.41936 (Simulation time: 0 hr 19 min 2 sec) 
Heartbeat CPU  0 instructions:  512000000 cycles: 1028045837 heartbeat IPC: 0.19434 cumulative IPC: 0.41819 (Simulation time: 0 hr 19 min 6 sec) 
Heartbeat CPU  0 instructions:  513000003 cycles: 1033372112 heartbeat IPC: 0.18775 cumulative IPC: 0.41695 (Simulation time: 0 hr 19 min 9 sec) 
Heartbeat CPU  0 instructions:  514000002 cycles: 1038595846 heartbeat IPC: 0.19143 cumulative IPC: 0.41577 (Simulation time: 0 hr 19 min 13 sec) 
Heartbeat CPU  0 instructions:  515000001 cycles: 1043837179 heartbeat IPC: 0.19079 cumulative IPC: 0.41459 (Simulation time: 0 hr 19 min 17 sec) 
Heartbeat CPU  0 instructions:  516000000 cycles: 1049394063 heartbeat IPC: 0.17996 cumulative IPC: 0.41329 (Simulation time: 0 hr 19 min 21 sec) 
Heartbeat CPU  0 instructions:  517000000 cycles: 1060468646 heartbeat IPC: 0.09030 cumulative IPC: 0.40978 (Simulation time: 0 hr 19 min 26 sec) 
Heartbeat CPU  0 instructions:  518000002 cycles: 1072755430 heartbeat IPC: 0.08139 cumulative IPC: 0.40586 (Simulation time: 0 hr 19 min 34 sec) 
Heartbeat CPU  0 instructions:  519000001 cycles: 1085194161 heartbeat IPC: 0.08039 cumulative IPC: 0.40198 (Simulation time: 0 hr 19 min 40 sec) 
Heartbeat CPU  0 instructions:  520000000 cycles: 1093573102 heartbeat IPC: 0.11935 cumulative IPC: 0.39972 (Simulation time: 0 hr 19 min 44 sec) 
Heartbeat CPU  0 instructions:  521000001 cycles: 1101151999 heartbeat IPC: 0.13195 cumulative IPC: 0.39780 (Simulation time: 0 hr 19 min 47 sec) 
Heartbeat CPU  0 instructions:  522000001 cycles: 1107898517 heartbeat IPC: 0.14822 cumulative IPC: 0.39622 (Simulation time: 0 hr 19 min 51 sec) 
Heartbeat CPU  0 instructions:  523000001 cycles: 1114406096 heartbeat IPC: 0.15367 cumulative IPC: 0.39475 (Simulation time: 0 hr 19 min 54 sec) 
Heartbeat CPU  0 instructions:  524000000 cycles: 1123846843 heartbeat IPC: 0.10592 cumulative IPC: 0.39223 (Simulation time: 0 hr 20 min 1 sec) 
Heartbeat CPU  0 instructions:  525000000 cycles: 1130087320 heartbeat IPC: 0.16024 cumulative IPC: 0.39090 (Simulation time: 0 hr 20 min 5 sec) 
Heartbeat CPU  0 instructions:  526000000 cycles: 1135366731 heartbeat IPC: 0.18942 cumulative IPC: 0.38992 (Simulation time: 0 hr 20 min 9 sec) 
Heartbeat CPU  0 instructions:  527000000 cycles: 1140747594 heartbeat IPC: 0.18584 cumulative IPC: 0.38892 (Simulation time: 0 hr 20 min 13 sec) 
Heartbeat CPU  0 instructions:  528000000 cycles: 1145941193 heartbeat IPC: 0.19254 cumulative IPC: 0.38800 (Simulation time: 0 hr 20 min 16 sec) 
Heartbeat CPU  0 instructions:  529000001 cycles: 1151145949 heartbeat IPC: 0.19213 cumulative IPC: 0.38708 (Simulation time: 0 hr 20 min 20 sec) 
[...]
Heartbeat CPU  0 instructions:  545000000 cycles: 1270377042 heartbeat IPC: 0.15767 cumulative IPC: 0.36252 (Simulation time: 0 hr 21 min 31 sec) 
Heartbeat CPU  0 instructions:  546000000 cycles: 1283690036 heartbeat IPC: 0.07511 cumulative IPC: 0.35943 (Simulation time: 0 hr 21 min 38 sec) 
Heartbeat CPU  0 instructions:  547000000 cycles: 1296842278 heartbeat IPC: 0.07603 cumulative IPC: 0.35646 (Simulation time: 0 hr 21 min 46 sec) 
Heartbeat CPU  0 instructions:  548000000 cycles: 1306847425 heartbeat IPC: 0.09995 cumulative IPC: 0.35443 (Simulation time: 0 hr 21 min 50 sec) 
Heartbeat CPU  0 instructions:  549000000 cycles: 1314802825 heartbeat IPC: 0.12570 cumulative IPC: 0.35300 (Simulation time: 0 hr 21 min 54 sec) 
Heartbeat CPU  0 instructions:  550000001 cycles: 1322237620 heartbeat IPC: 0.13450 cumulative IPC: 0.35173 (Simulation time: 0 hr 21 min 57 sec) 
Heartbeat CPU  0 instructions:  551000000 cycles: 1328227345 heartbeat IPC: 0.16695 cumulative IPC: 0.35087 (Simulation time: 0 hr 22 min 1 sec) 
Heartbeat CPU  0 instructions:  552000000 cycles: 1335779592 heartbeat IPC: 0.13241 cumulative IPC: 0.34959 (Simulation time: 0 hr 22 min 5 sec) 
Heartbeat CPU  0 instructions:  553000000 cycles: 1344419734 heartbeat IPC: 0.11574 cumulative IPC: 0.34804 (Simulation time: 0 hr 22 min 11 sec) 
Heartbeat CPU  0 instructions:  554000001 cycles: 1350291763 heartbeat IPC: 0.17030 cumulative IPC: 0.34724 (Simulation time: 0 hr 22 min 15 sec) 
Heartbeat CPU  0 instructions:  555000002 cycles: 1355555678 heartbeat IPC: 0.18997 cumulative IPC: 0.34661 (Simulation time: 0 hr 22 min 19 sec) 
Heartbeat CPU  0 instructions:  556000000 cycles: 1360770720 heartbeat IPC: 0.19175 cumulative IPC: 0.34600 (Simulation time: 0 hr 22 min 23 sec) 
Heartbeat CPU  0 instructions:  557000000 cycles: 1366002542 heartbeat IPC: 0.19114 cumulative IPC: 0.34539 (Simulation time: 0 hr 22 min 26 sec) 
Heartbeat CPU  0 instructions:  558000003 cycles: 1371358476 heartbeat IPC: 0.18671 cumulative IPC: 0.34475 (Simulation time: 0 hr 22 min 30 sec) 
Heartbeat CPU  0 instructions:  559000003 cycles: 1376719940 heartbeat IPC: 0.18652 cumulative IPC: 0.34411 (Simulation time: 0 hr 22 min 34 sec) 
Heartbeat CPU  0 instructions:  560000000 cycles: 1389243336 heartbeat IPC: 0.07985 cumulative IPC: 0.34165 (Simulation time: 0 hr 22 min 40 sec) 
Heartbeat CPU  0 instructions:  561000001 cycles: 1402084012 heartbeat IPC: 0.07788 cumulative IPC: 0.33916 (Simulation time: 0 hr 22 min 48 sec) 
Heartbeat CPU  0 instructions:  562000002 cycles: 1413386893 heartbeat IPC: 0.08847 cumulative IPC: 0.33709 (Simulation time: 0 hr 22 min 53 sec) 
Heartbeat CPU  0 instructions:  563000003 cycles: 1421627568 heartbeat IPC: 0.12135 cumulative IPC: 0.33580 (Simulation time: 0 hr 22 min 57 sec) 
Heartbeat CPU  0 instructions:  564000000 cycles: 1429138983 heartbeat IPC: 0.13313 cumulative IPC: 0.33471 (Simulation time: 0 hr 23 min 1 sec) 
Heartbeat CPU  0 instructions:  565000003 cycles: 1435517230 heartbeat IPC: 0.15678 cumulative IPC: 0.33389 (Simulation time: 0 hr 23 min 4 sec) 
Heartbeat CPU  0 instructions:  566000003 cycles: 1442166197 heartbeat IPC: 0.15040 cumulative IPC: 0.33302 (Simulation time: 0 hr 23 min 8 sec) 
Heartbeat CPU  0 instructions:  567000000 cycles: 1451569811 heartbeat IPC: 0.10634 cumulative IPC: 0.33151 (Simulation time: 0 hr 23 min 14 sec) 
Heartbeat CPU  0 instructions:  568000000 cycles: 1457726797 heartbeat IPC: 0.16242 cumulative IPC: 0.33077 (Simulation time: 0 hr 23 min 18 sec) 
Heartbeat CPU  0 instructions:  569000000 cycles: 1462871282 heartbeat IPC: 0.19438 cumulative IPC: 0.33028 (Simulation time: 0 hr 23 min 22 sec) 
Heartbeat CPU  0 instructions:  570000000 cycles: 1468195784 heartbeat IPC: 0.18781 cumulative IPC: 0.32974 (Simulation time: 0 hr 23 min 26 sec) 
Heartbeat CPU  0 instructions:  571000001 cycles: 1473435670 heartbeat IPC: 0.19084 cumulative IPC: 0.32923 (Simulation time: 0 hr 23 min 30 sec) 
Heartbeat CPU  0 instructions:  572000000 cycles: 1478673895 heartbeat IPC: 0.19090 cumulative IPC: 0.32873 (Simulation time: 0 hr 23 min 33 sec) 
Heartbeat CPU  0 instructions:  573000002 cycles: 1484225896 heartbeat IPC: 0.18012 cumulative IPC: 0.32816 (Simulation time: 0 hr 23 min 37 sec) 
Heartbeat CPU  0 instructions:  574000000 cycles: 1495252234 heartbeat IPC: 0.09069 cumulative IPC: 0.32635 (Simulation time: 0 hr 23 min 43 sec) 
Heartbeat CPU  0 instructions:  575000003 cycles: 1507465051 heartbeat IPC: 0.08188 cumulative IPC: 0.32432 (Simulation time: 0 hr 23 min 50 sec) 
Heartbeat CPU  0 instructions:  576000000 cycles: 1519865342 heartbeat IPC: 0.08064 cumulative IPC: 0.32227 (Simulation time: 0 hr 23 min 56 sec) 
Heartbeat CPU  0 instructions:  577000003 cycles: 1528360596 heartbeat IPC: 0.11771 cumulative IPC: 0.32110 (Simulation time: 0 hr 24 min 0 sec) 
Heartbeat CPU  0 instructions:  578000000 cycles: 1536000652 heartbeat IPC: 0.13089 cumulative IPC: 0.32013 (Simulation time: 0 hr 24 min 4 sec) 
Heartbeat CPU  0 instructions:  579000001 cycles: 1542751965 heartbeat IPC: 0.14812 cumulative IPC: 0.31935 (Simulation time: 0 hr 24 min 7 sec) 
Heartbeat CPU  0 instructions:  580000000 cycles: 1549271501 heartbeat IPC: 0.15338 cumulative IPC: 0.31863 (Simulation time: 0 hr 24 min 11 sec) 
Heartbeat CPU  0 instructions:  581000003 cycles: 1558724505 heartbeat IPC: 0.10579 cumulative IPC: 0.31731 (Simulation time: 0 hr 24 min 17 sec) 
Heartbeat CPU  0 instructions:  582000003 cycles: 1564964172 heartbeat IPC: 0.16026 cumulative IPC: 0.31666 (Simulation time: 0 hr 24 min 21 sec) 
Heartbeat CPU  0 instructions:  583000002 cycles: 1570231835 heartbeat IPC: 0.18984 cumulative IPC: 0.31623 (Simulation time: 0 hr 24 min 25 sec) 
Heartbeat CPU  0 instructions:  584000000 cycles: 1575622397 heartbeat IPC: 0.18551 cumulative IPC: 0.31577 (Simulation time: 0 hr 24 min 29 sec) 
Heartbeat CPU  0 instructions:  585000002 cycles: 1580802340 heartbeat IPC: 0.19305 cumulative IPC: 0.31535 (Simulation time: 0 hr 24 min 33 sec) 
Heartbeat CPU  0 instructions:  586000002 cycles: 1586004730 heartbeat IPC: 0.19222 cumulative IPC: 0.31494 (Simulation time: 0 hr 24 min 36 sec) 
Heartbeat CPU  0 instructions:  587000000 cycles: 1591575522 heartbeat IPC: 0.17951 cumulative IPC: 0.31445 (Simulation time: 0 hr 24 min 40 sec) 
Heartbeat CPU  0 instructions:  588000000 cycles: 1601879640 heartbeat IPC: 0.09705 cumulative IPC: 0.31301 (Simulation time: 0 hr 24 min 45 sec) 
Heartbeat CPU  0 instructions:  589000001 cycles: 1612959483 heartbeat IPC: 0.09025 cumulative IPC: 0.31144 (Simulation time: 0 hr 24 min 52 sec) 
Heartbeat CPU  0 instructions:  590000002 cycles: 1626037143 heartbeat IPC: 0.07647 cumulative IPC: 0.30950 (Simulation time: 0 hr 24 min 59 sec) 
Heartbeat CPU  0 instructions:  591000000 cycles: 1635008236 heartbeat IPC: 0.11147 cumulative IPC: 0.30839 (Simulation time: 0 hr 25 min 3 sec) 
Heartbeat CPU  0 instructions:  592000000 cycles: 1642857157 heartbeat IPC: 0.12741 cumulative IPC: 0.30750 (Simulation time: 0 hr 25 min 7 sec) 
Heartbeat CPU  0 instructions:  593000003 cycles: 1650041426 heartbeat IPC: 0.13919 cumulative IPC: 0.30675 (Simulation time: 0 hr 25 min 10 sec) 
Heartbeat CPU  0 instructions:  594000000 cycles: 1656105229 heartbeat IPC: 0.16491 cumulative IPC: 0.30621 (Simulation time: 0 hr 25 min 14 sec) 
Heartbeat CPU  0 instructions:  595000001 cycles: 1665147576 heartbeat IPC: 0.11059 cumulative IPC: 0.30512 (Simulation time: 0 hr 25 min 19 sec) 
Heartbeat CPU  0 instructions:  596000000 cycles: 1672229609 heartbeat IPC: 0.14120 cumulative IPC: 0.30441 (Simulation time: 0 hr 25 min 24 sec) 
Heartbeat CPU  0 instructions:  597000003 cycles: 1677739591 heartbeat IPC: 0.18149 cumulative IPC: 0.30399 (Simulation time: 0 hr 25 min 28 sec) 
Heartbeat CPU  0 instructions:  598000002 cycles: 1683089846 heartbeat IPC: 0.18691 cumulative IPC: 0.30361 (Simulation time: 0 hr 25 min 32 sec) 
Heartbeat CPU  0 instructions:  599000001 cycles: 1688276358 heartbeat IPC: 0.19281 cumulative IPC: 0.30326 (Simulation time: 0 hr 25 min 36 sec) 
Heartbeat CPU  0 instructions:  600000000 cycles: 1693464692 heartbeat IPC: 0.19274 cumulative IPC: 0.30292 (Simulation time: 0 hr 25 min 39 sec) 
Finished CPU 0 instructions: 500000000 cycles: 1650620600 cumulative IPC: 0.30292 (Simulation time: 0 hr 25 min 39 sec) 

ChampSim completed all CPUs

[ROI Statistics]
Core_0_instructions 500000000
Core_0_cycles 1650620600
Core_0_IPC 0.30292

Core_0_branch_prediction_accuracy 99.11262
Core_0_branch_MPKI 1.69223
Core_0_average_ROB_occupancy_at_mispredict 139.19187

Core_0_L1D_total_access 69797712
Core_0_L1D_total_hit 46843977
Core_0_L1D_total_miss 22953735
Core_0_L1D_loads 33269977
Core_0_L1D_load_hit 27901872
Core_0_L1D_load_miss 5368105
Core_0_L1D_RFOs 36527735
Core_0_L1D_RFO_hit 18942105
Core_0_L1D_RFO_miss 17585630
Core_0_L1D_prefetches 0
Core_0_L1D_prefetch_hit 0
Core_0_L1D_prefetch_miss 0
Core_0_L1D_writebacks 0
Core_0_L1D_writeback_hit 0
Core_0_L1D_writeback_miss 0
Core_0_L1D_prefetch_requested 0
Core_0_L1D_prefetch_dropped 0
Core_0_L1D_prefetch_issued 0
Core_0_L1D_prefetch_filled 0
Core_0_L1D_prefetch_useful 0
Core_0_L1D_prefetch_useless 0
Core_0_L1D_prefetch_late 0
Core_0_L1D_average_miss_latency 263.89754

Core_0_L1D_rq_access 60922637
Core_0_L1D_rq_forward 0
Core_0_L1D_rq_merged 24824001
Core_0_L1D_rq_to_cache 36056925
Core_0_L1D_rq_full 0

Core_0_L1D_wq_access 156857733
Core_0_L1D_wq_forward 41711
Core_0_L1D_wq_merged 47452
Core_0_L1D_wq_to_cache 156810281
Core_0_L1D_wq_full 8082969

Core_0_L1D_pq_access 0
Core_0_L1D_pq_forward 0
Core_0_L1D_pq_merged 0
Core_0_L1D_pq_to_cache 0
Core_0_L1D_pq_full 0

Core_0_L1D_acc_epochs 1629895
Core_0_L1D_acc_level_0 1629895
Core_0_L1D_acc_level_1 0
Core_0_L1D_acc_level_2 0
Core_0_L1D_acc_level_3 0
Core_0_L1D_acc_level_4 0
Core_0_L1D_acc_level_5 0
Core_0_L1D_acc_level_6 0
Core_0_L1D_acc_level_7 0
Core_0_L1D_acc_level_8 0
Core_0_L1D_acc_level_9 0

Core_0_L1I_total_access 122919695
Core_0_L1I_total_hit 122900551
Core_0_L1I_total_miss 19144
Core_0_L1I_loads 122919695
Core_0_L1I_load_hit 122900551
Core_0_L1I_load_miss 19144
Core_0_L1I_RFOs 0
Core_0_L1I_RFO_hit 0
Core_0_L1I_RFO_miss 0
Core_0_L1I_prefetches 0
Core_0_L1I_prefetch_hit 0
Core_0_L1I_prefetch_miss 0
Core_0_L1I_writebacks 0
Core_0_L1I_writeback_hit 0
Core_0_L1I_writeback_miss 0
Core_0_L1I_prefetch_requested 0
Core_0_L1I_prefetch_dropped 0
Core_0_L1I_prefetch_issued 0
Core_0_L1I_prefetch_filled 0
Core_0_L1I_prefetch_useful 0
Core_0_L1I_prefetch_useless 0
Core_0_L1I_prefetch_late 0
Core_0_L1I_average_miss_latency 46.65681

Core_0_L1I_rq_access 500000003
Core_0_L1I_rq_forward 0
Core_0_L1I_rq_merged 377055661
Core_0_L1I_rq_to_cache 122944342
Core_0_L1I_rq_full 0

Core_0_L1I_wq_access 0
Core_0_L1I_wq_forward 0
Core_0_L1I_wq_merged 0
Core_0_L1I_wq_to_cache 0
Core_0_L1I_wq_full 0

Core_0_L1I_pq_access 0
Core_0_L1I_pq_forward 0
Core_0_L1I_pq_merged 0
Core_0_L1I_pq_to_cache 0
Core_0_L1I_pq_full 0

Core_0_L1I_acc_epochs 1629895
Core_0_L1I_acc_level_0 1629895
Core_0_L1I_acc_level_1 0
Core_0_L1I_acc_level_2 0
Core_0_L1I_acc_level_3 0
Core_0_L1I_acc_level_4 0
Core_0_L1I_acc_level_5 0
Core_0_L1I_acc_level_6 0
Core_0_L1I_acc_level_7 0
Core_0_L1I_acc_level_8 0
Core_0_L1I_acc_level_9 0

Core_0_L2C_total_access 42966933
Core_0_L2C_total_hit 20169477
Core_0_L2C_total_miss 22797456
Core_0_L2C_loads 5387249
Core_0_L2C_load_hit 1322330
Core_0_L2C_load_miss 4064919
Core_0_L2C_RFOs 17585629
Core_0_L2C_RFO_hit 10706
Core_0_L2C_RFO_miss 17574923
Core_0_L2C_prefetches 1377237
Core_0_L2C_prefetch_hit 219786
Core_0_L2C_prefetch_miss 1157451
Core_0_L2C_writebacks 18616818
Core_0_L2C_writeback_hit 18616655
Core_0_L2C_writeback_miss 163
Core_0_L2C_prefetch_requested 13381403
Core_0_L2C_prefetch_dropped 0
Core_0_L2C_prefetch_issued 13381403
Core_0_L2C_prefetch_filled 1157575
Core_0_L2C_prefetch_useful 1151391
Core_0_L2C_prefetch_useless 6179
Core_0_L2C_prefetch_late 176181
Core_0_L2C_average_miss_latency 255.80163

Core_0_L2C_rq_access 22972883
Core_0_L2C_rq_forward 0
Core_0_L2C_rq_merged 0
Core_0_L2C_rq_to_cache 22972882
Core_0_L2C_rq_full 0

Core_0_L2C_wq_access 18616818
Core_0_L2C_wq_forward 4
Core_0_L2C_wq_merged 0
Core_0_L2C_wq_to_cache 18616818
Core_0_L2C_wq_full 0

Core_0_L2C_pq_access 13381403
Core_0_L2C_pq_forward 0
Core_0_L2C_pq_merged 336017
Core_0_L2C_pq_to_cache 13045383
Core_0_L2C_pq_full 0

Core_0_L2C_acc_epochs 1629895
Core_0_L2C_acc_level_0 1070807
Core_0_L2C_acc_level_1 111763
Core_0_L2C_acc_level_2 98217
Core_0_L2C_acc_level_3 57219
Core_0_L2C_acc_level_4 41807
Core_0_L2C_acc_level_5 88717
Core_0_L2C_acc_level_6 46790
Core_0_L2C_acc_level_7 38207
Core_0_L2C_acc_level_8 28869
Core_0_L2C_acc_level_9 47499

Core_0_LLC_total_access 49732842
Core_0_LLC_total_hit 40036174
Core_0_LLC_total_miss 9696668
Core_0_LLC_loads 3890499
Core_0_LLC_load_hit 1368925
Core_0_LLC_load_miss 2521574
Core_0_LLC_RFOs 17573162
Core_0_LLC_RFO_hit 15308963
Core_0_LLC_RFO_miss 2264199
Core_0_LLC_prefetches 9663524
Core_0_LLC_prefetch_hit 6905352
Core_0_LLC_prefetch_miss 2758172
Core_0_LLC_writebacks 18605657
Core_0_LLC_writeback_hit 16452934
Core_0_LLC_writeback_miss 2152723
Core_0_LLC_prefetch_requested 0
Core_0_LLC_prefetch_dropped 0
Core_0_LLC_prefetch_issued 0
Core_0_LLC_prefetch_filled 2762854
Core_0_LLC_prefetch_useful 1120660
Core_0_LLC_prefetch_useless 1623746
Core_0_LLC_prefetch_late 278285
Core_0_LLC_average_miss_latency 833.66686

Core_0_LLC_rq_access 21463665
Core_0_LLC_rq_forward 0
Core_0_LLC_rq_merged 0
Core_0_LLC_rq_to_cache 21463665
Core_0_LLC_rq_full 0

Core_0_LLC_wq_access 18605659
Core_0_LLC_wq_forward 0
Core_0_LLC_wq_merged 0
Core_0_LLC_wq_to_cache 18605659
Core_0_LLC_wq_full 0

Core_0_LLC_pq_access 12708669
Core_0_LLC_pq_forward 0
Core_0_LLC_pq_merged 325176
Core_0_LLC_pq_to_cache 12383493
Core_0_LLC_pq_full 0

Core_0_LLC_acc_epochs 1653775
Core_0_LLC_acc_level_0 815567
Core_0_LLC_acc_level_1 180029
Core_0_LLC_acc_level_2 147228
Core_0_LLC_acc_level_3 96757
Core_0_LLC_acc_level_4 58169
Core_0_LLC_acc_level_5 113523
Core_0_LLC_acc_level_6 58250
Core_0_LLC_acc_level_7 44329
Core_0_LLC_acc_level_8 31013
Core_0_LLC_acc_level_9 108910

Core_0_major_page_fault 0
Core_0_minor_page_fault 13167

spp.pref.total 13381403
spp.pref.at_L2 1383097
spp.pref.at_LLC 11998306

spp.depth.max 11
spp.depth.min 0
spp.depth.avg 2

spp.breadth.max 2
spp.breadth.min 0
spp.breadth.avg 0

delta_1 11971268
delta_-1 437650
delta_2 394669
delta_5 258767
delta_6 167197
delta_4 114451
delta_3 112688
delta_-2 23488
delta_-3 10698
delta_8 10132
delta_-6 9276
delta_7 9058
delta_12 8642
delta_-4 7302
delta_10 6064
delta_-5 5979
delta_-12 5854
delta_-8 4425
delta_-11 3630
delta_11 3428
delta_-7 3410
delta_16 2958
delta_18 2814
delta_30 2771
delta_-9 2711
delta_-10 2523
delta_-28 2366
delta_-39 2272
delta_-16 2228
delta_22 1962
delta_39 1942
delta_-20 1806
delta_24 1803
delta_-14 1768
delta_9 1607
delta_15 979
delta_-35 895
delta_25 857
delta_14 729
delta_-34 713
delta_19 573
delta_29 486
delta_26 462
delta_21 455
delta_-22 439
delta_20 420
delta_-15 403
delta_-18 366
delta_17 328
delta_36 307
delta_-44 259
delta_28 221
delta_34 208
delta_-19 175
delta_-31 170
delta_-29 139
delta_23 134
delta_-24 126
delta_38 98
delta_-30 94
delta_-23 65
delta_27 62
delta_-13 51
delta_13 50
delta_-27 43
delta_32 39
delta_-36 38
delta_-42 37
delta_-21 36
delta_35 34
delta_31 32
delta_-25 31
delta_-54 26
delta_-33 26
delta_33 26
delta_54 20
delta_-26 20
delta_57 19
delta_-55 19
delta_-37 18
delta_56 16
delta_-52 11
delta_-49 9
delta_-56 9
delta_-40 8
delta_53 8
delta_51 6
delta_42 6
delta_-51 5
delta_-43 5
delta_-48 5
delta_50 4
delta_-46 4
delta_-17 3
delta_45 2

depth_1_delta_1 2147723
depth_1_delta_-1 386483
depth_1_delta_2 325567
depth_1_delta_5 152026
depth_1_delta_6 106483
depth_1_delta_4 104392
depth_1_delta_3 101003
depth_1_delta_-2 21894
depth_1_delta_-3 10261
depth_1_delta_8 8785
depth_1_delta_-6 8622
depth_1_delta_7 8142
depth_1_delta_12 8065
depth_1_delta_-4 6609
depth_1_delta_-5 5564
depth_1_delta_-12 5563
depth_1_delta_10 5093
depth_1_delta_-8 3921
depth_1_delta_-11 3612
depth_1_delta_11 3359
depth_1_delta_16 2946
depth_1_delta_-7 2920
depth_1_delta_30 2755
depth_1_delta_18 2744
depth_1_delta_-9 2650
depth_1_delta_-10 2395
depth_1_delta_-16 2149
depth_1_delta_-28 1971
depth_1_delta_22 1793
depth_1_delta_-20 1790
depth_1_delta_-14 1768
depth_1_delta_24 1736
depth_1_delta_-39 1563
depth_1_delta_9 1560
depth_1_delta_39 1184
depth_1_delta_-35 894
depth_1_delta_15 850
depth_1_delta_25 845
depth_1_delta_-34 712
depth_1_delta_14 643
depth_1_delta_19 573
depth_1_delta_29 475
depth_1_delta_26 438
depth_1_delta_-22 423
depth_1_delta_20 420
depth_1_delta_-15 403
depth_1_delta_21 390
depth_1_delta_-18 351
depth_1_delta_36 305
depth_1_delta_17 298
depth_1_delta_-44 259
depth_1_delta_28 214
depth_1_delta_34 208
depth_1_delta_-19 172
depth_1_delta_-31 170
depth_1_delta_-29 139
depth_1_delta_23 123
depth_1_delta_-24 118
depth_1_delta_38 98
depth_1_delta_-30 82
depth_1_delta_-23 65
depth_1_delta_13 50
depth_1_delta_-13 50
depth_1_delta_27 47
depth_1_delta_-36 38
depth_1_delta_-42 37
depth_1_delta_-21 36
depth_1_delta_-27 35
depth_1_delta_35 34
depth_1_delta_31 32
depth_1_delta_32 32
depth_1_delta_-25 31
depth_1_delta_-33 26
depth_1_delta_33 26
depth_1_delta_-54 21
depth_1_delta_-26 20
depth_1_delta_57 19
depth_1_delta_-55 19
depth_1_delta_-37 18
depth_1_delta_56 16
depth_1_delta_54 14
depth_1_delta_-52 11
depth_1_delta_-56 9
depth_1_delta_-49 9
depth_1_delta_53 8
depth_1_delta_-40 8
depth_1_delta_51 6
depth_1_delta_42 6
depth_1_delta_-51 5
depth_1_delta_-43 5
depth_1_delta_-48 5
depth_1_delta_50 4
depth_1_delta_-46 4
depth_1_delta_-17 3
depth_1_delta_45 2
depth_2_delta_1 1887737
depth_2_delta_5 77042
depth_2_delta_2 62401
depth_2_delta_-1 49695
depth_2_delta_6 44696
depth_2_delta_3 11654
depth_2_delta_4 9070
depth_2_delta_-2 1589
depth_2_delta_8 1346
depth_2_delta_10 925
depth_2_delta_7 913
depth_2_delta_39 732
depth_2_delta_-39 695
depth_2_delta_-4 656
depth_2_delta_-6 595
depth_2_delta_12 543
depth_2_delta_-8 504
depth_2_delta_-7 489
depth_2_delta_-3 437
depth_2_delta_-5 412
depth_2_delta_-28 395
depth_2_delta_-12 291
depth_2_delta_22 169
depth_2_delta_15 129
depth_2_delta_-10 128
depth_2_delta_14 86
depth_2_delta_-16 77
depth_2_delta_18 70
depth_2_delta_24 67
depth_2_delta_11 66
depth_2_delta_21 65
depth_2_delta_-9 61
depth_2_delta_9 47
depth_2_delta_17 30
depth_2_delta_26 24
depth_2_delta_-11 18
depth_2_delta_-20 16
depth_2_delta_-22 16
depth_2_delta_30 16
depth_2_delta_27 15
depth_2_delta_-18 15
depth_2_delta_-30 12
depth_2_delta_16 12
depth_2_delta_25 12
depth_2_delta_23 11
depth_2_delta_29 11
depth_2_delta_-24 8
depth_2_delta_-27 8
depth_2_delta_28 7
depth_2_delta_32 7
depth_2_delta_54 6
depth_2_delta_-54 5
depth_2_delta_-19 3
depth_2_delta_36 2
depth_2_delta_-34 1
depth_2_delta_-13 1
depth_2_delta_-35 1
depth_3_delta_1 1785983
depth_3_delta_5 26044
depth_3_delta_6 15377
depth_3_delta_2 6590
depth_3_delta_-1 1357
depth_3_delta_4 987
depth_3_delta_-6 59
depth_3_delta_10 46
depth_3_delta_-4 37
depth_3_delta_12 34
depth_3_delta_3 31
depth_3_delta_39 26
depth_3_delta_-39 14
depth_3_delta_-2 5
depth_3_delta_-5 3
depth_3_delta_7 3
depth_3_delta_11 3
depth_3_delta_-16 2
depth_3_delta_8 1
depth_3_delta_-7 1
depth_4_delta_1 1707677
depth_4_delta_5 3639
depth_4_delta_6 624
depth_4_delta_-1 115
depth_4_delta_2 111
depth_4_delta_4 2
depth_5_delta_1 1614143
depth_5_delta_6 17
depth_5_delta_5 16
depth_6_delta_1 1334396
depth_7_delta_1 865245
depth_8_delta_1 452220
depth_9_delta_1 173608
depth_10_delta_1 2534
depth_11_delta_1 2

Channel_0_RQ_row_buffer_hit 1962589
Channel_0_RQ_row_buffer_miss 5581283
Channel_0_WQ_row_buffer_hit 908491
Channel_0_WQ_row_buffer_miss 2393238
Channel_0_WQ_full 0
Channel_0_dbus_congested 8976453

avg_congested_cycle 99

DRAM_bw_pochs 6615097
DRAM_bw_level_0 2496966
DRAM_bw_level_1 1253624
DRAM_bw_level_2 0
DRAM_bw_level_3 2864507
