*************************************************
   ChampSim Multicore Out-of-Order Simulator
   Last compiled: Dec 11 2024 17:59:53
*************************************************
parsing config file: /home/functionmain/桌面/Pythia/config/mlop.ini

trace_0 /home/functionmain/桌面/Pythia/traces/403.gcc-16B.champsimtrace.xz
adding L2C_PREFETCHER: MLOP
Initialize SHIP state
warmup_instructions 100000000
simulation_instructions 500000000
champsim_seed 169
measure_ipc 0
measure_ipc_epoch 1000
measure_dram_bw 1
measure_dram_bw_epoch 256
measure_cache_acc 1
measure_cache_acc_epoch 1024
l1d_perfect 0
l2c_perfect 0
llc_perfect 0
l1d_semi_perfect 0
l2c_semi_perfect 0
llc_semi_perfect 0
semi_perfect_cache_page_buffer_size 64

num_cpus 1
cpu_freq 4000
dram_io_freq 300
page_size 4096
block_size 64
max_read_per_cycle 8
max_fill_per_cycle 1
dram_channels 1
log2_dram_channels 0
dram_ranks 1
dram_banks 8
dram_rows 65536
dram_columns 128
dram_row_size 8
dram_size 4096
dram_pages 1048576

fetch_width 6
decode_width 6
exec_width 4
lq_width 2
sq_width 2
retire_width 4
scheduler_size 128
branch_mispredict_penalty 20
rob_size 256
lq_size 72
sq_size 56
num_instr_destinations_sparc 4
num_instr_destinations 2
num_instr_sources 4

itlb_set 16
itlb_way 8
itlb_rq_size 16
itlb_wq_size 16
itlb_pq_size 0
itlb_mshr_size 8
itlb_latency 1

dtlb_set 16
dtlb_way 4
dtlb_rq_size 16
dtlb_wq_size 16
dtlb_pq_size 0
dtlb_mshr_size 8
dtlb_latency 1

stlb_set 128
stlb_way 12
stlb_rq_size 32
stlb_wq_size 32
stlb_pq_size 0
stlb_mshr_size 16
stlb_latency 8

l1i_size 32
l1i_set 64
l1i_way 8
l1i_rq_size 64
l1i_wq_size 64
l1i_pq_size 8
l1i_mshr_size 8
l1i_latency 1

l1d_size 32
l1d_set 64
l1d_way 8
l1d_rq_size 64
l1d_wq_size 64
l1d_pq_size 8
l1d_mshr_size 16
l1d_latency 4

l2c_size 256
l2c_set 512
l2c_way 8
l2c_rq_size 32
l2c_wq_size 32
l2c_pq_size 32
l2c_mshr_size 32
l2c_latency 10

llc_size 2048
llc_set 2048
llc_way 16
llc_rq_size 32
llc_wq_size 32
llc_pq_size 32
llc_mshr_size 64
llc_latency 20

dram_channel_width 8
dram_wq_size 64
dram_rq_size 64
tRP 15
tRCD 15
tCAS 12.5
dram_dbus_turn_around_time 30
dram_write_high_wm 56
dram_write_low_wm 48
min_dram_writes_per_switch 16
dram_mtps 300
dram_dbus_return_time 106

mlop_pref_degree 16
mlop_num_updates 500
mlop_l1d_thresh 2
mlop_l2c_thresh 0.75
mlop_llc_thresh 0.3
mlop_debug_level 0
mlop_blocks_in_cache 4096
mlop_blocks_in_zone 64
mlop_amt_size 2048
mlop_PF_DEGREE 16
mlop_NUM_UPDATES 500
mlop_L1D_THRESH 1000
mlop_L2C_THRESH 375
mlop_LLC_THRESH 150
mlop_ORIGIN 63
mlop_MAX_OFFSET 63
mlop_MIN_OFFSET -63
mlop_ORIGIN 63
mlop_NUM_OFFSETS 127


Heartbeat CPU  0 instructions:    1000000 cycles:     453084 heartbeat IPC: 2.20710 cumulative IPC: 2.20710 (Simulation time: 0 hr 0 min 1 sec) 
Heartbeat CPU  0 instructions:    2000000 cycles:     861340 heartbeat IPC: 2.44944 cumulative IPC: 2.32196 (Simulation time: 0 hr 0 min 3 sec) 
Heartbeat CPU  0 instructions:    3000003 cycles:    1299524 heartbeat IPC: 2.28215 cumulative IPC: 2.30854 (Simulation time: 0 hr 0 min 4 sec) 
Heartbeat CPU  0 instructions:    4000000 cycles:    1765757 heartbeat IPC: 2.14484 cumulative IPC: 2.26532 (Simulation time: 0 hr 0 min 6 sec) 
Heartbeat CPU  0 instructions:    5000000 cycles:    2181238 heartbeat IPC: 2.40685 cumulative IPC: 2.29228 (Simulation time: 0 hr 0 min 7 sec) 
Heartbeat CPU  0 instructions:    6000000 cycles:    2658583 heartbeat IPC: 2.09492 cumulative IPC: 2.25684 (Simulation time: 0 hr 0 min 9 sec) 
Heartbeat CPU  0 instructions:    7000002 cycles:    3082228 heartbeat IPC: 2.36047 cumulative IPC: 2.27109 (Simulation time: 0 hr 0 min 10 sec) 
Heartbeat CPU  0 instructions:    8000000 cycles:    3488428 heartbeat IPC: 2.46184 cumulative IPC: 2.29330 (Simulation time: 0 hr 0 min 12 sec) 
Heartbeat CPU  0 instructions:    9000003 cycles:    3937097 heartbeat IPC: 2.22882 cumulative IPC: 2.28595 (Simulation time: 0 hr 0 min 13 sec) 
Heartbeat CPU  0 instructions:   10000001 cycles:    4377769 heartbeat IPC: 2.26926 cumulative IPC: 2.28427 (Simulation time: 0 hr 0 min 15 sec) 
Heartbeat CPU  0 instructions:   11000000 cycles:    4781974 heartbeat IPC: 2.47399 cumulative IPC: 2.30031 (Simulation time: 0 hr 0 min 16 sec) 
Heartbeat CPU  0 instructions:   12000000 cycles:    5196200 heartbeat IPC: 2.41414 cumulative IPC: 2.30938 (Simulation time: 0 hr 0 min 18 sec) 
Heartbeat CPU  0 instructions:   13000001 cycles:    5649332 heartbeat IPC: 2.20686 cumulative IPC: 2.30116 (Simulation time: 0 hr 0 min 19 sec) 
Heartbeat CPU  0 instructions:   14000003 cycles:    6084643 heartbeat IPC: 2.29721 cumulative IPC: 2.30087 (Simulation time: 0 hr 0 min 21 sec) 
Heartbeat CPU  0 instructions:   15000000 cycles:    6489740 heartbeat IPC: 2.46854 cumulative IPC: 2.31134 (Simulation time: 0 hr 0 min 22 sec) 
Heartbeat CPU  0 instructions:   16000000 cycles:    6909947 heartbeat IPC: 2.37978 cumulative IPC: 2.31550 (Simulation time: 0 hr 0 min 24 sec) 
Heartbeat CPU  0 instructions:   17000001 cycles:    7352906 heartbeat IPC: 2.25755 cumulative IPC: 2.31201 (Simulation time: 0 hr 0 min 25 sec) 
Heartbeat CPU  0 instructions:   18000000 cycles:    7788206 heartbeat IPC: 2.29726 cumulative IPC: 2.31119 (Simulation time: 0 hr 0 min 27 sec) 
Heartbeat CPU  0 instructions:   19000001 cycles:    8188800 heartbeat IPC: 2.49630 cumulative IPC: 2.32024 (Simulation time: 0 hr 0 min 28 sec) 
Heartbeat CPU  0 instructions:   20000000 cycles:    8635547 heartbeat IPC: 2.23840 cumulative IPC: 2.31601 (Simulation time: 0 hr 0 min 30 sec) 
Heartbeat CPU  0 instructions:   21000001 cycles:    9080752 heartbeat IPC: 2.24616 cumulative IPC: 2.31258 (Simulation time: 0 hr 0 min 31 sec) 
Heartbeat CPU  0 instructions:   22000000 cycles:    9481476 heartbeat IPC: 2.49548 cumulative IPC: 2.32031 (Simulation time: 0 hr 0 min 33 sec) 
Heartbeat CPU  0 instructions:   23000003 cycles:    9895765 heartbeat IPC: 2.41378 cumulative IPC: 2.32423 (Simulation time: 0 hr 0 min 34 sec) 
Heartbeat CPU  0 instructions:   24000000 cycles:   10338022 heartbeat IPC: 2.26112 cumulative IPC: 2.32153 (Simulation time: 0 hr 0 min 36 sec) 
Heartbeat CPU  0 instructions:   25000000 cycles:   10787006 heartbeat IPC: 2.22725 cumulative IPC: 2.31760 (Simulation time: 0 hr 0 min 37 sec) 
Heartbeat CPU  0 instructions:   26000000 cycles:   11183308 heartbeat IPC: 2.52333 cumulative IPC: 2.32489 (Simulation time: 0 hr 0 min 39 sec) 
Heartbeat CPU  0 instructions:   27000001 cycles:   11598130 heartbeat IPC: 2.41068 cumulative IPC: 2.32796 (Simulation time: 0 hr 0 min 40 sec) 
Heartbeat CPU  0 instructions:   28000000 cycles:   12045877 heartbeat IPC: 2.23340 cumulative IPC: 2.32445 (Simulation time: 0 hr 0 min 42 sec) 
Heartbeat CPU  0 instructions:   29000000 cycles:   12478754 heartbeat IPC: 2.31013 cumulative IPC: 2.32395 (Simulation time: 0 hr 0 min 43 sec) 
Heartbeat CPU  0 instructions:   30000003 cycles:   12886550 heartbeat IPC: 2.45221 cumulative IPC: 2.32801 (Simulation time: 0 hr 0 min 44 sec) 
Heartbeat CPU  0 instructions:   31000003 cycles:   13376799 heartbeat IPC: 2.03978 cumulative IPC: 2.31745 (Simulation time: 0 hr 0 min 46 sec) 
Heartbeat CPU  0 instructions:   32000000 cycles:   13779516 heartbeat IPC: 2.48313 cumulative IPC: 2.32229 (Simulation time: 0 hr 0 min 47 sec) 
Heartbeat CPU  0 instructions:   33000001 cycles:   14203515 heartbeat IPC: 2.35850 cumulative IPC: 2.32337 (Simulation time: 0 hr 0 min 49 sec) 
Heartbeat CPU  0 instructions:   34000003 cycles:   14655668 heartbeat IPC: 2.21165 cumulative IPC: 2.31992 (Simulation time: 0 hr 0 min 50 sec) 
Heartbeat CPU  0 instructions:   35000002 cycles:   15077104 heartbeat IPC: 2.37284 cumulative IPC: 2.32140 (Simulation time: 0 hr 0 min 52 sec) 
Heartbeat CPU  0 instructions:   36000000 cycles:   15474339 heartbeat IPC: 2.51740 cumulative IPC: 2.32643 (Simulation time: 0 hr 0 min 53 sec) 
Heartbeat CPU  0 instructions:   37000001 cycles:   15909780 heartbeat IPC: 2.29652 cumulative IPC: 2.32561 (Simulation time: 0 hr 0 min 55 sec) 
Heartbeat CPU  0 instructions:   38000000 cycles:   16358002 heartbeat IPC: 2.23103 cumulative IPC: 2.32302 (Simulation time: 0 hr 0 min 56 sec) 
Heartbeat CPU  0 instructions:   39000000 cycles:   16774291 heartbeat IPC: 2.40218 cumulative IPC: 2.32499 (Simulation time: 0 hr 0 min 58 sec) 
Heartbeat CPU  0 instructions:   40000000 cycles:   17172792 heartbeat IPC: 2.50940 cumulative IPC: 2.32927 (Simulation time: 0 hr 0 min 59 sec) 
Heartbeat CPU  0 instructions:   41000003 cycles:   17614898 heartbeat IPC: 2.26191 cumulative IPC: 2.32758 (Simulation time: 0 hr 1 min 1 sec) 
Heartbeat CPU  0 instructions:   42000003 cycles:   18057159 heartbeat IPC: 2.26111 cumulative IPC: 2.32595 (Simulation time: 0 hr 1 min 2 sec) 
Heartbeat CPU  0 instructions:   43000002 cycles:   18463348 heartbeat IPC: 2.46191 cumulative IPC: 2.32894 (Simulation time: 0 hr 1 min 4 sec) 
Heartbeat CPU  0 instructions:   44000000 cycles:   18913754 heartbeat IPC: 2.22021 cumulative IPC: 2.32635 (Simulation time: 0 hr 1 min 5 sec) 
Heartbeat CPU  0 instructions:   45000000 cycles:   19361550 heartbeat IPC: 2.23316 cumulative IPC: 2.32419 (Simulation time: 0 hr 1 min 7 sec) 
Heartbeat CPU  0 instructions:   46000003 cycles:   19774904 heartbeat IPC: 2.41924 cumulative IPC: 2.32618 (Simulation time: 0 hr 1 min 8 sec) 
Heartbeat CPU  0 instructions:   47000003 cycles:   20228308 heartbeat IPC: 2.20554 cumulative IPC: 2.32348 (Simulation time: 0 hr 1 min 10 sec) 
Heartbeat CPU  0 instructions:   48000000 cycles:   20652037 heartbeat IPC: 2.35999 cumulative IPC: 2.32423 (Simulation time: 0 hr 1 min 11 sec) 
Heartbeat CPU  0 instructions:   49000003 cycles:   21060772 heartbeat IPC: 2.44658 cumulative IPC: 2.32660 (Simulation time: 0 hr 1 min 13 sec) 
Heartbeat CPU  0 instructions:   50000000 cycles:   21501079 heartbeat IPC: 2.27114 cumulative IPC: 2.32546 (Simulation time: 0 hr 1 min 14 sec) 
Heartbeat CPU  0 instructions:   51000003 cycles:   21938113 heartbeat IPC: 2.28816 cumulative IPC: 2.32472 (Simulation time: 0 hr 1 min 16 sec) 
Heartbeat CPU  0 instructions:   52000000 cycles:   22345456 heartbeat IPC: 2.45493 cumulative IPC: 2.32710 (Simulation time: 0 hr 1 min 17 sec) 
Heartbeat CPU  0 instructions:   53000000 cycles:   22760907 heartbeat IPC: 2.40702 cumulative IPC: 2.32855 (Simulation time: 0 hr 1 min 19 sec) 
Heartbeat CPU  0 instructions:   54000001 cycles:   23200777 heartbeat IPC: 2.27340 cumulative IPC: 2.32751 (Simulation time: 0 hr 1 min 20 sec) 
Heartbeat CPU  0 instructions:   55000001 cycles:   23635740 heartbeat IPC: 2.29905 cumulative IPC: 2.32698 (Simulation time: 0 hr 1 min 22 sec) 
Heartbeat CPU  0 instructions:   56000000 cycles:   24043049 heartbeat IPC: 2.45514 cumulative IPC: 2.32916 (Simulation time: 0 hr 1 min 23 sec) 
Heartbeat CPU  0 instructions:   57000003 cycles:   24458788 heartbeat IPC: 2.40536 cumulative IPC: 2.33045 (Simulation time: 0 hr 1 min 25 sec) 
Heartbeat CPU  0 instructions:   58000001 cycles:   24905970 heartbeat IPC: 2.23622 cumulative IPC: 2.32876 (Simulation time: 0 hr 1 min 26 sec) 
Heartbeat CPU  0 instructions:   59000000 cycles:   25336649 heartbeat IPC: 2.32191 cumulative IPC: 2.32864 (Simulation time: 0 hr 1 min 28 sec) 
Heartbeat CPU  0 instructions:   60000000 cycles:   25732362 heartbeat IPC: 2.52708 cumulative IPC: 2.33169 (Simulation time: 0 hr 1 min 29 sec) 
Heartbeat CPU  0 instructions:   61000001 cycles:   26184069 heartbeat IPC: 2.21383 cumulative IPC: 2.32966 (Simulation time: 0 hr 1 min 31 sec) 
Heartbeat CPU  0 instructions:   62000001 cycles:   26622144 heartbeat IPC: 2.28271 cumulative IPC: 2.32889 (Simulation time: 0 hr 1 min 32 sec) 
Heartbeat CPU  0 instructions:   63000000 cycles:   27026167 heartbeat IPC: 2.47510 cumulative IPC: 2.33107 (Simulation time: 0 hr 1 min 34 sec) 
Heartbeat CPU  0 instructions:   64000000 cycles:   27435807 heartbeat IPC: 2.44117 cumulative IPC: 2.33272 (Simulation time: 0 hr 1 min 35 sec) 
Heartbeat CPU  0 instructions:   65000001 cycles:   27883780 heartbeat IPC: 2.23228 cumulative IPC: 2.33110 (Simulation time: 0 hr 1 min 37 sec) 
Heartbeat CPU  0 instructions:   66000003 cycles:   28322210 heartbeat IPC: 2.28087 cumulative IPC: 2.33033 (Simulation time: 0 hr 1 min 38 sec) 
Heartbeat CPU  0 instructions:   67000000 cycles:   28721536 heartbeat IPC: 2.50421 cumulative IPC: 2.33274 (Simulation time: 0 hr 1 min 40 sec) 
Heartbeat CPU  0 instructions:   68000000 cycles:   29137702 heartbeat IPC: 2.40289 cumulative IPC: 2.33375 (Simulation time: 0 hr 1 min 41 sec) 
Heartbeat CPU  0 instructions:   69000001 cycles:   29579082 heartbeat IPC: 2.26562 cumulative IPC: 2.33273 (Simulation time: 0 hr 1 min 43 sec) 
Heartbeat CPU  0 instructions:   70000001 cycles:   30012578 heartbeat IPC: 2.30683 cumulative IPC: 2.33236 (Simulation time: 0 hr 1 min 44 sec) 
Heartbeat CPU  0 instructions:   71000003 cycles:   30437933 heartbeat IPC: 2.35098 cumulative IPC: 2.33262 (Simulation time: 0 hr 1 min 46 sec) 
Heartbeat CPU  0 instructions:   72000000 cycles:   30913585 heartbeat IPC: 2.10237 cumulative IPC: 2.32907 (Simulation time: 0 hr 1 min 47 sec) 
Heartbeat CPU  0 instructions:   73000001 cycles:   31310013 heartbeat IPC: 2.52253 cumulative IPC: 2.33152 (Simulation time: 0 hr 1 min 49 sec) 
Heartbeat CPU  0 instructions:   74000000 cycles:   31749846 heartbeat IPC: 2.27359 cumulative IPC: 2.33072 (Simulation time: 0 hr 1 min 50 sec) 
Heartbeat CPU  0 instructions:   75000003 cycles:   32201054 heartbeat IPC: 2.21628 cumulative IPC: 2.32912 (Simulation time: 0 hr 1 min 52 sec) 
Heartbeat CPU  0 instructions:   76000000 cycles:   32602023 heartbeat IPC: 2.49395 cumulative IPC: 2.33114 (Simulation time: 0 hr 1 min 53 sec) 
Heartbeat CPU  0 instructions:   77000001 cycles:   33018914 heartbeat IPC: 2.39871 cumulative IPC: 2.33200 (Simulation time: 0 hr 1 min 55 sec) 
Heartbeat CPU  0 instructions:   78000001 cycles:   33454065 heartbeat IPC: 2.29805 cumulative IPC: 2.33156 (Simulation time: 0 hr 1 min 56 sec) 
Heartbeat CPU  0 instructions:   79000000 cycles:   33900532 heartbeat IPC: 2.23980 cumulative IPC: 2.33035 (Simulation time: 0 hr 1 min 58 sec) 
Heartbeat CPU  0 instructions:   80000000 cycles:   34296586 heartbeat IPC: 2.52491 cumulative IPC: 2.33259 (Simulation time: 0 hr 1 min 59 sec) 
Heartbeat CPU  0 instructions:   81000003 cycles:   34714452 heartbeat IPC: 2.39312 cumulative IPC: 2.33332 (Simulation time: 0 hr 2 min 1 sec) 
Heartbeat CPU  0 instructions:   82000003 cycles:   35155770 heartbeat IPC: 2.26594 cumulative IPC: 2.33248 (Simulation time: 0 hr 2 min 2 sec) 
Heartbeat CPU  0 instructions:   83000000 cycles:   35590878 heartbeat IPC: 2.29827 cumulative IPC: 2.33206 (Simulation time: 0 hr 2 min 4 sec) 
Heartbeat CPU  0 instructions:   84000000 cycles:   35984287 heartbeat IPC: 2.54188 cumulative IPC: 2.33435 (Simulation time: 0 hr 2 min 5 sec) 
Heartbeat CPU  0 instructions:   85000000 cycles:   36424783 heartbeat IPC: 2.27017 cumulative IPC: 2.33358 (Simulation time: 0 hr 2 min 7 sec) 
Heartbeat CPU  0 instructions:   86000001 cycles:   36865580 heartbeat IPC: 2.26862 cumulative IPC: 2.33280 (Simulation time: 0 hr 2 min 8 sec) 
Heartbeat CPU  0 instructions:   87000002 cycles:   37276953 heartbeat IPC: 2.43089 cumulative IPC: 2.33388 (Simulation time: 0 hr 2 min 10 sec) 
Heartbeat CPU  0 instructions:   88000000 cycles:   37692949 heartbeat IPC: 2.40386 cumulative IPC: 2.33465 (Simulation time: 0 hr 2 min 11 sec) 
Heartbeat CPU  0 instructions:   89000001 cycles:   38129248 heartbeat IPC: 2.29201 cumulative IPC: 2.33417 (Simulation time: 0 hr 2 min 13 sec) 
Heartbeat CPU  0 instructions:   90000000 cycles:   38563896 heartbeat IPC: 2.30071 cumulative IPC: 2.33379 (Simulation time: 0 hr 2 min 14 sec) 
Heartbeat CPU  0 instructions:   91000000 cycles:   38969944 heartbeat IPC: 2.46276 cumulative IPC: 2.33513 (Simulation time: 0 hr 2 min 15 sec) 
Heartbeat CPU  0 instructions:   92000000 cycles:   39388424 heartbeat IPC: 2.38960 cumulative IPC: 2.33571 (Simulation time: 0 hr 2 min 17 sec) 
Heartbeat CPU  0 instructions:   93000000 cycles:   39821956 heartbeat IPC: 2.30663 cumulative IPC: 2.33540 (Simulation time: 0 hr 2 min 19 sec) 
Heartbeat CPU  0 instructions:   94000002 cycles:   40262114 heartbeat IPC: 2.27192 cumulative IPC: 2.33470 (Simulation time: 0 hr 2 min 20 sec) 
Heartbeat CPU  0 instructions:   95000000 cycles:   40654150 heartbeat IPC: 2.55078 cumulative IPC: 2.33678 (Simulation time: 0 hr 2 min 21 sec) 
Heartbeat CPU  0 instructions:   96000000 cycles:   41088062 heartbeat IPC: 2.30461 cumulative IPC: 2.33645 (Simulation time: 0 hr 2 min 23 sec) 
Heartbeat CPU  0 instructions:   97000001 cycles:   41550645 heartbeat IPC: 2.16178 cumulative IPC: 2.33450 (Simulation time: 0 hr 2 min 24 sec) 
Heartbeat CPU  0 instructions:   98000003 cycles:   41969776 heartbeat IPC: 2.38589 cumulative IPC: 2.33501 (Simulation time: 0 hr 2 min 26 sec) 
Heartbeat CPU  0 instructions:   99000001 cycles:   42412147 heartbeat IPC: 2.26054 cumulative IPC: 2.33424 (Simulation time: 0 hr 2 min 27 sec) 
Heartbeat CPU  0 instructions:  100000000 cycles:   42843344 heartbeat IPC: 2.31912 cumulative IPC: 2.33408 (Simulation time: 0 hr 2 min 29 sec) 

Warmup complete CPU  0 instructions:  100000001 cycles:   42843345 (Simulation time: 0 hr 2 min 29 sec) 

Heartbeat CPU  0 instructions:  101000001 cycles:   43519756 heartbeat IPC: 1.47839 cumulative IPC: 1.47839 (Simulation time: 0 hr 2 min 31 sec) 
Heartbeat CPU  0 instructions:  102000003 cycles:   44206272 heartbeat IPC: 1.45663 cumulative IPC: 1.46743 (Simulation time: 0 hr 2 min 32 sec) 
Heartbeat CPU  0 instructions:  103000003 cycles:   44890424 heartbeat IPC: 1.46166 cumulative IPC: 1.46550 (Simulation time: 0 hr 2 min 34 sec) 
Heartbeat CPU  0 instructions:  104000000 cycles:   45577200 heartbeat IPC: 1.45607 cumulative IPC: 1.46314 (Simulation time: 0 hr 2 min 36 sec) 
Heartbeat CPU  0 instructions:  105000001 cycles:   46267193 heartbeat IPC: 1.44929 cumulative IPC: 1.46035 (Simulation time: 0 hr 2 min 37 sec) 
Heartbeat CPU  0 instructions:  106000000 cycles:   46950878 heartbeat IPC: 1.46266 cumulative IPC: 1.46073 (Simulation time: 0 hr 2 min 39 sec) 
Heartbeat CPU  0 instructions:  107000001 cycles:   47634403 heartbeat IPC: 1.46301 cumulative IPC: 1.46106 (Simulation time: 0 hr 2 min 41 sec) 
Heartbeat CPU  0 instructions:  108000000 cycles:   48364274 heartbeat IPC: 1.37010 cumulative IPC: 1.44903 (Simulation time: 0 hr 2 min 43 sec) 
Heartbeat CPU  0 instructions:  109000001 cycles:   49050774 heartbeat IPC: 1.45667 cumulative IPC: 1.44988 (Simulation time: 0 hr 2 min 44 sec) 
Heartbeat CPU  0 instructions:  110000003 cycles:   49853611 heartbeat IPC: 1.24559 cumulative IPC: 1.42648 (Simulation time: 0 hr 2 min 46 sec) 
Heartbeat CPU  0 instructions:  111000000 cycles:   50713079 heartbeat IPC: 1.16351 cumulative IPC: 1.39776 (Simulation time: 0 hr 2 min 48 sec) 
Heartbeat CPU  0 instructions:  112000000 cycles:   51535524 heartbeat IPC: 1.21589 cumulative IPC: 1.38055 (Simulation time: 0 hr 2 min 50 sec) 
Heartbeat CPU  0 instructions:  113000003 cycles:   52241640 heartbeat IPC: 1.41620 cumulative IPC: 1.38323 (Simulation time: 0 hr 2 min 51 sec) 
Heartbeat CPU  0 instructions:  114000001 cycles:   52943248 heartbeat IPC: 1.42529 cumulative IPC: 1.38615 (Simulation time: 0 hr 2 min 53 sec) 
Heartbeat CPU  0 instructions:  115000002 cycles:   53663153 heartbeat IPC: 1.38907 cumulative IPC: 1.38635 (Simulation time: 0 hr 2 min 55 sec) 
Heartbeat CPU  0 instructions:  116000000 cycles:   54350730 heartbeat IPC: 1.45438 cumulative IPC: 1.39041 (Simulation time: 0 hr 2 min 56 sec) 
Heartbeat CPU  0 instructions:  117000000 cycles:   55021645 heartbeat IPC: 1.49050 cumulative IPC: 1.39593 (Simulation time: 0 hr 2 min 58 sec) 
Heartbeat CPU  0 instructions:  118000000 cycles:   55675552 heartbeat IPC: 1.52927 cumulative IPC: 1.40272 (Simulation time: 0 hr 3 min 0 sec) 
Heartbeat CPU  0 instructions:  119000002 cycles:   56403375 heartbeat IPC: 1.37396 cumulative IPC: 1.40118 (Simulation time: 0 hr 3 min 2 sec) 
Heartbeat CPU  0 instructions:  120000000 cycles:   57085692 heartbeat IPC: 1.46559 cumulative IPC: 1.40426 (Simulation time: 0 hr 3 min 3 sec) 
Heartbeat CPU  0 instructions:  121000002 cycles:   57758010 heartbeat IPC: 1.48739 cumulative IPC: 1.40801 (Simulation time: 0 hr 3 min 5 sec) 
Heartbeat CPU  0 instructions:  122000000 cycles:   58439964 heartbeat IPC: 1.46637 cumulative IPC: 1.41056 (Simulation time: 0 hr 3 min 7 sec) 
Heartbeat CPU  0 instructions:  123000002 cycles:   59176639 heartbeat IPC: 1.35745 cumulative IPC: 1.40817 (Simulation time: 0 hr 3 min 8 sec) 
Heartbeat CPU  0 instructions:  124000000 cycles:   59926247 heartbeat IPC: 1.33403 cumulative IPC: 1.40491 (Simulation time: 0 hr 3 min 10 sec) 
Heartbeat CPU  0 instructions:  125000000 cycles:   60602508 heartbeat IPC: 1.47872 cumulative IPC: 1.40772 (Simulation time: 0 hr 3 min 12 sec) 
Heartbeat CPU  0 instructions:  126000000 cycles:   61314523 heartbeat IPC: 1.40446 cumulative IPC: 1.40760 (Simulation time: 0 hr 3 min 14 sec) 
Heartbeat CPU  0 instructions:  127000003 cycles:   62039210 heartbeat IPC: 1.37991 cumulative IPC: 1.40655 (Simulation time: 0 hr 3 min 15 sec) 
Heartbeat CPU  0 instructions:  128000000 cycles:   62712986 heartbeat IPC: 1.48417 cumulative IPC: 1.40918 (Simulation time: 0 hr 3 min 17 sec) 
Heartbeat CPU  0 instructions:  129000001 cycles:   63359912 heartbeat IPC: 1.54577 cumulative IPC: 1.41349 (Simulation time: 0 hr 3 min 19 sec) 
Heartbeat CPU  0 instructions:  130000001 cycles:   64055778 heartbeat IPC: 1.43706 cumulative IPC: 1.41426 (Simulation time: 0 hr 3 min 20 sec) 
Heartbeat CPU  0 instructions:  131000002 cycles:   64778897 heartbeat IPC: 1.38290 cumulative IPC: 1.41323 (Simulation time: 0 hr 3 min 22 sec) 
Heartbeat CPU  0 instructions:  132000000 cycles:   65446182 heartbeat IPC: 1.49861 cumulative IPC: 1.41575 (Simulation time: 0 hr 3 min 24 sec) 
Heartbeat CPU  0 instructions:  133000003 cycles:   66100818 heartbeat IPC: 1.52757 cumulative IPC: 1.41890 (Simulation time: 0 hr 3 min 26 sec) 
Heartbeat CPU  0 instructions:  134000001 cycles:   66843644 heartbeat IPC: 1.34621 cumulative IPC: 1.41665 (Simulation time: 0 hr 3 min 27 sec) 
Heartbeat CPU  0 instructions:  135000001 cycles:   67561750 heartbeat IPC: 1.39255 cumulative IPC: 1.41595 (Simulation time: 0 hr 3 min 29 sec) 
Heartbeat CPU  0 instructions:  136000000 cycles:   68321828 heartbeat IPC: 1.31565 cumulative IPC: 1.41296 (Simulation time: 0 hr 3 min 31 sec) 
Heartbeat CPU  0 instructions:  137000003 cycles:   69228604 heartbeat IPC: 1.10281 cumulative IPC: 1.40230 (Simulation time: 0 hr 3 min 32 sec) 
Heartbeat CPU  0 instructions:  138000002 cycles:   69948912 heartbeat IPC: 1.38829 cumulative IPC: 1.40193 (Simulation time: 0 hr 3 min 34 sec) 
Heartbeat CPU  0 instructions:  139000002 cycles:   70611669 heartbeat IPC: 1.50885 cumulative IPC: 1.40448 (Simulation time: 0 hr 3 min 36 sec) 
Heartbeat CPU  0 instructions:  140000000 cycles:   71373874 heartbeat IPC: 1.31198 cumulative IPC: 1.40201 (Simulation time: 0 hr 3 min 38 sec) 
Heartbeat CPU  0 instructions:  141000001 cycles:   72064784 heartbeat IPC: 1.44737 cumulative IPC: 1.40308 (Simulation time: 0 hr 3 min 39 sec) 
Heartbeat CPU  0 instructions:  142000001 cycles:   72729164 heartbeat IPC: 1.50516 cumulative IPC: 1.40535 (Simulation time: 0 hr 3 min 41 sec) 
Heartbeat CPU  0 instructions:  143000002 cycles:   73388693 heartbeat IPC: 1.51624 cumulative IPC: 1.40774 (Simulation time: 0 hr 3 min 43 sec) 
Heartbeat CPU  0 instructions:  144000000 cycles:   74104916 heartbeat IPC: 1.39621 cumulative IPC: 1.40748 (Simulation time: 0 hr 3 min 44 sec) 
Heartbeat CPU  0 instructions:  145000003 cycles:   74800596 heartbeat IPC: 1.43745 cumulative IPC: 1.40813 (Simulation time: 0 hr 3 min 46 sec) 
Heartbeat CPU  0 instructions:  146000000 cycles:   75462633 heartbeat IPC: 1.51049 cumulative IPC: 1.41021 (Simulation time: 0 hr 3 min 48 sec) 
Heartbeat CPU  0 instructions:  147000003 cycles:   76158584 heartbeat IPC: 1.43689 cumulative IPC: 1.41077 (Simulation time: 0 hr 3 min 50 sec) 
Heartbeat CPU  0 instructions:  148000000 cycles:   76874092 heartbeat IPC: 1.39760 cumulative IPC: 1.41049 (Simulation time: 0 hr 3 min 51 sec) 
Heartbeat CPU  0 instructions:  149000001 cycles:   77620928 heartbeat IPC: 1.33898 cumulative IPC: 1.40895 (Simulation time: 0 hr 3 min 53 sec) 
Heartbeat CPU  0 instructions:  150000003 cycles:   78449418 heartbeat IPC: 1.20702 cumulative IPC: 1.40425 (Simulation time: 0 hr 3 min 55 sec) 
Heartbeat CPU  0 instructions:  151000000 cycles:   79268076 heartbeat IPC: 1.22151 cumulative IPC: 1.40015 (Simulation time: 0 hr 3 min 56 sec) 
Heartbeat CPU  0 instructions:  152000000 cycles:   80014910 heartbeat IPC: 1.33899 cumulative IPC: 1.39892 (Simulation time: 0 hr 3 min 58 sec) 
Heartbeat CPU  0 instructions:  153000001 cycles:   80785091 heartbeat IPC: 1.29840 cumulative IPC: 1.39688 (Simulation time: 0 hr 4 min 0 sec) 
Heartbeat CPU  0 instructions:  154000000 cycles:   81555896 heartbeat IPC: 1.29734 cumulative IPC: 1.39490 (Simulation time: 0 hr 4 min 2 sec) 
Heartbeat CPU  0 instructions:  155000000 cycles:   82339060 heartbeat IPC: 1.27687 cumulative IPC: 1.39256 (Simulation time: 0 hr 4 min 3 sec) 
Heartbeat CPU  0 instructions:  156000000 cycles:   83281387 heartbeat IPC: 1.06120 cumulative IPC: 1.38483 (Simulation time: 0 hr 4 min 5 sec) 
Heartbeat CPU  0 instructions:  157000002 cycles:   84018352 heartbeat IPC: 1.35692 cumulative IPC: 1.38433 (Simulation time: 0 hr 4 min 7 sec) 
Heartbeat CPU  0 instructions:  158000001 cycles:   84898737 heartbeat IPC: 1.13587 cumulative IPC: 1.37913 (Simulation time: 0 hr 4 min 9 sec) 
Heartbeat CPU  0 instructions:  159000001 cycles:   85653189 heartbeat IPC: 1.32547 cumulative IPC: 1.37819 (Simulation time: 0 hr 4 min 10 sec) 
Heartbeat CPU  0 instructions:  160000000 cycles:   86352007 heartbeat IPC: 1.43099 cumulative IPC: 1.37904 (Simulation time: 0 hr 4 min 12 sec) 
Heartbeat CPU  0 instructions:  161000001 cycles:   87079622 heartbeat IPC: 1.37435 cumulative IPC: 1.37896 (Simulation time: 0 hr 4 min 14 sec) 
Heartbeat CPU  0 instructions:  162000003 cycles:   87812533 heartbeat IPC: 1.36442 cumulative IPC: 1.37872 (Simulation time: 0 hr 4 min 16 sec) 
Heartbeat CPU  0 instructions:  163000000 cycles:   88486187 heartbeat IPC: 1.48444 cumulative IPC: 1.38028 (Simulation time: 0 hr 4 min 17 sec) 
Heartbeat CPU  0 instructions:  164000000 cycles:   89201661 heartbeat IPC: 1.39767 cumulative IPC: 1.38055 (Simulation time: 0 hr 4 min 19 sec) 
Heartbeat CPU  0 instructions:  165000001 cycles:   89893455 heartbeat IPC: 1.44552 cumulative IPC: 1.38151 (Simulation time: 0 hr 4 min 21 sec) 
Heartbeat CPU  0 instructions:  166000001 cycles:   90568068 heartbeat IPC: 1.48233 cumulative IPC: 1.38293 (Simulation time: 0 hr 4 min 23 sec) 
Heartbeat CPU  0 instructions:  167000002 cycles:   91296090 heartbeat IPC: 1.37359 cumulative IPC: 1.38279 (Simulation time: 0 hr 4 min 24 sec) 
Heartbeat CPU  0 instructions:  168000000 cycles:   92047276 heartbeat IPC: 1.33123 cumulative IPC: 1.38200 (Simulation time: 0 hr 4 min 26 sec) 
Heartbeat CPU  0 instructions:  169000000 cycles:   92784398 heartbeat IPC: 1.35663 cumulative IPC: 1.38163 (Simulation time: 0 hr 4 min 28 sec) 
Heartbeat CPU  0 instructions:  170000001 cycles:   93472697 heartbeat IPC: 1.45286 cumulative IPC: 1.38260 (Simulation time: 0 hr 4 min 29 sec) 
Heartbeat CPU  0 instructions:  171000000 cycles:   94243912 heartbeat IPC: 1.29665 cumulative IPC: 1.38131 (Simulation time: 0 hr 4 min 31 sec) 
Heartbeat CPU  0 instructions:  172000000 cycles:   94987238 heartbeat IPC: 1.34530 cumulative IPC: 1.38079 (Simulation time: 0 hr 4 min 33 sec) 
Heartbeat CPU  0 instructions:  173000001 cycles:   95677671 heartbeat IPC: 1.44837 cumulative IPC: 1.38168 (Simulation time: 0 hr 4 min 35 sec) 
Heartbeat CPU  0 instructions:  174000000 cycles:   96413785 heartbeat IPC: 1.35848 cumulative IPC: 1.38136 (Simulation time: 0 hr 4 min 36 sec) 
Heartbeat CPU  0 instructions:  175000000 cycles:   97116863 heartbeat IPC: 1.42232 cumulative IPC: 1.38189 (Simulation time: 0 hr 4 min 38 sec) 
Heartbeat CPU  0 instructions:  176000000 cycles:   97841146 heartbeat IPC: 1.38068 cumulative IPC: 1.38187 (Simulation time: 0 hr 4 min 40 sec) 
Heartbeat CPU  0 instructions:  177000002 cycles:   98622546 heartbeat IPC: 1.27976 cumulative IPC: 1.38044 (Simulation time: 0 hr 4 min 42 sec) 
Heartbeat CPU  0 instructions:  178000001 cycles:   99426296 heartbeat IPC: 1.24417 cumulative IPC: 1.37851 (Simulation time: 0 hr 4 min 43 sec) 
Heartbeat CPU  0 instructions:  179000003 cycles:  100176197 heartbeat IPC: 1.33351 cumulative IPC: 1.37792 (Simulation time: 0 hr 4 min 45 sec) 
Heartbeat CPU  0 instructions:  180000000 cycles:  100955023 heartbeat IPC: 1.28398 cumulative IPC: 1.37666 (Simulation time: 0 hr 4 min 47 sec) 
Heartbeat CPU  0 instructions:  181000000 cycles:  101728558 heartbeat IPC: 1.29277 cumulative IPC: 1.37556 (Simulation time: 0 hr 4 min 49 sec) 
Heartbeat CPU  0 instructions:  182000003 cycles:  102506912 heartbeat IPC: 1.28477 cumulative IPC: 1.37437 (Simulation time: 0 hr 4 min 50 sec) 
Heartbeat CPU  0 instructions:  183000002 cycles:  103310685 heartbeat IPC: 1.24413 cumulative IPC: 1.37264 (Simulation time: 0 hr 4 min 52 sec) 
Heartbeat CPU  0 instructions:  184000000 cycles:  104012259 heartbeat IPC: 1.42536 cumulative IPC: 1.37325 (Simulation time: 0 hr 4 min 54 sec) 
Heartbeat CPU  0 instructions:  185000002 cycles:  104748066 heartbeat IPC: 1.35905 cumulative IPC: 1.37308 (Simulation time: 0 hr 4 min 56 sec) 
Heartbeat CPU  0 instructions:  186000000 cycles:  105450662 heartbeat IPC: 1.42329 cumulative IPC: 1.37364 (Simulation time: 0 hr 4 min 57 sec) 
Heartbeat CPU  0 instructions:  187000001 cycles:  106154757 heartbeat IPC: 1.42026 cumulative IPC: 1.37416 (Simulation time: 0 hr 4 min 59 sec) 
Heartbeat CPU  0 instructions:  188000000 cycles:  106968851 heartbeat IPC: 1.22836 cumulative IPC: 1.37231 (Simulation time: 0 hr 5 min 1 sec) 
Heartbeat CPU  0 instructions:  189000000 cycles:  107774703 heartbeat IPC: 1.24092 cumulative IPC: 1.37068 (Simulation time: 0 hr 5 min 3 sec) 
Heartbeat CPU  0 instructions:  190000000 cycles:  108531993 heartbeat IPC: 1.32050 cumulative IPC: 1.37010 (Simulation time: 0 hr 5 min 4 sec) 
Heartbeat CPU  0 instructions:  191000003 cycles:  109307618 heartbeat IPC: 1.28929 cumulative IPC: 1.36916 (Simulation time: 0 hr 5 min 6 sec) 
Heartbeat CPU  0 instructions:  192000000 cycles:  110047602 heartbeat IPC: 1.35138 cumulative IPC: 1.36896 (Simulation time: 0 hr 5 min 8 sec) 
Heartbeat CPU  0 instructions:  193000000 cycles:  110854932 heartbeat IPC: 1.23865 cumulative IPC: 1.36741 (Simulation time: 0 hr 5 min 10 sec) 
Heartbeat CPU  0 instructions:  194000001 cycles:  111673584 heartbeat IPC: 1.22152 cumulative IPC: 1.36568 (Simulation time: 0 hr 5 min 12 sec) 
Heartbeat CPU  0 instructions:  195000001 cycles:  112380056 heartbeat IPC: 1.41548 cumulative IPC: 1.36618 (Simulation time: 0 hr 5 min 13 sec) 
Heartbeat CPU  0 instructions:  196000000 cycles:  113201472 heartbeat IPC: 1.21741 cumulative IPC: 1.36445 (Simulation time: 0 hr 5 min 15 sec) 
Heartbeat CPU  0 instructions:  197000001 cycles:  113972197 heartbeat IPC: 1.29748 cumulative IPC: 1.36372 (Simulation time: 0 hr 5 min 17 sec) 
Heartbeat CPU  0 instructions:  198000002 cycles:  114789493 heartbeat IPC: 1.22355 cumulative IPC: 1.36213 (Simulation time: 0 hr 5 min 19 sec) 
Heartbeat CPU  0 instructions:  199000002 cycles:  115676163 heartbeat IPC: 1.12782 cumulative IPC: 1.35928 (Simulation time: 0 hr 5 min 20 sec) 
Heartbeat CPU  0 instructions:  200000000 cycles:  116474428 heartbeat IPC: 1.25271 cumulative IPC: 1.35812 (Simulation time: 0 hr 5 min 22 sec) 
Heartbeat CPU  0 instructions:  201000000 cycles:  117343857 heartbeat IPC: 1.15018 cumulative IPC: 1.35570 (Simulation time: 0 hr 5 min 24 sec) 
Heartbeat CPU  0 instructions:  202000000 cycles:  118136853 heartbeat IPC: 1.26104 cumulative IPC: 1.35470 (Simulation time: 0 hr 5 min 26 sec) 
Heartbeat CPU  0 instructions:  203000000 cycles:  119046106 heartbeat IPC: 1.09980 cumulative IPC: 1.35166 (Simulation time: 0 hr 5 min 28 sec) 
Heartbeat CPU  0 instructions:  204000000 cycles:  119856525 heartbeat IPC: 1.23393 cumulative IPC: 1.35042 (Simulation time: 0 hr 5 min 29 sec) 
Heartbeat CPU  0 instructions:  205000001 cycles:  120733364 heartbeat IPC: 1.14046 cumulative IPC: 1.34805 (Simulation time: 0 hr 5 min 31 sec) 
Heartbeat CPU  0 instructions:  206000003 cycles:  121510423 heartbeat IPC: 1.28691 cumulative IPC: 1.34745 (Simulation time: 0 hr 5 min 33 sec) 
Heartbeat CPU  0 instructions:  207000003 cycles:  122260912 heartbeat IPC: 1.33246 cumulative IPC: 1.34731 (Simulation time: 0 hr 5 min 35 sec) 
Heartbeat CPU  0 instructions:  208000000 cycles:  123014796 heartbeat IPC: 1.32646 cumulative IPC: 1.34711 (Simulation time: 0 hr 5 min 36 sec) 
Heartbeat CPU  0 instructions:  209000001 cycles:  123811917 heartbeat IPC: 1.25452 cumulative IPC: 1.34620 (Simulation time: 0 hr 5 min 38 sec) 
Heartbeat CPU  0 instructions:  210000003 cycles:  124693445 heartbeat IPC: 1.13440 cumulative IPC: 1.34392 (Simulation time: 0 hr 5 min 40 sec) 
Heartbeat CPU  0 instructions:  211000001 cycles:  125442134 heartbeat IPC: 1.33567 cumulative IPC: 1.34385 (Simulation time: 0 hr 5 min 42 sec) 
Heartbeat CPU  0 instructions:  212000000 cycles:  126156993 heartbeat IPC: 1.39888 cumulative IPC: 1.34432 (Simulation time: 0 hr 5 min 43 sec) 
Heartbeat CPU  0 instructions:  213000000 cycles:  126977411 heartbeat IPC: 1.21889 cumulative IPC: 1.34309 (Simulation time: 0 hr 5 min 45 sec) 
Heartbeat CPU  0 instructions:  214000000 cycles:  127761386 heartbeat IPC: 1.27555 cumulative IPC: 1.34247 (Simulation time: 0 hr 5 min 47 sec) 
Heartbeat CPU  0 instructions:  215000001 cycles:  128617049 heartbeat IPC: 1.16869 cumulative IPC: 1.34074 (Simulation time: 0 hr 5 min 49 sec) 
Heartbeat CPU  0 instructions:  216000000 cycles:  129424510 heartbeat IPC: 1.23845 cumulative IPC: 1.33978 (Simulation time: 0 hr 5 min 50 sec) 
Heartbeat CPU  0 instructions:  217000003 cycles:  130327471 heartbeat IPC: 1.10747 cumulative IPC: 1.33739 (Simulation time: 0 hr 5 min 52 sec) 
Heartbeat CPU  0 instructions:  218000002 cycles:  131105328 heartbeat IPC: 1.28558 cumulative IPC: 1.33693 (Simulation time: 0 hr 5 min 54 sec) 
Heartbeat CPU  0 instructions:  219000001 cycles:  131824893 heartbeat IPC: 1.38973 cumulative IPC: 1.33736 (Simulation time: 0 hr 5 min 56 sec) 
Heartbeat CPU  0 instructions:  220000000 cycles:  132533584 heartbeat IPC: 1.41105 cumulative IPC: 1.33794 (Simulation time: 0 hr 5 min 57 sec) 
Heartbeat CPU  0 instructions:  221000000 cycles:  133205514 heartbeat IPC: 1.48825 cumulative IPC: 1.33906 (Simulation time: 0 hr 5 min 59 sec) 
Heartbeat CPU  0 instructions:  222000003 cycles:  134042159 heartbeat IPC: 1.19525 cumulative IPC: 1.33774 (Simulation time: 0 hr 6 min 1 sec) 
Heartbeat CPU  0 instructions:  223000002 cycles:  134751964 heartbeat IPC: 1.40884 cumulative IPC: 1.33829 (Simulation time: 0 hr 6 min 3 sec) 
Heartbeat CPU  0 instructions:  224000000 cycles:  135434987 heartbeat IPC: 1.46408 cumulative IPC: 1.33921 (Simulation time: 0 hr 6 min 4 sec) 
Heartbeat CPU  0 instructions:  225000000 cycles:  136146038 heartbeat IPC: 1.40637 cumulative IPC: 1.33973 (Simulation time: 0 hr 6 min 6 sec) 
Heartbeat CPU  0 instructions:  226000001 cycles:  136967107 heartbeat IPC: 1.21793 cumulative IPC: 1.33866 (Simulation time: 0 hr 6 min 8 sec) 
Heartbeat CPU  0 instructions:  227000002 cycles:  137648260 heartbeat IPC: 1.46810 cumulative IPC: 1.33959 (Simulation time: 0 hr 6 min 10 sec) 
Heartbeat CPU  0 instructions:  228000000 cycles:  138373666 heartbeat IPC: 1.37854 cumulative IPC: 1.33989 (Simulation time: 0 hr 6 min 11 sec) 
Heartbeat CPU  0 instructions:  229000000 cycles:  139078970 heartbeat IPC: 1.41783 cumulative IPC: 1.34046 (Simulation time: 0 hr 6 min 13 sec) 
Heartbeat CPU  0 instructions:  230000002 cycles:  139793014 heartbeat IPC: 1.40048 cumulative IPC: 1.34090 (Simulation time: 0 hr 6 min 15 sec) 
Heartbeat CPU  0 instructions:  231000000 cycles:  140578250 heartbeat IPC: 1.27350 cumulative IPC: 1.34036 (Simulation time: 0 hr 6 min 17 sec) 
Heartbeat CPU  0 instructions:  232000000 cycles:  141297304 heartbeat IPC: 1.39072 cumulative IPC: 1.34073 (Simulation time: 0 hr 6 min 18 sec) 
Heartbeat CPU  0 instructions:  233000001 cycles:  141985637 heartbeat IPC: 1.45279 cumulative IPC: 1.34151 (Simulation time: 0 hr 6 min 20 sec) 
Heartbeat CPU  0 instructions:  234000003 cycles:  142726634 heartbeat IPC: 1.34954 cumulative IPC: 1.34157 (Simulation time: 0 hr 6 min 22 sec) 
Heartbeat CPU  0 instructions:  235000002 cycles:  143508365 heartbeat IPC: 1.27921 cumulative IPC: 1.34108 (Simulation time: 0 hr 6 min 24 sec) 
Heartbeat CPU  0 instructions:  236000000 cycles:  144209287 heartbeat IPC: 1.42669 cumulative IPC: 1.34167 (Simulation time: 0 hr 6 min 25 sec) 
Heartbeat CPU  0 instructions:  237000002 cycles:  144894097 heartbeat IPC: 1.46026 cumulative IPC: 1.34247 (Simulation time: 0 hr 6 min 27 sec) 
Heartbeat CPU  0 instructions:  238000000 cycles:  145655877 heartbeat IPC: 1.31271 cumulative IPC: 1.34225 (Simulation time: 0 hr 6 min 29 sec) 
Heartbeat CPU  0 instructions:  239000000 cycles:  146415375 heartbeat IPC: 1.31666 cumulative IPC: 1.34206 (Simulation time: 0 hr 6 min 30 sec) 
Heartbeat CPU  0 instructions:  240000000 cycles:  147107247 heartbeat IPC: 1.44535 cumulative IPC: 1.34275 (Simulation time: 0 hr 6 min 32 sec) 
Heartbeat CPU  0 instructions:  241000002 cycles:  147822603 heartbeat IPC: 1.39791 cumulative IPC: 1.34312 (Simulation time: 0 hr 6 min 34 sec) 
Heartbeat CPU  0 instructions:  242000002 cycles:  148568390 heartbeat IPC: 1.34087 cumulative IPC: 1.34311 (Simulation time: 0 hr 6 min 36 sec) 
Heartbeat CPU  0 instructions:  243000002 cycles:  149318499 heartbeat IPC: 1.33314 cumulative IPC: 1.34304 (Simulation time: 0 hr 6 min 37 sec) 
Heartbeat CPU  0 instructions:  244000000 cycles:  150040035 heartbeat IPC: 1.38593 cumulative IPC: 1.34333 (Simulation time: 0 hr 6 min 39 sec) 
Heartbeat CPU  0 instructions:  245000000 cycles:  150742151 heartbeat IPC: 1.42427 cumulative IPC: 1.34385 (Simulation time: 0 hr 6 min 41 sec) 
Heartbeat CPU  0 instructions:  246000000 cycles:  151410421 heartbeat IPC: 1.49640 cumulative IPC: 1.34479 (Simulation time: 0 hr 6 min 42 sec) 
Heartbeat CPU  0 instructions:  247000001 cycles:  152158231 heartbeat IPC: 1.33724 cumulative IPC: 1.34474 (Simulation time: 0 hr 6 min 44 sec) 
Heartbeat CPU  0 instructions:  248000000 cycles:  152989784 heartbeat IPC: 1.20257 cumulative IPC: 1.34367 (Simulation time: 0 hr 6 min 46 sec) 
Heartbeat CPU  0 instructions:  249000000 cycles:  153669231 heartbeat IPC: 1.47179 cumulative IPC: 1.34445 (Simulation time: 0 hr 6 min 48 sec) 
Heartbeat CPU  0 instructions:  250000001 cycles:  154391329 heartbeat IPC: 1.38485 cumulative IPC: 1.34471 (Simulation time: 0 hr 6 min 49 sec) 
Heartbeat CPU  0 instructions:  251000000 cycles:  155091664 heartbeat IPC: 1.42789 cumulative IPC: 1.34523 (Simulation time: 0 hr 6 min 51 sec) 
Heartbeat CPU  0 instructions:  252000000 cycles:  155785180 heartbeat IPC: 1.44193 cumulative IPC: 1.34583 (Simulation time: 0 hr 6 min 53 sec) 
Heartbeat CPU  0 instructions:  253000002 cycles:  156642815 heartbeat IPC: 1.16600 cumulative IPC: 1.34447 (Simulation time: 0 hr 6 min 55 sec) 
Heartbeat CPU  0 instructions:  254000002 cycles:  157348144 heartbeat IPC: 1.41778 cumulative IPC: 1.34492 (Simulation time: 0 hr 6 min 56 sec) 
Heartbeat CPU  0 instructions:  255000000 cycles:  158024933 heartbeat IPC: 1.47756 cumulative IPC: 1.34570 (Simulation time: 0 hr 6 min 58 sec) 
Heartbeat CPU  0 instructions:  256000000 cycles:  158845933 heartbeat IPC: 1.21803 cumulative IPC: 1.34480 (Simulation time: 0 hr 7 min 0 sec) 
Heartbeat CPU  0 instructions:  257000000 cycles:  159551187 heartbeat IPC: 1.41793 cumulative IPC: 1.34524 (Simulation time: 0 hr 7 min 2 sec) 
Heartbeat CPU  0 instructions:  258000002 cycles:  160227010 heartbeat IPC: 1.47968 cumulative IPC: 1.34601 (Simulation time: 0 hr 7 min 3 sec) 
Heartbeat CPU  0 instructions:  259000000 cycles:  161051066 heartbeat IPC: 1.21351 cumulative IPC: 1.34509 (Simulation time: 0 hr 7 min 5 sec) 
Heartbeat CPU  0 instructions:  260000000 cycles:  161758593 heartbeat IPC: 1.41337 cumulative IPC: 1.34550 (Simulation time: 0 hr 7 min 7 sec) 
Heartbeat CPU  0 instructions:  261000002 cycles:  162436893 heartbeat IPC: 1.47428 cumulative IPC: 1.34623 (Simulation time: 0 hr 7 min 9 sec) 
Heartbeat CPU  0 instructions:  262000000 cycles:  163261299 heartbeat IPC: 1.21299 cumulative IPC: 1.34531 (Simulation time: 0 hr 7 min 10 sec) 
Heartbeat CPU  0 instructions:  263000002 cycles:  163966335 heartbeat IPC: 1.41837 cumulative IPC: 1.34574 (Simulation time: 0 hr 7 min 12 sec) 
Heartbeat CPU  0 instructions:  264000000 cycles:  164642469 heartbeat IPC: 1.47899 cumulative IPC: 1.34648 (Simulation time: 0 hr 7 min 14 sec) 
Heartbeat CPU  0 instructions:  265000000 cycles:  165471766 heartbeat IPC: 1.20584 cumulative IPC: 1.34553 (Simulation time: 0 hr 7 min 16 sec) 
Heartbeat CPU  0 instructions:  266000000 cycles:  166176817 heartbeat IPC: 1.41834 cumulative IPC: 1.34594 (Simulation time: 0 hr 7 min 17 sec) 
Heartbeat CPU  0 instructions:  267000002 cycles:  166853040 heartbeat IPC: 1.47881 cumulative IPC: 1.34667 (Simulation time: 0 hr 7 min 19 sec) 
Heartbeat CPU  0 instructions:  268000000 cycles:  167672830 heartbeat IPC: 1.21982 cumulative IPC: 1.34584 (Simulation time: 0 hr 7 min 21 sec) 
Heartbeat CPU  0 instructions:  269000002 cycles:  168377793 heartbeat IPC: 1.41852 cumulative IPC: 1.34624 (Simulation time: 0 hr 7 min 23 sec) 
Heartbeat CPU  0 instructions:  270000002 cycles:  169053358 heartbeat IPC: 1.48024 cumulative IPC: 1.34696 (Simulation time: 0 hr 7 min 24 sec) 
Heartbeat CPU  0 instructions:  271000000 cycles:  169878437 heartbeat IPC: 1.21200 cumulative IPC: 1.34608 (Simulation time: 0 hr 7 min 26 sec) 
Heartbeat CPU  0 instructions:  272000000 cycles:  170583777 heartbeat IPC: 1.41776 cumulative IPC: 1.34648 (Simulation time: 0 hr 7 min 28 sec) 
Heartbeat CPU  0 instructions:  273000002 cycles:  171258990 heartbeat IPC: 1.48102 cumulative IPC: 1.34719 (Simulation time: 0 hr 7 min 29 sec) 
Heartbeat CPU  0 instructions:  274000002 cycles:  172079975 heartbeat IPC: 1.21805 cumulative IPC: 1.34637 (Simulation time: 0 hr 7 min 31 sec) 
Heartbeat CPU  0 instructions:  275000000 cycles:  172784986 heartbeat IPC: 1.41841 cumulative IPC: 1.34676 (Simulation time: 0 hr 7 min 33 sec) 
Heartbeat CPU  0 instructions:  276000000 cycles:  173460496 heartbeat IPC: 1.48036 cumulative IPC: 1.34745 (Simulation time: 0 hr 7 min 35 sec) 
Heartbeat CPU  0 instructions:  277000003 cycles:  174284651 heartbeat IPC: 1.21337 cumulative IPC: 1.34661 (Simulation time: 0 hr 7 min 36 sec) 
Heartbeat CPU  0 instructions:  278000002 cycles:  174995085 heartbeat IPC: 1.40759 cumulative IPC: 1.34694 (Simulation time: 0 hr 7 min 38 sec) 
Heartbeat CPU  0 instructions:  279000001 cycles:  175668116 heartbeat IPC: 1.48581 cumulative IPC: 1.34764 (Simulation time: 0 hr 7 min 40 sec) 
Heartbeat CPU  0 instructions:  280000000 cycles:  176491247 heartbeat IPC: 1.21487 cumulative IPC: 1.34682 (Simulation time: 0 hr 7 min 42 sec) 
Heartbeat CPU  0 instructions:  281000000 cycles:  177197640 heartbeat IPC: 1.41564 cumulative IPC: 1.34718 (Simulation time: 0 hr 7 min 43 sec) 
Heartbeat CPU  0 instructions:  282000002 cycles:  177872696 heartbeat IPC: 1.48136 cumulative IPC: 1.34786 (Simulation time: 0 hr 7 min 45 sec) 
Heartbeat CPU  0 instructions:  283000002 cycles:  178695992 heartbeat IPC: 1.21463 cumulative IPC: 1.34705 (Simulation time: 0 hr 7 min 47 sec) 
Heartbeat CPU  0 instructions:  284000000 cycles:  179401530 heartbeat IPC: 1.41736 cumulative IPC: 1.34741 (Simulation time: 0 hr 7 min 49 sec) 
Heartbeat CPU  0 instructions:  285000000 cycles:  180077522 heartbeat IPC: 1.47931 cumulative IPC: 1.34806 (Simulation time: 0 hr 7 min 50 sec) 
Heartbeat CPU  0 instructions:  286000000 cycles:  180904871 heartbeat IPC: 1.20868 cumulative IPC: 1.34723 (Simulation time: 0 hr 7 min 52 sec) 
Heartbeat CPU  0 instructions:  287000000 cycles:  181614118 heartbeat IPC: 1.40995 cumulative IPC: 1.34755 (Simulation time: 0 hr 7 min 54 sec) 
Heartbeat CPU  0 instructions:  288000000 cycles:  182289258 heartbeat IPC: 1.48117 cumulative IPC: 1.34819 (Simulation time: 0 hr 7 min 55 sec) 
Heartbeat CPU  0 instructions:  289000003 cycles:  183120160 heartbeat IPC: 1.20351 cumulative IPC: 1.34734 (Simulation time: 0 hr 7 min 57 sec) 
Heartbeat CPU  0 instructions:  290000002 cycles:  183831348 heartbeat IPC: 1.40610 cumulative IPC: 1.34763 (Simulation time: 0 hr 7 min 59 sec) 
Heartbeat CPU  0 instructions:  291000001 cycles:  184500492 heartbeat IPC: 1.49445 cumulative IPC: 1.34833 (Simulation time: 0 hr 8 min 1 sec) 
Heartbeat CPU  0 instructions:  292000000 cycles:  185267599 heartbeat IPC: 1.30360 cumulative IPC: 1.34809 (Simulation time: 0 hr 8 min 2 sec) 
Heartbeat CPU  0 instructions:  293000001 cycles:  185986544 heartbeat IPC: 1.39093 cumulative IPC: 1.34830 (Simulation time: 0 hr 8 min 4 sec) 
Heartbeat CPU  0 instructions:  294000001 cycles:  186670956 heartbeat IPC: 1.46111 cumulative IPC: 1.34884 (Simulation time: 0 hr 8 min 6 sec) 
Heartbeat CPU  0 instructions:  295000002 cycles:  187402881 heartbeat IPC: 1.36626 cumulative IPC: 1.34893 (Simulation time: 0 hr 8 min 8 sec) 
Heartbeat CPU  0 instructions:  296000000 cycles:  188123330 heartbeat IPC: 1.38802 cumulative IPC: 1.34912 (Simulation time: 0 hr 8 min 9 sec) 
Heartbeat CPU  0 instructions:  297000001 cycles:  188816455 heartbeat IPC: 1.44274 cumulative IPC: 1.34956 (Simulation time: 0 hr 8 min 11 sec) 
Heartbeat CPU  0 instructions:  298000000 cycles:  189546946 heartbeat IPC: 1.36894 cumulative IPC: 1.34966 (Simulation time: 0 hr 8 min 13 sec) 
Heartbeat CPU  0 instructions:  299000000 cycles:  190271007 heartbeat IPC: 1.38110 cumulative IPC: 1.34981 (Simulation time: 0 hr 8 min 15 sec) 
Heartbeat CPU  0 instructions:  300000000 cycles:  190969699 heartbeat IPC: 1.43125 cumulative IPC: 1.35020 (Simulation time: 0 hr 8 min 16 sec) 
Heartbeat CPU  0 instructions:  301000003 cycles:  191688699 heartbeat IPC: 1.39082 cumulative IPC: 1.35039 (Simulation time: 0 hr 8 min 18 sec) 
Heartbeat CPU  0 instructions:  302000003 cycles:  192410437 heartbeat IPC: 1.38554 cumulative IPC: 1.35056 (Simulation time: 0 hr 8 min 20 sec) 
Heartbeat CPU  0 instructions:  303000002 cycles:  193117565 heartbeat IPC: 1.41417 cumulative IPC: 1.35086 (Simulation time: 0 hr 8 min 22 sec) 
Heartbeat CPU  0 instructions:  304000000 cycles:  193853913 heartbeat IPC: 1.35805 cumulative IPC: 1.35090 (Simulation time: 0 hr 8 min 23 sec) 
Heartbeat CPU  0 instructions:  305000001 cycles:  194545317 heartbeat IPC: 1.44633 cumulative IPC: 1.35133 (Simulation time: 0 hr 8 min 25 sec) 
Heartbeat CPU  0 instructions:  306000003 cycles:  195253687 heartbeat IPC: 1.41169 cumulative IPC: 1.35161 (Simulation time: 0 hr 8 min 27 sec) 
Heartbeat CPU  0 instructions:  307000000 cycles:  195999120 heartbeat IPC: 1.34150 cumulative IPC: 1.35157 (Simulation time: 0 hr 8 min 28 sec) 
Heartbeat CPU  0 instructions:  308000000 cycles:  196681251 heartbeat IPC: 1.46599 cumulative IPC: 1.35207 (Simulation time: 0 hr 8 min 30 sec) 
Heartbeat CPU  0 instructions:  309000002 cycles:  197407531 heartbeat IPC: 1.37688 cumulative IPC: 1.35219 (Simulation time: 0 hr 8 min 32 sec) 
Heartbeat CPU  0 instructions:  310000000 cycles:  198206543 heartbeat IPC: 1.25154 cumulative IPC: 1.35167 (Simulation time: 0 hr 8 min 34 sec) 
Heartbeat CPU  0 instructions:  311000001 cycles:  198886519 heartbeat IPC: 1.47064 cumulative IPC: 1.35219 (Simulation time: 0 hr 8 min 35 sec) 
Heartbeat CPU  0 instructions:  312000000 cycles:  199609891 heartbeat IPC: 1.38241 cumulative IPC: 1.35233 (Simulation time: 0 hr 8 min 37 sec) 
Heartbeat CPU  0 instructions:  313000002 cycles:  200483926 heartbeat IPC: 1.14412 cumulative IPC: 1.35117 (Simulation time: 0 hr 8 min 39 sec) 
Heartbeat CPU  0 instructions:  314000001 cycles:  201235453 heartbeat IPC: 1.33062 cumulative IPC: 1.35108 (Simulation time: 0 hr 8 min 41 sec) 
Heartbeat CPU  0 instructions:  315000000 cycles:  201957094 heartbeat IPC: 1.38573 cumulative IPC: 1.35123 (Simulation time: 0 hr 8 min 42 sec) 
Heartbeat CPU  0 instructions:  316000000 cycles:  202695909 heartbeat IPC: 1.35352 cumulative IPC: 1.35125 (Simulation time: 0 hr 8 min 44 sec) 
Heartbeat CPU  0 instructions:  317000001 cycles:  203503653 heartbeat IPC: 1.23802 cumulative IPC: 1.35068 (Simulation time: 0 hr 8 min 46 sec) 
Heartbeat CPU  0 instructions:  318000001 cycles:  204371616 heartbeat IPC: 1.15212 cumulative IPC: 1.34961 (Simulation time: 0 hr 8 min 48 sec) 
Heartbeat CPU  0 instructions:  319000003 cycles:  205065014 heartbeat IPC: 1.44218 cumulative IPC: 1.35000 (Simulation time: 0 hr 8 min 49 sec) 
Heartbeat CPU  0 instructions:  320000000 cycles:  205773182 heartbeat IPC: 1.41209 cumulative IPC: 1.35027 (Simulation time: 0 hr 8 min 51 sec) 
Heartbeat CPU  0 instructions:  321000001 cycles:  206579750 heartbeat IPC: 1.23982 cumulative IPC: 1.34973 (Simulation time: 0 hr 8 min 53 sec) 
Heartbeat CPU  0 instructions:  322000003 cycles:  207374073 heartbeat IPC: 1.25894 cumulative IPC: 1.34929 (Simulation time: 0 hr 8 min 55 sec) 
Heartbeat CPU  0 instructions:  323000001 cycles:  208172947 heartbeat IPC: 1.25176 cumulative IPC: 1.34882 (Simulation time: 0 hr 8 min 56 sec) 
Heartbeat CPU  0 instructions:  324000000 cycles:  208894364 heartbeat IPC: 1.38616 cumulative IPC: 1.34898 (Simulation time: 0 hr 8 min 58 sec) 
Heartbeat CPU  0 instructions:  325000000 cycles:  209636907 heartbeat IPC: 1.34672 cumulative IPC: 1.34897 (Simulation time: 0 hr 9 min 0 sec) 
Heartbeat CPU  0 instructions:  326000003 cycles:  210444073 heartbeat IPC: 1.23891 cumulative IPC: 1.34844 (Simulation time: 0 hr 9 min 2 sec) 
Heartbeat CPU  0 instructions:  327000000 cycles:  211185470 heartbeat IPC: 1.34880 cumulative IPC: 1.34844 (Simulation time: 0 hr 9 min 3 sec) 
Heartbeat CPU  0 instructions:  328000000 cycles:  211970248 heartbeat IPC: 1.27425 cumulative IPC: 1.34810 (Simulation time: 0 hr 9 min 5 sec) 
Heartbeat CPU  0 instructions:  329000001 cycles:  212768463 heartbeat IPC: 1.25280 cumulative IPC: 1.34765 (Simulation time: 0 hr 9 min 7 sec) 
Heartbeat CPU  0 instructions:  330000001 cycles:  213433036 heartbeat IPC: 1.50473 cumulative IPC: 1.34826 (Simulation time: 0 hr 9 min 8 sec) 
Heartbeat CPU  0 instructions:  331000000 cycles:  214135881 heartbeat IPC: 1.42279 cumulative IPC: 1.34857 (Simulation time: 0 hr 9 min 10 sec) 
Heartbeat CPU  0 instructions:  332000000 cycles:  214862544 heartbeat IPC: 1.37615 cumulative IPC: 1.34869 (Simulation time: 0 hr 9 min 12 sec) 
Heartbeat CPU  0 instructions:  333000001 cycles:  215641508 heartbeat IPC: 1.28376 cumulative IPC: 1.34839 (Simulation time: 0 hr 9 min 14 sec) 
Heartbeat CPU  0 instructions:  334000002 cycles:  216418907 heartbeat IPC: 1.28634 cumulative IPC: 1.34812 (Simulation time: 0 hr 9 min 15 sec) 
Heartbeat CPU  0 instructions:  335000000 cycles:  217241730 heartbeat IPC: 1.21533 cumulative IPC: 1.34749 (Simulation time: 0 hr 9 min 17 sec) 
Heartbeat CPU  0 instructions:  336000000 cycles:  217966731 heartbeat IPC: 1.37931 cumulative IPC: 1.34762 (Simulation time: 0 hr 9 min 19 sec) 
Heartbeat CPU  0 instructions:  337000002 cycles:  218681865 heartbeat IPC: 1.39834 cumulative IPC: 1.34783 (Simulation time: 0 hr 9 min 21 sec) 
Heartbeat CPU  0 instructions:  338000003 cycles:  219478070 heartbeat IPC: 1.25596 cumulative IPC: 1.34741 (Simulation time: 0 hr 9 min 22 sec) 
Heartbeat CPU  0 instructions:  339000002 cycles:  220223622 heartbeat IPC: 1.34129 cumulative IPC: 1.34739 (Simulation time: 0 hr 9 min 24 sec) 
Heartbeat CPU  0 instructions:  340000000 cycles:  220994623 heartbeat IPC: 1.29701 cumulative IPC: 1.34717 (Simulation time: 0 hr 9 min 26 sec) 
Heartbeat CPU  0 instructions:  341000001 cycles:  221792600 heartbeat IPC: 1.25317 cumulative IPC: 1.34675 (Simulation time: 0 hr 9 min 28 sec) 
Heartbeat CPU  0 instructions:  342000003 cycles:  222469822 heartbeat IPC: 1.47662 cumulative IPC: 1.34724 (Simulation time: 0 hr 9 min 29 sec) 
Heartbeat CPU  0 instructions:  343000003 cycles:  223236360 heartbeat IPC: 1.30457 cumulative IPC: 1.34706 (Simulation time: 0 hr 9 min 31 sec) 
Heartbeat CPU  0 instructions:  344000000 cycles:  223965402 heartbeat IPC: 1.37166 cumulative IPC: 1.34716 (Simulation time: 0 hr 9 min 33 sec) 
Heartbeat CPU  0 instructions:  345000003 cycles:  224635862 heartbeat IPC: 1.49152 cumulative IPC: 1.34769 (Simulation time: 0 hr 9 min 35 sec) 
Heartbeat CPU  0 instructions:  346000000 cycles:  225353877 heartbeat IPC: 1.39272 cumulative IPC: 1.34787 (Simulation time: 0 hr 9 min 36 sec) 
Heartbeat CPU  0 instructions:  347000001 cycles:  226086685 heartbeat IPC: 1.36462 cumulative IPC: 1.34793 (Simulation time: 0 hr 9 min 38 sec) 
Heartbeat CPU  0 instructions:  348000000 cycles:  226817622 heartbeat IPC: 1.36811 cumulative IPC: 1.34801 (Simulation time: 0 hr 9 min 40 sec) 
Heartbeat CPU  0 instructions:  349000003 cycles:  227552181 heartbeat IPC: 1.36137 cumulative IPC: 1.34807 (Simulation time: 0 hr 9 min 41 sec) 
Heartbeat CPU  0 instructions:  350000003 cycles:  228280947 heartbeat IPC: 1.37218 cumulative IPC: 1.34816 (Simulation time: 0 hr 9 min 43 sec) 
Heartbeat CPU  0 instructions:  351000002 cycles:  229067217 heartbeat IPC: 1.27183 cumulative IPC: 1.34784 (Simulation time: 0 hr 9 min 45 sec) 
Heartbeat CPU  0 instructions:  352000000 cycles:  229762063 heartbeat IPC: 1.43916 cumulative IPC: 1.34818 (Simulation time: 0 hr 9 min 47 sec) 
Heartbeat CPU  0 instructions:  353000003 cycles:  230511465 heartbeat IPC: 1.33440 cumulative IPC: 1.34812 (Simulation time: 0 hr 9 min 48 sec) 
Heartbeat CPU  0 instructions:  354000002 cycles:  231202566 heartbeat IPC: 1.44697 cumulative IPC: 1.34849 (Simulation time: 0 hr 9 min 50 sec) 
Heartbeat CPU  0 instructions:  355000002 cycles:  231915744 heartbeat IPC: 1.40217 cumulative IPC: 1.34869 (Simulation time: 0 hr 9 min 52 sec) 
Heartbeat CPU  0 instructions:  356000000 cycles:  232681656 heartbeat IPC: 1.30563 cumulative IPC: 1.34852 (Simulation time: 0 hr 9 min 53 sec) 
Heartbeat CPU  0 instructions:  357000002 cycles:  233450741 heartbeat IPC: 1.30025 cumulative IPC: 1.34832 (Simulation time: 0 hr 9 min 55 sec) 
Heartbeat CPU  0 instructions:  358000002 cycles:  234146769 heartbeat IPC: 1.43672 cumulative IPC: 1.34864 (Simulation time: 0 hr 9 min 57 sec) 
Heartbeat CPU  0 instructions:  359000002 cycles:  234860180 heartbeat IPC: 1.40172 cumulative IPC: 1.34884 (Simulation time: 0 hr 9 min 59 sec) 
Heartbeat CPU  0 instructions:  360000000 cycles:  235552392 heartbeat IPC: 1.44464 cumulative IPC: 1.34918 (Simulation time: 0 hr 10 min 0 sec) 
Heartbeat CPU  0 instructions:  361000000 cycles:  236242243 heartbeat IPC: 1.44959 cumulative IPC: 1.34954 (Simulation time: 0 hr 10 min 2 sec) 
Heartbeat CPU  0 instructions:  362000003 cycles:  236977935 heartbeat IPC: 1.35927 cumulative IPC: 1.34958 (Simulation time: 0 hr 10 min 4 sec) 
Heartbeat CPU  0 instructions:  363000000 cycles:  237701807 heartbeat IPC: 1.38146 cumulative IPC: 1.34970 (Simulation time: 0 hr 10 min 6 sec) 
Heartbeat CPU  0 instructions:  364000000 cycles:  238420844 heartbeat IPC: 1.39075 cumulative IPC: 1.34985 (Simulation time: 0 hr 10 min 7 sec) 
Heartbeat CPU  0 instructions:  365000001 cycles:  239150775 heartbeat IPC: 1.36999 cumulative IPC: 1.34992 (Simulation time: 0 hr 10 min 9 sec) 
Heartbeat CPU  0 instructions:  366000003 cycles:  239949297 heartbeat IPC: 1.25232 cumulative IPC: 1.34953 (Simulation time: 0 hr 10 min 11 sec) 
Heartbeat CPU  0 instructions:  367000001 cycles:  240699018 heartbeat IPC: 1.33383 cumulative IPC: 1.34947 (Simulation time: 0 hr 10 min 12 sec) 
Heartbeat CPU  0 instructions:  368000000 cycles:  241505424 heartbeat IPC: 1.24007 cumulative IPC: 1.34902 (Simulation time: 0 hr 10 min 14 sec) 
Heartbeat CPU  0 instructions:  369000000 cycles:  242240976 heartbeat IPC: 1.35952 cumulative IPC: 1.34906 (Simulation time: 0 hr 10 min 16 sec) 
Heartbeat CPU  0 instructions:  370000001 cycles:  242915508 heartbeat IPC: 1.48251 cumulative IPC: 1.34951 (Simulation time: 0 hr 10 min 18 sec) 
Heartbeat CPU  0 instructions:  371000001 cycles:  243653381 heartbeat IPC: 1.35525 cumulative IPC: 1.34953 (Simulation time: 0 hr 10 min 19 sec) 
Heartbeat CPU  0 instructions:  372000000 cycles:  244443207 heartbeat IPC: 1.26610 cumulative IPC: 1.34921 (Simulation time: 0 hr 10 min 21 sec) 
Heartbeat CPU  0 instructions:  373000000 cycles:  245178858 heartbeat IPC: 1.35934 cumulative IPC: 1.34924 (Simulation time: 0 hr 10 min 23 sec) 
Heartbeat CPU  0 instructions:  374000002 cycles:  245942762 heartbeat IPC: 1.30907 cumulative IPC: 1.34909 (Simulation time: 0 hr 10 min 25 sec) 
Heartbeat CPU  0 instructions:  375000000 cycles:  246681598 heartbeat IPC: 1.35348 cumulative IPC: 1.34911 (Simulation time: 0 hr 10 min 26 sec) 
Heartbeat CPU  0 instructions:  376000000 cycles:  247417126 heartbeat IPC: 1.35957 cumulative IPC: 1.34915 (Simulation time: 0 hr 10 min 28 sec) 
Heartbeat CPU  0 instructions:  377000001 cycles:  248130876 heartbeat IPC: 1.40105 cumulative IPC: 1.34933 (Simulation time: 0 hr 10 min 30 sec) 
Heartbeat CPU  0 instructions:  378000003 cycles:  248923997 heartbeat IPC: 1.26084 cumulative IPC: 1.34899 (Simulation time: 0 hr 10 min 31 sec) 
Heartbeat CPU  0 instructions:  379000002 cycles:  249623254 heartbeat IPC: 1.43009 cumulative IPC: 1.34926 (Simulation time: 0 hr 10 min 33 sec) 
Heartbeat CPU  0 instructions:  380000000 cycles:  250353495 heartbeat IPC: 1.36941 cumulative IPC: 1.34933 (Simulation time: 0 hr 10 min 35 sec) 
Heartbeat CPU  0 instructions:  381000000 cycles:  251130537 heartbeat IPC: 1.28693 cumulative IPC: 1.34910 (Simulation time: 0 hr 10 min 37 sec) 
Heartbeat CPU  0 instructions:  382000001 cycles:  251820989 heartbeat IPC: 1.44833 cumulative IPC: 1.34943 (Simulation time: 0 hr 10 min 38 sec) 
Heartbeat CPU  0 instructions:  383000002 cycles:  252530133 heartbeat IPC: 1.41015 cumulative IPC: 1.34963 (Simulation time: 0 hr 10 min 40 sec) 
Heartbeat CPU  0 instructions:  384000000 cycles:  253238086 heartbeat IPC: 1.41252 cumulative IPC: 1.34984 (Simulation time: 0 hr 10 min 42 sec) 
Heartbeat CPU  0 instructions:  385000001 cycles:  254018099 heartbeat IPC: 1.28203 cumulative IPC: 1.34959 (Simulation time: 0 hr 10 min 43 sec) 
Heartbeat CPU  0 instructions:  386000003 cycles:  254770185 heartbeat IPC: 1.32964 cumulative IPC: 1.34952 (Simulation time: 0 hr 10 min 45 sec) 
Heartbeat CPU  0 instructions:  387000002 cycles:  255491291 heartbeat IPC: 1.38676 cumulative IPC: 1.34965 (Simulation time: 0 hr 10 min 47 sec) 
Heartbeat CPU  0 instructions:  388000000 cycles:  256218363 heartbeat IPC: 1.37538 cumulative IPC: 1.34974 (Simulation time: 0 hr 10 min 49 sec) 
Heartbeat CPU  0 instructions:  389000000 cycles:  256879607 heartbeat IPC: 1.51230 cumulative IPC: 1.35024 (Simulation time: 0 hr 10 min 50 sec) 
Heartbeat CPU  0 instructions:  390000003 cycles:  257577674 heartbeat IPC: 1.43253 cumulative IPC: 1.35051 (Simulation time: 0 hr 10 min 52 sec) 
Heartbeat CPU  0 instructions:  391000000 cycles:  258315457 heartbeat IPC: 1.35541 cumulative IPC: 1.35052 (Simulation time: 0 hr 10 min 54 sec) 
Heartbeat CPU  0 instructions:  392000000 cycles:  259038120 heartbeat IPC: 1.38377 cumulative IPC: 1.35063 (Simulation time: 0 hr 10 min 56 sec) 
Heartbeat CPU  0 instructions:  393000000 cycles:  259723838 heartbeat IPC: 1.45833 cumulative IPC: 1.35097 (Simulation time: 0 hr 10 min 57 sec) 
Heartbeat CPU  0 instructions:  394000000 cycles:  260463096 heartbeat IPC: 1.35271 cumulative IPC: 1.35098 (Simulation time: 0 hr 10 min 59 sec) 
Heartbeat CPU  0 instructions:  395000000 cycles:  261237675 heartbeat IPC: 1.29102 cumulative IPC: 1.35077 (Simulation time: 0 hr 11 min 1 sec) 
Heartbeat CPU  0 instructions:  396000000 cycles:  261976221 heartbeat IPC: 1.35401 cumulative IPC: 1.35078 (Simulation time: 0 hr 11 min 2 sec) 
Heartbeat CPU  0 instructions:  397000000 cycles:  262823291 heartbeat IPC: 1.18054 cumulative IPC: 1.35012 (Simulation time: 0 hr 11 min 4 sec) 
Heartbeat CPU  0 instructions:  398000000 cycles:  263526857 heartbeat IPC: 1.42133 cumulative IPC: 1.35035 (Simulation time: 0 hr 11 min 6 sec) 
Heartbeat CPU  0 instructions:  399000003 cycles:  264273585 heartbeat IPC: 1.33918 cumulative IPC: 1.35031 (Simulation time: 0 hr 11 min 8 sec) 
Heartbeat CPU  0 instructions:  400000000 cycles:  264993660 heartbeat IPC: 1.38874 cumulative IPC: 1.35044 (Simulation time: 0 hr 11 min 9 sec) 
Heartbeat CPU  0 instructions:  401000001 cycles:  265730534 heartbeat IPC: 1.35709 cumulative IPC: 1.35046 (Simulation time: 0 hr 11 min 11 sec) 
Heartbeat CPU  0 instructions:  402000003 cycles:  266458493 heartbeat IPC: 1.37371 cumulative IPC: 1.35053 (Simulation time: 0 hr 11 min 13 sec) 
Heartbeat CPU  0 instructions:  403000002 cycles:  267214215 heartbeat IPC: 1.32324 cumulative IPC: 1.35044 (Simulation time: 0 hr 11 min 15 sec) 
Heartbeat CPU  0 instructions:  404000000 cycles:  267984872 heartbeat IPC: 1.29759 cumulative IPC: 1.35026 (Simulation time: 0 hr 11 min 16 sec) 
Heartbeat CPU  0 instructions:  405000002 cycles:  268674804 heartbeat IPC: 1.44942 cumulative IPC: 1.35056 (Simulation time: 0 hr 11 min 18 sec) 
Heartbeat CPU  0 instructions:  406000000 cycles:  269420931 heartbeat IPC: 1.34025 cumulative IPC: 1.35053 (Simulation time: 0 hr 11 min 20 sec) 
Heartbeat CPU  0 instructions:  407000000 cycles:  270150228 heartbeat IPC: 1.37118 cumulative IPC: 1.35060 (Simulation time: 0 hr 11 min 21 sec) 
Heartbeat CPU  0 instructions:  408000000 cycles:  270851680 heartbeat IPC: 1.42561 cumulative IPC: 1.35083 (Simulation time: 0 hr 11 min 23 sec) 
Heartbeat CPU  0 instructions:  409000003 cycles:  271645120 heartbeat IPC: 1.26034 cumulative IPC: 1.35051 (Simulation time: 0 hr 11 min 25 sec) 
Heartbeat CPU  0 instructions:  410000000 cycles:  272366424 heartbeat IPC: 1.38637 cumulative IPC: 1.35063 (Simulation time: 0 hr 11 min 27 sec) 
Heartbeat CPU  0 instructions:  411000003 cycles:  273097079 heartbeat IPC: 1.36864 cumulative IPC: 1.35068 (Simulation time: 0 hr 11 min 28 sec) 
Heartbeat CPU  0 instructions:  412000000 cycles:  273983229 heartbeat IPC: 1.12847 cumulative IPC: 1.34983 (Simulation time: 0 hr 11 min 30 sec) 
Heartbeat CPU  0 instructions:  413000000 cycles:  275148490 heartbeat IPC: 0.85818 cumulative IPC: 1.34737 (Simulation time: 0 hr 11 min 32 sec) 
Heartbeat CPU  0 instructions:  414000001 cycles:  288079321 heartbeat IPC: 0.07733 cumulative IPC: 1.28040 (Simulation time: 0 hr 11 min 40 sec) 
Heartbeat CPU  0 instructions:  415000002 cycles:  293343102 heartbeat IPC: 0.18998 cumulative IPC: 1.25749 (Simulation time: 0 hr 11 min 43 sec) 
Heartbeat CPU  0 instructions:  416000000 cycles:  297574210 heartbeat IPC: 0.23634 cumulative IPC: 1.24053 (Simulation time: 0 hr 11 min 46 sec) 
Heartbeat CPU  0 instructions:  417000001 cycles:  301659620 heartbeat IPC: 0.24477 cumulative IPC: 1.22481 (Simulation time: 0 hr 11 min 49 sec) 
Heartbeat CPU  0 instructions:  418000003 cycles:  312270922 heartbeat IPC: 0.09424 cumulative IPC: 1.18028 (Simulation time: 0 hr 11 min 56 sec) 
Heartbeat CPU  0 instructions:  419000001 cycles:  324775875 heartbeat IPC: 0.07997 cumulative IPC: 1.13148 (Simulation time: 0 hr 12 min 2 sec) 
Heartbeat CPU  0 instructions:  420000000 cycles:  333927266 heartbeat IPC: 0.10927 cumulative IPC: 1.09934 (Simulation time: 0 hr 12 min 7 sec) 
Heartbeat CPU  0 instructions:  421000003 cycles:  341843717 heartbeat IPC: 0.12632 cumulative IPC: 1.07358 (Simulation time: 0 hr 12 min 11 sec) 
Heartbeat CPU  0 instructions:  422000001 cycles:  348958676 heartbeat IPC: 0.14055 cumulative IPC: 1.05189 (Simulation time: 0 hr 12 min 15 sec) 
Heartbeat CPU  0 instructions:  423000000 cycles:  355845128 heartbeat IPC: 0.14521 cumulative IPC: 1.03194 (Simulation time: 0 hr 12 min 19 sec) 
Heartbeat CPU  0 instructions:  424000000 cycles:  365541309 heartbeat IPC: 0.10313 cumulative IPC: 1.00403 (Simulation time: 0 hr 12 min 26 sec) 
Heartbeat CPU  0 instructions:  425000002 cycles:  371984380 heartbeat IPC: 0.15521 cumulative IPC: 0.98742 (Simulation time: 0 hr 12 min 30 sec) 
Heartbeat CPU  0 instructions:  426000002 cycles:  377318961 heartbeat IPC: 0.18746 cumulative IPC: 0.97466 (Simulation time: 0 hr 12 min 34 sec) 
Heartbeat CPU  0 instructions:  427000000 cycles:  382605009 heartbeat IPC: 0.18918 cumulative IPC: 0.96244 (Simulation time: 0 hr 12 min 37 sec) 
Heartbeat CPU  0 instructions:  428000000 cycles:  387793068 heartbeat IPC: 0.19275 cumulative IPC: 0.95086 (Simulation time: 0 hr 12 min 41 sec) 
Heartbeat CPU  0 instructions:  429000000 cycles:  392902926 heartbeat IPC: 0.19570 cumulative IPC: 0.93984 (Simulation time: 0 hr 12 min 45 sec) 
Heartbeat CPU  0 instructions:  430000001 cycles:  398346600 heartbeat IPC: 0.18370 cumulative IPC: 0.92826 (Simulation time: 0 hr 12 min 49 sec) 
Heartbeat CPU  0 instructions:  431000000 cycles:  408753903 heartbeat IPC: 0.09609 cumulative IPC: 0.90459 (Simulation time: 0 hr 12 min 54 sec) 
Heartbeat CPU  0 instructions:  432000000 cycles:  419388989 heartbeat IPC: 0.09403 cumulative IPC: 0.88170 (Simulation time: 0 hr 13 min 1 sec) 
Heartbeat CPU  0 instructions:  433000000 cycles:  431790183 heartbeat IPC: 0.08064 cumulative IPC: 0.85616 (Simulation time: 0 hr 13 min 8 sec) 
Heartbeat CPU  0 instructions:  434000001 cycles:  442719445 heartbeat IPC: 0.09150 cumulative IPC: 0.83526 (Simulation time: 0 hr 13 min 13 sec) 
Heartbeat CPU  0 instructions:  435000003 cycles:  451005808 heartbeat IPC: 0.12068 cumulative IPC: 0.82075 (Simulation time: 0 hr 13 min 17 sec) 
Heartbeat CPU  0 instructions:  436000000 cycles:  458531661 heartbeat IPC: 0.13287 cumulative IPC: 0.80830 (Simulation time: 0 hr 13 min 21 sec) 
Heartbeat CPU  0 instructions:  437000002 cycles:  464856801 heartbeat IPC: 0.15810 cumulative IPC: 0.79855 (Simulation time: 0 hr 13 min 25 sec) 
Heartbeat CPU  0 instructions:  438000001 cycles:  473115495 heartbeat IPC: 0.12108 cumulative IPC: 0.78555 (Simulation time: 0 hr 13 min 31 sec) 
Heartbeat CPU  0 instructions:  439000000 cycles:  481716109 heartbeat IPC: 0.11627 cumulative IPC: 0.77243 (Simulation time: 0 hr 13 min 36 sec) 
Heartbeat CPU  0 instructions:  440000000 cycles:  487384384 heartbeat IPC: 0.17642 cumulative IPC: 0.76483 (Simulation time: 0 hr 13 min 40 sec) 
Heartbeat CPU  0 instructions:  441000000 cycles:  492671188 heartbeat IPC: 0.18915 cumulative IPC: 0.75807 (Simulation time: 0 hr 13 min 44 sec) 
Heartbeat CPU  0 instructions:  442000002 cycles:  497881462 heartbeat IPC: 0.19193 cumulative IPC: 0.75159 (Simulation time: 0 hr 13 min 48 sec) 
Heartbeat CPU  0 instructions:  443000000 cycles:  502971173 heartbeat IPC: 0.19647 cumulative IPC: 0.74545 (Simulation time: 0 hr 13 min 51 sec) 
Heartbeat CPU  0 instructions:  444000000 cycles:  508346147 heartbeat IPC: 0.18605 cumulative IPC: 0.73899 (Simulation time: 0 hr 13 min 55 sec) 
Heartbeat CPU  0 instructions:  445000002 cycles:  514609951 heartbeat IPC: 0.15965 cumulative IPC: 0.73129 (Simulation time: 0 hr 14 min 0 sec) 
Heartbeat CPU  0 instructions:  446000003 cycles:  527321736 heartbeat IPC: 0.07867 cumulative IPC: 0.71417 (Simulation time: 0 hr 14 min 6 sec) 
Heartbeat CPU  0 instructions:  447000000 cycles:  540310884 heartbeat IPC: 0.07699 cumulative IPC: 0.69753 (Simulation time: 0 hr 14 min 14 sec) 
Heartbeat CPU  0 instructions:  448000000 cycles:  551569929 heartbeat IPC: 0.08882 cumulative IPC: 0.68406 (Simulation time: 0 hr 14 min 19 sec) 
Heartbeat CPU  0 instructions:  449000001 cycles:  560291866 heartbeat IPC: 0.11465 cumulative IPC: 0.67446 (Simulation time: 0 hr 14 min 24 sec) 
Heartbeat CPU  0 instructions:  450000000 cycles:  568095067 heartbeat IPC: 0.12815 cumulative IPC: 0.66635 (Simulation time: 0 hr 14 min 28 sec) 
Heartbeat CPU  0 instructions:  451000000 cycles:  574571824 heartbeat IPC: 0.15440 cumulative IPC: 0.66011 (Simulation time: 0 hr 14 min 32 sec) 
Heartbeat CPU  0 instructions:  452000000 cycles:  581736328 heartbeat IPC: 0.13958 cumulative IPC: 0.65319 (Simulation time: 0 hr 14 min 36 sec) 
Heartbeat CPU  0 instructions:  453000001 cycles:  591322260 heartbeat IPC: 0.10432 cumulative IPC: 0.64360 (Simulation time: 0 hr 14 min 42 sec) 
Heartbeat CPU  0 instructions:  454000000 cycles:  597387048 heartbeat IPC: 0.16489 cumulative IPC: 0.63836 (Simulation time: 0 hr 14 min 47 sec) 
Heartbeat CPU  0 instructions:  455000001 cycles:  602607653 heartbeat IPC: 0.19155 cumulative IPC: 0.63420 (Simulation time: 0 hr 14 min 50 sec) 
Heartbeat CPU  0 instructions:  456000000 cycles:  607842519 heartbeat IPC: 0.19103 cumulative IPC: 0.63009 (Simulation time: 0 hr 14 min 54 sec) 
Heartbeat CPU  0 instructions:  457000002 cycles:  613001269 heartbeat IPC: 0.19385 cumulative IPC: 0.62614 (Simulation time: 0 hr 14 min 58 sec) 
Heartbeat CPU  0 instructions:  458000000 cycles:  618241982 heartbeat IPC: 0.19081 cumulative IPC: 0.62218 (Simulation time: 0 hr 15 min 2 sec) 
Heartbeat CPU  0 instructions:  459000001 cycles:  623828555 heartbeat IPC: 0.17900 cumulative IPC: 0.61792 (Simulation time: 0 hr 15 min 6 sec) 
Heartbeat CPU  0 instructions:  460000000 cycles:  635547818 heartbeat IPC: 0.08533 cumulative IPC: 0.60739 (Simulation time: 0 hr 15 min 12 sec) 
Heartbeat CPU  0 instructions:  461000002 cycles:  648214391 heartbeat IPC: 0.07895 cumulative IPC: 0.59633 (Simulation time: 0 hr 15 min 20 sec) 
Heartbeat CPU  0 instructions:  462000000 cycles:  659831781 heartbeat IPC: 0.08608 cumulative IPC: 0.58672 (Simulation time: 0 hr 15 min 25 sec) 
Heartbeat CPU  0 instructions:  463000000 cycles:  669575155 heartbeat IPC: 0.10263 cumulative IPC: 0.57920 (Simulation time: 0 hr 15 min 30 sec) 
Heartbeat CPU  0 instructions:  464000000 cycles:  677412181 heartbeat IPC: 0.12760 cumulative IPC: 0.57362 (Simulation time: 0 hr 15 min 34 sec) 
Heartbeat CPU  0 instructions:  465000000 cycles:  684237145 heartbeat IPC: 0.14652 cumulative IPC: 0.56907 (Simulation time: 0 hr 15 min 38 sec) 
Heartbeat CPU  0 instructions:  466000000 cycles:  691133503 heartbeat IPC: 0.14500 cumulative IPC: 0.56456 (Simulation time: 0 hr 15 min 42 sec) 
Heartbeat CPU  0 instructions:  467000000 cycles:  700824364 heartbeat IPC: 0.10319 cumulative IPC: 0.55777 (Simulation time: 0 hr 15 min 49 sec) 
Heartbeat CPU  0 instructions:  468000000 cycles:  707165759 heartbeat IPC: 0.15769 cumulative IPC: 0.55395 (Simulation time: 0 hr 15 min 53 sec) 
Heartbeat CPU  0 instructions:  469000000 cycles:  712421439 heartbeat IPC: 0.19027 cumulative IPC: 0.55109 (Simulation time: 0 hr 15 min 57 sec) 
Heartbeat CPU  0 instructions:  470000002 cycles:  717697474 heartbeat IPC: 0.18954 cumulative IPC: 0.54827 (Simulation time: 0 hr 16 min 0 sec) 
Heartbeat CPU  0 instructions:  471000000 cycles:  722882427 heartbeat IPC: 0.19287 cumulative IPC: 0.54556 (Simulation time: 0 hr 16 min 4 sec) 
Heartbeat CPU  0 instructions:  472000000 cycles:  728045620 heartbeat IPC: 0.19368 cumulative IPC: 0.54291 (Simulation time: 0 hr 16 min 8 sec) 
Heartbeat CPU  0 instructions:  473000002 cycles:  733717788 heartbeat IPC: 0.17630 cumulative IPC: 0.53990 (Simulation time: 0 hr 16 min 12 sec) 
Heartbeat CPU  0 instructions:  474000000 cycles:  744123909 heartbeat IPC: 0.09610 cumulative IPC: 0.53331 (Simulation time: 0 hr 16 min 17 sec) 
Heartbeat CPU  0 instructions:  475000002 cycles:  755791012 heartbeat IPC: 0.08571 cumulative IPC: 0.52599 (Simulation time: 0 hr 16 min 25 sec) 
Heartbeat CPU  0 instructions:  476000000 cycles:  767744106 heartbeat IPC: 0.08366 cumulative IPC: 0.51869 (Simulation time: 0 hr 16 min 31 sec) 
Heartbeat CPU  0 instructions:  477000000 cycles:  778470670 heartbeat IPC: 0.09323 cumulative IPC: 0.51249 (Simulation time: 0 hr 16 min 36 sec) 
Heartbeat CPU  0 instructions:  478000002 cycles:  786557136 heartbeat IPC: 0.12366 cumulative IPC: 0.50826 (Simulation time: 0 hr 16 min 40 sec) 
Heartbeat CPU  0 instructions:  479000000 cycles:  793848447 heartbeat IPC: 0.13715 cumulative IPC: 0.50466 (Simulation time: 0 hr 16 min 44 sec) 
Heartbeat CPU  0 instructions:  480000000 cycles:  800514742 heartbeat IPC: 0.15001 cumulative IPC: 0.50154 (Simulation time: 0 hr 16 min 48 sec) 
Heartbeat CPU  0 instructions:  481000000 cycles:  810509624 heartbeat IPC: 0.10005 cumulative IPC: 0.49631 (Simulation time: 0 hr 16 min 55 sec) 
Heartbeat CPU  0 instructions:  482000000 cycles:  816890383 heartbeat IPC: 0.15672 cumulative IPC: 0.49351 (Simulation time: 0 hr 16 min 59 sec) 
Heartbeat CPU  0 instructions:  483000000 cycles:  822325963 heartbeat IPC: 0.18397 cumulative IPC: 0.49135 (Simulation time: 0 hr 17 min 3 sec) 
Heartbeat CPU  0 instructions:  484000000 cycles:  827640209 heartbeat IPC: 0.18817 cumulative IPC: 0.48930 (Simulation time: 0 hr 17 min 7 sec) 
Heartbeat CPU  0 instructions:  485000002 cycles:  832833208 heartbeat IPC: 0.19257 cumulative IPC: 0.48735 (Simulation time: 0 hr 17 min 11 sec) 
Heartbeat CPU  0 instructions:  486000003 cycles:  837954486 heartbeat IPC: 0.19526 cumulative IPC: 0.48547 (Simulation time: 0 hr 17 min 14 sec) 
Heartbeat CPU  0 instructions:  487000000 cycles:  843369468 heartbeat IPC: 0.18467 cumulative IPC: 0.48343 (Simulation time: 0 hr 17 min 18 sec) 
Heartbeat CPU  0 instructions:  488000000 cycles:  851941305 heartbeat IPC: 0.11666 cumulative IPC: 0.47955 (Simulation time: 0 hr 17 min 23 sec) 
Heartbeat CPU  0 instructions:  489000000 cycles:  863831660 heartbeat IPC: 0.08410 cumulative IPC: 0.47382 (Simulation time: 0 hr 17 min 30 sec) 
Heartbeat CPU  0 instructions:  490000003 cycles:  876445264 heartbeat IPC: 0.07928 cumulative IPC: 0.46785 (Simulation time: 0 hr 17 min 37 sec) 
Heartbeat CPU  0 instructions:  491000003 cycles:  887549683 heartbeat IPC: 0.09005 cumulative IPC: 0.46288 (Simulation time: 0 hr 17 min 42 sec) 
Heartbeat CPU  0 instructions:  492000000 cycles:  895888644 heartbeat IPC: 0.11992 cumulative IPC: 0.45953 (Simulation time: 0 hr 17 min 47 sec) 
Heartbeat CPU  0 instructions:  493000002 cycles:  903512835 heartbeat IPC: 0.13116 cumulative IPC: 0.45662 (Simulation time: 0 hr 17 min 51 sec) 
Heartbeat CPU  0 instructions:  494000001 cycles:  909826797 heartbeat IPC: 0.15838 cumulative IPC: 0.45445 (Simulation time: 0 hr 17 min 55 sec) 
Heartbeat CPU  0 instructions:  495000002 cycles:  917782221 heartbeat IPC: 0.12570 cumulative IPC: 0.45146 (Simulation time: 0 hr 18 min 0 sec) 
Heartbeat CPU  0 instructions:  496000000 cycles:  926647056 heartbeat IPC: 0.11281 cumulative IPC: 0.44806 (Simulation time: 0 hr 18 min 6 sec) 
Heartbeat CPU  0 instructions:  497000001 cycles:  932384352 heartbeat IPC: 0.17430 cumulative IPC: 0.44630 (Simulation time: 0 hr 18 min 10 sec) 
Heartbeat CPU  0 instructions:  498000001 cycles:  937640823 heartbeat IPC: 0.19024 cumulative IPC: 0.44479 (Simulation time: 0 hr 18 min 13 sec) 
Heartbeat CPU  0 instructions:  499000000 cycles:  942865152 heartbeat IPC: 0.19141 cumulative IPC: 0.44332 (Simulation time: 0 hr 18 min 17 sec) 
Heartbeat CPU  0 instructions:  500000000 cycles:  947975292 heartbeat IPC: 0.19569 cumulative IPC: 0.44192 (Simulation time: 0 hr 18 min 21 sec) 
Heartbeat CPU  0 instructions:  501000000 cycles:  953311815 heartbeat IPC: 0.18739 cumulative IPC: 0.44043 (Simulation time: 0 hr 18 min 25 sec) 
Heartbeat CPU  0 instructions:  502000002 cycles:  959453121 heartbeat IPC: 0.16283 cumulative IPC: 0.43857 (Simulation time: 0 hr 18 min 29 sec) 
Heartbeat CPU  0 instructions:  503000003 cycles:  971747800 heartbeat IPC: 0.08134 cumulative IPC: 0.43384 (Simulation time: 0 hr 18 min 35 sec) 
Heartbeat CPU  0 instructions:  504000000 cycles:  984625319 heartbeat IPC: 0.07765 cumulative IPC: 0.42897 (Simulation time: 0 hr 18 min 43 sec) 
Heartbeat CPU  0 instructions:  505000002 cycles:  996181684 heartbeat IPC: 0.08653 cumulative IPC: 0.42482 (Simulation time: 0 hr 18 min 48 sec) 
Heartbeat CPU  0 instructions:  506000001 cycles: 1005186151 heartbeat IPC: 0.11106 cumulative IPC: 0.42189 (Simulation time: 0 hr 18 min 53 sec) 
Heartbeat CPU  0 instructions:  507000000 cycles: 1013019314 heartbeat IPC: 0.12766 cumulative IPC: 0.41951 (Simulation time: 0 hr 18 min 57 sec) 
Heartbeat CPU  0 instructions:  508000000 cycles: 1019571249 heartbeat IPC: 0.15263 cumulative IPC: 0.41772 (Simulation time: 0 hr 19 min 1 sec) 
Heartbeat CPU  0 instructions:  509000002 cycles: 1026584506 heartbeat IPC: 0.14259 cumulative IPC: 0.41576 (Simulation time: 0 hr 19 min 5 sec) 
Heartbeat CPU  0 instructions:  510000001 cycles: 1036294297 heartbeat IPC: 0.10299 cumulative IPC: 0.41270 (Simulation time: 0 hr 19 min 12 sec) 
Heartbeat CPU  0 instructions:  511000001 cycles: 1042454206 heartbeat IPC: 0.16234 cumulative IPC: 0.41116 (Simulation time: 0 hr 19 min 16 sec) 
Heartbeat CPU  0 instructions:  512000000 cycles: 1047631969 heartbeat IPC: 0.19313 cumulative IPC: 0.41004 (Simulation time: 0 hr 19 min 20 sec) 
Heartbeat CPU  0 instructions:  513000003 cycles: 1052894925 heartbeat IPC: 0.19001 cumulative IPC: 0.40889 (Simulation time: 0 hr 19 min 24 sec) 
Heartbeat CPU  0 instructions:  514000003 cycles: 1058074180 heartbeat IPC: 0.19308 cumulative IPC: 0.40779 (Simulation time: 0 hr 19 min 27 sec) 
Heartbeat CPU  0 instructions:  515000001 cycles: 1063273483 heartbeat IPC: 0.19233 cumulative IPC: 0.40669 (Simulation time: 0 hr 19 min 31 sec) 
Heartbeat CPU  0 instructions:  516000000 cycles: 1068904241 heartbeat IPC: 0.17760 cumulative IPC: 0.40543 (Simulation time: 0 hr 19 min 35 sec) 
Heartbeat CPU  0 instructions:  517000000 cycles: 1080085880 heartbeat IPC: 0.08943 cumulative IPC: 0.40203 (Simulation time: 0 hr 19 min 41 sec) 
Heartbeat CPU  0 instructions:  518000002 cycles: 1092513138 heartbeat IPC: 0.08047 cumulative IPC: 0.39822 (Simulation time: 0 hr 19 min 49 sec) 
Heartbeat CPU  0 instructions:  519000001 cycles: 1104279287 heartbeat IPC: 0.08499 cumulative IPC: 0.39475 (Simulation time: 0 hr 19 min 54 sec) 
Heartbeat CPU  0 instructions:  520000000 cycles: 1114418898 heartbeat IPC: 0.09862 cumulative IPC: 0.39195 (Simulation time: 0 hr 19 min 59 sec) 
Heartbeat CPU  0 instructions:  521000001 cycles: 1122406980 heartbeat IPC: 0.12519 cumulative IPC: 0.38997 (Simulation time: 0 hr 20 min 4 sec) 
Heartbeat CPU  0 instructions:  522000001 cycles: 1129359709 heartbeat IPC: 0.14383 cumulative IPC: 0.38840 (Simulation time: 0 hr 20 min 8 sec) 
Heartbeat CPU  0 instructions:  523000001 cycles: 1136264823 heartbeat IPC: 0.14482 cumulative IPC: 0.38686 (Simulation time: 0 hr 20 min 12 sec) 
Heartbeat CPU  0 instructions:  524000000 cycles: 1145963297 heartbeat IPC: 0.10311 cumulative IPC: 0.38436 (Simulation time: 0 hr 20 min 18 sec) 
Heartbeat CPU  0 instructions:  525000000 cycles: 1152347352 heartbeat IPC: 0.15664 cumulative IPC: 0.38305 (Simulation time: 0 hr 20 min 23 sec) 
Heartbeat CPU  0 instructions:  526000000 cycles: 1157656129 heartbeat IPC: 0.18837 cumulative IPC: 0.38213 (Simulation time: 0 hr 20 min 26 sec) 
Heartbeat CPU  0 instructions:  527000000 cycles: 1162952173 heartbeat IPC: 0.18882 cumulative IPC: 0.38121 (Simulation time: 0 hr 20 min 30 sec) 
Heartbeat CPU  0 instructions:  528000000 cycles: 1168143334 heartbeat IPC: 0.19264 cumulative IPC: 0.38034 (Simulation time: 0 hr 20 min 34 sec) 
[...]
IIIIIIII2IIAIIAIIIIAIIIIIIIIAIIIIIIIIIIIIIIIIAAAIIIII22A2A22AAAA
IIIIIIII2IIAIIAIIIIAIIIIIIIIAIIIIIIIIIIIIIIIIAAAIIIIII2A2A22AAAA
IIIIIIII2IIAIIAIIIIAIIIIIIIIAIIIIIIIIIIIIIIIIAAAIIIIIIIA2A22AAAA
IIIIIIII2IIAIIAIIIIAIIIIIIIIAIIIIIIIIIIIIIIIIAAAIIIIIIII2A22AAAA
IIIIIIII2IIAIIAIIIIAIIIIIIIIAIIIIIIIIIIIIIIIIAAAIIIIIIIIIA22AAAA
IIIIIIII2IIAIIAIIIIAIIIIIIIIAIIIIIIIIIIIIIIIIAAAIIIIIIIIII22AAAA
IIIIIIII2IIAIIAIIIIAIIIIIIIIAIIIIIIIIIIIIIIIIAAAIIIIIIIIIII2AAAA
IIIIIIII2IIAIIAIIIIAIIIIIIIIAIIIIIIIIIIIIIIIIAAAIIIIIIIIIIIIAAAA
IIIIIIII2IIAIIAIIIIAIIIIIIIIAIIIIIIIIIIIIIIIIAAAIIIIIIIIIIIIIAAA
IIIIIIII2IIAIIAIIIIAIIIIIIIIAIIIIIIIIIIIIIIIIAAAIIIIIIIIIIIIIIAA
IIIIIIII2IIAIIAIIIIAIIIIIIIIAIIIIIIIIIIIIIIIIAAAIIIIIIIIIIIIIIIA
IIIIIIII2IIAIIAIIIIAIIIIIIIIAIIIIIIIIIIIIIIIIAAAIIIIIIIIIIIIIIII
IIIIIIII2IIAIIAIIIIAIIIIIIIIAIIIIIIIIIIIIIIIIAAAIIIIIIIIIIA222I2
IIIIIIII2IIAIIAIIIIAIIIIIIIIAIIIIIIIIIIIIIIIIAAAIIIIIIAI22A222I2
IIIIIIII2IIAIIAIIIIAIIIIIIIIAIIIIIIIIIIIIIIIIAAAIIIIIIAI22A222II
IIIIIIII2IIAIIAIIIIAIIIIIIIIAIIIIIIIIIIIIIIIIAAAIIIIIIAI22I222II
IIIIIIII2IIAIIAIIIIAIIIIIIIIAIIIIIIIIIIIIIIIIAAAIIIIIIAI22II22II
IIIIIIII2IIAIIAIIIIAIIIIIIIIAIIIIIIIIIIIIIIIIAAAIIIIIIAI22II2III
IIIIIIII2IIAIIAIIIIAIIIIIIIIAIIIIIIIIIIIIIIIIAAAIIAI22A222222I44
IIIIIIII2IIAIIAIIIIAIIIIIIIIAIIIIIIIIIIIIIIIIAAAIIAI22I222222I44
IIIIIIII2IIAIIAIIIIAIIIIIIIIAIIIIIIIIIIIIIIIIAAAIIAI22I2I2222I44
IIIIIIII2IIAIIAIIIIAIIIIIIIIAIIIIIIIIIIIIIIIIAAAIIAI22I2II222I44
IIIIIIII2IIAIIAIIIIAIIIIIIIIAIIIIIIIIIIIIIIIIAAAIIAI2A2222222224
IIIIIIII2IIAIIAIIIIAIIIIIIIIAIIIIIIIIIIIIIIIIAAAIIAI2A2I22222224
IIIIIIII2IIAIIAIIIIAIIIIIIIIAIIIIIIIIIIIIIIIIAAAIIII2A2I22222224
IIIIIIII2IIAIIAIIIIAIIIIIIIIAIIIIIIIIIIIIIIIIAAAIIIIIA2I22222224
IIIIIIII2IIAIIAIIIIAIIIIIIIIAIIIIIIIIIIIIIIIIAAAIIIIIA2I22I22224
IIIIIIII2IIAIIAIIIIAIIIIIIIIAIIIIIIIIIIIIIIIIAAAIIIIIA2I22II2224
IIIIIIII2IIAIIAIIIIAIIIIIIIIAIIIIIIIIIIIIIIIIAAAIIIIIA2I22II2I24
IIIIIIII2IIAIIAIIIIAIIIIIIIIAIIIIIIIIIIIIIIIIAAAIIIIIA2I22II2II4
IIIIIIII2IIAIIAIIIIAIIIIIIIIAIIIIIIIA22222224AAA44444A2I22II2II4
IIIIIIII2IIAIIAIIIIAIIIIIIIIAIIIIIIIA22222222AAA44444A2I22II2II4
IIIIIIII2IIAIIAIIIIAIIIIIIIIAIAI2222A22222222AAA44444A2I22II2II4
IIIIIIII2IIAIIAIIIIAIIIIIIIIAIAI2222A222222I2AAA44444A2I22II2II4
IIIIIIII2IIAIIAIIIIAIIIIIIIIAIAI2222A2I2222I2AAA44444A2I22II2II4
IIIIIIII2IIAIIAIIIIAIIIIIIIIAIAI2222A2II222I2AAA44444A2I22II2II4
IIIIIIII2IIAIIAIIIIAIIIIIIIIAIAI2222A2III22I2AAA44444A2I22II2II4
IIIIIIII2IIAIIAIIIIAIIIIIIIIAIAI2222A2III2II2AAA44444A2I22II2II4
IIIIIIII2IIAIIAIIIIAIIIIIIIIAIAI2222AIIII2II2AAA44444A2I22II2II4
IIIIIIII2IIAIIAIIIIAIIIIIIIIAIAI2222IIIII2II2AAA44444A2I22II2II4
IIIIIIII2IIAIIAIIIIAIIIIIIIIAIAI2222IIIII2IIIAAA44444A2I22II2II4
IIIIIIII2IIAIIAIIIIAIIIIIIIIAIII2222IIIII2IIIAAA44444A2I22II2II4
IIIIIIII2IIAIIAIIIIAIIIIIIIIAIIII222IIIII2IIIAAA44444A2I22II2II4
IIIIIIII2IIAIIAIIIIAIIIIIIIIAIIIII22IIIII2IIIAAA44444A2I22II2II4
IIIIIIII2IIAIIAIIIIAIIIIIIIIAIIIIII2IIIII2IIIAAA44444A2I22II2II4
IIIIIIII2IIAIIAIIIIAIIIIIIIIAIIIIIIIIIIII2IIIAAA44444A2I22II2II4
IIIIIIII2IIAIIAIAI2A2222I444A4444IIIIIIII2IIIAAA44444A2I22II2II4
IIIIIIII2IIAIIAIAI2A2222I444A4444IIIIIIIA2222AAA44444A2422II2II4
IIIIIIII2IIAIIAIAI2A222AI222A22444444444A2222AAA44444A2422II2II4
IAI222222I4A44A4A42A222AI222A22444444444A2222AAA44444A2422II2II4
IAI222222I4A44A4A42A222AI222A22444444444A2222AAA44444A2422IIAI22
IAI222222I4A44A4A42A222AI222A22444444444A2222AAA44A44A2422IIAI22
IAI222222I4A44A4A42A222AI222A22444444444A2222AAA44A44A24224IAI22
IAI222222I4A44A4A42A222AI222A22444444444A2222AAA44A44I24224IAI22
IIIIIIIIIIIIIIIIIIIIIIIIIIIIIIIIIIIIIIIIIIIIIIIIIIIIIIIIIIIIA222
IIIIIIIIIIIIIIIIIIIIIIIIIIIIIIIIIIIIIIIIIIIIIIIIIIIIIIIIIIIIA22A
IIIIIIIIIIIIIIIIIIIIIIIIIIIIIIIIIIIIIIIIIIIIIIIIIIIIIIIIIIIIA2AA
IIIIIIIIIIIIIIIIIIIIIIIIIIIIIIIIIIIIIIIIIIIIIIIIIIIIIIIIIA22A2AA
IIIIIIIIIIIIIIIIIIIIIIIIIIIIIIIIIIIIIIIIIIIIIIIIIIIIIIIIIA22AAAA
IIIIIIIIIIIIIIIIIIIIIIIIIIIIIIIIIIIIIIIIIIIIIIIIIIIIA222IA22AAAA
IIIIIIIIIIIIIIIIIIIIIIIIIIIIIIIIIIIIIIIIIIIIIIIIIIIIA22A2A22AAAA
IIIIIIIIIIIIIIIIIIIIIIIIIIIIIIIIIIIIIIIIIIIIIIIIIA22A22A2A22AAAA
IIIIIIIIIIIIIIIIIIIIIIIIIIIIIIIIIIIIIIIIIIIIIA222A22A22A2A22AAAA
IIIIIIIIIIIIIIIIIIIIIIIIIIIIIIIIIIIIIIIIIIIIIA22AA22A22A2A22AAAA
IIIIIIIIIIIIIIIIIIIIIIIIIIIIIIIIIIIIIIIIIIIA2A22AA22A22A2A22AAAA
IIIIIIIIIIIIIIIIIIIIIIIIIIIIIIIIIIIIIIIIIIIA2AA2AA22A22A2A22AAAA
IIIIIIIIIIIIIIIIIIIIIIIIIIIIIIIIIIIIIIIIIIIA2AAAAA22A22A2A22AAAA
IIIIIIIIIIIIIIIIIIIIIIIIIIIIIIIIIIIIIIIIIIIAAAAAAA22A22A2A22AAAA
IIIIIIIIIIIIIIIIIIIIIIIIIIIIIIIIIIIIIIA222IAAAAAAA22A22A2A22AAAA
IIIIIIIIIIIIIIIIIIIIIIIIIIIIIIIIA222I2A2224AAAAAAA22A22A2A22AAAA
IIIIIIIIIIIIIIIIIIIIIIIIIIIIIIIIA222I2AA222AAAAAAA22A22A2A22AAAA
IIIIIIIIIIIIIIIIIIIIIIIIIIIIIA22A22222AA222AAAAAAA22A22A2A22AAAA
IIIIIIIIIIIIIIIIIIIIIIIIIIIIIA22A2A222AA222AAAAAAA22A22A2A22AAAA
IIIIIIIIIIIIIIIIIIIIIIIIIIIIAA22A2A222AA222AAAAAAA22A22A2A22AAAA
IIIIIIIIIIIIIIIIIIIIIA222I2IAA22A2A222AA222AAAAAAA22A22A2A22AAAA
IIIIIIIIIIIIIIIIIIIIIA222I2IAA2AA2A222AA222AAAAAAA22A22A2A22AAAA
IIIIIIIIIIIIIIIIIIIIIAA22222AA2AA2A222AA222AAAAAAA22A22A2A22AAAA
IIIIIIIIIIIIIIIIIIIIIAA222A2AA2AA2A222AA222AAAAAAA22A22A2A22AAAA
IIIIIIIIIIIIIIIIIIIIIAA222AAAA2AA2A222AA222AAAAAAA22A22A2A22AAAA
IIIIIIIIIIIIIIA222I2IAA222AAAA2AA2A222AA222AAAAAAA22A22A2A22AAAA
IIIIIIIIIIIIIIA222I2AAA222AAAA2AA2A222AA222AAAAAAA22A22A2A22AAAA
IIIIIIIIIIIIIIA222IAAAA222AAAA2AA2A222AA222AAAAAAA22A22A2A22AAAA
IIIIIIIIIIIIIAA2222AAAA222AAAA2AA2A222AA222AAAAAAA22A22A2A22AAAA
IIIIIIIIIIIA2AA2222AAAA222AAAA2AA2A222AA222AAAAAAA22A22A2A22AAAA
IIIIA222222A2AA2222AAAA222AAAA2AA2A222AA222AAAAAAA22A22A2A22AAAA
IIIIA222222A2AAA222AAAA222AAAA2AA2A222AA222AAAAAAA22A22A2A22AAAA
IIIIAA22222A2AAA222AAAA222AAAA2AA2A222AA222AAAAAAA22A22A2A22AAAA
IIIIAAA2222A2AAA222AAAA222AAAA2AA2A222AA222AAAAAAA22A22A2A22AAAA
IIIIAAA2222A2AAA222AAAA22IAAAA2AA2A222AA222AAAAAAA22A22A2A22AAAA
IIIIAAA2222A2AAA222AAAA22IAAAAIAA2A222AA222AAAAAAA22A22A2A22AAAA
IIIIAAA2222A2AAA222AAAA22IAAAAIAI2A222AA222AAAAAAA22A22A2A22AAAA
IIIIAAA2222A2AAA222AAAA22IAAAAIAIIA222AA222AAAAAAA22A22A2A22AAAA
IIIIAAA2222A2AAA222AAAA22IAAAAIAIII222AA222AAAAAAA22A22A2A22AAAA
IIIIAAA2222A2AAA222AAAA22IAAAAIAIIII22AA222AAAAAAA22A22A2A22AAAA
IIIIAAA2222A2AAA222AAAA22IAAAAIAIIIII2AA222AAAAAAA22A22A2A22AAAA
IIIIAAA2222A2AAA222AAAA22IAAAAIAIIIIIIAA222AAAAAAA22A22A2A22AAAA
IIIIAAA2222A2AAA222AAAA22IAAAAIAIIIIIIIA222AAAAAAA22A22A2A22AAAA
IIIIAAA2222A2AAA222AAAA22IAAAAIAIIIIIIII222AAAAAAA22A22A2A22AAAA
IIIIAAA2222A2AAA222AAAA22IAAAAIAIIIIIIIII22AAAAAAA22A22A2A22AAAA
IIIIAAA2222A2AAA222AAAA22IAAAAIAIIIIIIIIII2AAAAAAA22A22A2A22AAAA
IIIIAAA2222A2AAA222AAAA22IAAAAIAIIIIIIIIIIIAAAAAAA22A22A2A22AAAA
IIIIAAA2222A2AAA222AAAA22IAAAAIAIIIIIIIIIIIIAAAAAA22A22A2A22AAAA
IIIIAAA2222A2AAA222AAAA22IAAAAIAIIIIIIIIIIIIIAAAAA22A22A2A22AAAA
IIIIAAA2222A2AAA222AAIA22IAAAAIAIIIIIIIIIIIIIAAAAA22A22A2A22AAAA
IIIIAAA2222A2AAA222AAII22IAAAAIAIIIIIIIIIIIIIAAAAA22A22A2A22AAAA
IIIIAAA2222A2AAA222AAIII2IAAAAIAIIIIIIIIIIIIIAAAAA22A22A2A22AAAA
IIIIAAAI222A2AAA222AAIII2IAAAAIAIIIIIIIIIIIIIAAAAA22A22A2A22AAAA
IIIIAIAI222A2AAA222AAIII2IAAAAIAIIIIIIIIIIIIIAAAAA22A22A2A22AAAA
IIIIAIAI222A2AAA222AAIIIIIAAAAIAIIIIIIIIIIIIIAAAAA22A22A2A22AAAA
IIIIAIAI222AIAAA222AAIIIIIAAAAIAIIIIIIIIIIIIIAAAAA22A22A2A22AAAA
IIIIAIII222AIAAA222AAIIIIIAAAAIAIIIIIIIIIIIIIAAAAA22A22A2A22AAAA
IIIIIIII222AIAAA222AAIIIIIAAAAIAIIIIIIIIIIIIIAAAAA22A22A2A22AAAA
IIIIIIII22IAIAAA222AAIIIIIAAAAIAIIIIIIIIIIIIIAAAAA22A22A2A22AAAA
IIIIIIII2IIAIAAA222AAIIIIIAAAAIAIIIIIIIIIIIIIAAAAA22A22A2A22AAAA
IIIIIIII2IIAIAAA222AAIIIIIIAAAIAIIIIIIIIIIIIIAAAAA22A22A2A22AAAA
IIIIIIII2IIAIIAA222AAIIIIIIAAAIAIIIIIIIIIIIIIAAAAA22A22A2A22AAAA
IIIIIIII2IIAIIAA222AAIIIIIIAAIIAIIIIIIIIIIIIIAAAAA22A22A2A22AAAA
IIIIIIII2IIAIIAI222AAIIIIIIAAIIAIIIIIIIIIIIIIAAAAA22A22A2A22AAAA
IIIIIIII2IIAIIAI2I2AAIIIIIIAAIIAIIIIIIIIIIIIIAAAAA22A22A2A22AAAA
IIIIIIII2IIAIIAIII2AAIIIIIIAAIIAIIIIIIIIIIIIIAAAAA22A22A2A22AAAA
IIIIIIII2IIAIIAIII2AAIIIIIIAAIIIIIIIIIIIIIIIIAAAAA22A22A2A22AAAA
IIIIIIII2IIAIIAIIIIAAIIIIIIAAIIIIIIIIIIIIIIIIAAAAA22A22A2A22AAAA
IIIIIIII2IIAIIAIIIIAIIIIIIIAAIIIIIIIIIIIIIIIIAAAAA22A22A2A22AAAA
IIIIIIII2IIAIIAIIIIAIIIIIIIIAIIIIIIIIIIIIIIIIAAAAA22A22A2A22AAAA
IIIIIIII2IIAIIAIIIIAIIIIIIIIAIIIIIIIIIIIIIIIIAAAIA22A22A2A22AAAA
IIIIIIII2IIAIIAIIIIAIIIIIIIIAIIIIIIIIIIIIIIIIAAAII22A22A2A22AAAA
IIIIIIII2IIAIIAIIIIAIIIIIIIIAIIIIIIIIIIIIIIIIAAAIII2A22A2A22AAAA
IIIIIIII2IIAIIAIIIIAIIIIIIIIAIIIIIIIIIIIIIIIIAAAIIIIA22A2A22AAAA
IIIIIIII2IIAIIAIIIIAIIIIIIIIAIIIIIIIIIIIIIIIIAAAIIIII22A2A22AAAA
IIIIIIII2IIAIIAIIIIAIIIIIIIIAIIIIIIIIIIIIIIIIAAAIIIIII2A2A22AAAA
IIIIIIII2IIAIIAIIIIAIIIIIIIIAIIIIIIIIIIIIIIIIAAAIIIIIIIA2A22AAAA
IIIIIIII2IIAIIAIIIIAIIIIIIIIAIIIIIIIIIIIIIIIIAAAIIIIIIII2A22AAAA
IIIIIIII2IIAIIAIIIIAIIIIIIIIAIIIIIIIIIIIIIIIIAAAIIIIIIIIIA22AAAA
IIIIIIII2IIAIIAIIIIAIIIIIIIIAIIIIIIIIIIIIIIIIAAAIIIIIIIIII22AAAA
IIIIIIII2IIAIIAIIIIAIIIIIIIIAIIIIIIIIIIIIIIIIAAAIIIIIIIIIII2AAAA
IIIIIIII2IIAIIAIIIIAIIIIIIIIAIIIIIIIIIIIIIIIIAAAIIIIIIIIIIIIAAAA
IIIIIIII2IIAIIAIIIIAIIIIIIIIAIIIIIIIIIIIIIIIIAAAIIIIIIIIIIIIIAAA
IIIIIIII2IIAIIAIIIIAIIIIIIIIAIIIIIIIIIIIIIIIIAAAIIIIIIIIIIIIIIAA
IIIIIIII2IIAIIAIIIIAIIIIIIIIAIIIIIIIIIIIIIIIIAAAIIIIIIIIIIIIIIIA
IIIIIIII2IIAIIAIIIIAIIIIIIIIAIIIIIIIIIIIIIIIIAAAIIIIIIIIIIIIIIII
IIIIIIII2IIAIIAIIIIAIIIIIIIIAIIIIIIIIIIIIIIIIAAAIIIIIIIIIIA2I222
IIIIIIII2IIAIIAIIIIAIIIIIIIIAIIIIIIIIIIIIIIIIAAAIIIIIIAI22A2I222
IIIIIIII2IIAIIAIIIIAIIIIIIIIAIIIIIIIIIIIIIIIIAAAIIIIIIAI22A2I22I
IIIIIIII2IIAIIAIIIIAIIIIIIIIAIIIIIIIIIIIIIIIIAAAIIIIIIAI22A2I2II
IIIIIIII2IIAIIAIIIIAIIIIIIIIAIIIIIIIIIIIIIIIIAAAIIIIIIAI22I2I2II
IIIIIIII2IIAIIAIIIIAIIIIIIIIAIIIIIIIIIIIIIIIIAAAIIIIIIAI22I2IIII
IIIIIIII2IIAIIAIIIIAIIIIIIIIAIIIIIIIIIIIIIIIIAAAIIIIIIAI22IIIIII
IIIIIIII2IIAIIAIIIIAIIIIIIIIAIIIIIIIIIIIIIIIIAAAIIAI22A222I44I44
IIIIIIII2IIAIIAIIIIAIIIIIIIIAIIIIIIIIIIIIIIIIAAAIIAI22I222I44I44
IIIIIIII2IIAIIAIIIIAIIIIIIIIAIIIIIIIIIIIIIIIIAAAIIAI22I2I2I44I44
IIIIIIII2IIAIIAIIIIAIIIIIIIIAIIIIIIIIIIIIIIIIAAAIIAI22I2III44I44
IIIIIIII2IIAIIAIIIIAIIIIIIIIAIIIIIIIIIIIIIIIIAAAIIAI2A2222242244
IIIIIIII2IIAIIAIIIIAIIIIIIIIAIIIIIIIIIIIIIIIIAAAIIAI2A2I22242244
IIIIIIII2IIAIIAIIIIAIIIIIIIIAIIIIIIIIIIIIIIIIAAAIIII2A2I22242244
IIIIIIII2IIAIIAIIIIAIIIIIIIIAIIIIIIIIIIIIIIIIAAAIIIIIA2I22242244
IIIIIIII2IIAIIAIIIIAIIIIIIIIAIIIIIIIIIIIIIIIIAAAIIIIIA2I22242I44
IIIIIIII2IIAIIAIIIIAIIIIIIIIAIIIIIIIA22222244AAA44444A2I22242I44
IIIIIIII2IIAIIAIIIIAIIIIIIIIAIIIIIIIA22222222AAA44444A2I22242I44
IIIIIIII2IIAIIAIIIIAIIIIIIIIAIAI2222A22222222AAA44444A2I22242I44
IIIIIIII2IIAIIAIIIIAIIIIIIIIAIAI2222A2I222222AAA44444A2I22242I44
IIIIIIII2IIAIIAIIIIAIIIIIIIIAIAI2222A2II22222AAA44444A2I22242I44
IIIIIIII2IIAIIAIIIIAIIIIIIIIAIAI2222A2III2222AAA44444A2I22242I44
IIIIIIII2IIAIIAIIIIAIIIIIIIIAIAI2222A2III2I22AAA44444A2I22242I44
IIIIIIII2IIAIIAIIIIAIIIIIIIIAIAI2222AIIII2I22AAA44444A2I22242I44
IIIIIIII2IIAIIAIIIIAIIIIIIIIAIAI2222IIIII2I22AAA44444A2I22242I44
IIIIIIII2IIAIIAIIIIAIIIIIIIIAIAI2222IIIII2II2AAA44444A2I22242I44
IIIIIIII2IIAIIAIIIIAIIIIIIIIAIAI2222IIIII2IIIAAA44444A2I22242I44
IIIIIIII2IIAIIAIIIIAIIIIIIIIAIII2222IIIII2IIIAAA44444A2I22242I44
IIIIIIII2IIAIIAIIIIAIIIIIIIIAIII2I22IIIII2IIIAAA44444A2I22242I44
IIIIIIII2IIAIIAIIIIAIIIIIIIIAIII2II2IIIII2IIIAAA44444A2I22242I44
IIIIIIII2IIAIIAIIIIAIIIIIIIIAIII2IIIIIIII2IIIAAA44444A2I22242I44
IIIIIIII2IIAIIAIAI2A2222I444A4442IIIIIIII2IIIAAA44444A2I22242I44
IIIIIIII2IIAIIAIAI2A2222I444A4442IIIIIIIA2222AAA44444A2422242I44
IIIIIIII2IIAIIAIAI2A222AI222A22424444444A2222AAA44444A2422242I44
IAI222222I4A44A4A42A222AI222A22424444444A2222AAA44444A2422242I44
IAI222222I4A44A4A42A222AI222A22424444444A2222AAA44444A242224AI22
IAI222222I4A44A4A42A222AI222A22424444444A2222AAA44A44A242224AI22
IAI222222I4A44A4A42A222AI222A22424444444A2222AAA44A44I242224AI22
IAI222222I4A44A4A42A222AI222A22424444444A2222AAA44I44I242224AI22
IIIIIIIIIIIIIIIIIIIIIIIIIIIIIIIIIIIIIIIIIIIIIIIIIIIIIIIIIIIIA222
IIIIIIIIIIIIIIIIIIIIIIIIIIIIIIIIIIIIIIIIIIIIIIIIIIIIIIIIIIIIA22A
IIIIIIIIIIIIIIIIIIIIIIIIIIIIIIIIIIIIIIIIIIIIIIIIIIIIIIIIIIIIA2AA
IIIIIIIIIIIIIIIIIIIIIIIIIIIIIIIIIIIIIIIIIIIIIIIIIIIIIIIIIA22A2AA
IIIIIIIIIIIIIIIIIIIIIIIIIIIIIIIIIIIIIIIIIIIIIIIIIIIIIIIIIA22AAAA
IIIIIIIIIIIIIIIIIIIIIIIIIIIIIIIIIIIIIIIIIIIIIIIIIIIIA222IA22AAAA
IIIIIIIIIIIIIIIIIIIIIIIIIIIIIIIIIIIIIIIIIIIIIIIIIIIIA22A2A22AAAA
IIIIIIIIIIIIIIIIIIIIIIIIIIIIIIIIIIIIIIIIIIIIIIIIIA22A22A2A22AAAA
IIIIIIIIIIIIIIIIIIIIIIIIIIIIIIIIIIIIIIIIIIIIIA222A22A22A2A22AAAA
IIIIIIIIIIIIIIIIIIIIIIIIIIIIIIIIIIIIIIIIIIIIIA22AA22A22A2A22AAAA
IIIIIIIIIIIIIIIIIIIIIIIIIIIIIIIIIIIIIIIIIIIA2A22AA22A22A2A22AAAA
IIIIIIIIIIIIIIIIIIIIIIIIIIIIIIIIIIIIIIIIIIIA2AA2AA22A22A2A22AAAA
IIIIIIIIIIIIIIIIIIIIIIIIIIIIIIIIIIIIIIIIIIIA2AAAAA22A22A2A22AAAA
IIIIIIIIIIIIIIIIIIIIIIIIIIIIIIIIIIIIIIIIIIIAAAAAAA22A22A2A22AAAA
IIIIIIIIIIIIIIIIIIIIIIIIIIIIIIIIIIIIIIA222IAAAAAAA22A22A2A22AAAA
IIIIIIIIIIIIIIIIIIIIIIIIIIIIIIIIA222I2A2224AAAAAAA22A22A2A22AAAA
IIIIIIIIIIIIIIIIIIIIIIIIIIIIIIIIA222I2AA222AAAAAAA22A22A2A22AAAA
IIIIIIIIIIIIIIIIIIIIIIIIIIIIIA22A22222AA222AAAAAAA22A22A2A22AAAA
IIIIIIIIIIIIIIIIIIIIIIIIIIIIIA22A2A222AA222AAAAAAA22A22A2A22AAAA
IIIIIIIIIIIIIIIIIIIIIIIIIIIIAA22A2A222AA222AAAAAAA22A22A2A22AAAA
IIIIIIIIIIIIIIIIIIIIIA222I2IAA22A2A222AA222AAAAAAA22A22A2A22AAAA
IIIIIIIIIIIIIIIIIIIIIA222I2IAA2AA2A222AA222AAAAAAA22A22A2A22AAAA
IIIIIIIIIIIIIIIIIIIIIAA22222AA2AA2A222AA222AAAAAAA22A22A2A22AAAA
IIIIIIIIIIIIIIIIIIIIIAA222A2AA2AA2A222AA222AAAAAAA22A22A2A22AAAA
IIIIIIIIIIIIIIIIIIIIIAA222AAAA2AA2A222AA222AAAAAAA22A22A2A22AAAA
IIIIIIIIIIIIIIA222I2IAA222AAAA2AA2A222AA222AAAAAAA22A22A2A22AAAA
IIIIIIIIIIIIIIA222I2AAA222AAAA2AA2A222AA222AAAAAAA22A22A2A22AAAA
IIIIIIIIIIIIIIA222IAAAA222AAAA2AA2A222AA222AAAAAAA22A22A2A22AAAA
IIIIIIIIIIIIIAA2222AAAA222AAAA2AA2A222AA222AAAAAAA22A22A2A22AAAA
IIIIIIIIIIIA2AA2222AAAA222AAAA2AA2A222AA222AAAAAAA22A22A2A22AAAA
IIIIA222I2IA2AA2222AAAA222AAAA2AA2A222AA222AAAAAAA22A22A2A22AAAA
IIIIA222I2IA2AAA222AAAA222AAAA2AA2A222AA222AAAAAAA22A22A2A22AAAA
IIIIAA22222A2AAA222AAAA222AAAA2AA2A222AA222AAAAAAA22A22A2A22AAAA
IIIIAAA2222A2AAA222AAAA222AAAA2AA2A222AA222AAAAAAA22A22A2A22AAAA
IIIIAAA2222A2AAA222AAAA22IAAAA2AA2A222AA222AAAAAAA22A22A2A22AAAA
IIIIAAA2222A2AAA222AAAA22IAAAAIAA2A222AA222AAAAAAA22A22A2A22AAAA
IIIIAAA2222A2AAA222AAAA22IAAAAIAI2A222AA222AAAAAAA22A22A2A22AAAA
IIIIAAA2222A2AAA222AAAA22IAAAAIAIIA222AA222AAAAAAA22A22A2A22AAAA
IIIIAAA2222A2AAA222AAAA22IAAAAIAIII222AA222AAAAAAA22A22A2A22AAAA
IIIIAAA2222A2AAA222AAAA22IAAAAIAIIII22AA222AAAAAAA22A22A2A22AAAA
IIIIAAA2222A2AAA222AAAA22IAAAAIAIIIII2AA222AAAAAAA22A22A2A22AAAA
IIIIAAA2222A2AAA222AAAA22IAAAAIAIIIIIIAA222AAAAAAA22A22A2A22AAAA
IIIIAAA2222A2AAA222AAAA22IAAAAIAIIIIIIIA222AAAAAAA22A22A2A22AAAA
IIIIAAA2222A2AAA222AAAA22IAAAAIAIIIIIIII222AAAAAAA22A22A2A22AAAA
IIIIAAA2222A2AAA222AAAA22IAAAAIAIIIIIIIII22AAAAAAA22A22A2A22AAAA
IIIIAAA2222A2AAA222AAAA22IAAAAIAIIIIIIIIII2AAAAAAA22A22A2A22AAAA
IIIIAAA2222A2AAA222AAAA22IAAAAIAIIIIIIIIIIIAAAAAAA22A22A2A22AAAA
IIIIAAA2222A2AAA222AAAA22IAAAAIAIIIIIIIIIIIIAAAAAA22A22A2A22AAAA
IIIIAAA2222A2AAA222AAAA22IAAAAIAIIIIIIIIIIIIIAAAAA22A22A2A22AAAA
IIIIAAA2222A2AAA222AAIA22IAAAAIAIIIIIIIIIIIIIAAAAA22A22A2A22AAAA
IIIIAAA2222A2AAA222AAII22IAAAAIAIIIIIIIIIIIIIAAAAA22A22A2A22AAAA
IIIIAAA2222A2AAA222AAIII2IAAAAIAIIIIIIIIIIIIIAAAAA22A22A2A22AAAA
IIIIAAA2222A2AAA222AAIIIIIAAAAIAIIIIIIIIIIIIIAAAAA22A22A2A22AAAA
IIIIAAAI222A2AAA222AAIIIIIAAAAIAIIIIIIIIIIIIIAAAAA22A22A2A22AAAA
IIIIAIAI222A2AAA222AAIIIIIAAAAIAIIIIIIIIIIIIIAAAAA22A22A2A22AAAA
IIIIAIII222A2AAA222AAIIIIIAAAAIAIIIIIIIIIIIIIAAAAA22A22A2A22AAAA
IIIIIIII222A2AAA222AAIIIIIAAAAIAIIIIIIIIIIIIIAAAAA22A22A2A22AAAA
IIIIIIII2I2A2AAA222AAIIIIIAAAAIAIIIIIIIIIIIIIAAAAA22A22A2A22AAAA
IIIIIIII2IIA2AAA222AAIIIIIAAAAIAIIIIIIIIIIIIIAAAAA22A22A2A22AAAA
IIIIIIII2IIA2AAA222AAIIIIIIAAAIAIIIIIIIIIIIIIAAAAA22A22A2A22AAAA
IIIIIIII2IIAIAAA222AAIIIIIIAAAIAIIIIIIIIIIIIIAAAAA22A22A2A22AAAA
IIIIIIII2IIAIIAA222AAIIIIIIAAAIAIIIIIIIIIIIIIAAAAA22A22A2A22AAAA
IIIIIIII2IIAIIAA222AAIIIIIIAAIIAIIIIIIIIIIIIIAAAAA22A22A2A22AAAA
IIIIIIII2IIAIIAI222AAIIIIIIAAIIAIIIIIIIIIIIIIAAAAA22A22A2A22AAAA
IIIIIIII2IIAIIAII22AAIIIIIIAAIIAIIIIIIIIIIIIIAAAAA22A22A2A22AAAA
IIIIIIII2IIAIIAII22AAIIIIIIAAIIIIIIIIIIIIIIIIAAAAA22A22A2A22AAAA
IIIIIIII2IIAIIAIII2AAIIIIIIAAIIIIIIIIIIIIIIIIAAAAA22A22A2A22AAAA
IIIIIIII2IIAIIAIIIIAAIIIIIIAAIIIIIIIIIIIIIIIIAAAAA22A22A2A22AAAA
IIIIIIII2IIAIIAIIIIAIIIIIIIAAIIIIIIIIIIIIIIIIAAAAA22A22A2A22AAAA
IIIIIIII2IIAIIAIIIIAIIIIIIIIAIIIIIIIIIIIIIIIIAAAAA22A22A2A22AAAA
IIIIIIII2IIAIIAIIIIAIIIIIIIIAIIIIIIIIIIIIIIIIAAAIA22A22A2A22AAAA
IIIIIIII2IIAIIAIIIIAIIIIIIIIAIIIIIIIIIIIIIIIIAAAII22A22A2A22AAAA
IIIIIIII2IIAIIAIIIIAIIIIIIIIAIIIIIIIIIIIIIIIIAAAIII2A22A2A22AAAA
IIIIIIII2IIAIIAIIIIAIIIIIIIIAIIIIIIIIIIIIIIIIAAAIIIIA22A2A22AAAA
IIIIIIII2IIAIIAIIIIAIIIIIIIIAIIIIIIIIIIIIIIIIAAAIIIII22A2A22AAAA
IIIIIIII2IIAIIAIIIIAIIIIIIIIAIIIIIIIIIIIIIIIIAAAIIIIII2A2A22AAAA
IIIIIIII2IIAIIAIIIIAIIIIIIIIAIIIIIIIIIIIIIIIIAAAIIIIIIIA2A22AAAA
IIIIIIII2IIAIIAIIIIAIIIIIIIIAIIIIIIIIIIIIIIIIAAAIIIIIIII2A22AAAA
IIIIIIII2IIAIIAIIIIAIIIIIIIIAIIIIIIIIIIIIIIIIAAAIIIIIIIIIA22AAAA
IIIIIIII2IIAIIAIIIIAIIIIIIIIAIIIIIIIIIIIIIIIIAAAIIIIIIIIII22AAAA
IIIIIIII2IIAIIAIIIIAIIIIIIIIAIIIIIIIIIIIIIIIIAAAIIIIIIIIIII2AAAA
IIIIIIII2IIAIIAIIIIAIIIIIIIIAIIIIIIIIIIIIIIIIAAAIIIIIIIIIIIIAAAA
IIIIIIII2IIAIIAIIIIAIIIIIIIIAIIIIIIIIIIIIIIIIAAAIIIIIIIIIIIIIAAA
IIIIIIII2IIAIIAIIIIAIIIIIIIIAIIIIIIIIIIIIIIIIAAAIIIIIIIIIIIIIIAA
IIIIIIII2IIAIIAIIIIAIIIIIIIIAIIIIIIIIIIIIIIIIAAAIIIIIIIIIIIIIIIA
IIIIIIII2IIAIIAIIIIAIIIIIIIIAIIIIIIIIIIIIIIIIAAAIIIIIIIIIIIIIIII
IIIIIIII2IIIIIAIIIIAIIIIIIIIAIIIIIIIIIIIIIIIIAAAIIIIIIIIIIIIIIII
IIIIIIII2IIIIIAIIIIAIIIIIIIIAIIIIIIIIIIIIIIIIAAAIIIIIIIIIIA222I2
IIIIIIII2IIIIIAIIIIAIIIIIIIIAIIIIIIIIIIIIIIIIAAAIIIIIIAI22A222I2
IIIIIIII2IIIIIAIIIIAIIIIIIIIAIIIIIIIIIIIIIIIIAAAIIIIIIAI22A222II
IIIIIIII2IIIIIAIIIIAIIIIIIIIAIIIIIIIIIIIIIIIIAAAIIIIIIAI22I222II
IIIIIIII2IIIIIAIIIIAIIIIIIIIAIIIIIIIIIIIIIIIIAAAIIIIIIAI22I22III
IIIIIIII2IIIIIAIIIIAIIIIIIIIAIIIIIIIIIIIIIIIIAAAIIIIIIAI22II2III
IIIIIIII2IIIIIAIIIIAIIIIIIIIAIIIIIIIIIIIIIIIIAAAIIAI22A222I22I4I
IIIIIIII2IIIIIAIIIIAIIIIIIIIAIIIIIIIIIIIIIIIIAAAIIAI22I222I22I4I
IIIIIIII2IIIIIAIIIIAIIIIIIIIAIIIIIIIIIIIIIIIIAAAIIAI22I2I2I22I4I
IIIIIIII2IIIIIAIIIIAIIIIIIIIAIIIIIIIIIIIIIIIIAAAIIAI22I2III22I4I
IIIIIIII2IIIIIAIIIIAIIIIIIIIAIIIIIIIIIIIIIIIIAAAIIAI2A222I222224
IIIIIIII2IIIIIAIIIIAIIIIIIIIAIIIIIIIIIIIIIIIIAAAIIAI2A2I2I222224
IIIIIIII2IIIIIAIIIIAIIIIIIIIAIIIIIIIIIIIIIIIIAAAIIII2A2I2I222224
IIIIIIII2IIIIIAIIIIAIIIIIIIIAIIIIIIIIIIIIIIIIAAAIIIIIA2I2I222224
IIIIIIII2IIIIIAIIIIAIIIIIIIIAIIIIIIIIIIIIIIIIAAAIIIIIA2I2I2I2224
IIIIIIII2IIIIIAIIIIAIIIIIIIIAIIIIIIIIIIIIIIIIAAAIIIIIA2I2I2I2I24
IIIIIIII2IIIIIAIIIIAIIIIIIIIAIIIIIIIA22222244AAA44444A2I2I2I2I24
IIIIIIII2IIIIIAIIIIAIIIIIIIIAIIIIIIIA22222244AAA44444A2I2I2I2II4
IIIIIIII2IIIIIAIIIIAIIIIIIIIAIIIIIIIA22222222AAA44444A2I2I2I2II4
IIIIIIII2IIIIIAIIIIAIIIIIIIIAIAI22I2A22222222AAA44444A2I2I2I2II4
IIIIIIII2IIIIIAIIIIAIIIIIIIIAIAI22I2A2I222222AAA44444A2I2I2I2II4
IIIIIIII2IIIIIAIIIIAIIIIIIIIAIAI22I2A2II22222AAA44444A2I2I2I2II4
IIIIIIII2IIIIIAIIIIAIIIIIIIIAIAI22I2A2III2222AAA44444A2I2I2I2II4
IIIIIIII2IIIIIAIIIIAIIIIIIIIAIAI22I2A2III2I22AAA44444A2I2I2I2II4
IIIIIIII2IIIIIAIIIIAIIIIIIIIAIAI22I2AIIII2I22AAA44444A2I2I2I2II4
IIIIIIII2IIIIIAIIIIAIIIIIIIIAIAI22I2IIIII2I22AAA44444A2I2I2I2II4
IIIIIIII2IIIIIAIIIIAIIIIIIIIAIAI22I2IIIII2II2AAA44444A2I2I2I2II4
IIIIIIII2IIIIIAIIIIAIIIIIIIIAIAI22I2IIIII2IIIAAA44444A2I2I2I2II4
IIIIIIII2IIIIIAIIIIAIIIIIIIIAIII22I2IIIII2IIIAAA44444A2I2I2I2II4
IIIIIIII2IIIIIAIIIIAIIIIIIIIAIIII2I2IIIII2IIIAAA44444A2I2I2I2II4
IIIIIIII2IIIIIAIIIIAIIIIIIIIAIIIIII2IIIII2IIIAAA44444A2I2I2I2II4
IIIIIIII2IIIIIAIIIIAIIIIIIIIAIIIIIIIIIIII2IIIAAA44444A2I2I2I2II4
[MLOP] Prefetch Degree Mean: 7.84487
[MLOP] Prefetch Degree SD: 6.00028
[MLOP] Max Score Left Mean (%): 34.89577
[MLOP] Max Score Left SD (%): 26.11164
[MLOP] Max Score Right Mean (%): 66.41878
[MLOP] Max Score Right SD (%): 22.16541

Channel_0_RQ_row_buffer_hit 3224312
Channel_0_RQ_row_buffer_miss 5813883
Channel_0_WQ_row_buffer_hit 648807
Channel_0_WQ_row_buffer_miss 2661634
Channel_0_WQ_full 190
Channel_0_dbus_congested 11303943

avg_congested_cycle 101

DRAM_bw_pochs 6749940
DRAM_bw_level_0 2603068
DRAM_bw_level_1 953377
DRAM_bw_level_2 0
DRAM_bw_level_3 3193495
