*************************************************
   ChampSim Multicore Out-of-Order Simulator
   Last compiled: Dec 11 2024 17:59:53
*************************************************
parsing config file: /home/functionmain/桌面/Pythia/config/spp_dev2.ini

trace_0 /home/functionmain/桌面/Pythia/traces/403.gcc-16B.champsimtrace.xz
adding L2C_PREFETCHER: SPP_dev2
Initialize SIGNATURE TABLE
ST_SET: 1
ST_WAY: 256
ST_TAG_BIT: 16
ST_TAG_MASK: ffff

Initialize PATTERN TABLE
PT_SET: 512
PT_WAY: 4
SIG_DELTA_BIT: 7
C_SIG_BIT: 4
C_DELTA_BIT: 4

Initialize PREFETCH FILTER
FILTER_SET: 1024
fill_threshold: 90
pf_threshold: 40

Initialize SHIP state
warmup_instructions 100000000
simulation_instructions 500000000
champsim_seed 169
measure_ipc 0
measure_ipc_epoch 1000
measure_dram_bw 1
measure_dram_bw_epoch 256
measure_cache_acc 1
measure_cache_acc_epoch 1024
l1d_perfect 0
l2c_perfect 0
llc_perfect 0
l1d_semi_perfect 0
l2c_semi_perfect 0
llc_semi_perfect 0
semi_perfect_cache_page_buffer_size 64

num_cpus 1
cpu_freq 4000
dram_io_freq 600
page_size 4096
block_size 64
max_read_per_cycle 8
max_fill_per_cycle 1
dram_channels 1
log2_dram_channels 0
dram_ranks 1
dram_banks 8
dram_rows 65536
dram_columns 128
dram_row_size 8
dram_size 4096
dram_pages 1048576

fetch_width 6
decode_width 6
exec_width 4
lq_width 2
sq_width 2
retire_width 4
scheduler_size 128
branch_mispredict_penalty 20
rob_size 256
lq_size 72
sq_size 56
num_instr_destinations_sparc 4
num_instr_destinations 2
num_instr_sources 4

itlb_set 16
itlb_way 8
itlb_rq_size 16
itlb_wq_size 16
itlb_pq_size 0
itlb_mshr_size 8
itlb_latency 1

dtlb_set 16
dtlb_way 4
dtlb_rq_size 16
dtlb_wq_size 16
dtlb_pq_size 0
dtlb_mshr_size 8
dtlb_latency 1

stlb_set 128
stlb_way 12
stlb_rq_size 32
stlb_wq_size 32
stlb_pq_size 0
stlb_mshr_size 16
stlb_latency 8

l1i_size 32
l1i_set 64
l1i_way 8
l1i_rq_size 64
l1i_wq_size 64
l1i_pq_size 8
l1i_mshr_size 8
l1i_latency 1

l1d_size 32
l1d_set 64
l1d_way 8
l1d_rq_size 64
l1d_wq_size 64
l1d_pq_size 8
l1d_mshr_size 16
l1d_latency 4

l2c_size 256
l2c_set 512
l2c_way 8
l2c_rq_size 32
l2c_wq_size 32
l2c_pq_size 32
l2c_mshr_size 32
l2c_latency 10

llc_size 2048
llc_set 2048
llc_way 16
llc_rq_size 32
llc_wq_size 32
llc_pq_size 32
llc_mshr_size 64
llc_latency 20

dram_channel_width 8
dram_wq_size 64
dram_rq_size 64
tRP 15
tRCD 15
tCAS 12.5
dram_dbus_turn_around_time 30
dram_write_high_wm 56
dram_write_low_wm 48
min_dram_writes_per_switch 16
dram_mtps 600
dram_dbus_return_time 53


Heartbeat CPU  0 instructions:    1000000 cycles:     453077 heartbeat IPC: 2.20713 cumulative IPC: 2.20713 (Simulation time: 0 hr 0 min 2 sec) 
Heartbeat CPU  0 instructions:    2000000 cycles:     861359 heartbeat IPC: 2.44929 cumulative IPC: 2.32191 (Simulation time: 0 hr 0 min 3 sec) 
Heartbeat CPU  0 instructions:    3000003 cycles:    1299549 heartbeat IPC: 2.28212 cumulative IPC: 2.30850 (Simulation time: 0 hr 0 min 5 sec) 
Heartbeat CPU  0 instructions:    4000000 cycles:    1765800 heartbeat IPC: 2.14476 cumulative IPC: 2.26526 (Simulation time: 0 hr 0 min 6 sec) 
Heartbeat CPU  0 instructions:    5000000 cycles:    2181292 heartbeat IPC: 2.40679 cumulative IPC: 2.29222 (Simulation time: 0 hr 0 min 8 sec) 
Heartbeat CPU  0 instructions:    6000000 cycles:    2658649 heartbeat IPC: 2.09487 cumulative IPC: 2.25679 (Simulation time: 0 hr 0 min 9 sec) 
Heartbeat CPU  0 instructions:    7000002 cycles:    3082296 heartbeat IPC: 2.36046 cumulative IPC: 2.27103 (Simulation time: 0 hr 0 min 11 sec) 
Heartbeat CPU  0 instructions:    8000000 cycles:    3488503 heartbeat IPC: 2.46179 cumulative IPC: 2.29325 (Simulation time: 0 hr 0 min 12 sec) 
Heartbeat CPU  0 instructions:    9000003 cycles:    3937173 heartbeat IPC: 2.22882 cumulative IPC: 2.28590 (Simulation time: 0 hr 0 min 14 sec) 
Heartbeat CPU  0 instructions:   10000001 cycles:    4377848 heartbeat IPC: 2.26924 cumulative IPC: 2.28423 (Simulation time: 0 hr 0 min 15 sec) 
Heartbeat CPU  0 instructions:   11000000 cycles:    4782061 heartbeat IPC: 2.47394 cumulative IPC: 2.30026 (Simulation time: 0 hr 0 min 17 sec) 
Heartbeat CPU  0 instructions:   12000000 cycles:    5196292 heartbeat IPC: 2.41411 cumulative IPC: 2.30934 (Simulation time: 0 hr 0 min 18 sec) 
Heartbeat CPU  0 instructions:   13000001 cycles:    5649430 heartbeat IPC: 2.20684 cumulative IPC: 2.30112 (Simulation time: 0 hr 0 min 20 sec) 
Heartbeat CPU  0 instructions:   14000003 cycles:    6084744 heartbeat IPC: 2.29720 cumulative IPC: 2.30084 (Simulation time: 0 hr 0 min 22 sec) 
Heartbeat CPU  0 instructions:   15000000 cycles:    6489858 heartbeat IPC: 2.46843 cumulative IPC: 2.31130 (Simulation time: 0 hr 0 min 23 sec) 
Heartbeat CPU  0 instructions:   16000000 cycles:    6910079 heartbeat IPC: 2.37970 cumulative IPC: 2.31546 (Simulation time: 0 hr 0 min 25 sec) 
Heartbeat CPU  0 instructions:   17000001 cycles:    7353041 heartbeat IPC: 2.25753 cumulative IPC: 2.31197 (Simulation time: 0 hr 0 min 26 sec) 
Heartbeat CPU  0 instructions:   18000000 cycles:    7788351 heartbeat IPC: 2.29721 cumulative IPC: 2.31114 (Simulation time: 0 hr 0 min 28 sec) 
Heartbeat CPU  0 instructions:   19000001 cycles:    8188945 heartbeat IPC: 2.49630 cumulative IPC: 2.32020 (Simulation time: 0 hr 0 min 29 sec) 
Heartbeat CPU  0 instructions:   20000000 cycles:    8635696 heartbeat IPC: 2.23838 cumulative IPC: 2.31597 (Simulation time: 0 hr 0 min 31 sec) 
Heartbeat CPU  0 instructions:   21000001 cycles:    9080899 heartbeat IPC: 2.24617 cumulative IPC: 2.31255 (Simulation time: 0 hr 0 min 32 sec) 
Heartbeat CPU  0 instructions:   22000000 cycles:    9481624 heartbeat IPC: 2.49547 cumulative IPC: 2.32028 (Simulation time: 0 hr 0 min 34 sec) 
Heartbeat CPU  0 instructions:   23000003 cycles:    9895914 heartbeat IPC: 2.41378 cumulative IPC: 2.32419 (Simulation time: 0 hr 0 min 35 sec) 
Heartbeat CPU  0 instructions:   24000000 cycles:   10338175 heartbeat IPC: 2.26110 cumulative IPC: 2.32149 (Simulation time: 0 hr 0 min 37 sec) 
Heartbeat CPU  0 instructions:   25000000 cycles:   10787162 heartbeat IPC: 2.22724 cumulative IPC: 2.31757 (Simulation time: 0 hr 0 min 38 sec) 
Heartbeat CPU  0 instructions:   26000000 cycles:   11183469 heartbeat IPC: 2.52330 cumulative IPC: 2.32486 (Simulation time: 0 hr 0 min 40 sec) 
Heartbeat CPU  0 instructions:   27000001 cycles:   11598299 heartbeat IPC: 2.41063 cumulative IPC: 2.32793 (Simulation time: 0 hr 0 min 41 sec) 
Heartbeat CPU  0 instructions:   28000000 cycles:   12046057 heartbeat IPC: 2.23335 cumulative IPC: 2.32441 (Simulation time: 0 hr 0 min 43 sec) 
Heartbeat CPU  0 instructions:   29000000 cycles:   12478937 heartbeat IPC: 2.31011 cumulative IPC: 2.32392 (Simulation time: 0 hr 0 min 44 sec) 
Heartbeat CPU  0 instructions:   30000003 cycles:   12886750 heartbeat IPC: 2.45211 cumulative IPC: 2.32797 (Simulation time: 0 hr 0 min 46 sec) 
Heartbeat CPU  0 instructions:   31000003 cycles:   13377015 heartbeat IPC: 2.03971 cumulative IPC: 2.31741 (Simulation time: 0 hr 0 min 47 sec) 
Heartbeat CPU  0 instructions:   32000000 cycles:   13779741 heartbeat IPC: 2.48307 cumulative IPC: 2.32225 (Simulation time: 0 hr 0 min 49 sec) 
Heartbeat CPU  0 instructions:   33000001 cycles:   14203744 heartbeat IPC: 2.35848 cumulative IPC: 2.32333 (Simulation time: 0 hr 0 min 50 sec) 
Heartbeat CPU  0 instructions:   34000003 cycles:   14655903 heartbeat IPC: 2.21162 cumulative IPC: 2.31988 (Simulation time: 0 hr 0 min 52 sec) 
Heartbeat CPU  0 instructions:   35000002 cycles:   15077346 heartbeat IPC: 2.37280 cumulative IPC: 2.32136 (Simulation time: 0 hr 0 min 53 sec) 
Heartbeat CPU  0 instructions:   36000000 cycles:   15474581 heartbeat IPC: 2.51740 cumulative IPC: 2.32640 (Simulation time: 0 hr 0 min 55 sec) 
Heartbeat CPU  0 instructions:   37000001 cycles:   15910024 heartbeat IPC: 2.29651 cumulative IPC: 2.32558 (Simulation time: 0 hr 0 min 56 sec) 
Heartbeat CPU  0 instructions:   38000000 cycles:   16358253 heartbeat IPC: 2.23100 cumulative IPC: 2.32299 (Simulation time: 0 hr 0 min 58 sec) 
Heartbeat CPU  0 instructions:   39000000 cycles:   16774566 heartbeat IPC: 2.40204 cumulative IPC: 2.32495 (Simulation time: 0 hr 0 min 59 sec) 
Heartbeat CPU  0 instructions:   40000000 cycles:   17173069 heartbeat IPC: 2.50939 cumulative IPC: 2.32923 (Simulation time: 0 hr 1 min 1 sec) 
Heartbeat CPU  0 instructions:   41000003 cycles:   17615181 heartbeat IPC: 2.26188 cumulative IPC: 2.32754 (Simulation time: 0 hr 1 min 2 sec) 
Heartbeat CPU  0 instructions:   42000003 cycles:   18057454 heartbeat IPC: 2.26105 cumulative IPC: 2.32591 (Simulation time: 0 hr 1 min 4 sec) 
Heartbeat CPU  0 instructions:   43000002 cycles:   18463657 heartbeat IPC: 2.46182 cumulative IPC: 2.32890 (Simulation time: 0 hr 1 min 5 sec) 
Heartbeat CPU  0 instructions:   44000000 cycles:   18914073 heartbeat IPC: 2.22017 cumulative IPC: 2.32631 (Simulation time: 0 hr 1 min 7 sec) 
Heartbeat CPU  0 instructions:   45000000 cycles:   19361887 heartbeat IPC: 2.23307 cumulative IPC: 2.32415 (Simulation time: 0 hr 1 min 8 sec) 
Heartbeat CPU  0 instructions:   46000003 cycles:   19775250 heartbeat IPC: 2.41919 cumulative IPC: 2.32614 (Simulation time: 0 hr 1 min 10 sec) 
Heartbeat CPU  0 instructions:   47000003 cycles:   20228669 heartbeat IPC: 2.20547 cumulative IPC: 2.32344 (Simulation time: 0 hr 1 min 11 sec) 
Heartbeat CPU  0 instructions:   48000000 cycles:   20652403 heartbeat IPC: 2.35996 cumulative IPC: 2.32418 (Simulation time: 0 hr 1 min 13 sec) 
Heartbeat CPU  0 instructions:   49000003 cycles:   21061143 heartbeat IPC: 2.44655 cumulative IPC: 2.32656 (Simulation time: 0 hr 1 min 14 sec) 
Heartbeat CPU  0 instructions:   50000000 cycles:   21501457 heartbeat IPC: 2.27110 cumulative IPC: 2.32542 (Simulation time: 0 hr 1 min 16 sec) 
Heartbeat CPU  0 instructions:   51000003 cycles:   21938490 heartbeat IPC: 2.28816 cumulative IPC: 2.32468 (Simulation time: 0 hr 1 min 17 sec) 
Heartbeat CPU  0 instructions:   52000000 cycles:   22345835 heartbeat IPC: 2.45491 cumulative IPC: 2.32706 (Simulation time: 0 hr 1 min 19 sec) 
Heartbeat CPU  0 instructions:   53000000 cycles:   22761289 heartbeat IPC: 2.40701 cumulative IPC: 2.32851 (Simulation time: 0 hr 1 min 20 sec) 
Heartbeat CPU  0 instructions:   54000001 cycles:   23201173 heartbeat IPC: 2.27333 cumulative IPC: 2.32747 (Simulation time: 0 hr 1 min 22 sec) 
Heartbeat CPU  0 instructions:   55000001 cycles:   23636139 heartbeat IPC: 2.29903 cumulative IPC: 2.32695 (Simulation time: 0 hr 1 min 24 sec) 
Heartbeat CPU  0 instructions:   56000000 cycles:   24043459 heartbeat IPC: 2.45507 cumulative IPC: 2.32912 (Simulation time: 0 hr 1 min 25 sec) 
Heartbeat CPU  0 instructions:   57000003 cycles:   24459210 heartbeat IPC: 2.40529 cumulative IPC: 2.33041 (Simulation time: 0 hr 1 min 27 sec) 
Heartbeat CPU  0 instructions:   58000001 cycles:   24906420 heartbeat IPC: 2.23608 cumulative IPC: 2.32872 (Simulation time: 0 hr 1 min 28 sec) 
Heartbeat CPU  0 instructions:   59000000 cycles:   25337099 heartbeat IPC: 2.32191 cumulative IPC: 2.32860 (Simulation time: 0 hr 1 min 30 sec) 
Heartbeat CPU  0 instructions:   60000000 cycles:   25732816 heartbeat IPC: 2.52706 cumulative IPC: 2.33165 (Simulation time: 0 hr 1 min 31 sec) 
Heartbeat CPU  0 instructions:   61000001 cycles:   26184516 heartbeat IPC: 2.21386 cumulative IPC: 2.32962 (Simulation time: 0 hr 1 min 33 sec) 
Heartbeat CPU  0 instructions:   62000001 cycles:   26622588 heartbeat IPC: 2.28273 cumulative IPC: 2.32885 (Simulation time: 0 hr 1 min 34 sec) 
Heartbeat CPU  0 instructions:   63000000 cycles:   27026611 heartbeat IPC: 2.47510 cumulative IPC: 2.33104 (Simulation time: 0 hr 1 min 36 sec) 
Heartbeat CPU  0 instructions:   64000000 cycles:   27436250 heartbeat IPC: 2.44117 cumulative IPC: 2.33268 (Simulation time: 0 hr 1 min 37 sec) 
Heartbeat CPU  0 instructions:   65000001 cycles:   27884226 heartbeat IPC: 2.23226 cumulative IPC: 2.33107 (Simulation time: 0 hr 1 min 39 sec) 
Heartbeat CPU  0 instructions:   66000003 cycles:   28322666 heartbeat IPC: 2.28082 cumulative IPC: 2.33029 (Simulation time: 0 hr 1 min 40 sec) 
Heartbeat CPU  0 instructions:   67000000 cycles:   28721998 heartbeat IPC: 2.50417 cumulative IPC: 2.33271 (Simulation time: 0 hr 1 min 42 sec) 
Heartbeat CPU  0 instructions:   68000000 cycles:   29138173 heartbeat IPC: 2.40284 cumulative IPC: 2.33371 (Simulation time: 0 hr 1 min 43 sec) 
Heartbeat CPU  0 instructions:   69000001 cycles:   29579556 heartbeat IPC: 2.26561 cumulative IPC: 2.33269 (Simulation time: 0 hr 1 min 45 sec) 
Heartbeat CPU  0 instructions:   70000001 cycles:   30013068 heartbeat IPC: 2.30674 cumulative IPC: 2.33232 (Simulation time: 0 hr 1 min 46 sec) 
Heartbeat CPU  0 instructions:   71000003 cycles:   30438442 heartbeat IPC: 2.35088 cumulative IPC: 2.33258 (Simulation time: 0 hr 1 min 48 sec) 
Heartbeat CPU  0 instructions:   72000000 cycles:   30914124 heartbeat IPC: 2.10224 cumulative IPC: 2.32903 (Simulation time: 0 hr 1 min 49 sec) 
Heartbeat CPU  0 instructions:   73000001 cycles:   31310569 heartbeat IPC: 2.52242 cumulative IPC: 2.33148 (Simulation time: 0 hr 1 min 51 sec) 
Heartbeat CPU  0 instructions:   74000000 cycles:   31750402 heartbeat IPC: 2.27359 cumulative IPC: 2.33068 (Simulation time: 0 hr 1 min 52 sec) 
Heartbeat CPU  0 instructions:   75000003 cycles:   32201616 heartbeat IPC: 2.21625 cumulative IPC: 2.32908 (Simulation time: 0 hr 1 min 54 sec) 
Heartbeat CPU  0 instructions:   76000000 cycles:   32602587 heartbeat IPC: 2.49394 cumulative IPC: 2.33110 (Simulation time: 0 hr 1 min 55 sec) 
Heartbeat CPU  0 instructions:   77000001 cycles:   33019478 heartbeat IPC: 2.39871 cumulative IPC: 2.33196 (Simulation time: 0 hr 1 min 57 sec) 
Heartbeat CPU  0 instructions:   78000001 cycles:   33454632 heartbeat IPC: 2.29804 cumulative IPC: 2.33152 (Simulation time: 0 hr 1 min 58 sec) 
Heartbeat CPU  0 instructions:   79000000 cycles:   33901101 heartbeat IPC: 2.23979 cumulative IPC: 2.33031 (Simulation time: 0 hr 2 min 0 sec) 
Heartbeat CPU  0 instructions:   80000000 cycles:   34297183 heartbeat IPC: 2.52473 cumulative IPC: 2.33255 (Simulation time: 0 hr 2 min 1 sec) 
Heartbeat CPU  0 instructions:   81000003 cycles:   34715051 heartbeat IPC: 2.39311 cumulative IPC: 2.33328 (Simulation time: 0 hr 2 min 3 sec) 
Heartbeat CPU  0 instructions:   82000003 cycles:   35156385 heartbeat IPC: 2.26586 cumulative IPC: 2.33244 (Simulation time: 0 hr 2 min 4 sec) 
Heartbeat CPU  0 instructions:   83000000 cycles:   35591515 heartbeat IPC: 2.29816 cumulative IPC: 2.33202 (Simulation time: 0 hr 2 min 6 sec) 
Heartbeat CPU  0 instructions:   84000000 cycles:   35984940 heartbeat IPC: 2.54178 cumulative IPC: 2.33431 (Simulation time: 0 hr 2 min 7 sec) 
Heartbeat CPU  0 instructions:   85000000 cycles:   36425452 heartbeat IPC: 2.27009 cumulative IPC: 2.33353 (Simulation time: 0 hr 2 min 9 sec) 
Heartbeat CPU  0 instructions:   86000001 cycles:   36866251 heartbeat IPC: 2.26861 cumulative IPC: 2.33276 (Simulation time: 0 hr 2 min 10 sec) 
Heartbeat CPU  0 instructions:   87000002 cycles:   37277624 heartbeat IPC: 2.43089 cumulative IPC: 2.33384 (Simulation time: 0 hr 2 min 12 sec) 
Heartbeat CPU  0 instructions:   88000000 cycles:   37693627 heartbeat IPC: 2.40382 cumulative IPC: 2.33461 (Simulation time: 0 hr 2 min 13 sec) 
Heartbeat CPU  0 instructions:   89000001 cycles:   38129927 heartbeat IPC: 2.29200 cumulative IPC: 2.33412 (Simulation time: 0 hr 2 min 15 sec) 
Heartbeat CPU  0 instructions:   90000000 cycles:   38564580 heartbeat IPC: 2.30068 cumulative IPC: 2.33375 (Simulation time: 0 hr 2 min 16 sec) 
Heartbeat CPU  0 instructions:   91000000 cycles:   38970622 heartbeat IPC: 2.46280 cumulative IPC: 2.33509 (Simulation time: 0 hr 2 min 18 sec) 
Heartbeat CPU  0 instructions:   92000000 cycles:   39389103 heartbeat IPC: 2.38959 cumulative IPC: 2.33567 (Simulation time: 0 hr 2 min 19 sec) 
Heartbeat CPU  0 instructions:   93000000 cycles:   39822638 heartbeat IPC: 2.30662 cumulative IPC: 2.33536 (Simulation time: 0 hr 2 min 21 sec) 
Heartbeat CPU  0 instructions:   94000002 cycles:   40262800 heartbeat IPC: 2.27190 cumulative IPC: 2.33466 (Simulation time: 0 hr 2 min 23 sec) 
Heartbeat CPU  0 instructions:   95000000 cycles:   40654840 heartbeat IPC: 2.55076 cumulative IPC: 2.33675 (Simulation time: 0 hr 2 min 24 sec) 
Heartbeat CPU  0 instructions:   96000000 cycles:   41088773 heartbeat IPC: 2.30450 cumulative IPC: 2.33640 (Simulation time: 0 hr 2 min 26 sec) 
Heartbeat CPU  0 instructions:   97000001 cycles:   41551378 heartbeat IPC: 2.16167 cumulative IPC: 2.33446 (Simulation time: 0 hr 2 min 27 sec) 
Heartbeat CPU  0 instructions:   98000003 cycles:   41970530 heartbeat IPC: 2.38577 cumulative IPC: 2.33497 (Simulation time: 0 hr 2 min 29 sec) 
Heartbeat CPU  0 instructions:   99000001 cycles:   42412898 heartbeat IPC: 2.26056 cumulative IPC: 2.33420 (Simulation time: 0 hr 2 min 30 sec) 
Heartbeat CPU  0 instructions:  100000000 cycles:   42844099 heartbeat IPC: 2.31910 cumulative IPC: 2.33404 (Simulation time: 0 hr 2 min 32 sec) 

Warmup complete CPU  0 instructions:  100000001 cycles:   42844100 (Simulation time: 0 hr 2 min 32 sec) 

Heartbeat CPU  0 instructions:  101000001 cycles:   43521469 heartbeat IPC: 1.47630 cumulative IPC: 1.47630 (Simulation time: 0 hr 2 min 33 sec) 
Heartbeat CPU  0 instructions:  102000003 cycles:   44209133 heartbeat IPC: 1.45420 cumulative IPC: 1.46517 (Simulation time: 0 hr 2 min 35 sec) 
Heartbeat CPU  0 instructions:  103000003 cycles:   44892290 heartbeat IPC: 1.46379 cumulative IPC: 1.46471 (Simulation time: 0 hr 2 min 37 sec) 
Heartbeat CPU  0 instructions:  104000000 cycles:   45577444 heartbeat IPC: 1.45952 cumulative IPC: 1.46341 (Simulation time: 0 hr 2 min 39 sec) 
Heartbeat CPU  0 instructions:  105000001 cycles:   46266784 heartbeat IPC: 1.45066 cumulative IPC: 1.46084 (Simulation time: 0 hr 2 min 40 sec) 
Heartbeat CPU  0 instructions:  106000000 cycles:   46949348 heartbeat IPC: 1.46506 cumulative IPC: 1.46154 (Simulation time: 0 hr 2 min 42 sec) 
Heartbeat CPU  0 instructions:  107000001 cycles:   47632876 heartbeat IPC: 1.46300 cumulative IPC: 1.46175 (Simulation time: 0 hr 2 min 44 sec) 
Heartbeat CPU  0 instructions:  108000000 cycles:   48356595 heartbeat IPC: 1.38175 cumulative IPC: 1.45125 (Simulation time: 0 hr 2 min 45 sec) 
Heartbeat CPU  0 instructions:  109000001 cycles:   49039977 heartbeat IPC: 1.46331 cumulative IPC: 1.45258 (Simulation time: 0 hr 2 min 47 sec) 
Heartbeat CPU  0 instructions:  110000003 cycles:   49832226 heartbeat IPC: 1.26223 cumulative IPC: 1.43100 (Simulation time: 0 hr 2 min 49 sec) 
Heartbeat CPU  0 instructions:  111000000 cycles:   50691022 heartbeat IPC: 1.16442 cumulative IPC: 1.40182 (Simulation time: 0 hr 2 min 51 sec) 
Heartbeat CPU  0 instructions:  112000000 cycles:   51509115 heartbeat IPC: 1.22235 cumulative IPC: 1.38488 (Simulation time: 0 hr 2 min 53 sec) 
Heartbeat CPU  0 instructions:  113000003 cycles:   52215525 heartbeat IPC: 1.41561 cumulative IPC: 1.38720 (Simulation time: 0 hr 2 min 54 sec) 
Heartbeat CPU  0 instructions:  114000001 cycles:   52918545 heartbeat IPC: 1.42243 cumulative IPC: 1.38965 (Simulation time: 0 hr 2 min 56 sec) 
Heartbeat CPU  0 instructions:  115000002 cycles:   53638555 heartbeat IPC: 1.38887 cumulative IPC: 1.38960 (Simulation time: 0 hr 2 min 58 sec) 
Heartbeat CPU  0 instructions:  116000000 cycles:   54326647 heartbeat IPC: 1.45329 cumulative IPC: 1.39342 (Simulation time: 0 hr 3 min 0 sec) 
Heartbeat CPU  0 instructions:  117000000 cycles:   54996115 heartbeat IPC: 1.49372 cumulative IPC: 1.39894 (Simulation time: 0 hr 3 min 1 sec) 
Heartbeat CPU  0 instructions:  118000000 cycles:   55647224 heartbeat IPC: 1.53584 cumulative IPC: 1.40591 (Simulation time: 0 hr 3 min 3 sec) 
Heartbeat CPU  0 instructions:  119000002 cycles:   56374125 heartbeat IPC: 1.37571 cumulative IPC: 1.40428 (Simulation time: 0 hr 3 min 5 sec) 
Heartbeat CPU  0 instructions:  120000000 cycles:   57054249 heartbeat IPC: 1.47032 cumulative IPC: 1.40744 (Simulation time: 0 hr 3 min 6 sec) 
Heartbeat CPU  0 instructions:  121000002 cycles:   57725382 heartbeat IPC: 1.49002 cumulative IPC: 1.41117 (Simulation time: 0 hr 3 min 8 sec) 
Heartbeat CPU  0 instructions:  122000000 cycles:   58404971 heartbeat IPC: 1.47147 cumulative IPC: 1.41380 (Simulation time: 0 hr 3 min 10 sec) 
Heartbeat CPU  0 instructions:  123000002 cycles:   59140387 heartbeat IPC: 1.35978 cumulative IPC: 1.41136 (Simulation time: 0 hr 3 min 12 sec) 
Heartbeat CPU  0 instructions:  124000000 cycles:   59891258 heartbeat IPC: 1.33178 cumulative IPC: 1.40786 (Simulation time: 0 hr 3 min 13 sec) 
Heartbeat CPU  0 instructions:  125000000 cycles:   60568600 heartbeat IPC: 1.47636 cumulative IPC: 1.41048 (Simulation time: 0 hr 3 min 15 sec) 
Heartbeat CPU  0 instructions:  126000000 cycles:   61282988 heartbeat IPC: 1.39980 cumulative IPC: 1.41006 (Simulation time: 0 hr 3 min 17 sec) 
Heartbeat CPU  0 instructions:  127000003 cycles:   62006871 heartbeat IPC: 1.38144 cumulative IPC: 1.40898 (Simulation time: 0 hr 3 min 19 sec) 
Heartbeat CPU  0 instructions:  128000000 cycles:   62680693 heartbeat IPC: 1.48407 cumulative IPC: 1.41153 (Simulation time: 0 hr 3 min 20 sec) 
Heartbeat CPU  0 instructions:  129000001 cycles:   63327559 heartbeat IPC: 1.54592 cumulative IPC: 1.41578 (Simulation time: 0 hr 3 min 22 sec) 
Heartbeat CPU  0 instructions:  130000001 cycles:   64018654 heartbeat IPC: 1.44698 cumulative IPC: 1.41679 (Simulation time: 0 hr 3 min 24 sec) 
Heartbeat CPU  0 instructions:  131000002 cycles:   64738656 heartbeat IPC: 1.38889 cumulative IPC: 1.41588 (Simulation time: 0 hr 3 min 26 sec) 
Heartbeat CPU  0 instructions:  132000000 cycles:   65402258 heartbeat IPC: 1.50692 cumulative IPC: 1.41856 (Simulation time: 0 hr 3 min 27 sec) 
Heartbeat CPU  0 instructions:  133000003 cycles:   66056307 heartbeat IPC: 1.52894 cumulative IPC: 1.42167 (Simulation time: 0 hr 3 min 29 sec) 
Heartbeat CPU  0 instructions:  134000001 cycles:   66794735 heartbeat IPC: 1.35423 cumulative IPC: 1.41959 (Simulation time: 0 hr 3 min 31 sec) 
Heartbeat CPU  0 instructions:  135000001 cycles:   67510156 heartbeat IPC: 1.39778 cumulative IPC: 1.41895 (Simulation time: 0 hr 3 min 33 sec) 
Heartbeat CPU  0 instructions:  136000000 cycles:   68271263 heartbeat IPC: 1.31387 cumulative IPC: 1.41581 (Simulation time: 0 hr 3 min 34 sec) 
Heartbeat CPU  0 instructions:  137000003 cycles:   69175848 heartbeat IPC: 1.10548 cumulative IPC: 1.40515 (Simulation time: 0 hr 3 min 36 sec) 
Heartbeat CPU  0 instructions:  138000002 cycles:   69892661 heartbeat IPC: 1.39506 cumulative IPC: 1.40488 (Simulation time: 0 hr 3 min 38 sec) 
Heartbeat CPU  0 instructions:  139000002 cycles:   70555795 heartbeat IPC: 1.50799 cumulative IPC: 1.40735 (Simulation time: 0 hr 3 min 40 sec) 
Heartbeat CPU  0 instructions:  140000000 cycles:   71318881 heartbeat IPC: 1.31047 cumulative IPC: 1.40475 (Simulation time: 0 hr 3 min 41 sec) 
Heartbeat CPU  0 instructions:  141000001 cycles:   72010567 heartbeat IPC: 1.44574 cumulative IPC: 1.40572 (Simulation time: 0 hr 3 min 43 sec) 
Heartbeat CPU  0 instructions:  142000001 cycles:   72673181 heartbeat IPC: 1.50917 cumulative IPC: 1.40802 (Simulation time: 0 hr 3 min 45 sec) 
Heartbeat CPU  0 instructions:  143000002 cycles:   73333388 heartbeat IPC: 1.51468 cumulative IPC: 1.41033 (Simulation time: 0 hr 3 min 47 sec) 
Heartbeat CPU  0 instructions:  144000000 cycles:   74049725 heartbeat IPC: 1.39599 cumulative IPC: 1.41000 (Simulation time: 0 hr 3 min 48 sec) 
Heartbeat CPU  0 instructions:  145000003 cycles:   74741164 heartbeat IPC: 1.44626 cumulative IPC: 1.41079 (Simulation time: 0 hr 3 min 50 sec) 
Heartbeat CPU  0 instructions:  146000000 cycles:   75398029 heartbeat IPC: 1.52238 cumulative IPC: 1.41304 (Simulation time: 0 hr 3 min 52 sec) 
Heartbeat CPU  0 instructions:  147000003 cycles:   76090593 heartbeat IPC: 1.44391 cumulative IPC: 1.41368 (Simulation time: 0 hr 3 min 54 sec) 
Heartbeat CPU  0 instructions:  148000000 cycles:   76805710 heartbeat IPC: 1.39837 cumulative IPC: 1.41336 (Simulation time: 0 hr 3 min 55 sec) 
Heartbeat CPU  0 instructions:  149000001 cycles:   77555696 heartbeat IPC: 1.33336 cumulative IPC: 1.41163 (Simulation time: 0 hr 3 min 57 sec) 
Heartbeat CPU  0 instructions:  150000003 cycles:   78385760 heartbeat IPC: 1.20473 cumulative IPC: 1.40680 (Simulation time: 0 hr 3 min 59 sec) 
Heartbeat CPU  0 instructions:  151000000 cycles:   79205968 heartbeat IPC: 1.21920 cumulative IPC: 1.40257 (Simulation time: 0 hr 4 min 1 sec) 
Heartbeat CPU  0 instructions:  152000000 cycles:   79951070 heartbeat IPC: 1.34210 cumulative IPC: 1.40135 (Simulation time: 0 hr 4 min 2 sec) 
Heartbeat CPU  0 instructions:  153000001 cycles:   80722218 heartbeat IPC: 1.29677 cumulative IPC: 1.39922 (Simulation time: 0 hr 4 min 4 sec) 
Heartbeat CPU  0 instructions:  154000000 cycles:   81495201 heartbeat IPC: 1.29369 cumulative IPC: 1.39711 (Simulation time: 0 hr 4 min 6 sec) 
Heartbeat CPU  0 instructions:  155000000 cycles:   82277394 heartbeat IPC: 1.27846 cumulative IPC: 1.39476 (Simulation time: 0 hr 4 min 8 sec) 
Heartbeat CPU  0 instructions:  156000000 cycles:   83203874 heartbeat IPC: 1.07935 cumulative IPC: 1.38752 (Simulation time: 0 hr 4 min 10 sec) 
Heartbeat CPU  0 instructions:  157000002 cycles:   83934586 heartbeat IPC: 1.36853 cumulative IPC: 1.38718 (Simulation time: 0 hr 4 min 11 sec) 
Heartbeat CPU  0 instructions:  158000001 cycles:   84813222 heartbeat IPC: 1.13813 cumulative IPC: 1.38197 (Simulation time: 0 hr 4 min 13 sec) 
Heartbeat CPU  0 instructions:  159000001 cycles:   85561673 heartbeat IPC: 1.33609 cumulative IPC: 1.38116 (Simulation time: 0 hr 4 min 15 sec) 
Heartbeat CPU  0 instructions:  160000000 cycles:   86257835 heartbeat IPC: 1.43645 cumulative IPC: 1.38205 (Simulation time: 0 hr 4 min 17 sec) 
Heartbeat CPU  0 instructions:  161000001 cycles:   86976655 heartbeat IPC: 1.39117 cumulative IPC: 1.38220 (Simulation time: 0 hr 4 min 18 sec) 
Heartbeat CPU  0 instructions:  162000003 cycles:   87707680 heartbeat IPC: 1.36794 cumulative IPC: 1.38197 (Simulation time: 0 hr 4 min 20 sec) 
Heartbeat CPU  0 instructions:  163000000 cycles:   88376612 heartbeat IPC: 1.49492 cumulative IPC: 1.38363 (Simulation time: 0 hr 4 min 22 sec) 
Heartbeat CPU  0 instructions:  164000000 cycles:   89089581 heartbeat IPC: 1.40259 cumulative IPC: 1.38392 (Simulation time: 0 hr 4 min 24 sec) 
Heartbeat CPU  0 instructions:  165000001 cycles:   89781822 heartbeat IPC: 1.44459 cumulative IPC: 1.38481 (Simulation time: 0 hr 4 min 25 sec) 
Heartbeat CPU  0 instructions:  166000001 cycles:   90457522 heartbeat IPC: 1.47995 cumulative IPC: 1.38616 (Simulation time: 0 hr 4 min 27 sec) 
Heartbeat CPU  0 instructions:  167000002 cycles:   91180868 heartbeat IPC: 1.38247 cumulative IPC: 1.38611 (Simulation time: 0 hr 4 min 29 sec) 
Heartbeat CPU  0 instructions:  168000000 cycles:   91931118 heartbeat IPC: 1.33289 cumulative IPC: 1.38529 (Simulation time: 0 hr 4 min 31 sec) 
Heartbeat CPU  0 instructions:  169000000 cycles:   92659382 heartbeat IPC: 1.37313 cumulative IPC: 1.38512 (Simulation time: 0 hr 4 min 32 sec) 
Heartbeat CPU  0 instructions:  170000001 cycles:   93332170 heartbeat IPC: 1.48635 cumulative IPC: 1.38647 (Simulation time: 0 hr 4 min 34 sec) 
Heartbeat CPU  0 instructions:  171000000 cycles:   94085773 heartbeat IPC: 1.32696 cumulative IPC: 1.38559 (Simulation time: 0 hr 4 min 36 sec) 
Heartbeat CPU  0 instructions:  172000000 cycles:   94828129 heartbeat IPC: 1.34706 cumulative IPC: 1.38504 (Simulation time: 0 hr 4 min 37 sec) 
Heartbeat CPU  0 instructions:  173000001 cycles:   95517664 heartbeat IPC: 1.45025 cumulative IPC: 1.38589 (Simulation time: 0 hr 4 min 39 sec) 
Heartbeat CPU  0 instructions:  174000000 cycles:   96253540 heartbeat IPC: 1.35892 cumulative IPC: 1.38552 (Simulation time: 0 hr 4 min 41 sec) 
Heartbeat CPU  0 instructions:  175000000 cycles:   96958023 heartbeat IPC: 1.41948 cumulative IPC: 1.38596 (Simulation time: 0 hr 4 min 43 sec) 
Heartbeat CPU  0 instructions:  176000000 cycles:   97682033 heartbeat IPC: 1.38120 cumulative IPC: 1.38590 (Simulation time: 0 hr 4 min 44 sec) 
Heartbeat CPU  0 instructions:  177000002 cycles:   98462769 heartbeat IPC: 1.28085 cumulative IPC: 1.38443 (Simulation time: 0 hr 4 min 46 sec) 
Heartbeat CPU  0 instructions:  178000001 cycles:   99268982 heartbeat IPC: 1.24037 cumulative IPC: 1.38237 (Simulation time: 0 hr 4 min 48 sec) 
Heartbeat CPU  0 instructions:  179000003 cycles:  100015359 heartbeat IPC: 1.33981 cumulative IPC: 1.38181 (Simulation time: 0 hr 4 min 50 sec) 
Heartbeat CPU  0 instructions:  180000000 cycles:  100791003 heartbeat IPC: 1.28925 cumulative IPC: 1.38057 (Simulation time: 0 hr 4 min 52 sec) 
Heartbeat CPU  0 instructions:  181000000 cycles:  101562996 heartbeat IPC: 1.29535 cumulative IPC: 1.37945 (Simulation time: 0 hr 4 min 53 sec) 
Heartbeat CPU  0 instructions:  182000003 cycles:  102337000 heartbeat IPC: 1.29199 cumulative IPC: 1.37832 (Simulation time: 0 hr 4 min 55 sec) 
Heartbeat CPU  0 instructions:  183000002 cycles:  103134379 heartbeat IPC: 1.25411 cumulative IPC: 1.37667 (Simulation time: 0 hr 4 min 57 sec) 
Heartbeat CPU  0 instructions:  184000000 cycles:  103835453 heartbeat IPC: 1.42638 cumulative IPC: 1.37724 (Simulation time: 0 hr 4 min 59 sec) 
Heartbeat CPU  0 instructions:  185000002 cycles:  104571367 heartbeat IPC: 1.35886 cumulative IPC: 1.37703 (Simulation time: 0 hr 5 min 0 sec) 
Heartbeat CPU  0 instructions:  186000000 cycles:  105271073 heartbeat IPC: 1.42917 cumulative IPC: 1.37761 (Simulation time: 0 hr 5 min 2 sec) 
Heartbeat CPU  0 instructions:  187000001 cycles:  105962938 heartbeat IPC: 1.44537 cumulative IPC: 1.37835 (Simulation time: 0 hr 5 min 4 sec) 
Heartbeat CPU  0 instructions:  188000000 cycles:  106775004 heartbeat IPC: 1.23143 cumulative IPC: 1.37649 (Simulation time: 0 hr 5 min 6 sec) 
Heartbeat CPU  0 instructions:  189000000 cycles:  107573814 heartbeat IPC: 1.25186 cumulative IPC: 1.37495 (Simulation time: 0 hr 5 min 8 sec) 
Heartbeat CPU  0 instructions:  190000000 cycles:  108324304 heartbeat IPC: 1.33246 cumulative IPC: 1.37446 (Simulation time: 0 hr 5 min 9 sec) 
Heartbeat CPU  0 instructions:  191000003 cycles:  109100174 heartbeat IPC: 1.28888 cumulative IPC: 1.37346 (Simulation time: 0 hr 5 min 11 sec) 
Heartbeat CPU  0 instructions:  192000000 cycles:  109840289 heartbeat IPC: 1.35114 cumulative IPC: 1.37321 (Simulation time: 0 hr 5 min 13 sec) 
Heartbeat CPU  0 instructions:  193000000 cycles:  110642484 heartbeat IPC: 1.24658 cumulative IPC: 1.37171 (Simulation time: 0 hr 5 min 15 sec) 
Heartbeat CPU  0 instructions:  194000001 cycles:  111453523 heartbeat IPC: 1.23299 cumulative IPC: 1.37007 (Simulation time: 0 hr 5 min 16 sec) 
Heartbeat CPU  0 instructions:  195000001 cycles:  112157545 heartbeat IPC: 1.42041 cumulative IPC: 1.37059 (Simulation time: 0 hr 5 min 18 sec) 
Heartbeat CPU  0 instructions:  196000000 cycles:  112973064 heartbeat IPC: 1.22621 cumulative IPC: 1.36891 (Simulation time: 0 hr 5 min 20 sec) 
Heartbeat CPU  0 instructions:  197000001 cycles:  113741357 heartbeat IPC: 1.30159 cumulative IPC: 1.36818 (Simulation time: 0 hr 5 min 22 sec) 
Heartbeat CPU  0 instructions:  198000002 cycles:  114554952 heartbeat IPC: 1.22911 cumulative IPC: 1.36660 (Simulation time: 0 hr 5 min 24 sec) 
Heartbeat CPU  0 instructions:  199000002 cycles:  115431466 heartbeat IPC: 1.14088 cumulative IPC: 1.36387 (Simulation time: 0 hr 5 min 25 sec) 
Heartbeat CPU  0 instructions:  200000000 cycles:  116224429 heartbeat IPC: 1.26109 cumulative IPC: 1.36276 (Simulation time: 0 hr 5 min 27 sec) 
Heartbeat CPU  0 instructions:  201000000 cycles:  117081987 heartbeat IPC: 1.16610 cumulative IPC: 1.36049 (Simulation time: 0 hr 5 min 29 sec) 
Heartbeat CPU  0 instructions:  202000000 cycles:  117864381 heartbeat IPC: 1.27813 cumulative IPC: 1.35963 (Simulation time: 0 hr 5 min 31 sec) 
Heartbeat CPU  0 instructions:  203000000 cycles:  118764922 heartbeat IPC: 1.11044 cumulative IPC: 1.35668 (Simulation time: 0 hr 5 min 33 sec) 
Heartbeat CPU  0 instructions:  204000000 cycles:  119560691 heartbeat IPC: 1.25665 cumulative IPC: 1.35564 (Simulation time: 0 hr 5 min 34 sec) 
Heartbeat CPU  0 instructions:  205000001 cycles:  120426685 heartbeat IPC: 1.15474 cumulative IPC: 1.35340 (Simulation time: 0 hr 5 min 36 sec) 
Heartbeat CPU  0 instructions:  206000003 cycles:  121204008 heartbeat IPC: 1.28647 cumulative IPC: 1.35273 (Simulation time: 0 hr 5 min 38 sec) 
Heartbeat CPU  0 instructions:  207000003 cycles:  121953639 heartbeat IPC: 1.33399 cumulative IPC: 1.35256 (Simulation time: 0 hr 5 min 40 sec) 
Heartbeat CPU  0 instructions:  208000000 cycles:  122703921 heartbeat IPC: 1.33283 cumulative IPC: 1.35237 (Simulation time: 0 hr 5 min 41 sec) 
Heartbeat CPU  0 instructions:  209000001 cycles:  123492067 heartbeat IPC: 1.26880 cumulative IPC: 1.35155 (Simulation time: 0 hr 5 min 43 sec) 
Heartbeat CPU  0 instructions:  210000003 cycles:  124363403 heartbeat IPC: 1.14767 cumulative IPC: 1.34937 (Simulation time: 0 hr 5 min 45 sec) 
Heartbeat CPU  0 instructions:  211000001 cycles:  125111033 heartbeat IPC: 1.33756 cumulative IPC: 1.34927 (Simulation time: 0 hr 5 min 47 sec) 
Heartbeat CPU  0 instructions:  212000000 cycles:  125826583 heartbeat IPC: 1.39752 cumulative IPC: 1.34968 (Simulation time: 0 hr 5 min 49 sec) 
Heartbeat CPU  0 instructions:  213000000 cycles:  126643953 heartbeat IPC: 1.22344 cumulative IPC: 1.34845 (Simulation time: 0 hr 5 min 50 sec) 
Heartbeat CPU  0 instructions:  214000000 cycles:  127425681 heartbeat IPC: 1.27922 cumulative IPC: 1.34781 (Simulation time: 0 hr 5 min 52 sec) 
Heartbeat CPU  0 instructions:  215000001 cycles:  128275915 heartbeat IPC: 1.17615 cumulative IPC: 1.34610 (Simulation time: 0 hr 5 min 54 sec) 
Heartbeat CPU  0 instructions:  216000000 cycles:  129077431 heartbeat IPC: 1.24763 cumulative IPC: 1.34519 (Simulation time: 0 hr 5 min 56 sec) 
Heartbeat CPU  0 instructions:  217000003 cycles:  129967814 heartbeat IPC: 1.12312 cumulative IPC: 1.34292 (Simulation time: 0 hr 5 min 58 sec) 
Heartbeat CPU  0 instructions:  218000002 cycles:  130741318 heartbeat IPC: 1.29282 cumulative IPC: 1.34248 (Simulation time: 0 hr 5 min 59 sec) 
Heartbeat CPU  0 instructions:  219000001 cycles:  131459793 heartbeat IPC: 1.39184 cumulative IPC: 1.34288 (Simulation time: 0 hr 6 min 1 sec) 
Heartbeat CPU  0 instructions:  220000000 cycles:  132167715 heartbeat IPC: 1.41258 cumulative IPC: 1.34343 (Simulation time: 0 hr 6 min 3 sec) 
Heartbeat CPU  0 instructions:  221000000 cycles:  132838584 heartbeat IPC: 1.49060 cumulative IPC: 1.34453 (Simulation time: 0 hr 6 min 5 sec) 
Heartbeat CPU  0 instructions:  222000003 cycles:  133668668 heartbeat IPC: 1.20470 cumulative IPC: 1.34325 (Simulation time: 0 hr 6 min 6 sec) 
Heartbeat CPU  0 instructions:  223000002 cycles:  134377165 heartbeat IPC: 1.41144 cumulative IPC: 1.34378 (Simulation time: 0 hr 6 min 8 sec) 
Heartbeat CPU  0 instructions:  224000000 cycles:  135058382 heartbeat IPC: 1.46796 cumulative IPC: 1.34469 (Simulation time: 0 hr 6 min 10 sec) 
Heartbeat CPU  0 instructions:  225000000 cycles:  135768178 heartbeat IPC: 1.40886 cumulative IPC: 1.34518 (Simulation time: 0 hr 6 min 12 sec) 
Heartbeat CPU  0 instructions:  226000001 cycles:  136581145 heartbeat IPC: 1.23006 cumulative IPC: 1.34419 (Simulation time: 0 hr 6 min 13 sec) 
Heartbeat CPU  0 instructions:  227000002 cycles:  137260431 heartbeat IPC: 1.47214 cumulative IPC: 1.34511 (Simulation time: 0 hr 6 min 15 sec) 
Heartbeat CPU  0 instructions:  228000000 cycles:  137984855 heartbeat IPC: 1.38040 cumulative IPC: 1.34538 (Simulation time: 0 hr 6 min 17 sec) 
Heartbeat CPU  0 instructions:  229000000 cycles:  138688231 heartbeat IPC: 1.42171 cumulative IPC: 1.34594 (Simulation time: 0 hr 6 min 19 sec) 
Heartbeat CPU  0 instructions:  230000002 cycles:  139401412 heartbeat IPC: 1.40217 cumulative IPC: 1.34635 (Simulation time: 0 hr 6 min 20 sec) 
Heartbeat CPU  0 instructions:  231000000 cycles:  140181727 heartbeat IPC: 1.28153 cumulative IPC: 1.34583 (Simulation time: 0 hr 6 min 22 sec) 
Heartbeat CPU  0 instructions:  232000000 cycles:  140900232 heartbeat IPC: 1.39178 cumulative IPC: 1.34617 (Simulation time: 0 hr 6 min 24 sec) 
Heartbeat CPU  0 instructions:  233000001 cycles:  141586969 heartbeat IPC: 1.45616 cumulative IPC: 1.34693 (Simulation time: 0 hr 6 min 26 sec) 
Heartbeat CPU  0 instructions:  234000003 cycles:  142323307 heartbeat IPC: 1.35807 cumulative IPC: 1.34702 (Simulation time: 0 hr 6 min 27 sec) 
Heartbeat CPU  0 instructions:  235000002 cycles:  143101423 heartbeat IPC: 1.28515 cumulative IPC: 1.34654 (Simulation time: 0 hr 6 min 29 sec) 
Heartbeat CPU  0 instructions:  236000000 cycles:  143800764 heartbeat IPC: 1.42991 cumulative IPC: 1.34711 (Simulation time: 0 hr 6 min 31 sec) 
Heartbeat CPU  0 instructions:  237000002 cycles:  144483231 heartbeat IPC: 1.46528 cumulative IPC: 1.34791 (Simulation time: 0 hr 6 min 33 sec) 
Heartbeat CPU  0 instructions:  238000000 cycles:  145240574 heartbeat IPC: 1.32040 cumulative IPC: 1.34770 (Simulation time: 0 hr 6 min 34 sec) 
Heartbeat CPU  0 instructions:  239000000 cycles:  145993430 heartbeat IPC: 1.32828 cumulative IPC: 1.34756 (Simulation time: 0 hr 6 min 36 sec) 
Heartbeat CPU  0 instructions:  240000000 cycles:  146683255 heartbeat IPC: 1.44964 cumulative IPC: 1.34824 (Simulation time: 0 hr 6 min 38 sec) 
Heartbeat CPU  0 instructions:  241000002 cycles:  147396828 heartbeat IPC: 1.40140 cumulative IPC: 1.34860 (Simulation time: 0 hr 6 min 40 sec) 
Heartbeat CPU  0 instructions:  242000002 cycles:  148139222 heartbeat IPC: 1.34699 cumulative IPC: 1.34859 (Simulation time: 0 hr 6 min 41 sec) 
Heartbeat CPU  0 instructions:  243000002 cycles:  148884005 heartbeat IPC: 1.34267 cumulative IPC: 1.34855 (Simulation time: 0 hr 6 min 43 sec) 
Heartbeat CPU  0 instructions:  244000000 cycles:  149605276 heartbeat IPC: 1.38644 cumulative IPC: 1.34880 (Simulation time: 0 hr 6 min 45 sec) 
Heartbeat CPU  0 instructions:  245000000 cycles:  150306793 heartbeat IPC: 1.42548 cumulative IPC: 1.34931 (Simulation time: 0 hr 6 min 47 sec) 
Heartbeat CPU  0 instructions:  246000000 cycles:  150975674 heartbeat IPC: 1.49503 cumulative IPC: 1.35021 (Simulation time: 0 hr 6 min 48 sec) 
Heartbeat CPU  0 instructions:  247000001 cycles:  151722373 heartbeat IPC: 1.33923 cumulative IPC: 1.35013 (Simulation time: 0 hr 6 min 50 sec) 
Heartbeat CPU  0 instructions:  248000000 cycles:  152546266 heartbeat IPC: 1.21375 cumulative IPC: 1.34911 (Simulation time: 0 hr 6 min 52 sec) 
Heartbeat CPU  0 instructions:  249000000 cycles:  153226115 heartbeat IPC: 1.47091 cumulative IPC: 1.34986 (Simulation time: 0 hr 6 min 54 sec) 
Heartbeat CPU  0 instructions:  250000001 cycles:  153947134 heartbeat IPC: 1.38693 cumulative IPC: 1.35010 (Simulation time: 0 hr 6 min 55 sec) 
Heartbeat CPU  0 instructions:  251000000 cycles:  154645844 heartbeat IPC: 1.43121 cumulative IPC: 1.35061 (Simulation time: 0 hr 6 min 57 sec) 
Heartbeat CPU  0 instructions:  252000000 cycles:  155336780 heartbeat IPC: 1.44731 cumulative IPC: 1.35120 (Simulation time: 0 hr 6 min 59 sec) 
Heartbeat CPU  0 instructions:  253000002 cycles:  156187409 heartbeat IPC: 1.17560 cumulative IPC: 1.34988 (Simulation time: 0 hr 7 min 1 sec) 
Heartbeat CPU  0 instructions:  254000002 cycles:  156892395 heartbeat IPC: 1.41847 cumulative IPC: 1.35031 (Simulation time: 0 hr 7 min 2 sec) 
Heartbeat CPU  0 instructions:  255000000 cycles:  157567463 heartbeat IPC: 1.48133 cumulative IPC: 1.35108 (Simulation time: 0 hr 7 min 4 sec) 
Heartbeat CPU  0 instructions:  256000000 cycles:  158384370 heartbeat IPC: 1.22413 cumulative IPC: 1.35018 (Simulation time: 0 hr 7 min 6 sec) 
Heartbeat CPU  0 instructions:  257000000 cycles:  159089186 heartbeat IPC: 1.41881 cumulative IPC: 1.35059 (Simulation time: 0 hr 7 min 8 sec) 
Heartbeat CPU  0 instructions:  258000002 cycles:  159763931 heartbeat IPC: 1.48204 cumulative IPC: 1.35135 (Simulation time: 0 hr 7 min 9 sec) 
Heartbeat CPU  0 instructions:  259000000 cycles:  160583130 heartbeat IPC: 1.22070 cumulative IPC: 1.35044 (Simulation time: 0 hr 7 min 11 sec) 
Heartbeat CPU  0 instructions:  260000000 cycles:  161289709 heartbeat IPC: 1.41527 cumulative IPC: 1.35083 (Simulation time: 0 hr 7 min 13 sec) 
Heartbeat CPU  0 instructions:  261000002 cycles:  161966335 heartbeat IPC: 1.47792 cumulative IPC: 1.35155 (Simulation time: 0 hr 7 min 15 sec) 
Heartbeat CPU  0 instructions:  262000000 cycles:  162781280 heartbeat IPC: 1.22707 cumulative IPC: 1.35071 (Simulation time: 0 hr 7 min 17 sec) 
Heartbeat CPU  0 instructions:  263000002 cycles:  163486021 heartbeat IPC: 1.41896 cumulative IPC: 1.35111 (Simulation time: 0 hr 7 min 18 sec) 
Heartbeat CPU  0 instructions:  264000000 cycles:  164160701 heartbeat IPC: 1.48218 cumulative IPC: 1.35183 (Simulation time: 0 hr 7 min 20 sec) 
Heartbeat CPU  0 instructions:  265000000 cycles:  164979103 heartbeat IPC: 1.22189 cumulative IPC: 1.35096 (Simulation time: 0 hr 7 min 22 sec) 
Heartbeat CPU  0 instructions:  266000000 cycles:  165683135 heartbeat IPC: 1.42039 cumulative IPC: 1.35136 (Simulation time: 0 hr 7 min 23 sec) 
Heartbeat CPU  0 instructions:  267000002 cycles:  166357481 heartbeat IPC: 1.48292 cumulative IPC: 1.35208 (Simulation time: 0 hr 7 min 25 sec) 
Heartbeat CPU  0 instructions:  268000000 cycles:  167172993 heartbeat IPC: 1.22622 cumulative IPC: 1.35125 (Simulation time: 0 hr 7 min 27 sec) 
Heartbeat CPU  0 instructions:  269000002 cycles:  167878522 heartbeat IPC: 1.41738 cumulative IPC: 1.35163 (Simulation time: 0 hr 7 min 29 sec) 
Heartbeat CPU  0 instructions:  270000002 cycles:  168553050 heartbeat IPC: 1.48252 cumulative IPC: 1.35233 (Simulation time: 0 hr 7 min 30 sec) 
Heartbeat CPU  0 instructions:  271000000 cycles:  169371886 heartbeat IPC: 1.22124 cumulative IPC: 1.35148 (Simulation time: 0 hr 7 min 32 sec) 
Heartbeat CPU  0 instructions:  272000000 cycles:  170076502 heartbeat IPC: 1.41921 cumulative IPC: 1.35186 (Simulation time: 0 hr 7 min 34 sec) 
Heartbeat CPU  0 instructions:  273000002 cycles:  170750754 heartbeat IPC: 1.48313 cumulative IPC: 1.35255 (Simulation time: 0 hr 7 min 36 sec) 
Heartbeat CPU  0 instructions:  274000002 cycles:  171567632 heartbeat IPC: 1.22417 cumulative IPC: 1.35173 (Simulation time: 0 hr 7 min 38 sec) 
Heartbeat CPU  0 instructions:  275000000 cycles:  172272958 heartbeat IPC: 1.41778 cumulative IPC: 1.35209 (Simulation time: 0 hr 7 min 39 sec) 
Heartbeat CPU  0 instructions:  276000000 cycles:  172947492 heartbeat IPC: 1.48250 cumulative IPC: 1.35277 (Simulation time: 0 hr 7 min 41 sec) 
Heartbeat CPU  0 instructions:  277000003 cycles:  173768955 heartbeat IPC: 1.21734 cumulative IPC: 1.35192 (Simulation time: 0 hr 7 min 43 sec) 
Heartbeat CPU  0 instructions:  278000002 cycles:  174478556 heartbeat IPC: 1.40924 cumulative IPC: 1.35223 (Simulation time: 0 hr 7 min 45 sec) 
Heartbeat CPU  0 instructions:  279000001 cycles:  175150441 heartbeat IPC: 1.48835 cumulative IPC: 1.35292 (Simulation time: 0 hr 7 min 46 sec) 
Heartbeat CPU  0 instructions:  280000000 cycles:  175968041 heartbeat IPC: 1.22309 cumulative IPC: 1.35212 (Simulation time: 0 hr 7 min 48 sec) 
Heartbeat CPU  0 instructions:  281000000 cycles:  176673943 heartbeat IPC: 1.41663 cumulative IPC: 1.35246 (Simulation time: 0 hr 7 min 50 sec) 
Heartbeat CPU  0 instructions:  282000002 cycles:  177348065 heartbeat IPC: 1.48341 cumulative IPC: 1.35312 (Simulation time: 0 hr 7 min 52 sec) 
Heartbeat CPU  0 instructions:  283000002 cycles:  178163807 heartbeat IPC: 1.22588 cumulative IPC: 1.35235 (Simulation time: 0 hr 7 min 53 sec) 
Heartbeat CPU  0 instructions:  284000000 cycles:  178869342 heartbeat IPC: 1.41736 cumulative IPC: 1.35269 (Simulation time: 0 hr 7 min 55 sec) 
Heartbeat CPU  0 instructions:  285000000 cycles:  179544041 heartbeat IPC: 1.48214 cumulative IPC: 1.35333 (Simulation time: 0 hr 7 min 57 sec) 
Heartbeat CPU  0 instructions:  286000000 cycles:  180356610 heartbeat IPC: 1.23066 cumulative IPC: 1.35260 (Simulation time: 0 hr 7 min 59 sec) 
Heartbeat CPU  0 instructions:  287000000 cycles:  181065399 heartbeat IPC: 1.41086 cumulative IPC: 1.35290 (Simulation time: 0 hr 8 min 0 sec) 
Heartbeat CPU  0 instructions:  288000000 cycles:  181738451 heartbeat IPC: 1.48577 cumulative IPC: 1.35355 (Simulation time: 0 hr 8 min 2 sec) 
Heartbeat CPU  0 instructions:  289000003 cycles:  182559156 heartbeat IPC: 1.21847 cumulative IPC: 1.35275 (Simulation time: 0 hr 8 min 4 sec) 
Heartbeat CPU  0 instructions:  290000002 cycles:  183268547 heartbeat IPC: 1.40966 cumulative IPC: 1.35304 (Simulation time: 0 hr 8 min 6 sec) 
Heartbeat CPU  0 instructions:  291000001 cycles:  183936058 heartbeat IPC: 1.49810 cumulative IPC: 1.35373 (Simulation time: 0 hr 8 min 7 sec) 
Heartbeat CPU  0 instructions:  292000000 cycles:  184691596 heartbeat IPC: 1.32356 cumulative IPC: 1.35357 (Simulation time: 0 hr 8 min 9 sec) 
Heartbeat CPU  0 instructions:  293000001 cycles:  185408413 heartbeat IPC: 1.39506 cumulative IPC: 1.35378 (Simulation time: 0 hr 8 min 11 sec) 
Heartbeat CPU  0 instructions:  294000001 cycles:  186089341 heartbeat IPC: 1.46858 cumulative IPC: 1.35432 (Simulation time: 0 hr 8 min 13 sec) 
Heartbeat CPU  0 instructions:  295000002 cycles:  186815212 heartbeat IPC: 1.37766 cumulative IPC: 1.35444 (Simulation time: 0 hr 8 min 14 sec) 
Heartbeat CPU  0 instructions:  296000000 cycles:  187533952 heartbeat IPC: 1.39132 cumulative IPC: 1.35462 (Simulation time: 0 hr 8 min 16 sec) 
Heartbeat CPU  0 instructions:  297000001 cycles:  188225632 heartbeat IPC: 1.44576 cumulative IPC: 1.35506 (Simulation time: 0 hr 8 min 18 sec) 
Heartbeat CPU  0 instructions:  298000000 cycles:  188950991 heartbeat IPC: 1.37863 cumulative IPC: 1.35517 (Simulation time: 0 hr 8 min 20 sec) 
Heartbeat CPU  0 instructions:  299000000 cycles:  189674378 heartbeat IPC: 1.38239 cumulative IPC: 1.35531 (Simulation time: 0 hr 8 min 21 sec) 
Heartbeat CPU  0 instructions:  300000000 cycles:  190372051 heartbeat IPC: 1.43334 cumulative IPC: 1.35568 (Simulation time: 0 hr 8 min 23 sec) 
Heartbeat CPU  0 instructions:  301000003 cycles:  191081909 heartbeat IPC: 1.40874 cumulative IPC: 1.35593 (Simulation time: 0 hr 8 min 25 sec) 
Heartbeat CPU  0 instructions:  302000003 cycles:  191802704 heartbeat IPC: 1.38736 cumulative IPC: 1.35608 (Simulation time: 0 hr 8 min 27 sec) 
Heartbeat CPU  0 instructions:  303000002 cycles:  192507521 heartbeat IPC: 1.41881 cumulative IPC: 1.35638 (Simulation time: 0 hr 8 min 28 sec) 
Heartbeat CPU  0 instructions:  304000000 cycles:  193235624 heartbeat IPC: 1.37343 cumulative IPC: 1.35646 (Simulation time: 0 hr 8 min 30 sec) 
Heartbeat CPU  0 instructions:  305000001 cycles:  193927096 heartbeat IPC: 1.44619 cumulative IPC: 1.35687 (Simulation time: 0 hr 8 min 32 sec) 
Heartbeat CPU  0 instructions:  306000003 cycles:  194633344 heartbeat IPC: 1.41594 cumulative IPC: 1.35714 (Simulation time: 0 hr 8 min 34 sec) 
Heartbeat CPU  0 instructions:  307000000 cycles:  195371414 heartbeat IPC: 1.35488 cumulative IPC: 1.35713 (Simulation time: 0 hr 8 min 35 sec) 
Heartbeat CPU  0 instructions:  308000000 cycles:  196053429 heartbeat IPC: 1.46624 cumulative IPC: 1.35762 (Simulation time: 0 hr 8 min 37 sec) 
Heartbeat CPU  0 instructions:  309000002 cycles:  196773595 heartbeat IPC: 1.38857 cumulative IPC: 1.35776 (Simulation time: 0 hr 8 min 39 sec) 
Heartbeat CPU  0 instructions:  310000000 cycles:  197569313 heartbeat IPC: 1.25672 cumulative IPC: 1.35724 (Simulation time: 0 hr 8 min 41 sec) 
Heartbeat CPU  0 instructions:  311000001 cycles:  198249505 heartbeat IPC: 1.47017 cumulative IPC: 1.35774 (Simulation time: 0 hr 8 min 42 sec) 
Heartbeat CPU  0 instructions:  312000000 cycles:  198970571 heartbeat IPC: 1.38683 cumulative IPC: 1.35787 (Simulation time: 0 hr 8 min 44 sec) 
Heartbeat CPU  0 instructions:  313000002 cycles:  199828649 heartbeat IPC: 1.16540 cumulative IPC: 1.35682 (Simulation time: 0 hr 8 min 46 sec) 
Heartbeat CPU  0 instructions:  314000001 cycles:  200574853 heartbeat IPC: 1.34011 cumulative IPC: 1.35674 (Simulation time: 0 hr 8 min 48 sec) 
Heartbeat CPU  0 instructions:  315000000 cycles:  201295321 heartbeat IPC: 1.38799 cumulative IPC: 1.35688 (Simulation time: 0 hr 8 min 49 sec) 
Heartbeat CPU  0 instructions:  316000000 cycles:  202032590 heartbeat IPC: 1.35636 cumulative IPC: 1.35688 (Simulation time: 0 hr 8 min 51 sec) 
Heartbeat CPU  0 instructions:  317000001 cycles:  202833989 heartbeat IPC: 1.24782 cumulative IPC: 1.35634 (Simulation time: 0 hr 8 min 53 sec) 
Heartbeat CPU  0 instructions:  318000001 cycles:  203695984 heartbeat IPC: 1.16010 cumulative IPC: 1.35528 (Simulation time: 0 hr 8 min 55 sec) 
Heartbeat CPU  0 instructions:  319000003 cycles:  204388744 heartbeat IPC: 1.44350 cumulative IPC: 1.35566 (Simulation time: 0 hr 8 min 56 sec) 
Heartbeat CPU  0 instructions:  320000000 cycles:  205096436 heartbeat IPC: 1.41304 cumulative IPC: 1.35591 (Simulation time: 0 hr 8 min 58 sec) 
Heartbeat CPU  0 instructions:  321000001 cycles:  205896236 heartbeat IPC: 1.25031 cumulative IPC: 1.35539 (Simulation time: 0 hr 9 min 0 sec) 
Heartbeat CPU  0 instructions:  322000003 cycles:  206687326 heartbeat IPC: 1.26408 cumulative IPC: 1.35495 (Simulation time: 0 hr 9 min 2 sec) 
Heartbeat CPU  0 instructions:  323000001 cycles:  207473130 heartbeat IPC: 1.27258 cumulative IPC: 1.35456 (Simulation time: 0 hr 9 min 4 sec) 
Heartbeat CPU  0 instructions:  324000000 cycles:  208191626 heartbeat IPC: 1.39179 cumulative IPC: 1.35472 (Simulation time: 0 hr 9 min 5 sec) 
Heartbeat CPU  0 instructions:  325000000 cycles:  208926755 heartbeat IPC: 1.36031 cumulative IPC: 1.35475 (Simulation time: 0 hr 9 min 7 sec) 
Heartbeat CPU  0 instructions:  326000003 cycles:  209732942 heartbeat IPC: 1.24041 cumulative IPC: 1.35419 (Simulation time: 0 hr 9 min 9 sec) 
Heartbeat CPU  0 instructions:  327000000 cycles:  210475459 heartbeat IPC: 1.34677 cumulative IPC: 1.35416 (Simulation time: 0 hr 9 min 11 sec) 
Heartbeat CPU  0 instructions:  328000000 cycles:  211259862 heartbeat IPC: 1.27485 cumulative IPC: 1.35379 (Simulation time: 0 hr 9 min 12 sec) 
Heartbeat CPU  0 instructions:  329000001 cycles:  212057360 heartbeat IPC: 1.25392 cumulative IPC: 1.35332 (Simulation time: 0 hr 9 min 14 sec) 
Heartbeat CPU  0 instructions:  330000001 cycles:  212722094 heartbeat IPC: 1.50436 cumulative IPC: 1.35391 (Simulation time: 0 hr 9 min 16 sec) 
Heartbeat CPU  0 instructions:  331000000 cycles:  213423385 heartbeat IPC: 1.42594 cumulative IPC: 1.35421 (Simulation time: 0 hr 9 min 18 sec) 
Heartbeat CPU  0 instructions:  332000000 cycles:  214145585 heartbeat IPC: 1.38466 cumulative IPC: 1.35434 (Simulation time: 0 hr 9 min 19 sec) 
Heartbeat CPU  0 instructions:  333000001 cycles:  214922922 heartbeat IPC: 1.28644 cumulative IPC: 1.35403 (Simulation time: 0 hr 9 min 21 sec) 
Heartbeat CPU  0 instructions:  334000002 cycles:  215695211 heartbeat IPC: 1.29485 cumulative IPC: 1.35377 (Simulation time: 0 hr 9 min 23 sec) 
Heartbeat CPU  0 instructions:  335000000 cycles:  216516291 heartbeat IPC: 1.21791 cumulative IPC: 1.35312 (Simulation time: 0 hr 9 min 25 sec) 
Heartbeat CPU  0 instructions:  336000000 cycles:  217236478 heartbeat IPC: 1.38853 cumulative IPC: 1.35327 (Simulation time: 0 hr 9 min 26 sec) 
Heartbeat CPU  0 instructions:  337000002 cycles:  217951989 heartbeat IPC: 1.39761 cumulative IPC: 1.35345 (Simulation time: 0 hr 9 min 28 sec) 
Heartbeat CPU  0 instructions:  338000003 cycles:  218744991 heartbeat IPC: 1.26103 cumulative IPC: 1.35303 (Simulation time: 0 hr 9 min 30 sec) 
Heartbeat CPU  0 instructions:  339000002 cycles:  219488248 heartbeat IPC: 1.34543 cumulative IPC: 1.35300 (Simulation time: 0 hr 9 min 32 sec) 
Heartbeat CPU  0 instructions:  340000000 cycles:  220260247 heartbeat IPC: 1.29534 cumulative IPC: 1.35275 (Simulation time: 0 hr 9 min 33 sec) 
Heartbeat CPU  0 instructions:  341000001 cycles:  221059781 heartbeat IPC: 1.25073 cumulative IPC: 1.35229 (Simulation time: 0 hr 9 min 35 sec) 
Heartbeat CPU  0 instructions:  342000003 cycles:  221737220 heartbeat IPC: 1.47615 cumulative IPC: 1.35276 (Simulation time: 0 hr 9 min 37 sec) 
Heartbeat CPU  0 instructions:  343000003 cycles:  222502823 heartbeat IPC: 1.30616 cumulative IPC: 1.35256 (Simulation time: 0 hr 9 min 39 sec) 
Heartbeat CPU  0 instructions:  344000000 cycles:  223232114 heartbeat IPC: 1.37119 cumulative IPC: 1.35264 (Simulation time: 0 hr 9 min 40 sec) 
Heartbeat CPU  0 instructions:  345000003 cycles:  223902548 heartbeat IPC: 1.49158 cumulative IPC: 1.35315 (Simulation time: 0 hr 9 min 42 sec) 
Heartbeat CPU  0 instructions:  346000000 cycles:  224620018 heartbeat IPC: 1.39378 cumulative IPC: 1.35331 (Simulation time: 0 hr 9 min 44 sec) 
Heartbeat CPU  0 instructions:  347000001 cycles:  225352786 heartbeat IPC: 1.36469 cumulative IPC: 1.35336 (Simulation time: 0 hr 9 min 46 sec) 
Heartbeat CPU  0 instructions:  348000000 cycles:  226084158 heartbeat IPC: 1.36729 cumulative IPC: 1.35342 (Simulation time: 0 hr 9 min 47 sec) 
Heartbeat CPU  0 instructions:  349000003 cycles:  226816426 heartbeat IPC: 1.36562 cumulative IPC: 1.35346 (Simulation time: 0 hr 9 min 49 sec) 
Heartbeat CPU  0 instructions:  350000003 cycles:  227534683 heartbeat IPC: 1.39226 cumulative IPC: 1.35362 (Simulation time: 0 hr 9 min 51 sec) 
Heartbeat CPU  0 instructions:  351000002 cycles:  228321499 heartbeat IPC: 1.27094 cumulative IPC: 1.35326 (Simulation time: 0 hr 9 min 53 sec) 
Heartbeat CPU  0 instructions:  352000000 cycles:  229014069 heartbeat IPC: 1.44389 cumulative IPC: 1.35360 (Simulation time: 0 hr 9 min 54 sec) 
Heartbeat CPU  0 instructions:  353000003 cycles:  229758807 heartbeat IPC: 1.34276 cumulative IPC: 1.35356 (Simulation time: 0 hr 9 min 56 sec) 
Heartbeat CPU  0 instructions:  354000002 cycles:  230449379 heartbeat IPC: 1.44807 cumulative IPC: 1.35391 (Simulation time: 0 hr 9 min 58 sec) 
Heartbeat CPU  0 instructions:  355000002 cycles:  231164819 heartbeat IPC: 1.39774 cumulative IPC: 1.35407 (Simulation time: 0 hr 10 min 0 sec) 
Heartbeat CPU  0 instructions:  356000000 cycles:  231931408 heartbeat IPC: 1.30448 cumulative IPC: 1.35387 (Simulation time: 0 hr 10 min 1 sec) 
Heartbeat CPU  0 instructions:  357000002 cycles:  232700265 heartbeat IPC: 1.30063 cumulative IPC: 1.35366 (Simulation time: 0 hr 10 min 3 sec) 
Heartbeat CPU  0 instructions:  358000002 cycles:  233397745 heartbeat IPC: 1.43373 cumulative IPC: 1.35395 (Simulation time: 0 hr 10 min 5 sec) 
Heartbeat CPU  0 instructions:  359000002 cycles:  234112363 heartbeat IPC: 1.39935 cumulative IPC: 1.35412 (Simulation time: 0 hr 10 min 7 sec) 
Heartbeat CPU  0 instructions:  360000000 cycles:  234805787 heartbeat IPC: 1.44212 cumulative IPC: 1.35444 (Simulation time: 0 hr 10 min 8 sec) 
Heartbeat CPU  0 instructions:  361000000 cycles:  235496288 heartbeat IPC: 1.44822 cumulative IPC: 1.35477 (Simulation time: 0 hr 10 min 10 sec) 
Heartbeat CPU  0 instructions:  362000003 cycles:  236232066 heartbeat IPC: 1.35911 cumulative IPC: 1.35479 (Simulation time: 0 hr 10 min 12 sec) 
Heartbeat CPU  0 instructions:  363000000 cycles:  236953867 heartbeat IPC: 1.38542 cumulative IPC: 1.35490 (Simulation time: 0 hr 10 min 14 sec) 
Heartbeat CPU  0 instructions:  364000000 cycles:  237669614 heartbeat IPC: 1.39714 cumulative IPC: 1.35506 (Simulation time: 0 hr 10 min 15 sec) 
Heartbeat CPU  0 instructions:  365000001 cycles:  238399946 heartbeat IPC: 1.36924 cumulative IPC: 1.35511 (Simulation time: 0 hr 10 min 17 sec) 
Heartbeat CPU  0 instructions:  366000003 cycles:  239200024 heartbeat IPC: 1.24988 cumulative IPC: 1.35468 (Simulation time: 0 hr 10 min 19 sec) 
Heartbeat CPU  0 instructions:  367000001 cycles:  239948322 heartbeat IPC: 1.33636 cumulative IPC: 1.35461 (Simulation time: 0 hr 10 min 21 sec) 
Heartbeat CPU  0 instructions:  368000000 cycles:  240755452 heartbeat IPC: 1.23896 cumulative IPC: 1.35414 (Simulation time: 0 hr 10 min 22 sec) 
Heartbeat CPU  0 instructions:  369000000 cycles:  241489711 heartbeat IPC: 1.36192 cumulative IPC: 1.35417 (Simulation time: 0 hr 10 min 24 sec) 
Heartbeat CPU  0 instructions:  370000001 cycles:  242162087 heartbeat IPC: 1.48726 cumulative IPC: 1.35462 (Simulation time: 0 hr 10 min 26 sec) 
Heartbeat CPU  0 instructions:  371000001 cycles:  242897124 heartbeat IPC: 1.36048 cumulative IPC: 1.35464 (Simulation time: 0 hr 10 min 28 sec) 
Heartbeat CPU  0 instructions:  372000000 cycles:  243666010 heartbeat IPC: 1.30058 cumulative IPC: 1.35443 (Simulation time: 0 hr 10 min 29 sec) 
Heartbeat CPU  0 instructions:  373000000 cycles:  244394391 heartbeat IPC: 1.37291 cumulative IPC: 1.35450 (Simulation time: 0 hr 10 min 31 sec) 
Heartbeat CPU  0 instructions:  374000002 cycles:  245156042 heartbeat IPC: 1.31294 cumulative IPC: 1.35434 (Simulation time: 0 hr 10 min 33 sec) 
Heartbeat CPU  0 instructions:  375000000 cycles:  245883891 heartbeat IPC: 1.37391 cumulative IPC: 1.35441 (Simulation time: 0 hr 10 min 35 sec) 
Heartbeat CPU  0 instructions:  376000000 cycles:  246623049 heartbeat IPC: 1.35289 cumulative IPC: 1.35441 (Simulation time: 0 hr 10 min 36 sec) 
Heartbeat CPU  0 instructions:  377000001 cycles:  247336667 heartbeat IPC: 1.40131 cumulative IPC: 1.35457 (Simulation time: 0 hr 10 min 38 sec) 
Heartbeat CPU  0 instructions:  378000003 cycles:  248129280 heartbeat IPC: 1.26165 cumulative IPC: 1.35421 (Simulation time: 0 hr 10 min 40 sec) 
Heartbeat CPU  0 instructions:  379000002 cycles:  248829023 heartbeat IPC: 1.42909 cumulative IPC: 1.35447 (Simulation time: 0 hr 10 min 42 sec) 
Heartbeat CPU  0 instructions:  380000000 cycles:  249560655 heartbeat IPC: 1.36680 cumulative IPC: 1.35451 (Simulation time: 0 hr 10 min 43 sec) 
Heartbeat CPU  0 instructions:  381000000 cycles:  250336869 heartbeat IPC: 1.28830 cumulative IPC: 1.35426 (Simulation time: 0 hr 10 min 45 sec) 
Heartbeat CPU  0 instructions:  382000001 cycles:  251027067 heartbeat IPC: 1.44886 cumulative IPC: 1.35458 (Simulation time: 0 hr 10 min 47 sec) 
Heartbeat CPU  0 instructions:  383000002 cycles:  251736225 heartbeat IPC: 1.41012 cumulative IPC: 1.35477 (Simulation time: 0 hr 10 min 49 sec) 
Heartbeat CPU  0 instructions:  384000000 cycles:  252442160 heartbeat IPC: 1.41656 cumulative IPC: 1.35497 (Simulation time: 0 hr 10 min 51 sec) 
Heartbeat CPU  0 instructions:  385000001 cycles:  253222815 heartbeat IPC: 1.28098 cumulative IPC: 1.35470 (Simulation time: 0 hr 10 min 52 sec) 
Heartbeat CPU  0 instructions:  386000003 cycles:  253976176 heartbeat IPC: 1.32739 cumulative IPC: 1.35460 (Simulation time: 0 hr 10 min 54 sec) 
Heartbeat CPU  0 instructions:  387000002 cycles:  254696005 heartbeat IPC: 1.38922 cumulative IPC: 1.35472 (Simulation time: 0 hr 10 min 56 sec) 
Heartbeat CPU  0 instructions:  388000000 cycles:  255421690 heartbeat IPC: 1.37801 cumulative IPC: 1.35480 (Simulation time: 0 hr 10 min 58 sec) 
Heartbeat CPU  0 instructions:  389000000 cycles:  256083310 heartbeat IPC: 1.51144 cumulative IPC: 1.35529 (Simulation time: 0 hr 10 min 59 sec) 
Heartbeat CPU  0 instructions:  390000003 cycles:  256782392 heartbeat IPC: 1.43045 cumulative IPC: 1.35553 (Simulation time: 0 hr 11 min 1 sec) 
Heartbeat CPU  0 instructions:  391000000 cycles:  257518197 heartbeat IPC: 1.35905 cumulative IPC: 1.35554 (Simulation time: 0 hr 11 min 3 sec) 
Heartbeat CPU  0 instructions:  392000000 cycles:  258240925 heartbeat IPC: 1.38365 cumulative IPC: 1.35564 (Simulation time: 0 hr 11 min 5 sec) 
Heartbeat CPU  0 instructions:  393000000 cycles:  258923793 heartbeat IPC: 1.46441 cumulative IPC: 1.35598 (Simulation time: 0 hr 11 min 6 sec) 
Heartbeat CPU  0 instructions:  394000000 cycles:  259660429 heartbeat IPC: 1.35752 cumulative IPC: 1.35599 (Simulation time: 0 hr 11 min 8 sec) 
Heartbeat CPU  0 instructions:  395000000 cycles:  260434285 heartbeat IPC: 1.29223 cumulative IPC: 1.35576 (Simulation time: 0 hr 11 min 10 sec) 
Heartbeat CPU  0 instructions:  396000000 cycles:  261172625 heartbeat IPC: 1.35439 cumulative IPC: 1.35576 (Simulation time: 0 hr 11 min 12 sec) 
Heartbeat CPU  0 instructions:  397000000 cycles:  262017997 heartbeat IPC: 1.18291 cumulative IPC: 1.35509 (Simulation time: 0 hr 11 min 13 sec) 
Heartbeat CPU  0 instructions:  398000000 cycles:  262721335 heartbeat IPC: 1.42179 cumulative IPC: 1.35530 (Simulation time: 0 hr 11 min 15 sec) 
Heartbeat CPU  0 instructions:  399000003 cycles:  263467662 heartbeat IPC: 1.33990 cumulative IPC: 1.35525 (Simulation time: 0 hr 11 min 17 sec) 
Heartbeat CPU  0 instructions:  400000000 cycles:  264183793 heartbeat IPC: 1.39639 cumulative IPC: 1.35538 (Simulation time: 0 hr 11 min 19 sec) 
Heartbeat CPU  0 instructions:  401000001 cycles:  264911187 heartbeat IPC: 1.37477 cumulative IPC: 1.35545 (Simulation time: 0 hr 11 min 20 sec) 
Heartbeat CPU  0 instructions:  402000003 cycles:  265628678 heartbeat IPC: 1.39375 cumulative IPC: 1.35557 (Simulation time: 0 hr 11 min 22 sec) 
Heartbeat CPU  0 instructions:  403000002 cycles:  266385183 heartbeat IPC: 1.32187 cumulative IPC: 1.35546 (Simulation time: 0 hr 11 min 24 sec) 
Heartbeat CPU  0 instructions:  404000000 cycles:  267158079 heartbeat IPC: 1.29383 cumulative IPC: 1.35524 (Simulation time: 0 hr 11 min 26 sec) 
Heartbeat CPU  0 instructions:  405000002 cycles:  267849124 heartbeat IPC: 1.44709 cumulative IPC: 1.35553 (Simulation time: 0 hr 11 min 27 sec) 
Heartbeat CPU  0 instructions:  406000000 cycles:  268598534 heartbeat IPC: 1.33438 cumulative IPC: 1.35546 (Simulation time: 0 hr 11 min 29 sec) 
Heartbeat CPU  0 instructions:  407000000 cycles:  269327628 heartbeat IPC: 1.37157 cumulative IPC: 1.35551 (Simulation time: 0 hr 11 min 31 sec) 
Heartbeat CPU  0 instructions:  408000000 cycles:  270028041 heartbeat IPC: 1.42773 cumulative IPC: 1.35573 (Simulation time: 0 hr 11 min 33 sec) 
Heartbeat CPU  0 instructions:  409000003 cycles:  270819482 heartbeat IPC: 1.26352 cumulative IPC: 1.35541 (Simulation time: 0 hr 11 min 34 sec) 
Heartbeat CPU  0 instructions:  410000000 cycles:  271535850 heartbeat IPC: 1.39593 cumulative IPC: 1.35554 (Simulation time: 0 hr 11 min 36 sec) 
Heartbeat CPU  0 instructions:  411000003 cycles:  272253606 heartbeat IPC: 1.39324 cumulative IPC: 1.35565 (Simulation time: 0 hr 11 min 38 sec) 
Heartbeat CPU  0 instructions:  412000000 cycles:  273132739 heartbeat IPC: 1.13748 cumulative IPC: 1.35482 (Simulation time: 0 hr 11 min 40 sec) 
Heartbeat CPU  0 instructions:  413000000 cycles:  274108161 heartbeat IPC: 1.02520 cumulative IPC: 1.35343 (Simulation time: 0 hr 11 min 41 sec) 
Heartbeat CPU  0 instructions:  414000001 cycles:  282001043 heartbeat IPC: 0.12670 cumulative IPC: 1.31295 (Simulation time: 0 hr 11 min 47 sec) 
Heartbeat CPU  0 instructions:  415000002 cycles:  286090579 heartbeat IPC: 0.24453 cumulative IPC: 1.29498 (Simulation time: 0 hr 11 min 50 sec) 
Heartbeat CPU  0 instructions:  416000000 cycles:  289848914 heartbeat IPC: 0.26607 cumulative IPC: 1.27933 (Simulation time: 0 hr 11 min 52 sec) 
Heartbeat CPU  0 instructions:  417000001 cycles:  293365336 heartbeat IPC: 0.28438 cumulative IPC: 1.26536 (Simulation time: 0 hr 11 min 55 sec) 
Heartbeat CPU  0 instructions:  418000001 cycles:  299284980 heartbeat IPC: 0.16893 cumulative IPC: 1.24005 (Simulation time: 0 hr 12 min 0 sec) 
Heartbeat CPU  0 instructions:  419000001 cycles:  308643322 heartbeat IPC: 0.10686 cumulative IPC: 1.20015 (Simulation time: 0 hr 12 min 5 sec) 
Heartbeat CPU  0 instructions:  420000000 cycles:  316711329 heartbeat IPC: 0.12395 cumulative IPC: 1.16845 (Simulation time: 0 hr 12 min 8 sec) 
Heartbeat CPU  0 instructions:  421000003 cycles:  323914637 heartbeat IPC: 0.13883 cumulative IPC: 1.14206 (Simulation time: 0 hr 12 min 12 sec) 
Heartbeat CPU  0 instructions:  422000001 cycles:  330326892 heartbeat IPC: 0.15595 cumulative IPC: 1.12007 (Simulation time: 0 hr 12 min 15 sec) 
Heartbeat CPU  0 instructions:  423000000 cycles:  336243332 heartbeat IPC: 0.16902 cumulative IPC: 1.10089 (Simulation time: 0 hr 12 min 18 sec) 
Heartbeat CPU  0 instructions:  424000000 cycles:  341643118 heartbeat IPC: 0.18519 cumulative IPC: 1.08434 (Simulation time: 0 hr 12 min 23 sec) 
Heartbeat CPU  0 instructions:  425000002 cycles:  345479608 heartbeat IPC: 0.26066 cumulative IPC: 1.07390 (Simulation time: 0 hr 12 min 26 sec) 
Heartbeat CPU  0 instructions:  426000002 cycles:  348714953 heartbeat IPC: 0.30909 cumulative IPC: 1.06581 (Simulation time: 0 hr 12 min 29 sec) 
Heartbeat CPU  0 instructions:  427000000 cycles:  351975946 heartbeat IPC: 0.30665 cumulative IPC: 1.05780 (Simulation time: 0 hr 12 min 32 sec) 
Heartbeat CPU  0 instructions:  428000000 cycles:  355142649 heartbeat IPC: 0.31579 cumulative IPC: 1.05028 (Simulation time: 0 hr 12 min 35 sec) 
Heartbeat CPU  0 instructions:  429000000 cycles:  358315733 heartbeat IPC: 0.31515 cumulative IPC: 1.04288 (Simulation time: 0 hr 12 min 38 sec) 
Heartbeat CPU  0 instructions:  430000001 cycles:  361672900 heartbeat IPC: 0.29787 cumulative IPC: 1.03504 (Simulation time: 0 hr 12 min 41 sec) 
Heartbeat CPU  0 instructions:  431000000 cycles:  368987291 heartbeat IPC: 0.13672 cumulative IPC: 1.01489 (Simulation time: 0 hr 12 min 45 sec) 
Heartbeat CPU  0 instructions:  432000000 cycles:  375259946 heartbeat IPC: 0.15942 cumulative IPC: 0.99875 (Simulation time: 0 hr 12 min 50 sec) 
Heartbeat CPU  0 instructions:  433000000 cycles:  383818091 heartbeat IPC: 0.11685 cumulative IPC: 0.97661 (Simulation time: 0 hr 12 min 55 sec) 
Heartbeat CPU  0 instructions:  434000001 cycles:  392479301 heartbeat IPC: 0.11546 cumulative IPC: 0.95528 (Simulation time: 0 hr 12 min 59 sec) 
Heartbeat CPU  0 instructions:  435000003 cycles:  399983130 heartbeat IPC: 0.13327 cumulative IPC: 0.93801 (Simulation time: 0 hr 13 min 2 sec) 
Heartbeat CPU  0 instructions:  436000000 cycles:  406765795 heartbeat IPC: 0.14743 cumulative IPC: 0.92328 (Simulation time: 0 hr 13 min 6 sec) 
Heartbeat CPU  0 instructions:  437000002 cycles:  412134998 heartbeat IPC: 0.18625 cumulative IPC: 0.91256 (Simulation time: 0 hr 13 min 9 sec) 
Heartbeat CPU  0 instructions:  438000002 cycles:  417481815 heartbeat IPC: 0.18703 cumulative IPC: 0.90220 (Simulation time: 0 hr 13 min 12 sec) 
Heartbeat CPU  0 instructions:  439000000 cycles:  422318844 heartbeat IPC: 0.20674 cumulative IPC: 0.89334 (Simulation time: 0 hr 13 min 16 sec) 
Heartbeat CPU  0 instructions:  440000000 cycles:  425809169 heartbeat IPC: 0.28651 cumulative IPC: 0.88781 (Simulation time: 0 hr 13 min 20 sec) 
Heartbeat CPU  0 instructions:  441000000 cycles:  429047633 heartbeat IPC: 0.30879 cumulative IPC: 0.88295 (Simulation time: 0 hr 13 min 23 sec) 
Heartbeat CPU  0 instructions:  442000002 cycles:  432226417 heartbeat IPC: 0.31459 cumulative IPC: 0.87831 (Simulation time: 0 hr 13 min 26 sec) 
Heartbeat CPU  0 instructions:  443000001 cycles:  435401870 heartbeat IPC: 0.31492 cumulative IPC: 0.87376 (Simulation time: 0 hr 13 min 29 sec) 
Heartbeat CPU  0 instructions:  444000000 cycles:  438704689 heartbeat IPC: 0.30277 cumulative IPC: 0.86899 (Simulation time: 0 hr 13 min 32 sec) 
Heartbeat CPU  0 instructions:  445000002 cycles:  442259852 heartbeat IPC: 0.28128 cumulative IPC: 0.86376 (Simulation time: 0 hr 13 min 35 sec) 
Heartbeat CPU  0 instructions:  446000003 cycles:  451111889 heartbeat IPC: 0.11297 cumulative IPC: 0.84748 (Simulation time: 0 hr 13 min 40 sec) 
Heartbeat CPU  0 instructions:  447000000 cycles:  458713167 heartbeat IPC: 0.13156 cumulative IPC: 0.83440 (Simulation time: 0 hr 13 min 45 sec) 
Heartbeat CPU  0 instructions:  448000000 cycles:  468277205 heartbeat IPC: 0.10456 cumulative IPC: 0.81799 (Simulation time: 0 hr 13 min 49 sec) 
Heartbeat CPU  0 instructions:  449000001 cycles:  475894605 heartbeat IPC: 0.13128 cumulative IPC: 0.80591 (Simulation time: 0 hr 13 min 53 sec) 
Heartbeat CPU  0 instructions:  450000000 cycles:  482937082 heartbeat IPC: 0.14200 cumulative IPC: 0.79529 (Simulation time: 0 hr 13 min 56 sec) 
Heartbeat CPU  0 instructions:  451000000 cycles:  488610859 heartbeat IPC: 0.17625 cumulative IPC: 0.78741 (Simulation time: 0 hr 13 min 59 sec) 
Heartbeat CPU  0 instructions:  452000000 cycles:  493778045 heartbeat IPC: 0.19353 cumulative IPC: 0.78060 (Simulation time: 0 hr 14 min 3 sec) 
Heartbeat CPU  0 instructions:  453000001 cycles:  499150698 heartbeat IPC: 0.18613 cumulative IPC: 0.77360 (Simulation time: 0 hr 14 min 7 sec) 
Heartbeat CPU  0 instructions:  454000000 cycles:  502855393 heartbeat IPC: 0.26993 cumulative IPC: 0.76955 (Simulation time: 0 hr 14 min 10 sec) 
Heartbeat CPU  0 instructions:  455000001 cycles:  506032911 heartbeat IPC: 0.31471 cumulative IPC: 0.76643 (Simulation time: 0 hr 14 min 13 sec) 
Heartbeat CPU  0 instructions:  456000000 cycles:  509261481 heartbeat IPC: 0.30973 cumulative IPC: 0.76326 (Simulation time: 0 hr 14 min 16 sec) 
Heartbeat CPU  0 instructions:  457000002 cycles:  512447780 heartbeat IPC: 0.31384 cumulative IPC: 0.76022 (Simulation time: 0 hr 14 min 19 sec) 
Heartbeat CPU  0 instructions:  458000000 cycles:  515655215 heartbeat IPC: 0.31177 cumulative IPC: 0.75717 (Simulation time: 0 hr 14 min 22 sec) 
Heartbeat CPU  0 instructions:  459000001 cycles:  519074065 heartbeat IPC: 0.29250 cumulative IPC: 0.75384 (Simulation time: 0 hr 14 min 25 sec) 
Heartbeat CPU  0 instructions:  460000000 cycles:  527277884 heartbeat IPC: 0.12189 cumulative IPC: 0.74314 (Simulation time: 0 hr 14 min 30 sec) 
Heartbeat CPU  0 instructions:  461000002 cycles:  534526930 heartbeat IPC: 0.13795 cumulative IPC: 0.73421 (Simulation time: 0 hr 14 min 35 sec) 
Heartbeat CPU  0 instructions:  462000000 cycles:  544122980 heartbeat IPC: 0.10421 cumulative IPC: 0.72215 (Simulation time: 0 hr 14 min 40 sec) 
Heartbeat CPU  0 instructions:  463000000 cycles:  551928833 heartbeat IPC: 0.12811 cumulative IPC: 0.71304 (Simulation time: 0 hr 14 min 43 sec) 
Heartbeat CPU  0 instructions:  464000000 cycles:  559028658 heartbeat IPC: 0.14085 cumulative IPC: 0.70517 (Simulation time: 0 hr 14 min 47 sec) 
Heartbeat CPU  0 instructions:  465000000 cycles:  565141606 heartbeat IPC: 0.16359 cumulative IPC: 0.69884 (Simulation time: 0 hr 14 min 50 sec) 
Heartbeat CPU  0 instructions:  466000000 cycles:  570682144 heartbeat IPC: 0.18049 cumulative IPC: 0.69339 (Simulation time: 0 hr 14 min 53 sec) 
Heartbeat CPU  0 instructions:  467000000 cycles:  576074040 heartbeat IPC: 0.18546 cumulative IPC: 0.68826 (Simulation time: 0 hr 14 min 58 sec) 
Heartbeat CPU  0 instructions:  468000000 cycles:  579831229 heartbeat IPC: 0.26616 cumulative IPC: 0.68531 (Simulation time: 0 hr 15 min 1 sec) 
Heartbeat CPU  0 instructions:  469000000 cycles:  583032802 heartbeat IPC: 0.31235 cumulative IPC: 0.68309 (Simulation time: 0 hr 15 min 4 sec) 
Heartbeat CPU  0 instructions:  470000002 cycles:  586298748 heartbeat IPC: 0.30619 cumulative IPC: 0.68083 (Simulation time: 0 hr 15 min 7 sec) 
Heartbeat CPU  0 instructions:  471000000 cycles:  589477387 heartbeat IPC: 0.31460 cumulative IPC: 0.67870 (Simulation time: 0 hr 15 min 10 sec) 
Heartbeat CPU  0 instructions:  472000000 cycles:  592655731 heartbeat IPC: 0.31463 cumulative IPC: 0.67660 (Simulation time: 0 hr 15 min 13 sec) 
Heartbeat CPU  0 instructions:  473000002 cycles:  596101973 heartbeat IPC: 0.29017 cumulative IPC: 0.67419 (Simulation time: 0 hr 15 min 16 sec) 
Heartbeat CPU  0 instructions:  474000000 cycles:  603637758 heartbeat IPC: 0.13270 cumulative IPC: 0.66691 (Simulation time: 0 hr 15 min 20 sec) 
Heartbeat CPU  0 instructions:  475000002 cycles:  610317707 heartbeat IPC: 0.14970 cumulative IPC: 0.66082 (Simulation time: 0 hr 15 min 25 sec) 
Heartbeat CPU  0 instructions:  476000000 cycles:  619674731 heartbeat IPC: 0.10687 cumulative IPC: 0.65184 (Simulation time: 0 hr 15 min 30 sec) 
Heartbeat CPU  0 instructions:  477000000 cycles:  627717085 heartbeat IPC: 0.12434 cumulative IPC: 0.64458 (Simulation time: 0 hr 15 min 34 sec) 
Heartbeat CPU  0 instructions:  478000002 cycles:  635001609 heartbeat IPC: 0.13728 cumulative IPC: 0.63834 (Simulation time: 0 hr 15 min 37 sec) 
Heartbeat CPU  0 instructions:  479000000 cycles:  641595752 heartbeat IPC: 0.15165 cumulative IPC: 0.63298 (Simulation time: 0 hr 15 min 40 sec) 
Heartbeat CPU  0 instructions:  480000000 cycles:  647263674 heartbeat IPC: 0.17643 cumulative IPC: 0.62870 (Simulation time: 0 hr 15 min 44 sec) 
Heartbeat CPU  0 instructions:  481000000 cycles:  652853482 heartbeat IPC: 0.17890 cumulative IPC: 0.62458 (Simulation time: 0 hr 15 min 48 sec) 
Heartbeat CPU  0 instructions:  482000000 cycles:  656718851 heartbeat IPC: 0.25871 cumulative IPC: 0.62228 (Simulation time: 0 hr 15 min 51 sec) 
Heartbeat CPU  0 instructions:  483000000 cycles:  660044275 heartbeat IPC: 0.30071 cumulative IPC: 0.62054 (Simulation time: 0 hr 15 min 54 sec) 
Heartbeat CPU  0 instructions:  484000000 cycles:  663308283 heartbeat IPC: 0.30637 cumulative IPC: 0.61889 (Simulation time: 0 hr 15 min 57 sec) 
Heartbeat CPU  0 instructions:  485000002 cycles:  666485498 heartbeat IPC: 0.31474 cumulative IPC: 0.61734 (Simulation time: 0 hr 16 min 0 sec) 
Heartbeat CPU  0 instructions:  486000003 cycles:  669657663 heartbeat IPC: 0.31524 cumulative IPC: 0.61581 (Simulation time: 0 hr 16 min 3 sec) 
Heartbeat CPU  0 instructions:  487000000 cycles:  672995681 heartbeat IPC: 0.29958 cumulative IPC: 0.61414 (Simulation time: 0 hr 16 min 7 sec) 
Heartbeat CPU  0 instructions:  488000000 cycles:  678876761 heartbeat IPC: 0.17004 cumulative IPC: 0.61003 (Simulation time: 0 hr 16 min 10 sec) 
Heartbeat CPU  0 instructions:  489000000 cycles:  686249793 heartbeat IPC: 0.13563 cumulative IPC: 0.60460 (Simulation time: 0 hr 16 min 15 sec) 
Heartbeat CPU  0 instructions:  490000003 cycles:  694676263 heartbeat IPC: 0.11867 cumulative IPC: 0.59831 (Simulation time: 0 hr 16 min 20 sec) 
Heartbeat CPU  0 instructions:  491000003 cycles:  703576679 heartbeat IPC: 0.11235 cumulative IPC: 0.59177 (Simulation time: 0 hr 16 min 24 sec) 
Heartbeat CPU  0 instructions:  492000000 cycles:  710992720 heartbeat IPC: 0.13484 cumulative IPC: 0.58670 (Simulation time: 0 hr 16 min 28 sec) 
Heartbeat CPU  0 instructions:  493000002 cycles:  717848633 heartbeat IPC: 0.14586 cumulative IPC: 0.58222 (Simulation time: 0 hr 16 min 31 sec) 
Heartbeat CPU  0 instructions:  494000001 cycles:  723263256 heartbeat IPC: 0.18468 cumulative IPC: 0.57905 (Simulation time: 0 hr 16 min 34 sec) 
Heartbeat CPU  0 instructions:  495000001 cycles:  728553891 heartbeat IPC: 0.18901 cumulative IPC: 0.57605 (Simulation time: 0 hr 16 min 38 sec) 
Heartbeat CPU  0 instructions:  496000000 cycles:  733530452 heartbeat IPC: 0.20094 cumulative IPC: 0.57334 (Simulation time: 0 hr 16 min 42 sec) 
Heartbeat CPU  0 instructions:  497000001 cycles:  737066013 heartbeat IPC: 0.28284 cumulative IPC: 0.57186 (Simulation time: 0 hr 16 min 45 sec) 
Heartbeat CPU  0 instructions:  498000001 cycles:  740279720 heartbeat IPC: 0.31117 cumulative IPC: 0.57066 (Simulation time: 0 hr 16 min 48 sec) 
Heartbeat CPU  0 instructions:  499000000 cycles:  743462652 heartbeat IPC: 0.31418 cumulative IPC: 0.56950 (Simulation time: 0 hr 16 min 51 sec) 
Heartbeat CPU  0 instructions:  500000000 cycles:  746637655 heartbeat IPC: 0.31496 cumulative IPC: 0.56835 (Simulation time: 0 hr 16 min 54 sec) 
Heartbeat CPU  0 instructions:  501000000 cycles:  749924541 heartbeat IPC: 0.30424 cumulative IPC: 0.56712 (Simulation time: 0 hr 16 min 57 sec) 
Heartbeat CPU  0 instructions:  502000002 cycles:  753420572 heartbeat IPC: 0.28604 cumulative IPC: 0.56574 (Simulation time: 0 hr 17 min 0 sec) 
Heartbeat CPU  0 instructions:  503000003 cycles:  762041461 heartbeat IPC: 0.11600 cumulative IPC: 0.56035 (Simulation time: 0 hr 17 min 5 sec) 
Heartbeat CPU  0 instructions:  504000000 cycles:  769471004 heartbeat IPC: 0.13460 cumulative IPC: 0.55599 (Simulation time: 0 hr 17 min 10 sec) 
Heartbeat CPU  0 instructions:  505000000 cycles:  779312636 heartbeat IPC: 0.10161 cumulative IPC: 0.54992 (Simulation time: 0 hr 17 min 15 sec) 
Heartbeat CPU  0 instructions:  506000001 cycles:  786898632 heartbeat IPC: 0.13182 cumulative IPC: 0.54566 (Simulation time: 0 hr 17 min 18 sec) 
Heartbeat CPU  0 instructions:  507000000 cycles:  793937397 heartbeat IPC: 0.14207 cumulative IPC: 0.54188 (Simulation time: 0 hr 17 min 22 sec) 
Heartbeat CPU  0 instructions:  508000000 cycles:  799711596 heartbeat IPC: 0.17318 cumulative IPC: 0.53906 (Simulation time: 0 hr 17 min 25 sec) 
Heartbeat CPU  0 instructions:  509000001 cycles:  804896620 heartbeat IPC: 0.19286 cumulative IPC: 0.53671 (Simulation time: 0 hr 17 min 28 sec) 
Heartbeat CPU  0 instructions:  510000001 cycles:  810337981 heartbeat IPC: 0.18378 cumulative IPC: 0.53421 (Simulation time: 0 hr 17 min 32 sec) 
Heartbeat CPU  0 instructions:  511000001 cycles:  814075650 heartbeat IPC: 0.26755 cumulative IPC: 0.53291 (Simulation time: 0 hr 17 min 36 sec) 
Heartbeat CPU  0 instructions:  512000000 cycles:  817220168 heartbeat IPC: 0.31801 cumulative IPC: 0.53204 (Simulation time: 0 hr 17 min 39 sec) 
Heartbeat CPU  0 instructions:  513000003 cycles:  820463417 heartbeat IPC: 0.30833 cumulative IPC: 0.53111 (Simulation time: 0 hr 17 min 42 sec) 
Heartbeat CPU  0 instructions:  514000002 cycles:  823662837 heartbeat IPC: 0.31256 cumulative IPC: 0.53021 (Simulation time: 0 hr 17 min 45 sec) 
Heartbeat CPU  0 instructions:  515000001 cycles:  826868768 heartbeat IPC: 0.31192 cumulative IPC: 0.52932 (Simulation time: 0 hr 17 min 48 sec) 
Heartbeat CPU  0 instructions:  516000000 cycles:  830299083 heartbeat IPC: 0.29152 cumulative IPC: 0.52828 (Simulation time: 0 hr 17 min 51 sec) 
Heartbeat CPU  0 instructions:  517000000 cycles:  838277866 heartbeat IPC: 0.12533 cumulative IPC: 0.52424 (Simulation time: 0 hr 17 min 55 sec) 
Heartbeat CPU  0 instructions:  518000002 cycles:  845350695 heartbeat IPC: 0.14139 cumulative IPC: 0.52087 (Simulation time: 0 hr 18 min 0 sec) 
Heartbeat CPU  0 instructions:  519000001 cycles:  854988694 heartbeat IPC: 0.10376 cumulative IPC: 0.51592 (Simulation time: 0 hr 18 min 5 sec) 
Heartbeat CPU  0 instructions:  520000000 cycles:  862902065 heartbeat IPC: 0.12637 cumulative IPC: 0.51216 (Simulation time: 0 hr 18 min 9 sec) 
Heartbeat CPU  0 instructions:  521000001 cycles:  869988442 heartbeat IPC: 0.14112 cumulative IPC: 0.50898 (Simulation time: 0 hr 18 min 12 sec) 
Heartbeat CPU  0 instructions:  522000001 cycles:  876213253 heartbeat IPC: 0.16065 cumulative IPC: 0.50638 (Simulation time: 0 hr 18 min 15 sec) 
Heartbeat CPU  0 instructions:  523000000 cycles:  881922887 heartbeat IPC: 0.17514 cumulative IPC: 0.50412 (Simulation time: 0 hr 18 min 18 sec) 
Heartbeat CPU  0 instructions:  524000000 cycles:  887269459 heartbeat IPC: 0.18704 cumulative IPC: 0.50212 (Simulation time: 0 hr 18 min 23 sec) 
Heartbeat CPU  0 instructions:  525000000 cycles:  891039872 heartbeat IPC: 0.26522 cumulative IPC: 0.50106 (Simulation time: 0 hr 18 min 26 sec) 
Heartbeat CPU  0 instructions:  526000000 cycles:  894275433 heartbeat IPC: 0.30907 cumulative IPC: 0.50033 (Simulation time: 0 hr 18 min 29 sec) 
Heartbeat CPU  0 instructions:  527000000 cycles:  897553933 heartbeat IPC: 0.30502 cumulative IPC: 0.49958 (Simulation time: 0 hr 18 min 32 sec) 
Heartbeat CPU  0 instructions:  528000000 cycles:  900722739 heartbeat IPC: 0.31558 cumulative IPC: 0.49891 (Simulation time: 0 hr 18 min 35 sec) 
Heartbeat CPU  0 instructions:  529000001 cycles:  903888786 heartbeat IPC: 0.31585 cumulative IPC: 0.49823 (Simulation time: 0 hr 18 min 38 sec) 
[...]
Heartbeat CPU  0 instructions:  545000000 cycles:  988685743 heartbeat IPC: 0.22826 cumulative IPC: 0.47048 (Simulation time: 0 hr 19 min 35 sec) 
Heartbeat CPU  0 instructions:  546000000 cycles:  997316380 heartbeat IPC: 0.11587 cumulative IPC: 0.46727 (Simulation time: 0 hr 19 min 40 sec) 
Heartbeat CPU  0 instructions:  547000000 cycles: 1005558121 heartbeat IPC: 0.12133 cumulative IPC: 0.46431 (Simulation time: 0 hr 19 min 46 sec) 
Heartbeat CPU  0 instructions:  548000000 cycles: 1014749542 heartbeat IPC: 0.10880 cumulative IPC: 0.46095 (Simulation time: 0 hr 19 min 50 sec) 
Heartbeat CPU  0 instructions:  549000000 cycles: 1022220319 heartbeat IPC: 0.13385 cumulative IPC: 0.45846 (Simulation time: 0 hr 19 min 53 sec) 
Heartbeat CPU  0 instructions:  550000001 cycles: 1029146077 heartbeat IPC: 0.14439 cumulative IPC: 0.45625 (Simulation time: 0 hr 19 min 57 sec) 
Heartbeat CPU  0 instructions:  551000000 cycles: 1034596093 heartbeat IPC: 0.18349 cumulative IPC: 0.45475 (Simulation time: 0 hr 20 min 0 sec) 
Heartbeat CPU  0 instructions:  552000000 cycles: 1039835856 heartbeat IPC: 0.19085 cumulative IPC: 0.45336 (Simulation time: 0 hr 20 min 3 sec) 
Heartbeat CPU  0 instructions:  553000000 cycles: 1044890154 heartbeat IPC: 0.19785 cumulative IPC: 0.45208 (Simulation time: 0 hr 20 min 7 sec) 
Heartbeat CPU  0 instructions:  554000001 cycles: 1048457218 heartbeat IPC: 0.28034 cumulative IPC: 0.45147 (Simulation time: 0 hr 20 min 11 sec) 
Heartbeat CPU  0 instructions:  555000002 cycles: 1051671031 heartbeat IPC: 0.31116 cumulative IPC: 0.45102 (Simulation time: 0 hr 20 min 14 sec) 
Heartbeat CPU  0 instructions:  556000000 cycles: 1054842797 heartbeat IPC: 0.31528 cumulative IPC: 0.45059 (Simulation time: 0 hr 20 min 17 sec) 
Heartbeat CPU  0 instructions:  557000000 cycles: 1058030805 heartbeat IPC: 0.31368 cumulative IPC: 0.45016 (Simulation time: 0 hr 20 min 20 sec) 
Heartbeat CPU  0 instructions:  558000003 cycles: 1061296331 heartbeat IPC: 0.30623 cumulative IPC: 0.44970 (Simulation time: 0 hr 20 min 23 sec) 
Heartbeat CPU  0 instructions:  559000003 cycles: 1064610552 heartbeat IPC: 0.30173 cumulative IPC: 0.44922 (Simulation time: 0 hr 20 min 26 sec) 
Heartbeat CPU  0 instructions:  560000000 cycles: 1073316252 heartbeat IPC: 0.11487 cumulative IPC: 0.44640 (Simulation time: 0 hr 20 min 31 sec) 
Heartbeat CPU  0 instructions:  561000001 cycles: 1080750185 heartbeat IPC: 0.13452 cumulative IPC: 0.44416 (Simulation time: 0 hr 20 min 36 sec) 
Heartbeat CPU  0 instructions:  562000002 cycles: 1090542985 heartbeat IPC: 0.10212 cumulative IPC: 0.44097 (Simulation time: 0 hr 20 min 40 sec) 
Heartbeat CPU  0 instructions:  563000003 cycles: 1098270311 heartbeat IPC: 0.12941 cumulative IPC: 0.43869 (Simulation time: 0 hr 20 min 44 sec) 
Heartbeat CPU  0 instructions:  564000000 cycles: 1105223284 heartbeat IPC: 0.14382 cumulative IPC: 0.43676 (Simulation time: 0 hr 20 min 47 sec) 
Heartbeat CPU  0 instructions:  565000003 cycles: 1111055852 heartbeat IPC: 0.17145 cumulative IPC: 0.43531 (Simulation time: 0 hr 20 min 51 sec) 
Heartbeat CPU  0 instructions:  566000000 cycles: 1116269013 heartbeat IPC: 0.19182 cumulative IPC: 0.43412 (Simulation time: 0 hr 20 min 54 sec) 
Heartbeat CPU  0 instructions:  567000000 cycles: 1121707955 heartbeat IPC: 0.18386 cumulative IPC: 0.43286 (Simulation time: 0 hr 20 min 58 sec) 
Heartbeat CPU  0 instructions:  568000000 cycles: 1125453988 heartbeat IPC: 0.26695 cumulative IPC: 0.43229 (Simulation time: 0 hr 21 min 1 sec) 
Heartbeat CPU  0 instructions:  569000000 cycles: 1128603814 heartbeat IPC: 0.31748 cumulative IPC: 0.43196 (Simulation time: 0 hr 21 min 4 sec) 
Heartbeat CPU  0 instructions:  570000000 cycles: 1131849662 heartbeat IPC: 0.30809 cumulative IPC: 0.43159 (Simulation time: 0 hr 21 min 7 sec) 
Heartbeat CPU  0 instructions:  571000001 cycles: 1135038919 heartbeat IPC: 0.31355 cumulative IPC: 0.43124 (Simulation time: 0 hr 21 min 11 sec) 
Heartbeat CPU  0 instructions:  572000000 cycles: 1138230595 heartbeat IPC: 0.31331 cumulative IPC: 0.43090 (Simulation time: 0 hr 21 min 14 sec) 
Heartbeat CPU  0 instructions:  573000002 cycles: 1141668358 heartbeat IPC: 0.29089 cumulative IPC: 0.43046 (Simulation time: 0 hr 21 min 17 sec) 
Heartbeat CPU  0 instructions:  574000000 cycles: 1149605670 heartbeat IPC: 0.12599 cumulative IPC: 0.42828 (Simulation time: 0 hr 21 min 21 sec) 
Heartbeat CPU  0 instructions:  575000002 cycles: 1156620088 heartbeat IPC: 0.14256 cumulative IPC: 0.42648 (Simulation time: 0 hr 21 min 26 sec) 
Heartbeat CPU  0 instructions:  576000000 cycles: 1166281927 heartbeat IPC: 0.10350 cumulative IPC: 0.42370 (Simulation time: 0 hr 21 min 32 sec) 
Heartbeat CPU  0 instructions:  577000003 cycles: 1174264348 heartbeat IPC: 0.12528 cumulative IPC: 0.42159 (Simulation time: 0 hr 21 min 35 sec) 
Heartbeat CPU  0 instructions:  578000000 cycles: 1181359250 heartbeat IPC: 0.14095 cumulative IPC: 0.41985 (Simulation time: 0 hr 21 min 39 sec) 
Heartbeat CPU  0 instructions:  579000001 cycles: 1187593346 heartbeat IPC: 0.16041 cumulative IPC: 0.41843 (Simulation time: 0 hr 21 min 42 sec) 
Heartbeat CPU  0 instructions:  580000000 cycles: 1193313255 heartbeat IPC: 0.17483 cumulative IPC: 0.41722 (Simulation time: 0 hr 21 min 45 sec) 
Heartbeat CPU  0 instructions:  581000003 cycles: 1198665395 heartbeat IPC: 0.18684 cumulative IPC: 0.41615 (Simulation time: 0 hr 21 min 49 sec) 
Heartbeat CPU  0 instructions:  582000003 cycles: 1202444676 heartbeat IPC: 0.26460 cumulative IPC: 0.41566 (Simulation time: 0 hr 21 min 53 sec) 
Heartbeat CPU  0 instructions:  583000002 cycles: 1205669658 heartbeat IPC: 0.31008 cumulative IPC: 0.41537 (Simulation time: 0 hr 21 min 56 sec) 
Heartbeat CPU  0 instructions:  584000000 cycles: 1208949210 heartbeat IPC: 0.30492 cumulative IPC: 0.41506 (Simulation time: 0 hr 21 min 59 sec) 
Heartbeat CPU  0 instructions:  585000002 cycles: 1212110394 heartbeat IPC: 0.31634 cumulative IPC: 0.41479 (Simulation time: 0 hr 22 min 2 sec) 
Heartbeat CPU  0 instructions:  586000002 cycles: 1215279204 heartbeat IPC: 0.31558 cumulative IPC: 0.41452 (Simulation time: 0 hr 22 min 5 sec) 
Heartbeat CPU  0 instructions:  587000000 cycles: 1218651781 heartbeat IPC: 0.29651 cumulative IPC: 0.41418 (Simulation time: 0 hr 22 min 8 sec) 
Heartbeat CPU  0 instructions:  588000000 cycles: 1226246037 heartbeat IPC: 0.13168 cumulative IPC: 0.41237 (Simulation time: 0 hr 22 min 12 sec) 
Heartbeat CPU  0 instructions:  589000001 cycles: 1232649841 heartbeat IPC: 0.15616 cumulative IPC: 0.41099 (Simulation time: 0 hr 22 min 17 sec) 
Heartbeat CPU  0 instructions:  590000002 cycles: 1241747918 heartbeat IPC: 0.10991 cumulative IPC: 0.40871 (Simulation time: 0 hr 22 min 22 sec) 
Heartbeat CPU  0 instructions:  591000000 cycles: 1250137422 heartbeat IPC: 0.11920 cumulative IPC: 0.40669 (Simulation time: 0 hr 22 min 26 sec) 
Heartbeat CPU  0 instructions:  592000000 cycles: 1257491177 heartbeat IPC: 0.13598 cumulative IPC: 0.40506 (Simulation time: 0 hr 22 min 29 sec) 
Heartbeat CPU  0 instructions:  593000003 cycles: 1264137071 heartbeat IPC: 0.15047 cumulative IPC: 0.40367 (Simulation time: 0 hr 22 min 32 sec) 
Heartbeat CPU  0 instructions:  594000000 cycles: 1269641047 heartbeat IPC: 0.18169 cumulative IPC: 0.40267 (Simulation time: 0 hr 22 min 36 sec) 
Heartbeat CPU  0 instructions:  595000001 cycles: 1275177851 heartbeat IPC: 0.18061 cumulative IPC: 0.40168 (Simulation time: 0 hr 22 min 40 sec) 
Heartbeat CPU  0 instructions:  596000000 cycles: 1279387518 heartbeat IPC: 0.23755 cumulative IPC: 0.40112 (Simulation time: 0 hr 22 min 43 sec) 
Heartbeat CPU  0 instructions:  597000003 cycles: 1282746000 heartbeat IPC: 0.29775 cumulative IPC: 0.40084 (Simulation time: 0 hr 22 min 47 sec) 
Heartbeat CPU  0 instructions:  598000002 cycles: 1286011152 heartbeat IPC: 0.30626 cumulative IPC: 0.40059 (Simulation time: 0 hr 22 min 50 sec) 
Heartbeat CPU  0 instructions:  599000001 cycles: 1289177791 heartbeat IPC: 0.31579 cumulative IPC: 0.40037 (Simulation time: 0 hr 22 min 53 sec) 
Heartbeat CPU  0 instructions:  600000000 cycles: 1292344873 heartbeat IPC: 0.31575 cumulative IPC: 0.40016 (Simulation time: 0 hr 22 min 56 sec) 
Finished CPU 0 instructions: 500000000 cycles: 1249500781 cumulative IPC: 0.40016 (Simulation time: 0 hr 22 min 56 sec) 

ChampSim completed all CPUs

[ROI Statistics]
Core_0_instructions 500000000
Core_0_cycles 1249500781
Core_0_IPC 0.40016

Core_0_branch_prediction_accuracy 99.11262
Core_0_branch_MPKI 1.69223
Core_0_average_ROB_occupancy_at_mispredict 139.03555

Core_0_L1D_total_access 70189954
Core_0_L1D_total_hit 47236211
Core_0_L1D_total_miss 22953743
Core_0_L1D_loads 33649206
Core_0_L1D_load_hit 28279053
Core_0_L1D_load_miss 5370153
Core_0_L1D_RFOs 36540748
Core_0_L1D_RFO_hit 18957158
Core_0_L1D_RFO_miss 17583590
Core_0_L1D_prefetches 0
Core_0_L1D_prefetch_hit 0
Core_0_L1D_prefetch_miss 0
Core_0_L1D_writebacks 0
Core_0_L1D_writeback_hit 0
Core_0_L1D_writeback_miss 0
Core_0_L1D_prefetch_requested 0
Core_0_L1D_prefetch_dropped 0
Core_0_L1D_prefetch_issued 0
Core_0_L1D_prefetch_filled 0
Core_0_L1D_prefetch_useful 0
Core_0_L1D_prefetch_useless 0
Core_0_L1D_prefetch_late 0
Core_0_L1D_average_miss_latency 167.38905

Core_0_L1D_rq_access 60938081
Core_0_L1D_rq_forward 0
Core_0_L1D_rq_merged 24791355
Core_0_L1D_rq_to_cache 36106996
Core_0_L1D_rq_full 0

Core_0_L1D_wq_access 156857733
Core_0_L1D_wq_forward 39730
Core_0_L1D_wq_merged 46955
Core_0_L1D_wq_to_cache 156810778
Core_0_L1D_wq_full 4394360

Core_0_L1D_pq_access 0
Core_0_L1D_pq_forward 0
Core_0_L1D_pq_merged 0
Core_0_L1D_pq_to_cache 0
Core_0_L1D_pq_full 0

Core_0_L1D_acc_epochs 1238176
Core_0_L1D_acc_level_0 1238176
Core_0_L1D_acc_level_1 0
Core_0_L1D_acc_level_2 0
Core_0_L1D_acc_level_3 0
Core_0_L1D_acc_level_4 0
Core_0_L1D_acc_level_5 0
Core_0_L1D_acc_level_6 0
Core_0_L1D_acc_level_7 0
Core_0_L1D_acc_level_8 0
Core_0_L1D_acc_level_9 0

Core_0_L1I_total_access 122877863
Core_0_L1I_total_hit 122858721
Core_0_L1I_total_miss 19142
Core_0_L1I_loads 122877863
Core_0_L1I_load_hit 122858721
Core_0_L1I_load_miss 19142
Core_0_L1I_RFOs 0
Core_0_L1I_RFO_hit 0
Core_0_L1I_RFO_miss 0
Core_0_L1I_prefetches 0
Core_0_L1I_prefetch_hit 0
Core_0_L1I_prefetch_miss 0
Core_0_L1I_writebacks 0
Core_0_L1I_writeback_hit 0
Core_0_L1I_writeback_miss 0
Core_0_L1I_prefetch_requested 0
Core_0_L1I_prefetch_dropped 0
Core_0_L1I_prefetch_issued 0
Core_0_L1I_prefetch_filled 0
Core_0_L1I_prefetch_useful 0
Core_0_L1I_prefetch_useless 0
Core_0_L1I_prefetch_late 0
Core_0_L1I_average_miss_latency 44.59294

Core_0_L1I_rq_access 500000003
Core_0_L1I_rq_forward 0
Core_0_L1I_rq_merged 377097444
Core_0_L1I_rq_to_cache 122902559
Core_0_L1I_rq_full 0

Core_0_L1I_wq_access 0
Core_0_L1I_wq_forward 0
Core_0_L1I_wq_merged 0
Core_0_L1I_wq_to_cache 0
Core_0_L1I_wq_full 0

Core_0_L1I_pq_access 0
Core_0_L1I_pq_forward 0
Core_0_L1I_pq_merged 0
Core_0_L1I_pq_to_cache 0
Core_0_L1I_pq_full 0

Core_0_L1I_acc_epochs 1238176
Core_0_L1I_acc_level_0 1238176
Core_0_L1I_acc_level_1 0
Core_0_L1I_acc_level_2 0
Core_0_L1I_acc_level_3 0
Core_0_L1I_acc_level_4 0
Core_0_L1I_acc_level_5 0
Core_0_L1I_acc_level_6 0
Core_0_L1I_acc_level_7 0
Core_0_L1I_acc_level_8 0
Core_0_L1I_acc_level_9 0

Core_0_L2C_total_access 42968802
Core_0_L2C_total_hit 20171282
Core_0_L2C_total_miss 22797520
Core_0_L2C_loads 5389295
Core_0_L2C_load_hit 1324656
Core_0_L2C_load_miss 4064639
Core_0_L2C_RFOs 17583589
Core_0_L2C_RFO_hit 10933
Core_0_L2C_RFO_miss 17572656
Core_0_L2C_prefetches 1379357
Core_0_L2C_prefetch_hit 219291
Core_0_L2C_prefetch_miss 1160066
Core_0_L2C_writebacks 18616561
Core_0_L2C_writeback_hit 18616402
Core_0_L2C_writeback_miss 159
Core_0_L2C_prefetch_requested 13393960
Core_0_L2C_prefetch_dropped 0
Core_0_L2C_prefetch_issued 13393960
Core_0_L2C_prefetch_filled 1160190
Core_0_L2C_prefetch_useful 1153946
Core_0_L2C_prefetch_useless 6240
Core_0_L2C_prefetch_late 176369
Core_0_L2C_average_miss_latency 157.18868

Core_0_L2C_rq_access 22972887
Core_0_L2C_rq_forward 0
Core_0_L2C_rq_merged 0
Core_0_L2C_rq_to_cache 22972886
Core_0_L2C_rq_full 0

Core_0_L2C_wq_access 18616561
Core_0_L2C_wq_forward 3
Core_0_L2C_wq_merged 0
Core_0_L2C_wq_to_cache 18616561
Core_0_L2C_wq_full 0

Core_0_L2C_pq_access 13393960
Core_0_L2C_pq_forward 0
Core_0_L2C_pq_merged 355815
Core_0_L2C_pq_to_cache 13038143
Core_0_L2C_pq_full 0

Core_0_L2C_acc_epochs 1238176
Core_0_L2C_acc_level_0 814702
Core_0_L2C_acc_level_1 53700
Core_0_L2C_acc_level_2 54432
Core_0_L2C_acc_level_3 43607
Core_0_L2C_acc_level_4 31077
Core_0_L2C_acc_level_5 60500
Core_0_L2C_acc_level_6 39146
Core_0_L2C_acc_level_7 40784
Core_0_L2C_acc_level_8 34888
Core_0_L2C_acc_level_9 65340

Core_0_LLC_total_access 50191493
Core_0_LLC_total_hit 40527961
Core_0_LLC_total_miss 9663532
Core_0_LLC_loads 3889848
Core_0_LLC_load_hit 1457631
Core_0_LLC_load_miss 2432217
Core_0_LLC_RFOs 17571078
Core_0_LLC_RFO_hit 15310962
Core_0_LLC_RFO_miss 2260116
Core_0_LLC_prefetches 10125159
Core_0_LLC_prefetch_hit 7276203
Core_0_LLC_prefetch_miss 2848956
Core_0_LLC_writebacks 18605408
Core_0_LLC_writeback_hit 16483165
Core_0_LLC_writeback_miss 2122243
Core_0_LLC_prefetch_requested 0
Core_0_LLC_prefetch_dropped 0
Core_0_LLC_prefetch_issued 0
Core_0_LLC_prefetch_filled 2853638
Core_0_LLC_prefetch_useful 1211799
Core_0_LLC_prefetch_useless 1623382
Core_0_LLC_prefetch_late 185779
Core_0_LLC_average_miss_latency 448.45476

Core_0_LLC_rq_access 21460928
Core_0_LLC_rq_forward 0
Core_0_LLC_rq_merged 0
Core_0_LLC_rq_to_cache 21460928
Core_0_LLC_rq_full 0

Core_0_LLC_wq_access 18605409
Core_0_LLC_wq_forward 0
Core_0_LLC_wq_merged 0
Core_0_LLC_wq_to_cache 18605409
Core_0_LLC_wq_full 0

Core_0_LLC_pq_access 12696889
Core_0_LLC_pq_forward 0
Core_0_LLC_pq_merged 339560
Core_0_LLC_pq_to_cache 12357329
Core_0_LLC_pq_full 0

Core_0_LLC_acc_epochs 1262056
Core_0_LLC_acc_level_0 476413
Core_0_LLC_acc_level_1 134047
Core_0_LLC_acc_level_2 129127
Core_0_LLC_acc_level_3 104534
Core_0_LLC_acc_level_4 72882
Core_0_LLC_acc_level_5 99154
Core_0_LLC_acc_level_6 66193
Core_0_LLC_acc_level_7 49469
Core_0_LLC_acc_level_8 36736
Core_0_LLC_acc_level_9 93501

Core_0_major_page_fault 0
Core_0_minor_page_fault 13167

spp.pref.total 13393960
spp.pref.at_L2 1388636
spp.pref.at_LLC 12005324

spp.depth.max 10
spp.depth.min 0
spp.depth.avg 2

spp.breadth.max 2
spp.breadth.min 0
spp.breadth.avg 0

delta_1 11973594
delta_-1 438013
delta_2 392827
delta_5 265889
delta_6 171470
delta_4 113874
delta_3 112967
delta_-2 23488
delta_-3 10764
delta_8 10288
delta_-6 9455
delta_7 9147
delta_12 8578
delta_-4 7104
delta_-5 6022
delta_-12 5956
delta_10 5921
delta_-8 4360
delta_11 3807
delta_-11 3625
delta_-7 3400
delta_16 2948
delta_18 2847
delta_30 2697
delta_-9 2661
delta_-10 2631
delta_-28 2348
delta_-39 2292
delta_-16 2246
delta_22 1993
delta_39 1947
delta_24 1864
delta_-20 1793
delta_-14 1738
delta_9 1531
delta_15 984
delta_-35 900
delta_25 899
delta_14 778
delta_-34 696
delta_19 579
delta_29 501
delta_26 483
delta_21 457
delta_-22 435
delta_-15 425
delta_20 424
delta_-18 374
delta_17 333
delta_36 305
delta_-44 241
delta_34 208
delta_28 197
delta_-19 170
delta_-31 170
delta_-29 141
delta_-24 137
delta_23 132
delta_38 98
delta_-30 85
delta_-23 66
delta_27 61
delta_13 57
delta_-13 50
delta_-27 43
delta_-42 41
delta_32 39
delta_-21 36
delta_35 33
delta_31 32
delta_-25 31
delta_-36 31
delta_-33 26
delta_33 26
delta_-54 24
delta_54 20
delta_-26 20
delta_-55 19
delta_57 19
delta_-37 18
delta_56 16
delta_-56 14
delta_-52 11
delta_44 10
delta_-49 9
delta_53 8
delta_-40 8
delta_42 6
delta_-43 6
delta_51 6
delta_-51 5
delta_-48 5
delta_50 4
delta_-46 4
delta_-17 3
delta_45 2

depth_1_delta_1 2147217
depth_1_delta_-1 386798
depth_1_delta_2 323915
depth_1_delta_5 152944
depth_1_delta_6 106945
depth_1_delta_4 103669
depth_1_delta_3 101131
depth_1_delta_-2 21858
depth_1_delta_-3 10351
depth_1_delta_8 8855
depth_1_delta_-6 8784
depth_1_delta_7 8166
depth_1_delta_12 8015
depth_1_delta_-4 6460
depth_1_delta_-12 5682
depth_1_delta_-5 5588
depth_1_delta_10 4999
depth_1_delta_-8 3850
depth_1_delta_11 3648
depth_1_delta_-11 3607
depth_1_delta_16 2938
depth_1_delta_-7 2894
depth_1_delta_18 2777
depth_1_delta_30 2676
depth_1_delta_-9 2597
depth_1_delta_-10 2505
depth_1_delta_-16 2173
depth_1_delta_-28 1979
depth_1_delta_22 1795
depth_1_delta_24 1786
depth_1_delta_-20 1781
depth_1_delta_-14 1738
depth_1_delta_-39 1566
depth_1_delta_9 1484
depth_1_delta_39 1183
depth_1_delta_-35 898
depth_1_delta_25 887
depth_1_delta_15 855
depth_1_delta_14 700
depth_1_delta_-34 695
depth_1_delta_19 579
depth_1_delta_29 491
depth_1_delta_26 455
depth_1_delta_-15 425
depth_1_delta_20 424
depth_1_delta_-22 419
depth_1_delta_21 392
depth_1_delta_-18 359
depth_1_delta_17 303
depth_1_delta_36 303
depth_1_delta_-44 241
depth_1_delta_34 208
depth_1_delta_28 191
depth_1_delta_-31 170
depth_1_delta_-19 167
depth_1_delta_-29 141
depth_1_delta_-24 123
depth_1_delta_23 121
depth_1_delta_38 98
depth_1_delta_-30 75
depth_1_delta_-23 66
depth_1_delta_13 57
depth_1_delta_-13 49
depth_1_delta_27 46
depth_1_delta_-42 41
depth_1_delta_-21 36
depth_1_delta_-27 35
depth_1_delta_35 33
depth_1_delta_31 32
depth_1_delta_32 32
depth_1_delta_-25 31
depth_1_delta_-36 31
depth_1_delta_-33 26
depth_1_delta_33 26
depth_1_delta_-26 20
depth_1_delta_-55 19
depth_1_delta_57 19
depth_1_delta_-54 19
depth_1_delta_-37 18
depth_1_delta_56 16
depth_1_delta_54 14
depth_1_delta_-56 14
depth_1_delta_-52 11
depth_1_delta_44 10
depth_1_delta_-49 9
depth_1_delta_53 8
depth_1_delta_-40 8
depth_1_delta_42 6
depth_1_delta_51 6
depth_1_delta_-43 6
depth_1_delta_-48 5
depth_1_delta_-51 5
depth_1_delta_50 4
depth_1_delta_-46 4
depth_1_delta_-17 3
depth_1_delta_45 2
depth_2_delta_1 1887114
depth_2_delta_5 78816
depth_2_delta_2 61885
depth_2_delta_-1 49651
depth_2_delta_6 46219
depth_2_delta_3 11776
depth_2_delta_4 9257
depth_2_delta_-2 1623
depth_2_delta_8 1414
depth_2_delta_7 975
depth_2_delta_10 897
depth_2_delta_39 741
depth_2_delta_-39 711
depth_2_delta_-6 620
depth_2_delta_-4 611
depth_2_delta_12 534
depth_2_delta_-8 510
depth_2_delta_-7 503
depth_2_delta_-5 430
depth_2_delta_-3 413
depth_2_delta_-28 369
depth_2_delta_-12 274
depth_2_delta_22 198
depth_2_delta_11 156
depth_2_delta_15 129
depth_2_delta_-10 126
depth_2_delta_24 78
depth_2_delta_14 78
depth_2_delta_-16 73
depth_2_delta_18 70
depth_2_delta_21 65
depth_2_delta_-9 64
depth_2_delta_9 47
depth_2_delta_17 30
depth_2_delta_26 28
depth_2_delta_30 21
depth_2_delta_-11 18
depth_2_delta_-22 16
depth_2_delta_27 15
depth_2_delta_-18 15
depth_2_delta_-24 14
depth_2_delta_25 12
depth_2_delta_-20 12
depth_2_delta_23 11
depth_2_delta_-30 10
depth_2_delta_29 10
depth_2_delta_16 10
depth_2_delta_-27 8
depth_2_delta_32 7
depth_2_delta_54 6
depth_2_delta_28 6
depth_2_delta_-54 5
depth_2_delta_-19 3
depth_2_delta_-35 2
depth_2_delta_36 2
depth_2_delta_-13 1
depth_2_delta_-34 1
depth_3_delta_1 1785977
depth_3_delta_5 29243
depth_3_delta_6 17216
depth_3_delta_2 6903
depth_3_delta_-1 1448
depth_3_delta_4 944
depth_3_delta_3 60
depth_3_delta_-6 51
depth_3_delta_-4 33
depth_3_delta_12 29
depth_3_delta_10 25
depth_3_delta_39 23
depth_3_delta_8 19
depth_3_delta_-39 15
depth_3_delta_-2 7
depth_3_delta_7 6
depth_3_delta_-5 4
depth_3_delta_-7 3
depth_3_delta_11 3
depth_4_delta_1 1708121
depth_4_delta_5 4857
depth_4_delta_6 1052
depth_4_delta_2 124
depth_4_delta_-1 116
depth_4_delta_4 4
depth_5_delta_1 1614418
depth_5_delta_6 38
depth_5_delta_5 29
depth_6_delta_1 1334867
depth_7_delta_1 865429
depth_8_delta_1 453479
depth_9_delta_1 174469
depth_10_delta_1 2503

Channel_0_RQ_row_buffer_hit 1993228
Channel_0_RQ_row_buffer_miss 5547985
Channel_0_WQ_row_buffer_hit 1007075
Channel_0_WQ_row_buffer_miss 2294278
Channel_0_WQ_full 0
Channel_0_dbus_congested 8383013

avg_congested_cycle 48

DRAM_bw_pochs 5048223
DRAM_bw_level_0 2224018
DRAM_bw_level_1 969585
DRAM_bw_level_2 646664
DRAM_bw_level_3 1207956
