*************************************************
   ChampSim Multicore Out-of-Order Simulator
   Last compiled: Dec 11 2024 17:59:53
*************************************************
parsing config file: /home/functionmain/桌面/Pythia/config/mlop.ini

trace_0 /home/functionmain/桌面/Pythia/traces/403.gcc-16B.champsimtrace.xz
adding L2C_PREFETCHER: MLOP
Initialize SHIP state
warmup_instructions 100000000
simulation_instructions 500000000
champsim_seed 169
measure_ipc 0
measure_ipc_epoch 1000
measure_dram_bw 1
measure_dram_bw_epoch 256
measure_cache_acc 1
measure_cache_acc_epoch 1024
l1d_perfect 0
l2c_perfect 0
llc_perfect 0
l1d_semi_perfect 0
l2c_semi_perfect 0
llc_semi_perfect 0
semi_perfect_cache_page_buffer_size 64

num_cpus 1
cpu_freq 4000
dram_io_freq 1200
page_size 4096
block_size 64
max_read_per_cycle 8
max_fill_per_cycle 1
dram_channels 1
log2_dram_channels 0
dram_ranks 1
dram_banks 8
dram_rows 65536
dram_columns 128
dram_row_size 8
dram_size 4096
dram_pages 1048576

fetch_width 6
decode_width 6
exec_width 4
lq_width 2
sq_width 2
retire_width 4
scheduler_size 128
branch_mispredict_penalty 20
rob_size 256
lq_size 72
sq_size 56
num_instr_destinations_sparc 4
num_instr_destinations 2
num_instr_sources 4

itlb_set 16
itlb_way 8
itlb_rq_size 16
itlb_wq_size 16
itlb_pq_size 0
itlb_mshr_size 8
itlb_latency 1

dtlb_set 16
dtlb_way 4
dtlb_rq_size 16
dtlb_wq_size 16
dtlb_pq_size 0
dtlb_mshr_size 8
dtlb_latency 1

stlb_set 128
stlb_way 12
stlb_rq_size 32
stlb_wq_size 32
stlb_pq_size 0
stlb_mshr_size 16
stlb_latency 8

l1i_size 32
l1i_set 64
l1i_way 8
l1i_rq_size 64
l1i_wq_size 64
l1i_pq_size 8
l1i_mshr_size 8
l1i_latency 1

l1d_size 32
l1d_set 64
l1d_way 8
l1d_rq_size 64
l1d_wq_size 64
l1d_pq_size 8
l1d_mshr_size 16
l1d_latency 4

l2c_size 256
l2c_set 512
l2c_way 8
l2c_rq_size 32
l2c_wq_size 32
l2c_pq_size 32
l2c_mshr_size 32
l2c_latency 10

llc_size 2048
llc_set 2048
llc_way 16
llc_rq_size 32
llc_wq_size 32
llc_pq_size 32
llc_mshr_size 64
llc_latency 20

dram_channel_width 8
dram_wq_size 64
dram_rq_size 64
tRP 15
tRCD 15
tCAS 12.5
dram_dbus_turn_around_time 30
dram_write_high_wm 56
dram_write_low_wm 48
min_dram_writes_per_switch 16
dram_mtps 1200
dram_dbus_return_time 26

mlop_pref_degree 16
mlop_num_updates 500
mlop_l1d_thresh 2
mlop_l2c_thresh 0.75
mlop_llc_thresh 0.3
mlop_debug_level 0
mlop_blocks_in_cache 4096
mlop_blocks_in_zone 64
mlop_amt_size 2048
mlop_PF_DEGREE 16
mlop_NUM_UPDATES 500
mlop_L1D_THRESH 1000
mlop_L2C_THRESH 375
mlop_LLC_THRESH 150
mlop_ORIGIN 63
mlop_MAX_OFFSET 63
mlop_MIN_OFFSET -63
mlop_ORIGIN 63
mlop_NUM_OFFSETS 127


Heartbeat CPU  0 instructions:    1000000 cycles:     453084 heartbeat IPC: 2.20710 cumulative IPC: 2.20710 (Simulation time: 0 hr 0 min 2 sec) 
Heartbeat CPU  0 instructions:    2000000 cycles:     861340 heartbeat IPC: 2.44944 cumulative IPC: 2.32196 (Simulation time: 0 hr 0 min 3 sec) 
Heartbeat CPU  0 instructions:    3000003 cycles:    1299524 heartbeat IPC: 2.28215 cumulative IPC: 2.30854 (Simulation time: 0 hr 0 min 5 sec) 
Heartbeat CPU  0 instructions:    4000000 cycles:    1765757 heartbeat IPC: 2.14484 cumulative IPC: 2.26532 (Simulation time: 0 hr 0 min 6 sec) 
Heartbeat CPU  0 instructions:    5000000 cycles:    2181238 heartbeat IPC: 2.40685 cumulative IPC: 2.29228 (Simulation time: 0 hr 0 min 8 sec) 
Heartbeat CPU  0 instructions:    6000000 cycles:    2658583 heartbeat IPC: 2.09492 cumulative IPC: 2.25684 (Simulation time: 0 hr 0 min 9 sec) 
Heartbeat CPU  0 instructions:    7000002 cycles:    3082228 heartbeat IPC: 2.36047 cumulative IPC: 2.27109 (Simulation time: 0 hr 0 min 11 sec) 
Heartbeat CPU  0 instructions:    8000000 cycles:    3488428 heartbeat IPC: 2.46184 cumulative IPC: 2.29330 (Simulation time: 0 hr 0 min 12 sec) 
Heartbeat CPU  0 instructions:    9000003 cycles:    3937097 heartbeat IPC: 2.22882 cumulative IPC: 2.28595 (Simulation time: 0 hr 0 min 14 sec) 
Heartbeat CPU  0 instructions:   10000001 cycles:    4377769 heartbeat IPC: 2.26926 cumulative IPC: 2.28427 (Simulation time: 0 hr 0 min 15 sec) 
Heartbeat CPU  0 instructions:   11000000 cycles:    4781974 heartbeat IPC: 2.47399 cumulative IPC: 2.30031 (Simulation time: 0 hr 0 min 17 sec) 
Heartbeat CPU  0 instructions:   12000000 cycles:    5196200 heartbeat IPC: 2.41414 cumulative IPC: 2.30938 (Simulation time: 0 hr 0 min 18 sec) 
Heartbeat CPU  0 instructions:   13000001 cycles:    5649332 heartbeat IPC: 2.20686 cumulative IPC: 2.30116 (Simulation time: 0 hr 0 min 20 sec) 
Heartbeat CPU  0 instructions:   14000003 cycles:    6084643 heartbeat IPC: 2.29721 cumulative IPC: 2.30087 (Simulation time: 0 hr 0 min 21 sec) 
Heartbeat CPU  0 instructions:   15000000 cycles:    6489740 heartbeat IPC: 2.46854 cumulative IPC: 2.31134 (Simulation time: 0 hr 0 min 23 sec) 
Heartbeat CPU  0 instructions:   16000000 cycles:    6909947 heartbeat IPC: 2.37978 cumulative IPC: 2.31550 (Simulation time: 0 hr 0 min 24 sec) 
Heartbeat CPU  0 instructions:   17000001 cycles:    7352906 heartbeat IPC: 2.25755 cumulative IPC: 2.31201 (Simulation time: 0 hr 0 min 26 sec) 
Heartbeat CPU  0 instructions:   18000000 cycles:    7788206 heartbeat IPC: 2.29726 cumulative IPC: 2.31119 (Simulation time: 0 hr 0 min 27 sec) 
Heartbeat CPU  0 instructions:   19000001 cycles:    8188800 heartbeat IPC: 2.49630 cumulative IPC: 2.32024 (Simulation time: 0 hr 0 min 29 sec) 
Heartbeat CPU  0 instructions:   20000000 cycles:    8635547 heartbeat IPC: 2.23840 cumulative IPC: 2.31601 (Simulation time: 0 hr 0 min 30 sec) 
Heartbeat CPU  0 instructions:   21000001 cycles:    9080752 heartbeat IPC: 2.24616 cumulative IPC: 2.31258 (Simulation time: 0 hr 0 min 32 sec) 
Heartbeat CPU  0 instructions:   22000000 cycles:    9481476 heartbeat IPC: 2.49548 cumulative IPC: 2.32031 (Simulation time: 0 hr 0 min 33 sec) 
Heartbeat CPU  0 instructions:   23000003 cycles:    9895765 heartbeat IPC: 2.41378 cumulative IPC: 2.32423 (Simulation time: 0 hr 0 min 35 sec) 
Heartbeat CPU  0 instructions:   24000000 cycles:   10338022 heartbeat IPC: 2.26112 cumulative IPC: 2.32153 (Simulation time: 0 hr 0 min 36 sec) 
Heartbeat CPU  0 instructions:   25000000 cycles:   10787006 heartbeat IPC: 2.22725 cumulative IPC: 2.31760 (Simulation time: 0 hr 0 min 38 sec) 
Heartbeat CPU  0 instructions:   26000000 cycles:   11183308 heartbeat IPC: 2.52333 cumulative IPC: 2.32489 (Simulation time: 0 hr 0 min 39 sec) 
Heartbeat CPU  0 instructions:   27000001 cycles:   11598130 heartbeat IPC: 2.41068 cumulative IPC: 2.32796 (Simulation time: 0 hr 0 min 41 sec) 
Heartbeat CPU  0 instructions:   28000000 cycles:   12045877 heartbeat IPC: 2.23340 cumulative IPC: 2.32445 (Simulation time: 0 hr 0 min 42 sec) 
Heartbeat CPU  0 instructions:   29000000 cycles:   12478754 heartbeat IPC: 2.31013 cumulative IPC: 2.32395 (Simulation time: 0 hr 0 min 44 sec) 
Heartbeat CPU  0 instructions:   30000003 cycles:   12886550 heartbeat IPC: 2.45221 cumulative IPC: 2.32801 (Simulation time: 0 hr 0 min 45 sec) 
Heartbeat CPU  0 instructions:   31000003 cycles:   13376799 heartbeat IPC: 2.03978 cumulative IPC: 2.31745 (Simulation time: 0 hr 0 min 47 sec) 
Heartbeat CPU  0 instructions:   32000000 cycles:   13779516 heartbeat IPC: 2.48313 cumulative IPC: 2.32229 (Simulation time: 0 hr 0 min 48 sec) 
Heartbeat CPU  0 instructions:   33000001 cycles:   14203515 heartbeat IPC: 2.35850 cumulative IPC: 2.32337 (Simulation time: 0 hr 0 min 50 sec) 
Heartbeat CPU  0 instructions:   34000003 cycles:   14655668 heartbeat IPC: 2.21165 cumulative IPC: 2.31992 (Simulation time: 0 hr 0 min 51 sec) 
Heartbeat CPU  0 instructions:   35000002 cycles:   15077104 heartbeat IPC: 2.37284 cumulative IPC: 2.32140 (Simulation time: 0 hr 0 min 53 sec) 
Heartbeat CPU  0 instructions:   36000000 cycles:   15474339 heartbeat IPC: 2.51740 cumulative IPC: 2.32643 (Simulation time: 0 hr 0 min 54 sec) 
Heartbeat CPU  0 instructions:   37000001 cycles:   15909780 heartbeat IPC: 2.29652 cumulative IPC: 2.32561 (Simulation time: 0 hr 0 min 56 sec) 
Heartbeat CPU  0 instructions:   38000000 cycles:   16358002 heartbeat IPC: 2.23103 cumulative IPC: 2.32302 (Simulation time: 0 hr 0 min 57 sec) 
Heartbeat CPU  0 instructions:   39000000 cycles:   16774291 heartbeat IPC: 2.40218 cumulative IPC: 2.32499 (Simulation time: 0 hr 0 min 59 sec) 
Heartbeat CPU  0 instructions:   40000000 cycles:   17172792 heartbeat IPC: 2.50940 cumulative IPC: 2.32927 (Simulation time: 0 hr 1 min 0 sec) 
Heartbeat CPU  0 instructions:   41000003 cycles:   17614898 heartbeat IPC: 2.26191 cumulative IPC: 2.32758 (Simulation time: 0 hr 1 min 2 sec) 
Heartbeat CPU  0 instructions:   42000003 cycles:   18057159 heartbeat IPC: 2.26111 cumulative IPC: 2.32595 (Simulation time: 0 hr 1 min 3 sec) 
Heartbeat CPU  0 instructions:   43000002 cycles:   18463348 heartbeat IPC: 2.46191 cumulative IPC: 2.32894 (Simulation time: 0 hr 1 min 5 sec) 
Heartbeat CPU  0 instructions:   44000000 cycles:   18913754 heartbeat IPC: 2.22021 cumulative IPC: 2.32635 (Simulation time: 0 hr 1 min 6 sec) 
Heartbeat CPU  0 instructions:   45000000 cycles:   19361550 heartbeat IPC: 2.23316 cumulative IPC: 2.32419 (Simulation time: 0 hr 1 min 8 sec) 
Heartbeat CPU  0 instructions:   46000003 cycles:   19774904 heartbeat IPC: 2.41924 cumulative IPC: 2.32618 (Simulation time: 0 hr 1 min 9 sec) 
Heartbeat CPU  0 instructions:   47000003 cycles:   20228308 heartbeat IPC: 2.20554 cumulative IPC: 2.32348 (Simulation time: 0 hr 1 min 11 sec) 
Heartbeat CPU  0 instructions:   48000000 cycles:   20652037 heartbeat IPC: 2.35999 cumulative IPC: 2.32423 (Simulation time: 0 hr 1 min 12 sec) 
Heartbeat CPU  0 instructions:   49000003 cycles:   21060772 heartbeat IPC: 2.44658 cumulative IPC: 2.32660 (Simulation time: 0 hr 1 min 14 sec) 
Heartbeat CPU  0 instructions:   50000000 cycles:   21501079 heartbeat IPC: 2.27114 cumulative IPC: 2.32546 (Simulation time: 0 hr 1 min 15 sec) 
Heartbeat CPU  0 instructions:   51000003 cycles:   21938113 heartbeat IPC: 2.28816 cumulative IPC: 2.32472 (Simulation time: 0 hr 1 min 17 sec) 
Heartbeat CPU  0 instructions:   52000000 cycles:   22345456 heartbeat IPC: 2.45493 cumulative IPC: 2.32710 (Simulation time: 0 hr 1 min 18 sec) 
Heartbeat CPU  0 instructions:   53000000 cycles:   22760907 heartbeat IPC: 2.40702 cumulative IPC: 2.32855 (Simulation time: 0 hr 1 min 20 sec) 
Heartbeat CPU  0 instructions:   54000001 cycles:   23200777 heartbeat IPC: 2.27340 cumulative IPC: 2.32751 (Simulation time: 0 hr 1 min 21 sec) 
Heartbeat CPU  0 instructions:   55000001 cycles:   23635740 heartbeat IPC: 2.29905 cumulative IPC: 2.32698 (Simulation time: 0 hr 1 min 23 sec) 
Heartbeat CPU  0 instructions:   56000000 cycles:   24043049 heartbeat IPC: 2.45514 cumulative IPC: 2.32916 (Simulation time: 0 hr 1 min 24 sec) 
Heartbeat CPU  0 instructions:   57000003 cycles:   24458788 heartbeat IPC: 2.40536 cumulative IPC: 2.33045 (Simulation time: 0 hr 1 min 25 sec) 
Heartbeat CPU  0 instructions:   58000001 cycles:   24905970 heartbeat IPC: 2.23622 cumulative IPC: 2.32876 (Simulation time: 0 hr 1 min 27 sec) 
Heartbeat CPU  0 instructions:   59000000 cycles:   25336649 heartbeat IPC: 2.32191 cumulative IPC: 2.32864 (Simulation time: 0 hr 1 min 29 sec) 
Heartbeat CPU  0 instructions:   60000000 cycles:   25732362 heartbeat IPC: 2.52708 cumulative IPC: 2.33169 (Simulation time: 0 hr 1 min 30 sec) 
Heartbeat CPU  0 instructions:   61000001 cycles:   26184069 heartbeat IPC: 2.21383 cumulative IPC: 2.32966 (Simulation time: 0 hr 1 min 32 sec) 
Heartbeat CPU  0 instructions:   62000001 cycles:   26622144 heartbeat IPC: 2.28271 cumulative IPC: 2.32889 (Simulation time: 0 hr 1 min 33 sec) 
Heartbeat CPU  0 instructions:   63000000 cycles:   27026167 heartbeat IPC: 2.47510 cumulative IPC: 2.33107 (Simulation time: 0 hr 1 min 34 sec) 
Heartbeat CPU  0 instructions:   64000000 cycles:   27435807 heartbeat IPC: 2.44117 cumulative IPC: 2.33272 (Simulation time: 0 hr 1 min 36 sec) 
Heartbeat CPU  0 instructions:   65000001 cycles:   27883780 heartbeat IPC: 2.23228 cumulative IPC: 2.33110 (Simulation time: 0 hr 1 min 37 sec) 
Heartbeat CPU  0 instructions:   66000003 cycles:   28322210 heartbeat IPC: 2.28087 cumulative IPC: 2.33033 (Simulation time: 0 hr 1 min 39 sec) 
Heartbeat CPU  0 instructions:   67000000 cycles:   28721536 heartbeat IPC: 2.50421 cumulative IPC: 2.33274 (Simulation time: 0 hr 1 min 40 sec) 
Heartbeat CPU  0 instructions:   68000000 cycles:   29137702 heartbeat IPC: 2.40289 cumulative IPC: 2.33375 (Simulation time: 0 hr 1 min 42 sec) 
Heartbeat CPU  0 instructions:   69000001 cycles:   29579082 heartbeat IPC: 2.26562 cumulative IPC: 2.33273 (Simulation time: 0 hr 1 min 43 sec) 
Heartbeat CPU  0 instructions:   70000001 cycles:   30012578 heartbeat IPC: 2.30683 cumulative IPC: 2.33236 (Simulation time: 0 hr 1 min 45 sec) 
Heartbeat CPU  0 instructions:   71000003 cycles:   30437933 heartbeat IPC: 2.35098 cumulative IPC: 2.33262 (Simulation time: 0 hr 1 min 46 sec) 
Heartbeat CPU  0 instructions:   72000000 cycles:   30913585 heartbeat IPC: 2.10237 cumulative IPC: 2.32907 (Simulation time: 0 hr 1 min 48 sec) 
Heartbeat CPU  0 instructions:   73000001 cycles:   31310013 heartbeat IPC: 2.52253 cumulative IPC: 2.33152 (Simulation time: 0 hr 1 min 49 sec) 
Heartbeat CPU  0 instructions:   74000000 cycles:   31749846 heartbeat IPC: 2.27359 cumulative IPC: 2.33072 (Simulation time: 0 hr 1 min 51 sec) 
Heartbeat CPU  0 instructions:   75000003 cycles:   32201054 heartbeat IPC: 2.21628 cumulative IPC: 2.32912 (Simulation time: 0 hr 1 min 52 sec) 
Heartbeat CPU  0 instructions:   76000000 cycles:   32602023 heartbeat IPC: 2.49395 cumulative IPC: 2.33114 (Simulation time: 0 hr 1 min 54 sec) 
Heartbeat CPU  0 instructions:   77000001 cycles:   33018914 heartbeat IPC: 2.39871 cumulative IPC: 2.33200 (Simulation time: 0 hr 1 min 55 sec) 
Heartbeat CPU  0 instructions:   78000001 cycles:   33454065 heartbeat IPC: 2.29805 cumulative IPC: 2.33156 (Simulation time: 0 hr 1 min 57 sec) 
Heartbeat CPU  0 instructions:   79000000 cycles:   33900532 heartbeat IPC: 2.23980 cumulative IPC: 2.33035 (Simulation time: 0 hr 1 min 58 sec) 
Heartbeat CPU  0 instructions:   80000000 cycles:   34296586 heartbeat IPC: 2.52491 cumulative IPC: 2.33259 (Simulation time: 0 hr 2 min 0 sec) 
Heartbeat CPU  0 instructions:   81000003 cycles:   34714452 heartbeat IPC: 2.39312 cumulative IPC: 2.33332 (Simulation time: 0 hr 2 min 1 sec) 
Heartbeat CPU  0 instructions:   82000003 cycles:   35155770 heartbeat IPC: 2.26594 cumulative IPC: 2.33248 (Simulation time: 0 hr 2 min 3 sec) 
Heartbeat CPU  0 instructions:   83000000 cycles:   35590878 heartbeat IPC: 2.29827 cumulative IPC: 2.33206 (Simulation time: 0 hr 2 min 4 sec) 
Heartbeat CPU  0 instructions:   84000000 cycles:   35984287 heartbeat IPC: 2.54188 cumulative IPC: 2.33435 (Simulation time: 0 hr 2 min 6 sec) 
Heartbeat CPU  0 instructions:   85000000 cycles:   36424783 heartbeat IPC: 2.27017 cumulative IPC: 2.33358 (Simulation time: 0 hr 2 min 7 sec) 
Heartbeat CPU  0 instructions:   86000001 cycles:   36865580 heartbeat IPC: 2.26862 cumulative IPC: 2.33280 (Simulation time: 0 hr 2 min 9 sec) 
Heartbeat CPU  0 instructions:   87000002 cycles:   37276953 heartbeat IPC: 2.43089 cumulative IPC: 2.33388 (Simulation time: 0 hr 2 min 10 sec) 
Heartbeat CPU  0 instructions:   88000000 cycles:   37692949 heartbeat IPC: 2.40386 cumulative IPC: 2.33465 (Simulation time: 0 hr 2 min 12 sec) 
Heartbeat CPU  0 instructions:   89000001 cycles:   38129248 heartbeat IPC: 2.29201 cumulative IPC: 2.33417 (Simulation time: 0 hr 2 min 13 sec) 
Heartbeat CPU  0 instructions:   90000000 cycles:   38563896 heartbeat IPC: 2.30071 cumulative IPC: 2.33379 (Simulation time: 0 hr 2 min 15 sec) 
Heartbeat CPU  0 instructions:   91000000 cycles:   38969944 heartbeat IPC: 2.46276 cumulative IPC: 2.33513 (Simulation time: 0 hr 2 min 16 sec) 
Heartbeat CPU  0 instructions:   92000000 cycles:   39388424 heartbeat IPC: 2.38960 cumulative IPC: 2.33571 (Simulation time: 0 hr 2 min 18 sec) 
Heartbeat CPU  0 instructions:   93000000 cycles:   39821956 heartbeat IPC: 2.30663 cumulative IPC: 2.33540 (Simulation time: 0 hr 2 min 19 sec) 
Heartbeat CPU  0 instructions:   94000002 cycles:   40262114 heartbeat IPC: 2.27192 cumulative IPC: 2.33470 (Simulation time: 0 hr 2 min 21 sec) 
Heartbeat CPU  0 instructions:   95000000 cycles:   40654150 heartbeat IPC: 2.55078 cumulative IPC: 2.33678 (Simulation time: 0 hr 2 min 22 sec) 
Heartbeat CPU  0 instructions:   96000000 cycles:   41088062 heartbeat IPC: 2.30461 cumulative IPC: 2.33645 (Simulation time: 0 hr 2 min 24 sec) 
Heartbeat CPU  0 instructions:   97000001 cycles:   41550645 heartbeat IPC: 2.16178 cumulative IPC: 2.33450 (Simulation time: 0 hr 2 min 25 sec) 
Heartbeat CPU  0 instructions:   98000003 cycles:   41969776 heartbeat IPC: 2.38589 cumulative IPC: 2.33501 (Simulation time: 0 hr 2 min 27 sec) 
Heartbeat CPU  0 instructions:   99000001 cycles:   42412147 heartbeat IPC: 2.26054 cumulative IPC: 2.33424 (Simulation time: 0 hr 2 min 28 sec) 
Heartbeat CPU  0 instructions:  100000000 cycles:   42843344 heartbeat IPC: 2.31912 cumulative IPC: 2.33408 (Simulation time: 0 hr 2 min 30 sec) 

Warmup complete CPU  0 instructions:  100000001 cycles:   42843345 (Simulation time: 0 hr 2 min 30 sec) 

Heartbeat CPU  0 instructions:  101000001 cycles:   43518930 heartbeat IPC: 1.48020 cumulative IPC: 1.48020 (Simulation time: 0 hr 2 min 31 sec) 
Heartbeat CPU  0 instructions:  102000003 cycles:   44204426 heartbeat IPC: 1.45880 cumulative IPC: 1.46942 (Simulation time: 0 hr 2 min 33 sec) 
Heartbeat CPU  0 instructions:  103000003 cycles:   44887262 heartbeat IPC: 1.46448 cumulative IPC: 1.46777 (Simulation time: 0 hr 2 min 35 sec) 
Heartbeat CPU  0 instructions:  104000000 cycles:   45571321 heartbeat IPC: 1.46186 cumulative IPC: 1.46629 (Simulation time: 0 hr 2 min 37 sec) 
Heartbeat CPU  0 instructions:  105000001 cycles:   46259480 heartbeat IPC: 1.45315 cumulative IPC: 1.46364 (Simulation time: 0 hr 2 min 38 sec) 
Heartbeat CPU  0 instructions:  106000000 cycles:   46939402 heartbeat IPC: 1.47076 cumulative IPC: 1.46482 (Simulation time: 0 hr 2 min 40 sec) 
Heartbeat CPU  0 instructions:  107000001 cycles:   47620611 heartbeat IPC: 1.46798 cumulative IPC: 1.46527 (Simulation time: 0 hr 2 min 42 sec) 
Heartbeat CPU  0 instructions:  108000000 cycles:   48336754 heartbeat IPC: 1.39637 cumulative IPC: 1.45629 (Simulation time: 0 hr 2 min 44 sec) 
Heartbeat CPU  0 instructions:  109000001 cycles:   49016000 heartbeat IPC: 1.47222 cumulative IPC: 1.45804 (Simulation time: 0 hr 2 min 45 sec) 
Heartbeat CPU  0 instructions:  110000003 cycles:   49792342 heartbeat IPC: 1.28809 cumulative IPC: 1.43906 (Simulation time: 0 hr 2 min 47 sec) 
Heartbeat CPU  0 instructions:  111000000 cycles:   50644555 heartbeat IPC: 1.17341 cumulative IPC: 1.41004 (Simulation time: 0 hr 2 min 49 sec) 
Heartbeat CPU  0 instructions:  112000000 cycles:   51450818 heartbeat IPC: 1.24029 cumulative IPC: 1.39414 (Simulation time: 0 hr 2 min 51 sec) 
Heartbeat CPU  0 instructions:  113000003 cycles:   52154288 heartbeat IPC: 1.42153 cumulative IPC: 1.39621 (Simulation time: 0 hr 2 min 52 sec) 
Heartbeat CPU  0 instructions:  114000001 cycles:   52852092 heartbeat IPC: 1.43306 cumulative IPC: 1.39878 (Simulation time: 0 hr 2 min 54 sec) 
Heartbeat CPU  0 instructions:  115000002 cycles:   53569885 heartbeat IPC: 1.39316 cumulative IPC: 1.39840 (Simulation time: 0 hr 2 min 56 sec) 
Heartbeat CPU  0 instructions:  116000000 cycles:   54257074 heartbeat IPC: 1.45520 cumulative IPC: 1.40182 (Simulation time: 0 hr 2 min 57 sec) 
Heartbeat CPU  0 instructions:  117000000 cycles:   54925818 heartbeat IPC: 1.49534 cumulative IPC: 1.40700 (Simulation time: 0 hr 2 min 59 sec) 
Heartbeat CPU  0 instructions:  118000000 cycles:   55576020 heartbeat IPC: 1.53798 cumulative IPC: 1.41369 (Simulation time: 0 hr 3 min 1 sec) 
Heartbeat CPU  0 instructions:  119000002 cycles:   56300790 heartbeat IPC: 1.37975 cumulative IPC: 1.41186 (Simulation time: 0 hr 3 min 3 sec) 
Heartbeat CPU  0 instructions:  120000000 cycles:   56978076 heartbeat IPC: 1.47648 cumulative IPC: 1.41495 (Simulation time: 0 hr 3 min 4 sec) 
Heartbeat CPU  0 instructions:  121000002 cycles:   57646542 heartbeat IPC: 1.49597 cumulative IPC: 1.41861 (Simulation time: 0 hr 3 min 6 sec) 
Heartbeat CPU  0 instructions:  122000000 cycles:   58320663 heartbeat IPC: 1.48341 cumulative IPC: 1.42143 (Simulation time: 0 hr 3 min 8 sec) 
Heartbeat CPU  0 instructions:  123000002 cycles:   59048369 heartbeat IPC: 1.37418 cumulative IPC: 1.41931 (Simulation time: 0 hr 3 min 9 sec) 
Heartbeat CPU  0 instructions:  124000000 cycles:   59790965 heartbeat IPC: 1.34662 cumulative IPC: 1.41613 (Simulation time: 0 hr 3 min 11 sec) 
Heartbeat CPU  0 instructions:  125000000 cycles:   60466436 heartbeat IPC: 1.48045 cumulative IPC: 1.41859 (Simulation time: 0 hr 3 min 13 sec) 
Heartbeat CPU  0 instructions:  126000000 cycles:   61176912 heartbeat IPC: 1.40751 cumulative IPC: 1.41816 (Simulation time: 0 hr 3 min 15 sec) 
Heartbeat CPU  0 instructions:  127000003 cycles:   61900467 heartbeat IPC: 1.38207 cumulative IPC: 1.41679 (Simulation time: 0 hr 3 min 16 sec) 
Heartbeat CPU  0 instructions:  128000000 cycles:   62573660 heartbeat IPC: 1.48545 cumulative IPC: 1.41914 (Simulation time: 0 hr 3 min 18 sec) 
Heartbeat CPU  0 instructions:  129000001 cycles:   63219975 heartbeat IPC: 1.54723 cumulative IPC: 1.42320 (Simulation time: 0 hr 3 min 20 sec) 
Heartbeat CPU  0 instructions:  130000001 cycles:   63910743 heartbeat IPC: 1.44766 cumulative IPC: 1.42400 (Simulation time: 0 hr 3 min 21 sec) 
Heartbeat CPU  0 instructions:  131000002 cycles:   64628982 heartbeat IPC: 1.39230 cumulative IPC: 1.42296 (Simulation time: 0 hr 3 min 23 sec) 
Heartbeat CPU  0 instructions:  132000000 cycles:   65291281 heartbeat IPC: 1.50989 cumulative IPC: 1.42552 (Simulation time: 0 hr 3 min 25 sec) 
Heartbeat CPU  0 instructions:  133000003 cycles:   65943522 heartbeat IPC: 1.53318 cumulative IPC: 1.42856 (Simulation time: 0 hr 3 min 27 sec) 
Heartbeat CPU  0 instructions:  134000001 cycles:   66674789 heartbeat IPC: 1.36749 cumulative IPC: 1.42669 (Simulation time: 0 hr 3 min 28 sec) 
Heartbeat CPU  0 instructions:  135000001 cycles:   67385931 heartbeat IPC: 1.40619 cumulative IPC: 1.42609 (Simulation time: 0 hr 3 min 30 sec) 
Heartbeat CPU  0 instructions:  136000000 cycles:   68135304 heartbeat IPC: 1.33445 cumulative IPC: 1.42338 (Simulation time: 0 hr 3 min 32 sec) 
Heartbeat CPU  0 instructions:  137000003 cycles:   69024902 heartbeat IPC: 1.12411 cumulative IPC: 1.41321 (Simulation time: 0 hr 3 min 34 sec) 
Heartbeat CPU  0 instructions:  138000002 cycles:   69740056 heartbeat IPC: 1.39830 cumulative IPC: 1.41281 (Simulation time: 0 hr 3 min 35 sec) 
Heartbeat CPU  0 instructions:  139000002 cycles:   70402426 heartbeat IPC: 1.50973 cumulative IPC: 1.41514 (Simulation time: 0 hr 3 min 37 sec) 
Heartbeat CPU  0 instructions:  140000000 cycles:   71160041 heartbeat IPC: 1.31993 cumulative IPC: 1.41259 (Simulation time: 0 hr 3 min 39 sec) 
Heartbeat CPU  0 instructions:  141000001 cycles:   71849247 heartbeat IPC: 1.45095 cumulative IPC: 1.41351 (Simulation time: 0 hr 3 min 41 sec) 
Heartbeat CPU  0 instructions:  142000001 cycles:   72511566 heartbeat IPC: 1.50985 cumulative IPC: 1.41566 (Simulation time: 0 hr 3 min 42 sec) 
Heartbeat CPU  0 instructions:  143000002 cycles:   73170994 heartbeat IPC: 1.51647 cumulative IPC: 1.41785 (Simulation time: 0 hr 3 min 44 sec) 
Heartbeat CPU  0 instructions:  144000000 cycles:   73882854 heartbeat IPC: 1.40477 cumulative IPC: 1.41755 (Simulation time: 0 hr 3 min 46 sec) 
Heartbeat CPU  0 instructions:  145000003 cycles:   74571908 heartbeat IPC: 1.45127 cumulative IPC: 1.41828 (Simulation time: 0 hr 3 min 47 sec) 
Heartbeat CPU  0 instructions:  146000000 cycles:   75228056 heartbeat IPC: 1.52404 cumulative IPC: 1.42042 (Simulation time: 0 hr 3 min 49 sec) 
Heartbeat CPU  0 instructions:  147000003 cycles:   75914898 heartbeat IPC: 1.45594 cumulative IPC: 1.42116 (Simulation time: 0 hr 3 min 51 sec) 
Heartbeat CPU  0 instructions:  148000000 cycles:   76620931 heartbeat IPC: 1.41636 cumulative IPC: 1.42106 (Simulation time: 0 hr 3 min 53 sec) 
Heartbeat CPU  0 instructions:  149000001 cycles:   77358631 heartbeat IPC: 1.35557 cumulative IPC: 1.41966 (Simulation time: 0 hr 3 min 54 sec) 
Heartbeat CPU  0 instructions:  150000003 cycles:   78177515 heartbeat IPC: 1.22118 cumulative IPC: 1.41506 (Simulation time: 0 hr 3 min 56 sec) 
Heartbeat CPU  0 instructions:  151000000 cycles:   78986055 heartbeat IPC: 1.23679 cumulative IPC: 1.41107 (Simulation time: 0 hr 3 min 58 sec) 
Heartbeat CPU  0 instructions:  152000000 cycles:   79727654 heartbeat IPC: 1.34844 cumulative IPC: 1.40981 (Simulation time: 0 hr 4 min 0 sec) 
Heartbeat CPU  0 instructions:  153000001 cycles:   80492207 heartbeat IPC: 1.30796 cumulative IPC: 1.40775 (Simulation time: 0 hr 4 min 1 sec) 
Heartbeat CPU  0 instructions:  154000000 cycles:   81255146 heartbeat IPC: 1.31072 cumulative IPC: 1.40582 (Simulation time: 0 hr 4 min 3 sec) 
Heartbeat CPU  0 instructions:  155000000 cycles:   82030154 heartbeat IPC: 1.29031 cumulative IPC: 1.40353 (Simulation time: 0 hr 4 min 5 sec) 
Heartbeat CPU  0 instructions:  156000000 cycles:   82935073 heartbeat IPC: 1.10507 cumulative IPC: 1.39680 (Simulation time: 0 hr 4 min 7 sec) 
Heartbeat CPU  0 instructions:  157000002 cycles:   83656390 heartbeat IPC: 1.38636 cumulative IPC: 1.39661 (Simulation time: 0 hr 4 min 8 sec) 
Heartbeat CPU  0 instructions:  158000001 cycles:   84525274 heartbeat IPC: 1.15090 cumulative IPC: 1.39149 (Simulation time: 0 hr 4 min 10 sec) 
Heartbeat CPU  0 instructions:  159000001 cycles:   85269685 heartbeat IPC: 1.34334 cumulative IPC: 1.39065 (Simulation time: 0 hr 4 min 12 sec) 
Heartbeat CPU  0 instructions:  160000000 cycles:   85964068 heartbeat IPC: 1.44013 cumulative IPC: 1.39144 (Simulation time: 0 hr 4 min 14 sec) 
Heartbeat CPU  0 instructions:  161000001 cycles:   86681650 heartbeat IPC: 1.39357 cumulative IPC: 1.39148 (Simulation time: 0 hr 4 min 15 sec) 
Heartbeat CPU  0 instructions:  162000003 cycles:   87405941 heartbeat IPC: 1.38066 cumulative IPC: 1.39130 (Simulation time: 0 hr 4 min 17 sec) 
Heartbeat CPU  0 instructions:  163000000 cycles:   88075677 heartbeat IPC: 1.49312 cumulative IPC: 1.39281 (Simulation time: 0 hr 4 min 19 sec) 
Heartbeat CPU  0 instructions:  164000000 cycles:   88784020 heartbeat IPC: 1.41175 cumulative IPC: 1.39310 (Simulation time: 0 hr 4 min 20 sec) 
Heartbeat CPU  0 instructions:  165000001 cycles:   89474702 heartbeat IPC: 1.44785 cumulative IPC: 1.39391 (Simulation time: 0 hr 4 min 22 sec) 
Heartbeat CPU  0 instructions:  166000001 cycles:   90147989 heartbeat IPC: 1.48525 cumulative IPC: 1.39521 (Simulation time: 0 hr 4 min 24 sec) 
Heartbeat CPU  0 instructions:  167000002 cycles:   90869238 heartbeat IPC: 1.38649 cumulative IPC: 1.39508 (Simulation time: 0 hr 4 min 26 sec) 
Heartbeat CPU  0 instructions:  168000000 cycles:   91617737 heartbeat IPC: 1.33600 cumulative IPC: 1.39417 (Simulation time: 0 hr 4 min 27 sec) 
Heartbeat CPU  0 instructions:  169000000 cycles:   92343496 heartbeat IPC: 1.37787 cumulative IPC: 1.39394 (Simulation time: 0 hr 4 min 29 sec) 
Heartbeat CPU  0 instructions:  170000001 cycles:   93013682 heartbeat IPC: 1.49212 cumulative IPC: 1.39525 (Simulation time: 0 hr 4 min 31 sec) 
Heartbeat CPU  0 instructions:  171000000 cycles:   93754258 heartbeat IPC: 1.35030 cumulative IPC: 1.39459 (Simulation time: 0 hr 4 min 33 sec) 
Heartbeat CPU  0 instructions:  172000000 cycles:   94486756 heartbeat IPC: 1.36519 cumulative IPC: 1.39418 (Simulation time: 0 hr 4 min 34 sec) 
Heartbeat CPU  0 instructions:  173000001 cycles:   95173876 heartbeat IPC: 1.45535 cumulative IPC: 1.39498 (Simulation time: 0 hr 4 min 36 sec) 
Heartbeat CPU  0 instructions:  174000000 cycles:   95908745 heartbeat IPC: 1.36079 cumulative IPC: 1.39451 (Simulation time: 0 hr 4 min 38 sec) 
Heartbeat CPU  0 instructions:  175000000 cycles:   96609346 heartbeat IPC: 1.42735 cumulative IPC: 1.39493 (Simulation time: 0 hr 4 min 40 sec) 
Heartbeat CPU  0 instructions:  176000000 cycles:   97329037 heartbeat IPC: 1.38949 cumulative IPC: 1.39486 (Simulation time: 0 hr 4 min 41 sec) 
Heartbeat CPU  0 instructions:  177000002 cycles:   98105888 heartbeat IPC: 1.28725 cumulative IPC: 1.39335 (Simulation time: 0 hr 4 min 43 sec) 
Heartbeat CPU  0 instructions:  178000001 cycles:   98902459 heartbeat IPC: 1.25538 cumulative IPC: 1.39139 (Simulation time: 0 hr 4 min 45 sec) 
Heartbeat CPU  0 instructions:  179000003 cycles:   99645758 heartbeat IPC: 1.34536 cumulative IPC: 1.39079 (Simulation time: 0 hr 4 min 47 sec) 
Heartbeat CPU  0 instructions:  180000000 cycles:  100417270 heartbeat IPC: 1.29615 cumulative IPC: 1.38952 (Simulation time: 0 hr 4 min 48 sec) 
Heartbeat CPU  0 instructions:  181000000 cycles:  101186978 heartbeat IPC: 1.29919 cumulative IPC: 1.38833 (Simulation time: 0 hr 4 min 50 sec) 
Heartbeat CPU  0 instructions:  182000003 cycles:  101953567 heartbeat IPC: 1.30448 cumulative IPC: 1.38724 (Simulation time: 0 hr 4 min 52 sec) 
Heartbeat CPU  0 instructions:  183000002 cycles:  102746708 heartbeat IPC: 1.26081 cumulative IPC: 1.38556 (Simulation time: 0 hr 4 min 54 sec) 
Heartbeat CPU  0 instructions:  184000000 cycles:  103444971 heartbeat IPC: 1.43212 cumulative IPC: 1.38610 (Simulation time: 0 hr 4 min 55 sec) 
Heartbeat CPU  0 instructions:  185000002 cycles:  104179789 heartbeat IPC: 1.36088 cumulative IPC: 1.38580 (Simulation time: 0 hr 4 min 57 sec) 
Heartbeat CPU  0 instructions:  186000000 cycles:  104877276 heartbeat IPC: 1.43372 cumulative IPC: 1.38634 (Simulation time: 0 hr 4 min 59 sec) 
Heartbeat CPU  0 instructions:  187000001 cycles:  105565878 heartbeat IPC: 1.45222 cumulative IPC: 1.38706 (Simulation time: 0 hr 5 min 0 sec) 
Heartbeat CPU  0 instructions:  188000000 cycles:  106372685 heartbeat IPC: 1.23945 cumulative IPC: 1.38519 (Simulation time: 0 hr 5 min 2 sec) 
Heartbeat CPU  0 instructions:  189000000 cycles:  107164604 heartbeat IPC: 1.26276 cumulative IPC: 1.38368 (Simulation time: 0 hr 5 min 4 sec) 
Heartbeat CPU  0 instructions:  190000000 cycles:  107909781 heartbeat IPC: 1.34196 cumulative IPC: 1.38320 (Simulation time: 0 hr 5 min 6 sec) 
Heartbeat CPU  0 instructions:  191000003 cycles:  108677810 heartbeat IPC: 1.30204 cumulative IPC: 1.38225 (Simulation time: 0 hr 5 min 8 sec) 
Heartbeat CPU  0 instructions:  192000000 cycles:  109414233 heartbeat IPC: 1.35791 cumulative IPC: 1.38199 (Simulation time: 0 hr 5 min 9 sec) 
Heartbeat CPU  0 instructions:  193000000 cycles:  110208996 heartbeat IPC: 1.25824 cumulative IPC: 1.38053 (Simulation time: 0 hr 5 min 11 sec) 
Heartbeat CPU  0 instructions:  194000001 cycles:  111010712 heartbeat IPC: 1.24733 cumulative IPC: 1.37896 (Simulation time: 0 hr 5 min 13 sec) 
Heartbeat CPU  0 instructions:  195000001 cycles:  111705215 heartbeat IPC: 1.43988 cumulative IPC: 1.37957 (Simulation time: 0 hr 5 min 15 sec) 
Heartbeat CPU  0 instructions:  196000000 cycles:  112507603 heartbeat IPC: 1.24628 cumulative IPC: 1.37804 (Simulation time: 0 hr 5 min 16 sec) 
Heartbeat CPU  0 instructions:  197000001 cycles:  113265024 heartbeat IPC: 1.32027 cumulative IPC: 1.37742 (Simulation time: 0 hr 5 min 18 sec) 
Heartbeat CPU  0 instructions:  198000002 cycles:  114068072 heartbeat IPC: 1.24526 cumulative IPC: 1.37593 (Simulation time: 0 hr 5 min 20 sec) 
Heartbeat CPU  0 instructions:  199000002 cycles:  114929369 heartbeat IPC: 1.16104 cumulative IPC: 1.37336 (Simulation time: 0 hr 5 min 22 sec) 
Heartbeat CPU  0 instructions:  200000000 cycles:  115714025 heartbeat IPC: 1.27444 cumulative IPC: 1.37229 (Simulation time: 0 hr 5 min 24 sec) 
Heartbeat CPU  0 instructions:  201000000 cycles:  116557189 heartbeat IPC: 1.18601 cumulative IPC: 1.37016 (Simulation time: 0 hr 5 min 25 sec) 
Heartbeat CPU  0 instructions:  202000000 cycles:  117331513 heartbeat IPC: 1.29145 cumulative IPC: 1.36934 (Simulation time: 0 hr 5 min 27 sec) 
Heartbeat CPU  0 instructions:  203000000 cycles:  118213579 heartbeat IPC: 1.13370 cumulative IPC: 1.36659 (Simulation time: 0 hr 5 min 29 sec) 
Heartbeat CPU  0 instructions:  204000000 cycles:  118996956 heartbeat IPC: 1.27652 cumulative IPC: 1.36566 (Simulation time: 0 hr 5 min 31 sec) 
Heartbeat CPU  0 instructions:  205000001 cycles:  119845006 heartbeat IPC: 1.17918 cumulative IPC: 1.36361 (Simulation time: 0 hr 5 min 32 sec) 
Heartbeat CPU  0 instructions:  206000003 cycles:  120612708 heartbeat IPC: 1.30259 cumulative IPC: 1.36300 (Simulation time: 0 hr 5 min 34 sec) 
Heartbeat CPU  0 instructions:  207000003 cycles:  121360153 heartbeat IPC: 1.33789 cumulative IPC: 1.36277 (Simulation time: 0 hr 5 min 36 sec) 
Heartbeat CPU  0 instructions:  208000000 cycles:  122102758 heartbeat IPC: 1.34661 cumulative IPC: 1.36261 (Simulation time: 0 hr 5 min 38 sec) 
Heartbeat CPU  0 instructions:  209000001 cycles:  122884570 heartbeat IPC: 1.27908 cumulative IPC: 1.36180 (Simulation time: 0 hr 5 min 39 sec) 
Heartbeat CPU  0 instructions:  210000003 cycles:  123739938 heartbeat IPC: 1.16909 cumulative IPC: 1.35976 (Simulation time: 0 hr 5 min 41 sec) 
Heartbeat CPU  0 instructions:  211000001 cycles:  124481624 heartbeat IPC: 1.34828 cumulative IPC: 1.35966 (Simulation time: 0 hr 5 min 43 sec) 
Heartbeat CPU  0 instructions:  212000000 cycles:  125195922 heartbeat IPC: 1.39997 cumulative IPC: 1.36001 (Simulation time: 0 hr 5 min 45 sec) 
Heartbeat CPU  0 instructions:  213000000 cycles:  125996192 heartbeat IPC: 1.24958 cumulative IPC: 1.35894 (Simulation time: 0 hr 5 min 46 sec) 
Heartbeat CPU  0 instructions:  214000000 cycles:  126768599 heartbeat IPC: 1.29465 cumulative IPC: 1.35835 (Simulation time: 0 hr 5 min 48 sec) 
Heartbeat CPU  0 instructions:  215000001 cycles:  127604696 heartbeat IPC: 1.19603 cumulative IPC: 1.35675 (Simulation time: 0 hr 5 min 50 sec) 
Heartbeat CPU  0 instructions:  216000000 cycles:  128390978 heartbeat IPC: 1.27181 cumulative IPC: 1.35597 (Simulation time: 0 hr 5 min 52 sec) 
Heartbeat CPU  0 instructions:  217000003 cycles:  129266535 heartbeat IPC: 1.14213 cumulative IPC: 1.35380 (Simulation time: 0 hr 5 min 54 sec) 
Heartbeat CPU  0 instructions:  218000002 cycles:  130036521 heartbeat IPC: 1.29872 cumulative IPC: 1.35332 (Simulation time: 0 hr 5 min 55 sec) 
Heartbeat CPU  0 instructions:  219000001 cycles:  130752954 heartbeat IPC: 1.39580 cumulative IPC: 1.35366 (Simulation time: 0 hr 5 min 57 sec) 
Heartbeat CPU  0 instructions:  220000000 cycles:  131459694 heartbeat IPC: 1.41495 cumulative IPC: 1.35415 (Simulation time: 0 hr 5 min 59 sec) 
Heartbeat CPU  0 instructions:  221000000 cycles:  132130160 heartbeat IPC: 1.49150 cumulative IPC: 1.35518 (Simulation time: 0 hr 6 min 1 sec) 
Heartbeat CPU  0 instructions:  222000003 cycles:  132947020 heartbeat IPC: 1.22420 cumulative IPC: 1.35400 (Simulation time: 0 hr 6 min 2 sec) 
Heartbeat CPU  0 instructions:  223000002 cycles:  133653077 heartbeat IPC: 1.41631 cumulative IPC: 1.35448 (Simulation time: 0 hr 6 min 4 sec) 
Heartbeat CPU  0 instructions:  224000000 cycles:  134333257 heartbeat IPC: 1.47020 cumulative IPC: 1.35534 (Simulation time: 0 hr 6 min 6 sec) 
Heartbeat CPU  0 instructions:  225000000 cycles:  135042327 heartbeat IPC: 1.41030 cumulative IPC: 1.35576 (Simulation time: 0 hr 6 min 7 sec) 
Heartbeat CPU  0 instructions:  226000001 cycles:  135842647 heartbeat IPC: 1.24950 cumulative IPC: 1.35485 (Simulation time: 0 hr 6 min 9 sec) 
Heartbeat CPU  0 instructions:  227000002 cycles:  136520964 heartbeat IPC: 1.47424 cumulative IPC: 1.35571 (Simulation time: 0 hr 6 min 11 sec) 
Heartbeat CPU  0 instructions:  228000000 cycles:  137243219 heartbeat IPC: 1.38455 cumulative IPC: 1.35593 (Simulation time: 0 hr 6 min 13 sec) 
Heartbeat CPU  0 instructions:  229000000 cycles:  137946377 heartbeat IPC: 1.42216 cumulative IPC: 1.35642 (Simulation time: 0 hr 6 min 14 sec) 
Heartbeat CPU  0 instructions:  230000002 cycles:  138648025 heartbeat IPC: 1.42522 cumulative IPC: 1.35693 (Simulation time: 0 hr 6 min 16 sec) 
Heartbeat CPU  0 instructions:  231000000 cycles:  139423681 heartbeat IPC: 1.28923 cumulative IPC: 1.35638 (Simulation time: 0 hr 6 min 18 sec) 
Heartbeat CPU  0 instructions:  232000000 cycles:  140140298 heartbeat IPC: 1.39545 cumulative IPC: 1.35667 (Simulation time: 0 hr 6 min 20 sec) 
Heartbeat CPU  0 instructions:  233000001 cycles:  140826704 heartbeat IPC: 1.45687 cumulative IPC: 1.35737 (Simulation time: 0 hr 6 min 21 sec) 
Heartbeat CPU  0 instructions:  234000003 cycles:  141555447 heartbeat IPC: 1.37223 cumulative IPC: 1.35748 (Simulation time: 0 hr 6 min 23 sec) 
Heartbeat CPU  0 instructions:  235000002 cycles:  142329348 heartbeat IPC: 1.29215 cumulative IPC: 1.35697 (Simulation time: 0 hr 6 min 25 sec) 
Heartbeat CPU  0 instructions:  236000000 cycles:  143026990 heartbeat IPC: 1.43340 cumulative IPC: 1.35751 (Simulation time: 0 hr 6 min 27 sec) 
Heartbeat CPU  0 instructions:  237000002 cycles:  143708642 heartbeat IPC: 1.46703 cumulative IPC: 1.35825 (Simulation time: 0 hr 6 min 28 sec) 
Heartbeat CPU  0 instructions:  238000000 cycles:  144457718 heartbeat IPC: 1.33498 cumulative IPC: 1.35808 (Simulation time: 0 hr 6 min 30 sec) 
Heartbeat CPU  0 instructions:  239000000 cycles:  145206118 heartbeat IPC: 1.33618 cumulative IPC: 1.35792 (Simulation time: 0 hr 6 min 32 sec) 
Heartbeat CPU  0 instructions:  240000000 cycles:  145895283 heartbeat IPC: 1.45103 cumulative IPC: 1.35854 (Simulation time: 0 hr 6 min 34 sec) 
Heartbeat CPU  0 instructions:  241000002 cycles:  146608626 heartbeat IPC: 1.40185 cumulative IPC: 1.35884 (Simulation time: 0 hr 6 min 35 sec) 
Heartbeat CPU  0 instructions:  242000002 cycles:  147344259 heartbeat IPC: 1.35937 cumulative IPC: 1.35884 (Simulation time: 0 hr 6 min 37 sec) 
Heartbeat CPU  0 instructions:  243000002 cycles:  148085438 heartbeat IPC: 1.34920 cumulative IPC: 1.35877 (Simulation time: 0 hr 6 min 39 sec) 
Heartbeat CPU  0 instructions:  244000000 cycles:  148804512 heartbeat IPC: 1.39067 cumulative IPC: 1.35899 (Simulation time: 0 hr 6 min 40 sec) 
Heartbeat CPU  0 instructions:  245000000 cycles:  149505058 heartbeat IPC: 1.42746 cumulative IPC: 1.35944 (Simulation time: 0 hr 6 min 42 sec) 
Heartbeat CPU  0 instructions:  246000000 cycles:  150170751 heartbeat IPC: 1.50219 cumulative IPC: 1.36032 (Simulation time: 0 hr 6 min 44 sec) 
Heartbeat CPU  0 instructions:  247000001 cycles:  150908651 heartbeat IPC: 1.35520 cumulative IPC: 1.36029 (Simulation time: 0 hr 6 min 46 sec) 
Heartbeat CPU  0 instructions:  248000000 cycles:  151722551 heartbeat IPC: 1.22865 cumulative IPC: 1.35930 (Simulation time: 0 hr 6 min 47 sec) 
Heartbeat CPU  0 instructions:  249000000 cycles:  152401598 heartbeat IPC: 1.47265 cumulative IPC: 1.36001 (Simulation time: 0 hr 6 min 49 sec) 
Heartbeat CPU  0 instructions:  250000001 cycles:  153121453 heartbeat IPC: 1.38917 cumulative IPC: 1.36020 (Simulation time: 0 hr 6 min 51 sec) 
Heartbeat CPU  0 instructions:  251000000 cycles:  153817655 heartbeat IPC: 1.43636 cumulative IPC: 1.36068 (Simulation time: 0 hr 6 min 53 sec) 
Heartbeat CPU  0 instructions:  252000000 cycles:  154507022 heartbeat IPC: 1.45061 cumulative IPC: 1.36123 (Simulation time: 0 hr 6 min 54 sec) 
Heartbeat CPU  0 instructions:  253000002 cycles:  155341928 heartbeat IPC: 1.19774 cumulative IPC: 1.36002 (Simulation time: 0 hr 6 min 56 sec) 
Heartbeat CPU  0 instructions:  254000002 cycles:  156045204 heartbeat IPC: 1.42192 cumulative IPC: 1.36040 (Simulation time: 0 hr 6 min 58 sec) 
Heartbeat CPU  0 instructions:  255000000 cycles:  156720698 heartbeat IPC: 1.48040 cumulative IPC: 1.36111 (Simulation time: 0 hr 7 min 0 sec) 
Heartbeat CPU  0 instructions:  256000000 cycles:  157527103 heartbeat IPC: 1.24007 cumulative IPC: 1.36026 (Simulation time: 0 hr 7 min 1 sec) 
Heartbeat CPU  0 instructions:  257000000 cycles:  158230374 heartbeat IPC: 1.42193 cumulative IPC: 1.36064 (Simulation time: 0 hr 7 min 3 sec) 
Heartbeat CPU  0 instructions:  258000002 cycles:  158905026 heartbeat IPC: 1.48225 cumulative IPC: 1.36135 (Simulation time: 0 hr 7 min 5 sec) 
Heartbeat CPU  0 instructions:  259000000 cycles:  159715244 heartbeat IPC: 1.23423 cumulative IPC: 1.36046 (Simulation time: 0 hr 7 min 7 sec) 
Heartbeat CPU  0 instructions:  260000000 cycles:  160420336 heartbeat IPC: 1.41825 cumulative IPC: 1.36081 (Simulation time: 0 hr 7 min 8 sec) 
Heartbeat CPU  0 instructions:  261000002 cycles:  161097622 heartbeat IPC: 1.47648 cumulative IPC: 1.36147 (Simulation time: 0 hr 7 min 10 sec) 
Heartbeat CPU  0 instructions:  262000000 cycles:  161901375 heartbeat IPC: 1.24416 cumulative IPC: 1.36068 (Simulation time: 0 hr 7 min 12 sec) 
Heartbeat CPU  0 instructions:  263000002 cycles:  162603103 heartbeat IPC: 1.42506 cumulative IPC: 1.36106 (Simulation time: 0 hr 7 min 13 sec) 
Heartbeat CPU  0 instructions:  264000000 cycles:  163277390 heartbeat IPC: 1.48305 cumulative IPC: 1.36174 (Simulation time: 0 hr 7 min 15 sec) 
Heartbeat CPU  0 instructions:  265000000 cycles:  164085781 heartbeat IPC: 1.23703 cumulative IPC: 1.36091 (Simulation time: 0 hr 7 min 17 sec) 
Heartbeat CPU  0 instructions:  266000000 cycles:  164788074 heartbeat IPC: 1.42391 cumulative IPC: 1.36127 (Simulation time: 0 hr 7 min 19 sec) 
Heartbeat CPU  0 instructions:  267000002 cycles:  165462329 heartbeat IPC: 1.48312 cumulative IPC: 1.36194 (Simulation time: 0 hr 7 min 20 sec) 
Heartbeat CPU  0 instructions:  268000000 cycles:  166265591 heartbeat IPC: 1.24492 cumulative IPC: 1.36118 (Simulation time: 0 hr 7 min 22 sec) 
Heartbeat CPU  0 instructions:  269000002 cycles:  166968515 heartbeat IPC: 1.42263 cumulative IPC: 1.36153 (Simulation time: 0 hr 7 min 24 sec) 
Heartbeat CPU  0 instructions:  270000002 cycles:  167642821 heartbeat IPC: 1.48301 cumulative IPC: 1.36219 (Simulation time: 0 hr 7 min 26 sec) 
Heartbeat CPU  0 instructions:  271000000 cycles:  168452998 heartbeat IPC: 1.23430 cumulative IPC: 1.36136 (Simulation time: 0 hr 7 min 27 sec) 
Heartbeat CPU  0 instructions:  272000000 cycles:  169155705 heartbeat IPC: 1.42307 cumulative IPC: 1.36170 (Simulation time: 0 hr 7 min 29 sec) 
Heartbeat CPU  0 instructions:  273000002 cycles:  169829822 heartbeat IPC: 1.48343 cumulative IPC: 1.36235 (Simulation time: 0 hr 7 min 31 sec) 
Heartbeat CPU  0 instructions:  274000002 cycles:  170637958 heartbeat IPC: 1.23742 cumulative IPC: 1.36156 (Simulation time: 0 hr 7 min 33 sec) 
Heartbeat CPU  0 instructions:  275000000 cycles:  171341147 heartbeat IPC: 1.42209 cumulative IPC: 1.36189 (Simulation time: 0 hr 7 min 34 sec) 
Heartbeat CPU  0 instructions:  276000000 cycles:  172015558 heartbeat IPC: 1.48278 cumulative IPC: 1.36252 (Simulation time: 0 hr 7 min 36 sec) 
Heartbeat CPU  0 instructions:  277000003 cycles:  172824803 heartbeat IPC: 1.23572 cumulative IPC: 1.36173 (Simulation time: 0 hr 7 min 38 sec) 
Heartbeat CPU  0 instructions:  278000002 cycles:  173531716 heartbeat IPC: 1.41460 cumulative IPC: 1.36202 (Simulation time: 0 hr 7 min 40 sec) 
Heartbeat CPU  0 instructions:  279000001 cycles:  174203284 heartbeat IPC: 1.48905 cumulative IPC: 1.36267 (Simulation time: 0 hr 7 min 41 sec) 
Heartbeat CPU  0 instructions:  280000000 cycles:  175012343 heartbeat IPC: 1.23600 cumulative IPC: 1.36189 (Simulation time: 0 hr 7 min 43 sec) 
Heartbeat CPU  0 instructions:  281000000 cycles:  175715717 heartbeat IPC: 1.42172 cumulative IPC: 1.36221 (Simulation time: 0 hr 7 min 45 sec) 
Heartbeat CPU  0 instructions:  282000002 cycles:  176389948 heartbeat IPC: 1.48317 cumulative IPC: 1.36282 (Simulation time: 0 hr 7 min 46 sec) 
Heartbeat CPU  0 instructions:  283000002 cycles:  177197367 heartbeat IPC: 1.23851 cumulative IPC: 1.36207 (Simulation time: 0 hr 7 min 48 sec) 
Heartbeat CPU  0 instructions:  284000000 cycles:  177900559 heartbeat IPC: 1.42208 cumulative IPC: 1.36239 (Simulation time: 0 hr 7 min 50 sec) 
Heartbeat CPU  0 instructions:  285000000 cycles:  178575605 heartbeat IPC: 1.48138 cumulative IPC: 1.36298 (Simulation time: 0 hr 7 min 52 sec) 
Heartbeat CPU  0 instructions:  286000000 cycles:  179382411 heartbeat IPC: 1.23946 cumulative IPC: 1.36225 (Simulation time: 0 hr 7 min 53 sec) 
Heartbeat CPU  0 instructions:  287000000 cycles:  180088427 heartbeat IPC: 1.41640 cumulative IPC: 1.36253 (Simulation time: 0 hr 7 min 55 sec) 
Heartbeat CPU  0 instructions:  288000000 cycles:  180761674 heartbeat IPC: 1.48534 cumulative IPC: 1.36313 (Simulation time: 0 hr 7 min 57 sec) 
Heartbeat CPU  0 instructions:  289000003 cycles:  181569396 heartbeat IPC: 1.23805 cumulative IPC: 1.36240 (Simulation time: 0 hr 7 min 59 sec) 
Heartbeat CPU  0 instructions:  290000002 cycles:  182277151 heartbeat IPC: 1.41292 cumulative IPC: 1.36265 (Simulation time: 0 hr 8 min 0 sec) 
Heartbeat CPU  0 instructions:  291000001 cycles:  182944435 heartbeat IPC: 1.49861 cumulative IPC: 1.36330 (Simulation time: 0 hr 8 min 2 sec) 
Heartbeat CPU  0 instructions:  292000000 cycles:  183691932 heartbeat IPC: 1.33780 cumulative IPC: 1.36317 (Simulation time: 0 hr 8 min 4 sec) 
Heartbeat CPU  0 instructions:  293000001 cycles:  184407153 heartbeat IPC: 1.39817 cumulative IPC: 1.36334 (Simulation time: 0 hr 8 min 6 sec) 
Heartbeat CPU  0 instructions:  294000001 cycles:  185086441 heartbeat IPC: 1.47213 cumulative IPC: 1.36386 (Simulation time: 0 hr 8 min 7 sec) 
Heartbeat CPU  0 instructions:  295000002 cycles:  185807965 heartbeat IPC: 1.38596 cumulative IPC: 1.36397 (Simulation time: 0 hr 8 min 9 sec) 
Heartbeat CPU  0 instructions:  296000000 cycles:  186525509 heartbeat IPC: 1.39364 cumulative IPC: 1.36412 (Simulation time: 0 hr 8 min 11 sec) 
Heartbeat CPU  0 instructions:  297000001 cycles:  187214103 heartbeat IPC: 1.45224 cumulative IPC: 1.36454 (Simulation time: 0 hr 8 min 13 sec) 
Heartbeat CPU  0 instructions:  298000000 cycles:  187933965 heartbeat IPC: 1.38915 cumulative IPC: 1.36466 (Simulation time: 0 hr 8 min 14 sec) 
Heartbeat CPU  0 instructions:  299000000 cycles:  188654833 heartbeat IPC: 1.38722 cumulative IPC: 1.36478 (Simulation time: 0 hr 8 min 16 sec) 
Heartbeat CPU  0 instructions:  300000000 cycles:  189348995 heartbeat IPC: 1.44059 cumulative IPC: 1.36514 (Simulation time: 0 hr 8 min 18 sec) 
Heartbeat CPU  0 instructions:  301000003 cycles:  190052877 heartbeat IPC: 1.42070 cumulative IPC: 1.36540 (Simulation time: 0 hr 8 min 19 sec) 
Heartbeat CPU  0 instructions:  302000003 cycles:  190771061 heartbeat IPC: 1.39240 cumulative IPC: 1.36553 (Simulation time: 0 hr 8 min 21 sec) 
Heartbeat CPU  0 instructions:  303000002 cycles:  191473047 heartbeat IPC: 1.42453 cumulative IPC: 1.36581 (Simulation time: 0 hr 8 min 23 sec) 
Heartbeat CPU  0 instructions:  304000000 cycles:  192197444 heartbeat IPC: 1.38046 cumulative IPC: 1.36588 (Simulation time: 0 hr 8 min 25 sec) 
Heartbeat CPU  0 instructions:  305000001 cycles:  192888088 heartbeat IPC: 1.44793 cumulative IPC: 1.36626 (Simulation time: 0 hr 8 min 26 sec) 
Heartbeat CPU  0 instructions:  306000003 cycles:  193592317 heartbeat IPC: 1.42000 cumulative IPC: 1.36651 (Simulation time: 0 hr 8 min 28 sec) 
Heartbeat CPU  0 instructions:  307000000 cycles:  194324939 heartbeat IPC: 1.36496 cumulative IPC: 1.36650 (Simulation time: 0 hr 8 min 30 sec) 
Heartbeat CPU  0 instructions:  308000000 cycles:  195006606 heartbeat IPC: 1.46699 cumulative IPC: 1.36695 (Simulation time: 0 hr 8 min 32 sec) 
Heartbeat CPU  0 instructions:  309000002 cycles:  195723641 heartbeat IPC: 1.39463 cumulative IPC: 1.36708 (Simulation time: 0 hr 8 min 33 sec) 
Heartbeat CPU  0 instructions:  310000000 cycles:  196512299 heartbeat IPC: 1.26797 cumulative IPC: 1.36657 (Simulation time: 0 hr 8 min 35 sec) 
Heartbeat CPU  0 instructions:  311000001 cycles:  197191703 heartbeat IPC: 1.47188 cumulative IPC: 1.36704 (Simulation time: 0 hr 8 min 37 sec) 
Heartbeat CPU  0 instructions:  312000000 cycles:  197906542 heartbeat IPC: 1.39892 cumulative IPC: 1.36718 (Simulation time: 0 hr 8 min 39 sec) 
Heartbeat CPU  0 instructions:  313000002 cycles:  198746542 heartbeat IPC: 1.19048 cumulative IPC: 1.36623 (Simulation time: 0 hr 8 min 40 sec) 
Heartbeat CPU  0 instructions:  314000001 cycles:  199489355 heartbeat IPC: 1.34623 cumulative IPC: 1.36614 (Simulation time: 0 hr 8 min 42 sec) 
Heartbeat CPU  0 instructions:  315000000 cycles:  200209466 heartbeat IPC: 1.38867 cumulative IPC: 1.36624 (Simulation time: 0 hr 8 min 44 sec) 
Heartbeat CPU  0 instructions:  316000000 cycles:  200937968 heartbeat IPC: 1.37268 cumulative IPC: 1.36627 (Simulation time: 0 hr 8 min 45 sec) 
Heartbeat CPU  0 instructions:  317000001 cycles:  201731255 heartbeat IPC: 1.26058 cumulative IPC: 1.36574 (Simulation time: 0 hr 8 min 47 sec) 
Heartbeat CPU  0 instructions:  318000001 cycles:  202582011 heartbeat IPC: 1.17543 cumulative IPC: 1.36473 (Simulation time: 0 hr 8 min 49 sec) 
Heartbeat CPU  0 instructions:  319000003 cycles:  203273413 heartbeat IPC: 1.44634 cumulative IPC: 1.36508 (Simulation time: 0 hr 8 min 51 sec) 
Heartbeat CPU  0 instructions:  320000000 cycles:  203980220 heartbeat IPC: 1.41481 cumulative IPC: 1.36530 (Simulation time: 0 hr 8 min 53 sec) 
Heartbeat CPU  0 instructions:  321000001 cycles:  204767617 heartbeat IPC: 1.27001 cumulative IPC: 1.36484 (Simulation time: 0 hr 8 min 54 sec) 
Heartbeat CPU  0 instructions:  322000003 cycles:  205554221 heartbeat IPC: 1.27129 cumulative IPC: 1.36438 (Simulation time: 0 hr 8 min 56 sec) 
Heartbeat CPU  0 instructions:  323000001 cycles:  206335507 heartbeat IPC: 1.27994 cumulative IPC: 1.36398 (Simulation time: 0 hr 8 min 58 sec) 
Heartbeat CPU  0 instructions:  324000000 cycles:  207049874 heartbeat IPC: 1.39984 cumulative IPC: 1.36414 (Simulation time: 0 hr 8 min 59 sec) 
Heartbeat CPU  0 instructions:  325000000 cycles:  207778093 heartbeat IPC: 1.37321 cumulative IPC: 1.36418 (Simulation time: 0 hr 9 min 1 sec) 
Heartbeat CPU  0 instructions:  326000003 cycles:  208577125 heartbeat IPC: 1.25152 cumulative IPC: 1.36363 (Simulation time: 0 hr 9 min 3 sec) 
Heartbeat CPU  0 instructions:  327000000 cycles:  209317513 heartbeat IPC: 1.35064 cumulative IPC: 1.36357 (Simulation time: 0 hr 9 min 5 sec) 
Heartbeat CPU  0 instructions:  328000000 cycles:  210100267 heartbeat IPC: 1.27754 cumulative IPC: 1.36317 (Simulation time: 0 hr 9 min 6 sec) 
Heartbeat CPU  0 instructions:  329000001 cycles:  210895410 heartbeat IPC: 1.25764 cumulative IPC: 1.36267 (Simulation time: 0 hr 9 min 8 sec) 
Heartbeat CPU  0 instructions:  330000001 cycles:  211559214 heartbeat IPC: 1.50647 cumulative IPC: 1.36324 (Simulation time: 0 hr 9 min 10 sec) 
Heartbeat CPU  0 instructions:  331000000 cycles:  212260772 heartbeat IPC: 1.42540 cumulative IPC: 1.36350 (Simulation time: 0 hr 9 min 12 sec) 
Heartbeat CPU  0 instructions:  332000000 cycles:  212978943 heartbeat IPC: 1.39243 cumulative IPC: 1.36362 (Simulation time: 0 hr 9 min 13 sec) 
Heartbeat CPU  0 instructions:  333000001 cycles:  213755790 heartbeat IPC: 1.28726 cumulative IPC: 1.36327 (Simulation time: 0 hr 9 min 15 sec) 
Heartbeat CPU  0 instructions:  334000002 cycles:  214519360 heartbeat IPC: 1.30964 cumulative IPC: 1.36303 (Simulation time: 0 hr 9 min 17 sec) 
Heartbeat CPU  0 instructions:  335000000 cycles:  215334094 heartbeat IPC: 1.22739 cumulative IPC: 1.36239 (Simulation time: 0 hr 9 min 19 sec) 
Heartbeat CPU  0 instructions:  336000000 cycles:  216051287 heartbeat IPC: 1.39432 cumulative IPC: 1.36252 (Simulation time: 0 hr 9 min 20 sec) 
Heartbeat CPU  0 instructions:  337000002 cycles:  216763084 heartbeat IPC: 1.40490 cumulative IPC: 1.36270 (Simulation time: 0 hr 9 min 22 sec) 
Heartbeat CPU  0 instructions:  338000003 cycles:  217550573 heartbeat IPC: 1.26986 cumulative IPC: 1.36228 (Simulation time: 0 hr 9 min 24 sec) 
Heartbeat CPU  0 instructions:  339000002 cycles:  218293206 heartbeat IPC: 1.34656 cumulative IPC: 1.36221 (Simulation time: 0 hr 9 min 26 sec) 
Heartbeat CPU  0 instructions:  340000000 cycles:  219063983 heartbeat IPC: 1.29739 cumulative IPC: 1.36193 (Simulation time: 0 hr 9 min 27 sec) 
Heartbeat CPU  0 instructions:  341000001 cycles:  219861404 heartbeat IPC: 1.25404 cumulative IPC: 1.36144 (Simulation time: 0 hr 9 min 29 sec) 
Heartbeat CPU  0 instructions:  342000003 cycles:  220538626 heartbeat IPC: 1.47662 cumulative IPC: 1.36188 (Simulation time: 0 hr 9 min 31 sec) 
Heartbeat CPU  0 instructions:  343000003 cycles:  221299313 heartbeat IPC: 1.31460 cumulative IPC: 1.36168 (Simulation time: 0 hr 9 min 33 sec) 
Heartbeat CPU  0 instructions:  344000000 cycles:  222026694 heartbeat IPC: 1.37479 cumulative IPC: 1.36173 (Simulation time: 0 hr 9 min 34 sec) 
Heartbeat CPU  0 instructions:  345000003 cycles:  222696615 heartbeat IPC: 1.49272 cumulative IPC: 1.36222 (Simulation time: 0 hr 9 min 36 sec) 
Heartbeat CPU  0 instructions:  346000000 cycles:  223411909 heartbeat IPC: 1.39802 cumulative IPC: 1.36236 (Simulation time: 0 hr 9 min 38 sec) 
Heartbeat CPU  0 instructions:  347000001 cycles:  224144129 heartbeat IPC: 1.36571 cumulative IPC: 1.36238 (Simulation time: 0 hr 9 min 39 sec) 
Heartbeat CPU  0 instructions:  348000000 cycles:  224870783 heartbeat IPC: 1.37617 cumulative IPC: 1.36243 (Simulation time: 0 hr 9 min 41 sec) 
Heartbeat CPU  0 instructions:  349000003 cycles:  225599094 heartbeat IPC: 1.37304 cumulative IPC: 1.36247 (Simulation time: 0 hr 9 min 43 sec) 
Heartbeat CPU  0 instructions:  350000003 cycles:  226312576 heartbeat IPC: 1.40158 cumulative IPC: 1.36263 (Simulation time: 0 hr 9 min 45 sec) 
Heartbeat CPU  0 instructions:  351000002 cycles:  227092293 heartbeat IPC: 1.28252 cumulative IPC: 1.36229 (Simulation time: 0 hr 9 min 46 sec) 
Heartbeat CPU  0 instructions:  352000000 cycles:  227782932 heartbeat IPC: 1.44793 cumulative IPC: 1.36261 (Simulation time: 0 hr 9 min 48 sec) 
Heartbeat CPU  0 instructions:  353000003 cycles:  228526108 heartbeat IPC: 1.34558 cumulative IPC: 1.36254 (Simulation time: 0 hr 9 min 50 sec) 
Heartbeat CPU  0 instructions:  354000002 cycles:  229214886 heartbeat IPC: 1.45185 cumulative IPC: 1.36287 (Simulation time: 0 hr 9 min 52 sec) 
Heartbeat CPU  0 instructions:  355000002 cycles:  229925104 heartbeat IPC: 1.40802 cumulative IPC: 1.36304 (Simulation time: 0 hr 9 min 53 sec) 
Heartbeat CPU  0 instructions:  356000000 cycles:  230688590 heartbeat IPC: 1.30978 cumulative IPC: 1.36282 (Simulation time: 0 hr 9 min 55 sec) 
Heartbeat CPU  0 instructions:  357000002 cycles:  231455373 heartbeat IPC: 1.30415 cumulative IPC: 1.36259 (Simulation time: 0 hr 9 min 57 sec) 
Heartbeat CPU  0 instructions:  358000002 cycles:  232148562 heartbeat IPC: 1.44261 cumulative IPC: 1.36288 (Simulation time: 0 hr 9 min 58 sec) 
Heartbeat CPU  0 instructions:  359000002 cycles:  232860512 heartbeat IPC: 1.40459 cumulative IPC: 1.36303 (Simulation time: 0 hr 10 min 0 sec) 
Heartbeat CPU  0 instructions:  360000000 cycles:  233550569 heartbeat IPC: 1.44915 cumulative IPC: 1.36335 (Simulation time: 0 hr 10 min 2 sec) 
Heartbeat CPU  0 instructions:  361000000 cycles:  234237428 heartbeat IPC: 1.45590 cumulative IPC: 1.36368 (Simulation time: 0 hr 10 min 4 sec) 
Heartbeat CPU  0 instructions:  362000003 cycles:  234970686 heartbeat IPC: 1.36378 cumulative IPC: 1.36368 (Simulation time: 0 hr 10 min 5 sec) 
Heartbeat CPU  0 instructions:  363000000 cycles:  235689489 heartbeat IPC: 1.39120 cumulative IPC: 1.36378 (Simulation time: 0 hr 10 min 7 sec) 
Heartbeat CPU  0 instructions:  364000000 cycles:  236403142 heartbeat IPC: 1.40124 cumulative IPC: 1.36392 (Simulation time: 0 hr 10 min 9 sec) 
Heartbeat CPU  0 instructions:  365000001 cycles:  237129185 heartbeat IPC: 1.37733 cumulative IPC: 1.36397 (Simulation time: 0 hr 10 min 11 sec) 
Heartbeat CPU  0 instructions:  366000003 cycles:  237923585 heartbeat IPC: 1.25881 cumulative IPC: 1.36354 (Simulation time: 0 hr 10 min 12 sec) 
Heartbeat CPU  0 instructions:  367000001 cycles:  238671516 heartbeat IPC: 1.33702 cumulative IPC: 1.36344 (Simulation time: 0 hr 10 min 14 sec) 
Heartbeat CPU  0 instructions:  368000000 cycles:  239477363 heartbeat IPC: 1.24093 cumulative IPC: 1.36294 (Simulation time: 0 hr 10 min 16 sec) 
Heartbeat CPU  0 instructions:  369000000 cycles:  240211434 heartbeat IPC: 1.36227 cumulative IPC: 1.36294 (Simulation time: 0 hr 10 min 18 sec) 
Heartbeat CPU  0 instructions:  370000001 cycles:  240880283 heartbeat IPC: 1.49511 cumulative IPC: 1.36338 (Simulation time: 0 hr 10 min 19 sec) 
Heartbeat CPU  0 instructions:  371000001 cycles:  241610185 heartbeat IPC: 1.37005 cumulative IPC: 1.36341 (Simulation time: 0 hr 10 min 21 sec) 
Heartbeat CPU  0 instructions:  372000000 cycles:  242373928 heartbeat IPC: 1.30934 cumulative IPC: 1.36320 (Simulation time: 0 hr 10 min 23 sec) 
Heartbeat CPU  0 instructions:  373000000 cycles:  243093744 heartbeat IPC: 1.38924 cumulative IPC: 1.36329 (Simulation time: 0 hr 10 min 25 sec) 
Heartbeat CPU  0 instructions:  374000002 cycles:  243850773 heartbeat IPC: 1.32096 cumulative IPC: 1.36313 (Simulation time: 0 hr 10 min 26 sec) 
Heartbeat CPU  0 instructions:  375000000 cycles:  244571713 heartbeat IPC: 1.38708 cumulative IPC: 1.36322 (Simulation time: 0 hr 10 min 28 sec) 
Heartbeat CPU  0 instructions:  376000000 cycles:  245303882 heartbeat IPC: 1.36580 cumulative IPC: 1.36323 (Simulation time: 0 hr 10 min 30 sec) 
Heartbeat CPU  0 instructions:  377000001 cycles:  246015804 heartbeat IPC: 1.40465 cumulative IPC: 1.36337 (Simulation time: 0 hr 10 min 31 sec) 
Heartbeat CPU  0 instructions:  378000003 cycles:  246806204 heartbeat IPC: 1.26518 cumulative IPC: 1.36299 (Simulation time: 0 hr 10 min 33 sec) 
Heartbeat CPU  0 instructions:  379000002 cycles:  247503971 heartbeat IPC: 1.43314 cumulative IPC: 1.36323 (Simulation time: 0 hr 10 min 35 sec) 
Heartbeat CPU  0 instructions:  380000000 cycles:  248231364 heartbeat IPC: 1.37477 cumulative IPC: 1.36327 (Simulation time: 0 hr 10 min 37 sec) 
Heartbeat CPU  0 instructions:  381000000 cycles:  249007493 heartbeat IPC: 1.28845 cumulative IPC: 1.36299 (Simulation time: 0 hr 10 min 38 sec) 
Heartbeat CPU  0 instructions:  382000001 cycles:  249696209 heartbeat IPC: 1.45198 cumulative IPC: 1.36329 (Simulation time: 0 hr 10 min 40 sec) 
Heartbeat CPU  0 instructions:  383000002 cycles:  250404660 heartbeat IPC: 1.41153 cumulative IPC: 1.36345 (Simulation time: 0 hr 10 min 42 sec) 
Heartbeat CPU  0 instructions:  384000000 cycles:  251110140 heartbeat IPC: 1.41747 cumulative IPC: 1.36364 (Simulation time: 0 hr 10 min 44 sec) 
Heartbeat CPU  0 instructions:  385000001 cycles:  251885709 heartbeat IPC: 1.28938 cumulative IPC: 1.36336 (Simulation time: 0 hr 10 min 45 sec) 
Heartbeat CPU  0 instructions:  386000003 cycles:  252634767 heartbeat IPC: 1.33501 cumulative IPC: 1.36326 (Simulation time: 0 hr 10 min 47 sec) 
Heartbeat CPU  0 instructions:  387000002 cycles:  253352953 heartbeat IPC: 1.39240 cumulative IPC: 1.36336 (Simulation time: 0 hr 10 min 49 sec) 
Heartbeat CPU  0 instructions:  388000000 cycles:  254074754 heartbeat IPC: 1.38542 cumulative IPC: 1.36343 (Simulation time: 0 hr 10 min 50 sec) 
Heartbeat CPU  0 instructions:  389000000 cycles:  254735237 heartbeat IPC: 1.51404 cumulative IPC: 1.36390 (Simulation time: 0 hr 10 min 52 sec) 
Heartbeat CPU  0 instructions:  390000003 cycles:  255431605 heartbeat IPC: 1.43603 cumulative IPC: 1.36414 (Simulation time: 0 hr 10 min 54 sec) 
Heartbeat CPU  0 instructions:  391000000 cycles:  256164840 heartbeat IPC: 1.36382 cumulative IPC: 1.36414 (Simulation time: 0 hr 10 min 56 sec) 
Heartbeat CPU  0 instructions:  392000000 cycles:  256885820 heartbeat IPC: 1.38700 cumulative IPC: 1.36422 (Simulation time: 0 hr 10 min 57 sec) 
Heartbeat CPU  0 instructions:  393000000 cycles:  257567062 heartbeat IPC: 1.46791 cumulative IPC: 1.36454 (Simulation time: 0 hr 10 min 59 sec) 
Heartbeat CPU  0 instructions:  394000000 cycles:  258302668 heartbeat IPC: 1.35942 cumulative IPC: 1.36453 (Simulation time: 0 hr 11 min 1 sec) 
Heartbeat CPU  0 instructions:  395000000 cycles:  259071257 heartbeat IPC: 1.30109 cumulative IPC: 1.36430 (Simulation time: 0 hr 11 min 3 sec) 
Heartbeat CPU  0 instructions:  396000000 cycles:  259806838 heartbeat IPC: 1.35947 cumulative IPC: 1.36428 (Simulation time: 0 hr 11 min 4 sec) 
Heartbeat CPU  0 instructions:  397000000 cycles:  260651514 heartbeat IPC: 1.18389 cumulative IPC: 1.36359 (Simulation time: 0 hr 11 min 6 sec) 
Heartbeat CPU  0 instructions:  398000000 cycles:  261355021 heartbeat IPC: 1.42145 cumulative IPC: 1.36377 (Simulation time: 0 hr 11 min 8 sec) 
Heartbeat CPU  0 instructions:  399000003 cycles:  262099930 heartbeat IPC: 1.34245 cumulative IPC: 1.36370 (Simulation time: 0 hr 11 min 10 sec) 
Heartbeat CPU  0 instructions:  400000000 cycles:  262811211 heartbeat IPC: 1.40591 cumulative IPC: 1.36384 (Simulation time: 0 hr 11 min 11 sec) 
Heartbeat CPU  0 instructions:  401000001 cycles:  263533880 heartbeat IPC: 1.38376 cumulative IPC: 1.36390 (Simulation time: 0 hr 11 min 13 sec) 
Heartbeat CPU  0 instructions:  402000003 cycles:  264242441 heartbeat IPC: 1.41131 cumulative IPC: 1.36405 (Simulation time: 0 hr 11 min 15 sec) 
Heartbeat CPU  0 instructions:  403000002 cycles:  264990706 heartbeat IPC: 1.33642 cumulative IPC: 1.36396 (Simulation time: 0 hr 11 min 16 sec) 
Heartbeat CPU  0 instructions:  404000000 cycles:  265759758 heartbeat IPC: 1.30030 cumulative IPC: 1.36374 (Simulation time: 0 hr 11 min 18 sec) 
Heartbeat CPU  0 instructions:  405000002 cycles:  266446135 heartbeat IPC: 1.45693 cumulative IPC: 1.36403 (Simulation time: 0 hr 11 min 20 sec) 
Heartbeat CPU  0 instructions:  406000000 cycles:  267190204 heartbeat IPC: 1.34396 cumulative IPC: 1.36396 (Simulation time: 0 hr 11 min 22 sec) 
Heartbeat CPU  0 instructions:  407000000 cycles:  267916791 heartbeat IPC: 1.37630 cumulative IPC: 1.36400 (Simulation time: 0 hr 11 min 23 sec) 
Heartbeat CPU  0 instructions:  408000000 cycles:  268613261 heartbeat IPC: 1.43581 cumulative IPC: 1.36422 (Simulation time: 0 hr 11 min 25 sec) 
Heartbeat CPU  0 instructions:  409000003 cycles:  269398767 heartbeat IPC: 1.27307 cumulative IPC: 1.36390 (Simulation time: 0 hr 11 min 27 sec) 
Heartbeat CPU  0 instructions:  410000000 cycles:  270111518 heartbeat IPC: 1.40301 cumulative IPC: 1.36403 (Simulation time: 0 hr 11 min 29 sec) 
Heartbeat CPU  0 instructions:  411000003 cycles:  270824738 heartbeat IPC: 1.40210 cumulative IPC: 1.36415 (Simulation time: 0 hr 11 min 30 sec) 
Heartbeat CPU  0 instructions:  412000000 cycles:  271691004 heartbeat IPC: 1.15438 cumulative IPC: 1.36335 (Simulation time: 0 hr 11 min 32 sec) 
Heartbeat CPU  0 instructions:  413000000 cycles:  272532189 heartbeat IPC: 1.18880 cumulative IPC: 1.36271 (Simulation time: 0 hr 11 min 34 sec) 
Heartbeat CPU  0 instructions:  414000001 cycles:  278804721 heartbeat IPC: 0.15943 cumulative IPC: 1.33073 (Simulation time: 0 hr 11 min 38 sec) 
Heartbeat CPU  0 instructions:  415000002 cycles:  283030678 heartbeat IPC: 0.23663 cumulative IPC: 1.31148 (Simulation time: 0 hr 11 min 41 sec) 
Heartbeat CPU  0 instructions:  416000000 cycles:  286895374 heartbeat IPC: 0.25875 cumulative IPC: 1.29481 (Simulation time: 0 hr 11 min 44 sec) 
Heartbeat CPU  0 instructions:  417000001 cycles:  290312460 heartbeat IPC: 0.29265 cumulative IPC: 1.28097 (Simulation time: 0 hr 11 min 47 sec) 
Heartbeat CPU  0 instructions:  418000003 cycles:  293902723 heartbeat IPC: 0.27853 cumulative IPC: 1.26663 (Simulation time: 0 hr 11 min 50 sec) 
Heartbeat CPU  0 instructions:  419000001 cycles:  301987856 heartbeat IPC: 0.12368 cumulative IPC: 1.23097 (Simulation time: 0 hr 11 min 55 sec) 
Heartbeat CPU  0 instructions:  420000000 cycles:  308325081 heartbeat IPC: 0.15780 cumulative IPC: 1.20536 (Simulation time: 0 hr 11 min 58 sec) 
Heartbeat CPU  0 instructions:  421000003 cycles:  313834086 heartbeat IPC: 0.18152 cumulative IPC: 1.18454 (Simulation time: 0 hr 12 min 1 sec) 
Heartbeat CPU  0 instructions:  422000001 cycles:  318752538 heartbeat IPC: 0.20332 cumulative IPC: 1.16705 (Simulation time: 0 hr 12 min 5 sec) 
Heartbeat CPU  0 instructions:  423000000 cycles:  323312903 heartbeat IPC: 0.21928 cumulative IPC: 1.15164 (Simulation time: 0 hr 12 min 8 sec) 
Heartbeat CPU  0 instructions:  424000000 cycles:  326632287 heartbeat IPC: 0.30126 cumulative IPC: 1.14169 (Simulation time: 0 hr 12 min 11 sec) 
Heartbeat CPU  0 instructions:  425000002 cycles:  329321091 heartbeat IPC: 0.37191 cumulative IPC: 1.13447 (Simulation time: 0 hr 12 min 14 sec) 
Heartbeat CPU  0 instructions:  426000002 cycles:  331627749 heartbeat IPC: 0.43353 cumulative IPC: 1.12887 (Simulation time: 0 hr 12 min 17 sec) 
Heartbeat CPU  0 instructions:  427000000 cycles:  333909690 heartbeat IPC: 0.43822 cumulative IPC: 1.12346 (Simulation time: 0 hr 12 min 19 sec) 
Heartbeat CPU  0 instructions:  428000000 cycles:  336105063 heartbeat IPC: 0.45550 cumulative IPC: 1.11845 (Simulation time: 0 hr 12 min 22 sec) 
Heartbeat CPU  0 instructions:  429000000 cycles:  338234273 heartbeat IPC: 0.46966 cumulative IPC: 1.11378 (Simulation time: 0 hr 12 min 25 sec) 
Heartbeat CPU  0 instructions:  430000001 cycles:  340441763 heartbeat IPC: 0.45300 cumulative IPC: 1.10888 (Simulation time: 0 hr 12 min 27 sec) 
Heartbeat CPU  0 instructions:  431000000 cycles:  346501518 heartbeat IPC: 0.16502 cumulative IPC: 1.09004 (Simulation time: 0 hr 12 min 31 sec) 
Heartbeat CPU  0 instructions:  432000000 cycles:  350653712 heartbeat IPC: 0.24084 cumulative IPC: 1.07859 (Simulation time: 0 hr 12 min 34 sec) 
Heartbeat CPU  0 instructions:  433000000 cycles:  357098951 heartbeat IPC: 0.15515 cumulative IPC: 1.05965 (Simulation time: 0 hr 12 min 39 sec) 
Heartbeat CPU  0 instructions:  434000001 cycles:  364527476 heartbeat IPC: 0.13462 cumulative IPC: 1.03829 (Simulation time: 0 hr 12 min 43 sec) 
Heartbeat CPU  0 instructions:  435000003 cycles:  370276089 heartbeat IPC: 0.17396 cumulative IPC: 1.02311 (Simulation time: 0 hr 12 min 46 sec) 
Heartbeat CPU  0 instructions:  436000000 cycles:  375453533 heartbeat IPC: 0.19314 cumulative IPC: 1.01019 (Simulation time: 0 hr 12 min 49 sec) 
Heartbeat CPU  0 instructions:  437000002 cycles:  379568585 heartbeat IPC: 0.24301 cumulative IPC: 1.00082 (Simulation time: 0 hr 12 min 52 sec) 
Heartbeat CPU  0 instructions:  438000001 cycles:  383101583 heartbeat IPC: 0.28305 cumulative IPC: 0.99336 (Simulation time: 0 hr 12 min 55 sec) 
Heartbeat CPU  0 instructions:  439000000 cycles:  386481215 heartbeat IPC: 0.29589 cumulative IPC: 0.98650 (Simulation time: 0 hr 12 min 59 sec) 
Heartbeat CPU  0 instructions:  440000000 cycles:  388900192 heartbeat IPC: 0.41340 cumulative IPC: 0.98250 (Simulation time: 0 hr 13 min 1 sec) 
Heartbeat CPU  0 instructions:  441000000 cycles:  391185552 heartbeat IPC: 0.43757 cumulative IPC: 0.97892 (Simulation time: 0 hr 13 min 4 sec) 
Heartbeat CPU  0 instructions:  442000002 cycles:  393415311 heartbeat IPC: 0.44848 cumulative IPC: 0.97555 (Simulation time: 0 hr 13 min 6 sec) 
Heartbeat CPU  0 instructions:  443000000 cycles:  395544740 heartbeat IPC: 0.46961 cumulative IPC: 0.97249 (Simulation time: 0 hr 13 min 9 sec) 
Heartbeat CPU  0 instructions:  444000000 cycles:  397739942 heartbeat IPC: 0.45554 cumulative IPC: 0.96930 (Simulation time: 0 hr 13 min 12 sec) 
Heartbeat CPU  0 instructions:  445000002 cycles:  400387577 heartbeat IPC: 0.37770 cumulative IPC: 0.96492 (Simulation time: 0 hr 13 min 15 sec) 
Heartbeat CPU  0 instructions:  446000003 cycles:  407285582 heartbeat IPC: 0.14497 cumulative IPC: 0.94940 (Simulation time: 0 hr 13 min 19 sec) 
Heartbeat CPU  0 instructions:  447000000 cycles:  412247910 heartbeat IPC: 0.20152 cumulative IPC: 0.93935 (Simulation time: 0 hr 13 min 23 sec) 
Heartbeat CPU  0 instructions:  448000000 cycles:  420700257 heartbeat IPC: 0.11831 cumulative IPC: 0.92098 (Simulation time: 0 hr 13 min 27 sec) 
Heartbeat CPU  0 instructions:  449000001 cycles:  426727046 heartbeat IPC: 0.16593 cumulative IPC: 0.90913 (Simulation time: 0 hr 13 min 30 sec) 
Heartbeat CPU  0 instructions:  450000000 cycles:  432114569 heartbeat IPC: 0.18561 cumulative IPC: 0.89912 (Simulation time: 0 hr 13 min 33 sec) 
Heartbeat CPU  0 instructions:  451000000 cycles:  436447156 heartbeat IPC: 0.23081 cumulative IPC: 0.89176 (Simulation time: 0 hr 13 min 36 sec) 
Heartbeat CPU  0 instructions:  452000000 cycles:  440151358 heartbeat IPC: 0.26996 cumulative IPC: 0.88596 (Simulation time: 0 hr 13 min 39 sec) 
Heartbeat CPU  0 instructions:  453000001 cycles:  443743914 heartbeat IPC: 0.27835 cumulative IPC: 0.88052 (Simulation time: 0 hr 13 min 43 sec) 
Heartbeat CPU  0 instructions:  454000000 cycles:  446300614 heartbeat IPC: 0.39113 cumulative IPC: 0.87742 (Simulation time: 0 hr 13 min 46 sec) 
Heartbeat CPU  0 instructions:  455000001 cycles:  448564569 heartbeat IPC: 0.44171 cumulative IPC: 0.87499 (Simulation time: 0 hr 13 min 48 sec) 
Heartbeat CPU  0 instructions:  456000000 cycles:  450822136 heartbeat IPC: 0.44295 cumulative IPC: 0.87259 (Simulation time: 0 hr 13 min 51 sec) 
Heartbeat CPU  0 instructions:  457000002 cycles:  452976171 heartbeat IPC: 0.46425 cumulative IPC: 0.87045 (Simulation time: 0 hr 13 min 54 sec) 
Heartbeat CPU  0 instructions:  458000000 cycles:  455131791 heartbeat IPC: 0.46390 cumulative IPC: 0.86832 (Simulation time: 0 hr 13 min 56 sec) 
Heartbeat CPU  0 instructions:  459000001 cycles:  457476609 heartbeat IPC: 0.42647 cumulative IPC: 0.86583 (Simulation time: 0 hr 13 min 59 sec) 
Heartbeat CPU  0 instructions:  460000000 cycles:  464044660 heartbeat IPC: 0.15225 cumulative IPC: 0.85470 (Simulation time: 0 hr 14 min 3 sec) 
Heartbeat CPU  0 instructions:  461000002 cycles:  468653869 heartbeat IPC: 0.21696 cumulative IPC: 0.84779 (Simulation time: 0 hr 14 min 7 sec) 
Heartbeat CPU  0 instructions:  462000000 cycles:  476870627 heartbeat IPC: 0.12170 cumulative IPC: 0.83405 (Simulation time: 0 hr 14 min 11 sec) 
Heartbeat CPU  0 instructions:  463000000 cycles:  483264840 heartbeat IPC: 0.15639 cumulative IPC: 0.82421 (Simulation time: 0 hr 14 min 15 sec) 
Heartbeat CPU  0 instructions:  464000000 cycles:  488681511 heartbeat IPC: 0.18462 cumulative IPC: 0.81644 (Simulation time: 0 hr 14 min 18 sec) 
Heartbeat CPU  0 instructions:  465000000 cycles:  493374436 heartbeat IPC: 0.21309 cumulative IPC: 0.81015 (Simulation time: 0 hr 14 min 21 sec) 
Heartbeat CPU  0 instructions:  466000000 cycles:  497527820 heartbeat IPC: 0.24077 cumulative IPC: 0.80495 (Simulation time: 0 hr 14 min 24 sec) 
Heartbeat CPU  0 instructions:  467000000 cycles:  500977295 heartbeat IPC: 0.28990 cumulative IPC: 0.80108 (Simulation time: 0 hr 14 min 28 sec) 
Heartbeat CPU  0 instructions:  468000000 cycles:  503615921 heartbeat IPC: 0.37899 cumulative IPC: 0.79866 (Simulation time: 0 hr 14 min 30 sec) 
Heartbeat CPU  0 instructions:  469000000 cycles:  505909651 heartbeat IPC: 0.43597 cumulative IPC: 0.79686 (Simulation time: 0 hr 14 min 33 sec) 
Heartbeat CPU  0 instructions:  470000002 cycles:  508184601 heartbeat IPC: 0.43957 cumulative IPC: 0.79512 (Simulation time: 0 hr 14 min 36 sec) 
Heartbeat CPU  0 instructions:  471000000 cycles:  510358327 heartbeat IPC: 0.46004 cumulative IPC: 0.79356 (Simulation time: 0 hr 14 min 38 sec) 
Heartbeat CPU  0 instructions:  472000000 cycles:  512500156 heartbeat IPC: 0.46689 cumulative IPC: 0.79207 (Simulation time: 0 hr 14 min 41 sec) 
Heartbeat CPU  0 instructions:  473000002 cycles:  514861726 heartbeat IPC: 0.42345 cumulative IPC: 0.79022 (Simulation time: 0 hr 14 min 44 sec) 
Heartbeat CPU  0 instructions:  474000000 cycles:  521094898 heartbeat IPC: 0.16043 cumulative IPC: 0.78202 (Simulation time: 0 hr 14 min 47 sec) 
Heartbeat CPU  0 instructions:  475000002 cycles:  525285689 heartbeat IPC: 0.23862 cumulative IPC: 0.77729 (Simulation time: 0 hr 14 min 51 sec) 
Heartbeat CPU  0 instructions:  476000000 cycles:  532836263 heartbeat IPC: 0.13244 cumulative IPC: 0.76736 (Simulation time: 0 hr 14 min 55 sec) 
Heartbeat CPU  0 instructions:  477000000 cycles:  539522148 heartbeat IPC: 0.14957 cumulative IPC: 0.75904 (Simulation time: 0 hr 14 min 59 sec) 
Heartbeat CPU  0 instructions:  478000002 cycles:  545136679 heartbeat IPC: 0.17811 cumulative IPC: 0.75255 (Simulation time: 0 hr 15 min 2 sec) 
Heartbeat CPU  0 instructions:  479000000 cycles:  550137880 heartbeat IPC: 0.19995 cumulative IPC: 0.74710 (Simulation time: 0 hr 15 min 6 sec) 
Heartbeat CPU  0 instructions:  480000000 cycles:  554519822 heartbeat IPC: 0.22821 cumulative IPC: 0.74266 (Simulation time: 0 hr 15 min 9 sec) 
Heartbeat CPU  0 instructions:  481000000 cycles:  558174166 heartbeat IPC: 0.27365 cumulative IPC: 0.73933 (Simulation time: 0 hr 15 min 12 sec) 
Heartbeat CPU  0 instructions:  482000000 cycles:  560841819 heartbeat IPC: 0.37486 cumulative IPC: 0.73745 (Simulation time: 0 hr 15 min 15 sec) 
Heartbeat CPU  0 instructions:  483000000 cycles:  563175274 heartbeat IPC: 0.42855 cumulative IPC: 0.73607 (Simulation time: 0 hr 15 min 18 sec) 
Heartbeat CPU  0 instructions:  484000000 cycles:  565470632 heartbeat IPC: 0.43566 cumulative IPC: 0.73475 (Simulation time: 0 hr 15 min 20 sec) 
Heartbeat CPU  0 instructions:  485000002 cycles:  567678454 heartbeat IPC: 0.45294 cumulative IPC: 0.73356 (Simulation time: 0 hr 15 min 23 sec) 
Heartbeat CPU  0 instructions:  486000003 cycles:  569826486 heartbeat IPC: 0.46554 cumulative IPC: 0.73247 (Simulation time: 0 hr 15 min 26 sec) 
Heartbeat CPU  0 instructions:  487000000 cycles:  572025675 heartbeat IPC: 0.45471 cumulative IPC: 0.73132 (Simulation time: 0 hr 15 min 28 sec) 
Heartbeat CPU  0 instructions:  488000000 cycles:  576804791 heartbeat IPC: 0.20924 cumulative IPC: 0.72664 (Simulation time: 0 hr 15 min 32 sec) 
Heartbeat CPU  0 instructions:  489000000 cycles:  581943425 heartbeat IPC: 0.19460 cumulative IPC: 0.72157 (Simulation time: 0 hr 15 min 35 sec) 
Heartbeat CPU  0 instructions:  490000003 cycles:  588068539 heartbeat IPC: 0.16326 cumulative IPC: 0.71530 (Simulation time: 0 hr 15 min 40 sec) 
Heartbeat CPU  0 instructions:  491000003 cycles:  595792404 heartbeat IPC: 0.12947 cumulative IPC: 0.70712 (Simulation time: 0 hr 15 min 44 sec) 
Heartbeat CPU  0 instructions:  492000000 cycles:  601624266 heartbeat IPC: 0.17147 cumulative IPC: 0.70153 (Simulation time: 0 hr 15 min 47 sec) 
Heartbeat CPU  0 instructions:  493000002 cycles:  606914218 heartbeat IPC: 0.18904 cumulative IPC: 0.69672 (Simulation time: 0 hr 15 min 50 sec) 
Heartbeat CPU  0 instructions:  494000001 cycles:  611062498 heartbeat IPC: 0.24106 cumulative IPC: 0.69339 (Simulation time: 0 hr 15 min 53 sec) 
Heartbeat CPU  0 instructions:  495000002 cycles:  614616130 heartbeat IPC: 0.28140 cumulative IPC: 0.69083 (Simulation time: 0 hr 15 min 56 sec) 
Heartbeat CPU  0 instructions:  496000000 cycles:  618074464 heartbeat IPC: 0.28916 cumulative IPC: 0.68842 (Simulation time: 0 hr 16 min 0 sec) 
Heartbeat CPU  0 instructions:  497000001 cycles:  620519042 heartbeat IPC: 0.40907 cumulative IPC: 0.68724 (Simulation time: 0 hr 16 min 2 sec) 
Heartbeat CPU  0 instructions:  498000001 cycles:  622800809 heartbeat IPC: 0.43826 cumulative IPC: 0.68626 (Simulation time: 0 hr 16 min 5 sec) 
Heartbeat CPU  0 instructions:  499000000 cycles:  625038402 heartbeat IPC: 0.44691 cumulative IPC: 0.68534 (Simulation time: 0 hr 16 min 8 sec) 
Heartbeat CPU  0 instructions:  500000000 cycles:  627182456 heartbeat IPC: 0.46641 cumulative IPC: 0.68453 (Simulation time: 0 hr 16 min 10 sec) 
Heartbeat CPU  0 instructions:  501000000 cycles:  629365621 heartbeat IPC: 0.45805 cumulative IPC: 0.68369 (Simulation time: 0 hr 16 min 13 sec) 
Heartbeat CPU  0 instructions:  502000002 cycles:  631894358 heartbeat IPC: 0.39546 cumulative IPC: 0.68245 (Simulation time: 0 hr 16 min 16 sec) 
Heartbeat CPU  0 instructions:  503000003 cycles:  638587052 heartbeat IPC: 0.14942 cumulative IPC: 0.67647 (Simulation time: 0 hr 16 min 20 sec) 
Heartbeat CPU  0 instructions:  504000000 cycles:  643287176 heartbeat IPC: 0.21276 cumulative IPC: 0.67284 (Simulation time: 0 hr 16 min 24 sec) 
Heartbeat CPU  0 instructions:  505000000 cycles:  651957178 heartbeat IPC: 0.11534 cumulative IPC: 0.66490 (Simulation time: 0 hr 16 min 28 sec) 
Heartbeat CPU  0 instructions:  506000001 cycles:  657982555 heartbeat IPC: 0.16596 cumulative IPC: 0.66001 (Simulation time: 0 hr 16 min 31 sec) 
Heartbeat CPU  0 instructions:  507000000 cycles:  663384744 heartbeat IPC: 0.18511 cumulative IPC: 0.65588 (Simulation time: 0 hr 16 min 35 sec) 
Heartbeat CPU  0 instructions:  508000000 cycles:  667768464 heartbeat IPC: 0.22812 cumulative IPC: 0.65288 (Simulation time: 0 hr 16 min 38 sec) 
Heartbeat CPU  0 instructions:  509000002 cycles:  671521857 heartbeat IPC: 0.26643 cumulative IPC: 0.65057 (Simulation time: 0 hr 16 min 41 sec) 
Heartbeat CPU  0 instructions:  510000001 cycles:  675118832 heartbeat IPC: 0.27801 cumulative IPC: 0.64845 (Simulation time: 0 hr 16 min 44 sec) 
Heartbeat CPU  0 instructions:  511000001 cycles:  677695687 heartbeat IPC: 0.38807 cumulative IPC: 0.64739 (Simulation time: 0 hr 16 min 47 sec) 
Heartbeat CPU  0 instructions:  512000000 cycles:  679951725 heartbeat IPC: 0.44325 cumulative IPC: 0.64667 (Simulation time: 0 hr 16 min 50 sec) 
Heartbeat CPU  0 instructions:  513000003 cycles:  682213639 heartbeat IPC: 0.44210 cumulative IPC: 0.64595 (Simulation time: 0 hr 16 min 52 sec) 
Heartbeat CPU  0 instructions:  514000003 cycles:  684372880 heartbeat IPC: 0.46313 cumulative IPC: 0.64533 (Simulation time: 0 hr 16 min 55 sec) 
Heartbeat CPU  0 instructions:  515000001 cycles:  686515015 heartbeat IPC: 0.46682 cumulative IPC: 0.64474 (Simulation time: 0 hr 16 min 57 sec) 
Heartbeat CPU  0 instructions:  516000000 cycles:  688862266 heartbeat IPC: 0.42603 cumulative IPC: 0.64394 (Simulation time: 0 hr 17 min 0 sec) 
Heartbeat CPU  0 instructions:  517000000 cycles:  695325951 heartbeat IPC: 0.15471 cumulative IPC: 0.63910 (Simulation time: 0 hr 17 min 4 sec) 
Heartbeat CPU  0 instructions:  518000002 cycles:  699806522 heartbeat IPC: 0.22319 cumulative IPC: 0.63626 (Simulation time: 0 hr 17 min 8 sec) 
Heartbeat CPU  0 instructions:  519000001 cycles:  707879342 heartbeat IPC: 0.12387 cumulative IPC: 0.63004 (Simulation time: 0 hr 17 min 12 sec) 
Heartbeat CPU  0 instructions:  520000000 cycles:  714397323 heartbeat IPC: 0.15342 cumulative IPC: 0.62542 (Simulation time: 0 hr 17 min 16 sec) 
Heartbeat CPU  0 instructions:  521000001 cycles:  719801757 heartbeat IPC: 0.18503 cumulative IPC: 0.62190 (Simulation time: 0 hr 17 min 19 sec) 
Heartbeat CPU  0 instructions:  522000001 cycles:  724525873 heartbeat IPC: 0.21168 cumulative IPC: 0.61906 (Simulation time: 0 hr 17 min 22 sec) 
Heartbeat CPU  0 instructions:  523000001 cycles:  728845448 heartbeat IPC: 0.23150 cumulative IPC: 0.61662 (Simulation time: 0 hr 17 min 25 sec) 
Heartbeat CPU  0 instructions:  524000000 cycles:  732238326 heartbeat IPC: 0.29473 cumulative IPC: 0.61503 (Simulation time: 0 hr 17 min 29 sec) 
Heartbeat CPU  0 instructions:  525000000 cycles:  734899377 heartbeat IPC: 0.37579 cumulative IPC: 0.61411 (Simulation time: 0 hr 17 min 32 sec) 
Heartbeat CPU  0 instructions:  526000000 cycles:  737196292 heartbeat IPC: 0.43537 cumulative IPC: 0.61352 (Simulation time: 0 hr 17 min 34 sec) 
Heartbeat CPU  0 instructions:  527000000 cycles:  739484062 heartbeat IPC: 0.43711 cumulative IPC: 0.61294 (Simulation time: 0 hr 17 min 37 sec) 
Heartbeat CPU  0 instructions:  528000000 cycles:  741662354 heartbeat IPC: 0.45908 cumulative IPC: 0.61246 (Simulation time: 0 hr 17 min 39 sec) 
[...]
IIIIIIII2IIAIIAIIIIAIIIIIIIIAIIIIIIIIIIIIIIIIAAAAA22A22A2A22AAAA
IIIIIIII2IIAIIAIIIIAIIIIIIIIAIIIIIIIIIIIIIIIIAAAIA22A22A2A22AAAA
IIIIIIII2IIAIIAIIIIAIIIIIIIIAIIIIIIIIIIIIIIIIAAAII22A22A2A22AAAA
IIIIIIII2IIAIIAIIIIAIIIIIIIIAIIIIIIIIIIIIIIIIAAAIII2A22A2A22AAAA
IIIIIIII2IIAIIAIIIIAIIIIIIIIAIIIIIIIIIIIIIIIIAAAIIIIA22A2A22AAAA
IIIIIIII2IIAIIAIIIIAIIIIIIIIAIIIIIIIIIIIIIIIIAAAIIIII22A2A22AAAA
IIIIIIII2IIAIIAIIIIAIIIIIIIIAIIIIIIIIIIIIIIIIAAAIIIIII2A2A22AAAA
IIIIIIII2IIAIIAIIIIAIIIIIIIIAIIIIIIIIIIIIIIIIAAAIIIIIIIA2A22AAAA
IIIIIIII2IIAIIAIIIIAIIIIIIIIAIIIIIIIIIIIIIIIIAAAIIIIIIII2A22AAAA
IIIIIIII2IIAIIAIIIIAIIIIIIIIAIIIIIIIIIIIIIIIIAAAIIIIIIIIIA22AAAA
IIIIIIII2IIAIIAIIIIAIIIIIIIIAIIIIIIIIIIIIIIIIAAAIIIIIIIIII22AAAA
IIIIIIII2IIAIIAIIIIAIIIIIIIIAIIIIIIIIIIIIIIIIAAAIIIIIIIIIII2AAAA
IIIIIIII2IIAIIAIIIIAIIIIIIIIAIIIIIIIIIIIIIIIIAAAIIIIIIIIIIIIAAAA
IIIIIIII2IIAIIAIIIIAIIIIIIIIAIIIIIIIIIIIIIIIIAAAIIIIIIIIIIIIIAAA
IIIIIIII2IIAIIAIIIIAIIIIIIIIAIIIIIIIIIIIIIIIIAAAIIIIIIIIIIIIIIAA
IIIIIIII2IIAIIAIIIIAIIIIIIIIAIIIIIIIIIIIIIIIIAAAIIIIIIIIIIIIIIIA
IIIIIIII2IIAIIAIIIIAIIIIIIIIAIIIIIIIIIIIIIIIIAAAIIIIIIIIIIIIIIII
IIIIIIII2IIAIIAIIIIAIIIIIIIIAIIIIIIIIIIIIIIIIAAAIIIIIIIIIIA2I222
IIIIIIII2IIAIIAIIIIAIIIIIIIIAIIIIIIIIIIIIIIIIAAAIIIIIIAI22A2I222
IIIIIIII2IIAIIAIIIIAIIIIIIIIAIIIIIIIIIIIIIIIIAAAIIIIIIAI22A2I2I2
IIIIIIII2IIAIIAIIIIAIIIIIIIIAIIIIIIIIIIIIIIIIAAAIIIIIIAI22AII2I2
IIIIIIII2IIAIIAIIIIAIIIIIIIIAIIIIIIIIIIIIIIIIAAAIIIIIIAI22AII2II
IIIIIIII2IIAIIAIIIIAIIIIIIIIAIIIIIIIIIIIIIIIIAAAIIIIIIAI22III2II
IIIIIIII2IIAIIAIIIIAIIIIIIIIAIIIIIIIIIIIIIIIIAAAIIIIIIAI22IIIIII
IIIIIIII2IIAIIAIIIIAIIIIIIIIAIIIIIIIIIIIIIIIIAAAIIAI22A2222I2I44
IIIIIIII2IIAIIAIIIIAIIIIIIIIAIIIIIIIIIIIIIIIIAAAIIAI22I2222I2I44
IIIIIIII2IIAIIAIIIIAIIIIIIIIAIIIIIIIIIIIIIIIIAAAIIAI22I2I22I2I44
IIIIIIII2IIAIIAIIIIAIIIIIIIIAIIIIIIIIIIIIIIIIAAAIIAI22I2II2I2I44
IIIIIIII2IIAIIAIIIIAIIIIIIIIAIIIIIIIIIIIIIIIIAAAIIAI2A2222222244
IIIIIIII2IIAIIAIIIIAIIIIIIIIAIIIIIIIIIIIIIIIIAAAIIAI2A2I22222244
IIIIIIII2IIAIIAIIIIAIIIIIIIIAIIIIIIIIIIIIIIIIAAAIIII2A2I22222244
IIIIIIII2IIAIIAIIIIAIIIIIIIIAIIIIIIIIIIIIIIIIAAAIIIIIA2I22222244
IIIIIIII2IIAIIAIIIIAIIIIIIIIAIIIIIIIIIIIIIIIIAAAIIIIIA2I22I22244
IIIIIIII2IIAIIAIIIIAIIIIIIIIAIIIIIIIIIIIIIIIIAAAIIIIIA2I22I2I244
IIIIIIII2IIAIIAIIIIAIIIIIIIIAIIIIIIIIIIIIIIIIAAAIIIIIA2I22I2II44
IIIIIIII2IIAIIAIIIIAIIIIIIIIAIIIIIIIA22222222AAA44444A2I22I2II44
IIIIIIII2IIAIIAIIIIAIIIIIIIIAIAI22I2A22222222AAA44444A2I22I2II44
IIIIIIII2IIAIIAIIIIAIIIIIIIIAIAI22I2A222222I2AAA44444A2I22I2II44
IIIIIIII2IIAIIAIIIIAIIIIIIIIAIAI22I2A222222IIAAA44444A2I22I2II44
IIIIIIII2IIAIIAIIIIAIIIIIIIIAIAI22I2A2I2222IIAAA44444A2I22I2II44
IIIIIIII2IIAIIAIIIIAIIIIIIIIAIAI22I2A2II222IIAAA44444A2I22I2II44
IIIIIIII2IIAIIAIIIIAIIIIIIIIAIAI22I2A2II22IIIAAA44444A2I22I2II44
IIIIIIII2IIAIIAIIIIAIIIIIIIIAIAI22I2AIII22IIIAAA44444A2I22I2II44
IIIIIIII2IIAIIAIIIIAIIIIIIIIAIAI22I2AIIII2IIIAAA44444A2I22I2II44
IIIIIIII2IIAIIAIIIIAIIIIIIIIAIAI22I2IIIII2IIIAAA44444A2I22I2II44
IIIIIIII2IIAIIAIIIIAIIIIIIIIAIII22I2IIIII2IIIAAA44444A2I22I2II44
IIIIIIII2IIAIIAIIIIAIIIIIIIIAIIII2I2IIIII2IIIAAA44444A2I22I2II44
IIIIIIII2IIAIIAIIIIAIIIIIIIIAIIII2IIIIIII2IIIAAA44444A2I22I2II44
IIIIIIII2IIAIIAIAI2A22I22224A44442IIIIIII2IIIAAA44444A2I22I2II44
IIIIIIII2IIAIIAIAI2A22I22224A44442IIIIIIA2222AAA22244A2422I2II44
IIIIIIII2IIAIIAIAI2A22IA2222A42222444444A2222AAA22244A2422I2II44
IAI2222I222A44A4A42A22IA2222A42222444444A2222AAA22244A2422I2II44
IAI2222I222A44A4A42A22IA2222A42222444444A2222AAA22244A2422I2A222
IAI2222I222A44A4A42A22IA2222A42222444444A2222AAA22A44A2422I2A222
IAI2222I222A44A4A42A22IA2222A42222444444A2222AAA22A44A242242A222
IAI2I22I222A44A4A42A22IA2222A42222444444A2222AAA22A44A242242A222
IIIIIIIIIIIIIIIIIIIIIIIIIIIIIIIIIIIIIIIIIIIIIIIIIIIIIIIIIIIIA222
IIIIIIIIIIIIIIIIIIIIIIIIIIIIIIIIIIIIIIIIIIIIIIIIIIIIIIIIIIIIA22A
IIIIIIIIIIIIIIIIIIIIIIIIIIIIIIIIIIIIIIIIIIIIIIIIIIIIIIIIIIIIA2AA
IIIIIIIIIIIIIIIIIIIIIIIIIIIIIIIIIIIIIIIIIIIIIIIIIIIIIIIIIA22A2AA
IIIIIIIIIIIIIIIIIIIIIIIIIIIIIIIIIIIIIIIIIIIIIIIIIIIIIIIIIA22AAAA
IIIIIIIIIIIIIIIIIIIIIIIIIIIIIIIIIIIIIIIIIIIIIIIIIIIIA222IA22AAAA
IIIIIIIIIIIIIIIIIIIIIIIIIIIIIIIIIIIIIIIIIIIIIIIIIIIIA22A2A22AAAA
IIIIIIIIIIIIIIIIIIIIIIIIIIIIIIIIIIIIIIIIIIIIIIIIIA22A22A2A22AAAA
IIIIIIIIIIIIIIIIIIIIIIIIIIIIIIIIIIIIIIIIIIIIIA222A22A22A2A22AAAA
IIIIIIIIIIIIIIIIIIIIIIIIIIIIIIIIIIIIIIIIIIIIIA22AA22A22A2A22AAAA
IIIIIIIIIIIIIIIIIIIIIIIIIIIIIIIIIIIIIIIIIIIA2A22AA22A22A2A22AAAA
IIIIIIIIIIIIIIIIIIIIIIIIIIIIIIIIIIIIIIIIIIIA2AA2AA22A22A2A22AAAA
IIIIIIIIIIIIIIIIIIIIIIIIIIIIIIIIIIIIIIIIIIIA2AAAAA22A22A2A22AAAA
IIIIIIIIIIIIIIIIIIIIIIIIIIIIIIIIIIIIIIIIIIIAAAAAAA22A22A2A22AAAA
IIIIIIIIIIIIIIIIIIIIIIIIIIIIIIIIIIIIIIA222IAAAAAAA22A22A2A22AAAA
IIIIIIIIIIIIIIIIIIIIIIIIIIIIIIIIA222I2A2224AAAAAAA22A22A2A22AAAA
IIIIIIIIIIIIIIIIIIIIIIIIIIIIIIIIA222I2AA222AAAAAAA22A22A2A22AAAA
IIIIIIIIIIIIIIIIIIIIIIIIIIIIIA22A22222AA222AAAAAAA22A22A2A22AAAA
IIIIIIIIIIIIIIIIIIIIIIIIIIIIIA22A2A222AA222AAAAAAA22A22A2A22AAAA
IIIIIIIIIIIIIIIIIIIIIIIIIIIIAA22A2A222AA222AAAAAAA22A22A2A22AAAA
IIIIIIIIIIIIIIIIIIIIIA222I2IAA22A2A222AA222AAAAAAA22A22A2A22AAAA
IIIIIIIIIIIIIIIIIIIIIA222I2IAA2AA2A222AA222AAAAAAA22A22A2A22AAAA
IIIIIIIIIIIIIIIIIIIIIAA22222AA2AA2A222AA222AAAAAAA22A22A2A22AAAA
IIIIIIIIIIIIIIIIIIIIIAA222A2AA2AA2A222AA222AAAAAAA22A22A2A22AAAA
IIIIIIIIIIIIIIIIIIIIIAA222AAAA2AA2A222AA222AAAAAAA22A22A2A22AAAA
IIIIIIIIIIIIIIA222I2IAA222AAAA2AA2A222AA222AAAAAAA22A22A2A22AAAA
IIIIIIIIIIIIIIA222I2AAA222AAAA2AA2A222AA222AAAAAAA22A22A2A22AAAA
IIIIIIIIIIIIIIA222IAAAA222AAAA2AA2A222AA222AAAAAAA22A22A2A22AAAA
IIIIIIIIIIIIIAA2222AAAA222AAAA2AA2A222AA222AAAAAAA22A22A2A22AAAA
IIIIIIIIIIIA2AA2222AAAA222AAAA2AA2A222AA222AAAAAAA22A22A2A22AAAA
IIIIA222I2IA2AA2222AAAA222AAAA2AA2A222AA222AAAAAAA22A22A2A22AAAA
IIIIA222I2IA2AAA222AAAA222AAAA2AA2A222AA222AAAAAAA22A22A2A22AAAA
IIIIAA22222A2AAA222AAAA222AAAA2AA2A222AA222AAAAAAA22A22A2A22AAAA
IIIIAAA2222A2AAA222AAAA222AAAA2AA2A222AA222AAAAAAA22A22A2A22AAAA
IIIIAAA2222A2AAA222AAAA22IAAAA2AA2A222AA222AAAAAAA22A22A2A22AAAA
IIIIAAA2222A2AAA222AAAA22IAAAAIAA2A222AA222AAAAAAA22A22A2A22AAAA
IIIIAAA2222A2AAA222AAAA22IAAAAIAI2A222AA222AAAAAAA22A22A2A22AAAA
IIIIAAA2222A2AAA222AAAA22IAAAAIAIIA222AA222AAAAAAA22A22A2A22AAAA
IIIIAAA2222A2AAA222AAAA22IAAAAIAIII222AA222AAAAAAA22A22A2A22AAAA
IIIIAAA2222A2AAA222AAAA22IAAAAIAIIII22AA222AAAAAAA22A22A2A22AAAA
IIIIAAA2222A2AAA222AAAA22IAAAAIAIIIII2AA222AAAAAAA22A22A2A22AAAA
IIIIAAA2222A2AAA222AAAA22IAAAAIAIIIIIIAA222AAAAAAA22A22A2A22AAAA
IIIIAAA2222A2AAA222AAAA22IAAAAIAIIIIIIIA222AAAAAAA22A22A2A22AAAA
IIIIAAA2222A2AAA222AAAA22IAAAAIAIIIIIIII222AAAAAAA22A22A2A22AAAA
IIIIAAA2222A2AAA222AAAA22IAAAAIAIIIIIIIII22AAAAAAA22A22A2A22AAAA
IIIIAAA2222A2AAA222AAAA22IAAAAIAIIIIIIIIII2AAAAAAA22A22A2A22AAAA
IIIIAAA2222A2AAA222AAAA22IAAAAIAIIIIIIIIIIIAAAAAAA22A22A2A22AAAA
IIIIAAA2222A2AAA222AAAA22IAAAAIAIIIIIIIIIIIIAAAAAA22A22A2A22AAAA
IIIIAAA2222A2AAA222AAAA22IAAAAIAIIIIIIIIIIIIIAAAAA22A22A2A22AAAA
IIIIAAA2222A2AAA222AAIA22IAAAAIAIIIIIIIIIIIIIAAAAA22A22A2A22AAAA
IIIIAAA2222A2AAA222AAII22IAAAAIAIIIIIIIIIIIIIAAAAA22A22A2A22AAAA
IIIIAAAI222A2AAA222AAII22IAAAAIAIIIIIIIIIIIIIAAAAA22A22A2A22AAAA
IIIIAAAI222A2AAA222AAIII2IAAAAIAIIIIIIIIIIIIIAAAAA22A22A2A22AAAA
IIIIAAAI222A2AAA222AAIIIIIAAAAIAIIIIIIIIIIIIIAAAAA22A22A2A22AAAA
IIIIAAAI22IA2AAA222AAIIIIIAAAAIAIIIIIIIIIIIIIAAAAA22A22A2A22AAAA
IIIIIAAI22IA2AAA222AAIIIIIAAAAIAIIIIIIIIIIIIIAAAAA22A22A2A22AAAA
IIIIIIAI22IA2AAA222AAIIIIIAAAAIAIIIIIIIIIIIIIAAAAA22A22A2A22AAAA
IIIIIIAI2IIA2AAA222AAIIIIIAAAAIAIIIIIIIIIIIIIAAAAA22A22A2A22AAAA
IIIIIIII2IIA2AAA222AAIIIIIAAAAIAIIIIIIIIIIIIIAAAAA22A22A2A22AAAA
IIIIIIII2IIA2AAA222AAIIIIIIAAAIAIIIIIIIIIIIIIAAAAA22A22A2A22AAAA
IIIIIIII2IIAIAAA222AAIIIIIIAAAIAIIIIIIIIIIIIIAAAAA22A22A2A22AAAA
IIIIIIII2IIAIIAA222AAIIIIIIAAAIAIIIIIIIIIIIIIAAAAA22A22A2A22AAAA
IIIIIIII2IIAIIAA222AAIIIIIIAAIIAIIIIIIIIIIIIIAAAAA22A22A2A22AAAA
IIIIIIII2IIAIIAI222AAIIIIIIAAIIAIIIIIIIIIIIIIAAAAA22A22A2A22AAAA
IIIIIIII2IIAIIAII22AAIIIIIIAAIIAIIIIIIIIIIIIIAAAAA22A22A2A22AAAA
IIIIIIII2IIAIIAII22AAIIIIIIAAIIIIIIIIIIIIIIIIAAAAA22A22A2A22AAAA
IIIIIIII2IIAIIAIII2AAIIIIIIAAIIIIIIIIIIIIIIIIAAAAA22A22A2A22AAAA
IIIIIIII2IIAIIAIIIIAAIIIIIIAAIIIIIIIIIIIIIIIIAAAAA22A22A2A22AAAA
IIIIIIII2IIAIIAIIIIAIIIIIIIAAIIIIIIIIIIIIIIIIAAAAA22A22A2A22AAAA
IIIIIIII2IIAIIAIIIIAIIIIIIIIAIIIIIIIIIIIIIIIIAAAAA22A22A2A22AAAA
IIIIIIII2IIAIIAIIIIAIIIIIIIIAIIIIIIIIIIIIIIIIAAAIA22A22A2A22AAAA
IIIIIIII2IIAIIAIIIIAIIIIIIIIAIIIIIIIIIIIIIIIIAAAII22A22A2A22AAAA
IIIIIIII2IIAIIAIIIIAIIIIIIIIAIIIIIIIIIIIIIIIIAAAIII2A22A2A22AAAA
IIIIIIII2IIAIIAIIIIAIIIIIIIIAIIIIIIIIIIIIIIIIAAAIIIIA22A2A22AAAA
IIIIIIII2IIAIIAIIIIAIIIIIIIIAIIIIIIIIIIIIIIIIAAAIIIII22A2A22AAAA
IIIIIIII2IIAIIAIIIIAIIIIIIIIAIIIIIIIIIIIIIIIIAAAIIIIII2A2A22AAAA
IIIIIIII2IIAIIAIIIIAIIIIIIIIAIIIIIIIIIIIIIIIIAAAIIIIIIIA2A22AAAA
IIIIIIII2IIAIIAIIIIAIIIIIIIIAIIIIIIIIIIIIIIIIAAAIIIIIIII2A22AAAA
IIIIIIII2IIAIIAIIIIAIIIIIIIIAIIIIIIIIIIIIIIIIAAAIIIIIIIIIA22AAAA
IIIIIIII2IIAIIAIIIIAIIIIIIIIAIIIIIIIIIIIIIIIIAAAIIIIIIIIII22AAAA
IIIIIIII2IIAIIAIIIIAIIIIIIIIAIIIIIIIIIIIIIIIIAAAIIIIIIIIIII2AAAA
IIIIIIII2IIAIIAIIIIAIIIIIIIIAIIIIIIIIIIIIIIIIAAAIIIIIIIIIIIIAAAA
IIIIIIII2IIAIIAIIIIAIIIIIIIIAIIIIIIIIIIIIIIIIAAAIIIIIIIIIIIIIAAA
IIIIIIII2IIAIIAIIIIAIIIIIIIIAIIIIIIIIIIIIIIIIAAAIIIIIIIIIIIIIIAA
IIIIIIII2IIAIIAIIIIAIIIIIIIIAIIIIIIIIIIIIIIIIAAAIIIIIIIIIIIIIIIA
IIIIIIII2IIAIIAIIIIAIIIIIIIIAIIIIIIIIIIIIIIIIAAAIIIIIIIIIIIIIIII
IIIIIIII2IIAIIAIIIIAIIIIIIIIAIIIIIIIIIIIIIIIIAAAIIIIIIIIIIA2I222
IIIIIIII2IIAIIAIIIIAIIIIIIIIAIIIIIIIIIIIIIIIIAAAIIIIIIAI22A2I222
IIIIIIII2IIAIIAIIIIAIIIIIIIIAIIIIIIIIIIIIIIIIAAAIIIIIIAI22A2I2I2
IIIIIIII2IIAIIAIIIIAIIIIIIIIAIIIIIIIIIIIIIIIIAAAIIIIIIAI22I2I2I2
IIIIIIII2IIAIIAIIIIAIIIIIIIIAIIIIIIIIIIIIIIIIAAAIIIIIIAI22III2I2
IIIIIIII2IIAIIAIIIIAIIIIIIIIAIIIIIIIIIIIIIIIIAAAIIIIIIAI22IIIII2
IIIIIIII2IIAIIAIIIIAIIIIIIIIAIIIIIIIIIIIIIIIIAAAIIIIIIAI22IIIIII
IIIIIIII2IIAIIAIIIIAIIIIIIIIAIIIIIIIIIIIIIIIIAAAIIAI22A222244444
IIIIIIII2IIAIIAIIIIAIIIIIIIIAIIIIIIIIIIIIIIIIAAAIIAI22I222244444
IIIIIIII2IIAIIAIIIIAIIIIIIIIAIIIIIIIIIIIIIIIIAAAIIAI22I2I2244444
IIIIIIII2IIAIIAIIIIAIIIIIIIIAIIIIIIIIIIIIIIIIAAAIIAI22I2II244444
IIIIIIII2IIAIIAIIIIAIIIIIIIIAIIIIIIIIIIIIIIIIAAAIIAI2A2222222222
IIIIIIII2IIAIIAIIIIAIIIIIIIIAIIIIIIIIIIIIIIIIAAAIIAI2A2I22222222
IIIIIIII2IIAIIAIIIIAIIIIIIIIAIIIIIIIIIIIIIIIIAAAIIII2A2I22222222
IIIIIIII2IIAIIAIIIIAIIIIIIIIAIIIIIIIIIIIIIIIIAAAIIIIIA2I22222222
IIIIIIII2IIAIIAIIIIAIIIIIIIIAIIIIIIIIIIIIIIIIAAAIIIIIA2I22I22222
IIIIIIII2IIAIIAIIIIAIIIIIIIIAIIIIIIIIIIIIIIIIAAAIIIIIA2I22I22I22
IIIIIIII2IIAIIAIIIIAIIIIIIIIAIIIIIIIIIIIIIIIIAAAIIIIIA2II2I22I22
IIIIIIII2IIAIIAIIIIAIIIIIIIIAIIIIIIIIIIIIIIIIAAAIIIIIA2II2I22I2I
IIIIIIII2IIAIIAIIIIAIIIIIIIIAIIIIIIIAI2222222AAA44444A2II2I22I2I
IIIIIIII2IIAIIAIIIIAIIIIIIIIAIAI22I2AI2222222AAA44444A2II2I22I2I
IIIIIIII2IIAIIAIIIIAIIIIIIIIAIAI22I2AI22222I2AAA44444A2II2I22I2I
IIIIIIII2IIAIIAIIIIAIIIIIIIIAIAI22I2AI22222IIAAA44444A2II2I22I2I
IIIIIIII2IIAIIAIIIIAIIIIIIIIAIAI22I2AII2222IIAAA44444A2II2I22I2I
IIIIIIII2IIAIIAIIIIAIIIIIIIIAIAI22I2AIII222IIAAA44444A2II2I22I2I
IIIIIIII2IIAIIAIIIIAIIIIIIIIAIAI22I2AIIII22IIAAA44444A2II2I22I2I
IIIIIIII2IIAIIAIIIIAIIIIIIIIAIAI22I2AIIII2IIIAAA44444A2II2I22I2I
IIIIIIII2IIAIIAIIIIAIIIIIIIIAIAI22I2IIIII2IIIAAA44444A2II2I22I2I
IIIIIIII2IIAIIAIIIIAIIIIIIIIAIII22I2IIIII2IIIAAA44444A2II2I22I2I
IIIIIIII2IIAIIAIIIIAIIIIIIIIAIIII2I2IIIII2IIIAAA44444A2II2I22I2I
IIIIIIII2IIAIIAIIIIAIIIIIIIIAIIII2IIIIIII2IIIAAA44444A2II2I22I2I
IIIIIIII2IIAIIAIAI2A22222244A44442IIIIIII2IIIAAA44444A2II2I22I2I
IIIIIIII2IIAIIAIAI2A22222244A44442IIIIIIA2222AAA22444A2442I22I2I
IIIIIIII2IIAIIAIAI2A222A2222A22222444444A2222AAA22444A2442I22I2I
IAI222222I4A44A4A42A222A2222A22222444444A2222AAA22444A2442I22I2I
IAI222222I4A44A4A42A222A2222A22222444444A2222AAA22444A2442I2AI22
IAI222222I4A44A4A42A222A2222A22222444444A2222AAA22A44A2442I2AI22
IAI222222I4A44A4A42A222A2222A22222444444A2222AAA22A44A244242AI22
IAI222222I4A44A4A42A222A2222A22222444444A2222AAA22A44I244242AI22
IAI222222I4A44A4A42A222A2222A22222444444A2222AAA22I44I244242AI22
IIIIIIIIIIIIIIIIIIIIIIIIIIIIIIIIIIIIIIIIIIIIIIIIIIIIIIIIIIIIA222
IIIIIIIIIIIIIIIIIIIIIIIIIIIIIIIIIIIIIIIIIIIIIIIIIIIIIIIIIIIIA22A
IIIIIIIIIIIIIIIIIIIIIIIIIIIIIIIIIIIIIIIIIIIIIIIIIIIIIIIIIIIIA2AA
IIIIIIIIIIIIIIIIIIIIIIIIIIIIIIIIIIIIIIIIIIIIIIIIIIIIIIIIIA22A2AA
IIIIIIIIIIIIIIIIIIIIIIIIIIIIIIIIIIIIIIIIIIIIIIIIIIIIIIIIIA22AAAA
IIIIIIIIIIIIIIIIIIIIIIIIIIIIIIIIIIIIIIIIIIIIIIIIIIIIA222IA22AAAA
IIIIIIIIIIIIIIIIIIIIIIIIIIIIIIIIIIIIIIIIIIIIIIIIIIIIA22A2A22AAAA
IIIIIIIIIIIIIIIIIIIIIIIIIIIIIIIIIIIIIIIIIIIIIIIIIA22A22A2A22AAAA
IIIIIIIIIIIIIIIIIIIIIIIIIIIIIIIIIIIIIIIIIIIIIA222A22A22A2A22AAAA
IIIIIIIIIIIIIIIIIIIIIIIIIIIIIIIIIIIIIIIIIIIIIA22AA22A22A2A22AAAA
IIIIIIIIIIIIIIIIIIIIIIIIIIIIIIIIIIIIIIIIIIIA2A22AA22A22A2A22AAAA
IIIIIIIIIIIIIIIIIIIIIIIIIIIIIIIIIIIIIIIIIIIA2AA2AA22A22A2A22AAAA
IIIIIIIIIIIIIIIIIIIIIIIIIIIIIIIIIIIIIIIIIIIA2AAAAA22A22A2A22AAAA
IIIIIIIIIIIIIIIIIIIIIIIIIIIIIIIIIIIIIIIIIIIAAAAAAA22A22A2A22AAAA
IIIIIIIIIIIIIIIIIIIIIIIIIIIIIIIIIIIIIIA222IAAAAAAA22A22A2A22AAAA
IIIIIIIIIIIIIIIIIIIIIIIIIIIIIIIIA222I2A2224AAAAAAA22A22A2A22AAAA
IIIIIIIIIIIIIIIIIIIIIIIIIIIIIIIIA222I2AA222AAAAAAA22A22A2A22AAAA
IIIIIIIIIIIIIIIIIIIIIIIIIIIIIA22A22222AA222AAAAAAA22A22A2A22AAAA
IIIIIIIIIIIIIIIIIIIIIIIIIIIIIA22A2A222AA222AAAAAAA22A22A2A22AAAA
IIIIIIIIIIIIIIIIIIIIIIIIIIIIAA22A2A222AA222AAAAAAA22A22A2A22AAAA
IIIIIIIIIIIIIIIIIIIIIA222I2IAA22A2A222AA222AAAAAAA22A22A2A22AAAA
IIIIIIIIIIIIIIIIIIIIIA222I2IAA2AA2A222AA222AAAAAAA22A22A2A22AAAA
IIIIIIIIIIIIIIIIIIIIIAA22222AA2AA2A222AA222AAAAAAA22A22A2A22AAAA
IIIIIIIIIIIIIIIIIIIIIAA222A2AA2AA2A222AA222AAAAAAA22A22A2A22AAAA
IIIIIIIIIIIIIIIIIIIIIAA222AAAA2AA2A222AA222AAAAAAA22A22A2A22AAAA
IIIIIIIIIIIIIIA222I2IAA222AAAA2AA2A222AA222AAAAAAA22A22A2A22AAAA
IIIIIIIIIIIIIIA222I2AAA222AAAA2AA2A222AA222AAAAAAA22A22A2A22AAAA
IIIIIIIIIIIIIIA222IAAAA222AAAA2AA2A222AA222AAAAAAA22A22A2A22AAAA
IIIIIIIIIIIIIAA2222AAAA222AAAA2AA2A222AA222AAAAAAA22A22A2A22AAAA
IIIIIIIIIIIA2AA2222AAAA222AAAA2AA2A222AA222AAAAAAA22A22A2A22AAAA
IIIIA222222A2AA2222AAAA222AAAA2AA2A222AA222AAAAAAA22A22A2A22AAAA
IIIIA222222A2AAA222AAAA222AAAA2AA2A222AA222AAAAAAA22A22A2A22AAAA
IIIIAA22222A2AAA222AAAA222AAAA2AA2A222AA222AAAAAAA22A22A2A22AAAA
IIIIAAA2222A2AAA222AAAA222AAAA2AA2A222AA222AAAAAAA22A22A2A22AAAA
IIIIAAA2222A2AAA222AAAA22IAAAA2AA2A222AA222AAAAAAA22A22A2A22AAAA
IIIIAAA2222A2AAA222AAAA22IAAAAIAA2A222AA222AAAAAAA22A22A2A22AAAA
IIIIAAA2222A2AAA222AAAA22IAAAAIAI2A222AA222AAAAAAA22A22A2A22AAAA
IIIIAAA2222A2AAA222AAAA22IAAAAIAIIA222AA222AAAAAAA22A22A2A22AAAA
IIIIAAA2222A2AAA222AAAA22IAAAAIAIII222AA222AAAAAAA22A22A2A22AAAA
IIIIAAA2222A2AAA222AAAA22IAAAAIAIIII22AA222AAAAAAA22A22A2A22AAAA
IIIIAAA2222A2AAA222AAAA22IAAAAIAIIIII2AA222AAAAAAA22A22A2A22AAAA
IIIIAAA2222A2AAA222AAAA22IAAAAIAIIIIIIAA222AAAAAAA22A22A2A22AAAA
IIIIAAA2222A2AAA222AAAA22IAAAAIAIIIIIIIA222AAAAAAA22A22A2A22AAAA
IIIIAAA2222A2AAA222AAAA22IAAAAIAIIIIIIII222AAAAAAA22A22A2A22AAAA
IIIIAAA2222A2AAA222AAAA22IAAAAIAIIIIIIIII22AAAAAAA22A22A2A22AAAA
IIIIAAA2222A2AAA222AAAA22IAAAAIAIIIIIIIIII2AAAAAAA22A22A2A22AAAA
IIIIAAA2222A2AAA222AAAA22IAAAAIAIIIIIIIIIIIAAAAAAA22A22A2A22AAAA
IIIIAAA2222A2AAA222AAAA22IAAAAIAIIIIIIIIIIIIAAAAAA22A22A2A22AAAA
IIIIAAA2222A2AAA222AAAA22IAAAAIAIIIIIIIIIIIIIAAAAA22A22A2A22AAAA
IIIIAAA2222A2AAA222AAIA22IAAAAIAIIIIIIIIIIIIIAAAAA22A22A2A22AAAA
IIIIAAA2222A2AAA222AAII22IAAAAIAIIIIIIIIIIIIIAAAAA22A22A2A22AAAA
IIIIAAA2222A2AAA222AAIII2IAAAAIAIIIIIIIIIIIIIAAAAA22A22A2A22AAAA
IIIIAAA2222A2AAA222AAIIIIIAAAAIAIIIIIIIIIIIIIAAAAA22A22A2A22AAAA
IIIIAAAI222A2AAA222AAIIIIIAAAAIAIIIIIIIIIIIIIAAAAA22A22A2A22AAAA
IIIIAAAI222A2AAA222AAIIIIIIAAAIAIIIIIIIIIIIIIAAAAA22A22A2A22AAAA
IIIIAAAI222A2IAA222AAIIIIIIAAAIAIIIIIIIIIIIIIAAAAA22A22A2A22AAAA
IIIIAAAI222AIIAA222AAIIIIIIAAAIAIIIIIIIIIIIIIAAAAA22A22A2A22AAAA
IIIIAAAI22IAIIAA222AAIIIIIIAAAIAIIIIIIIIIIIIIAAAAA22A22A2A22AAAA
IIIIIAAI22IAIIAA222AAIIIIIIAAAIAIIIIIIIIIIIIIAAAAA22A22A2A22AAAA
IIIIIAAI2IIAIIAA222AAIIIIIIAAAIAIIIIIIIIIIIIIAAAAA22A22A2A22AAAA
IIIIIIAI2IIAIIAA222AAIIIIIIAAAIAIIIIIIIIIIIIIAAAAA22A22A2A22AAAA
IIIIIIII2IIAIIAA222AAIIIIIIAAAIAIIIIIIIIIIIIIAAAAA22A22A2A22AAAA
IIIIIIII2IIAIIAI222AAIIIIIIAAAIAIIIIIIIIIIIIIAAAAA22A22A2A22AAAA
IIIIIIII2IIAIIAI222AAIIIIIIAAIIAIIIIIIIIIIIIIAAAAA22A22A2A22AAAA
IIIIIIII2IIAIIAII22AAIIIIIIAAIIAIIIIIIIIIIIIIAAAAA22A22A2A22AAAA
IIIIIIII2IIAIIAII22AAIIIIIIAAIIIIIIIIIIIIIIIIAAAAA22A22A2A22AAAA
IIIIIIII2IIAIIAIII2AAIIIIIIAAIIIIIIIIIIIIIIIIAAAAA22A22A2A22AAAA
IIIIIIII2IIAIIAIIIIAAIIIIIIAAIIIIIIIIIIIIIIIIAAAAA22A22A2A22AAAA
IIIIIIII2IIAIIAIIIIAIIIIIIIAAIIIIIIIIIIIIIIIIAAAAA22A22A2A22AAAA
IIIIIIII2IIAIIAIIIIAIIIIIIIIAIIIIIIIIIIIIIIIIAAAAA22A22A2A22AAAA
IIIIIIII2IIAIIAIIIIAIIIIIIIIAIIIIIIIIIIIIIIIIAAAIA22A22A2A22AAAA
IIIIIIII2IIAIIAIIIIAIIIIIIIIAIIIIIIIIIIIIIIIIAAAII22A22A2A22AAAA
IIIIIIII2IIAIIAIIIIAIIIIIIIIAIIIIIIIIIIIIIIIIAAAIII2A22A2A22AAAA
IIIIIIII2IIAIIAIIIIAIIIIIIIIAIIIIIIIIIIIIIIIIAAAIIIIA22A2A22AAAA
IIIIIIII2IIAIIAIIIIAIIIIIIIIAIIIIIIIIIIIIIIIIAAAIIIII22A2A22AAAA
IIIIIIII2IIAIIAIIIIAIIIIIIIIAIIIIIIIIIIIIIIIIAAAIIIIII2A2A22AAAA
IIIIIIII2IIAIIAIIIIAIIIIIIIIAIIIIIIIIIIIIIIIIAAAIIIIIIIA2A22AAAA
IIIIIIII2IIAIIAIIIIAIIIIIIIIAIIIIIIIIIIIIIIIIAAAIIIIIIII2A22AAAA
IIIIIIII2IIAIIAIIIIAIIIIIIIIAIIIIIIIIIIIIIIIIAAAIIIIIIIIIA22AAAA
IIIIIIII2IIAIIAIIIIAIIIIIIIIAIIIIIIIIIIIIIIIIAAAIIIIIIIIII22AAAA
IIIIIIII2IIAIIAIIIIAIIIIIIIIAIIIIIIIIIIIIIIIIAAAIIIIIIIIIII2AAAA
IIIIIIII2IIAIIAIIIIAIIIIIIIIAIIIIIIIIIIIIIIIIAAAIIIIIIIIIIIIAAAA
IIIIIIII2IIAIIAIIIIAIIIIIIIIAIIIIIIIIIIIIIIIIAAAIIIIIIIIIIIIIAAA
IIIIIIII2IIAIIAIIIIAIIIIIIIIAIIIIIIIIIIIIIIIIAAAIIIIIIIIIIIIIIAA
IIIIIIII2IIAIIAIIIIAIIIIIIIIAIIIIIIIIIIIIIIIIAAAIIIIIIIIIIIIIIIA
IIIIIIII2IIAIIAIIIIAIIIIIIIIAIIIIIIIIIIIIIIIIAAAIIIIIIIIIIIIIIII
IIIIIIII2IIAIIAIIIIAIIIIIIIIAIIIIIIIIIIIIIIIIAAAIIIIIIIIIIA22222
IIIIIIII2IIAIIAIIIIAIIIIIIIIAIIIIIIIIIIIIIIIIAAAIIIIIIAI22A22222
IIIIIIII2IIAIIAIIIIAIIIIIIIIAIIIIIIIIIIIIIIIIAAAIIIIIIAI22A222I2
IIIIIIII2IIAIIAIIIIAIIIIIIIIAIIIIIIIIIIIIIIIIAAAIIIIIIAI22A222II
IIIIIIII2IIAIIAIIIIAIIIIIIIIAIIIIIIIIIIIIIIIIAAAIIIIIIAI22I222II
IIIIIIII2IIAIIAIIIIAIIIIIIIIAIIIIIIIIIIIIIIIIAAAIIIIIIAI22II22II
IIIIIIII2IIAIIAIIIIAIIIIIIIIAIIIIIIIIIIIIIIIIAAAIIIIIIAI22II2III
IIIIIIII2IIAIIAIIIIAIIIIIIIIAIIIIIIIIIIIIIIIIAAAIIAI22A222242I44
IIIIIIII2IIAIIAIIIIAIIIIIIIIAIIIIIIIIIIIIIIIIAAAIIAI22I222242I44
IIIIIIII2IIAIIAIIIIAIIIIIIIIAIIIIIIIIIIIIIIIIAAAIIAI22I2I2242I44
IIIIIIII2IIAIIAIIIIAIIIIIIIIAIIIIIIIIIIIIIIIIAAAIIAI22I2II242I44
IIIIIIII2IIAIIAIIIIAIIIIIIIIAIIIIIIIIIIIIIIIIAAAIIAI2AI222242244
IIIIIIII2IIAIIAIIIIAIIIIIIIIAIIIIIIIIIIIIIIIIAAAIIAI2AII22242244
IIIIIIII2IIAIIAIIIIAIIIIIIIIAIIIIIIIIIIIIIIIIAAAIIII2AII22242244
IIIIIIII2IIAIIAIIIIAIIIIIIIIAIIIIIIIIIIIIIIIIAAAIIIIIAII22242244
IIIIIIII2IIAIIAIIIIAIIIIIIIIAIIIIIIIIIIIIIIIIAAAIIIIIAII22I42244
IIIIIIII2IIAIIAIIIIAIIIIIIIIAIIIIIIIIIIIIIIIIAAAIIIIIAII22I42I44
IIIIIIII2IIAIIAIIIIAIIIIIIIIAIIIIIIIA22222444AAA44444AII22I42I44
IIIIIIII2IIAIIAIIIIAIIIIIIIIAIIIIIIIA22222422AAA44444AII22I42I44
IIIIIIII2IIAIIAIIIIAIIIIIIIIAIAI22I2A22222422AAA44444AII22I42I44
IIIIIIII2IIAIIAIIIIAIIIIIIIIAIAI22I2A2I222422AAA44444AII22I42I44
IIIIIIII2IIAIIAIIIIAIIIIIIIIAIAI22I2A2II22422AAA44444AII22I42I44
IIIIIIII2IIAIIAIIIIAIIIIIIIIAIAI22I2A2III2422AAA44444AII22I42I44
IIIIIIII2IIAIIAIIIIAIIIIIIIIAIAI22I2AIIII2422AAA44444AII22I42I44
IIIIIIII2IIAIIAIIIIAIIIIIIIIAIAI22I2IIIII2422AAA44444AII22I42I44
IIIIIIII2IIAIIAIIIIAIIIIIIIIAIAI22I2IIIII24I2AAA44444AII22I42I44
IIIIIIII2IIAIIAIIIIAIIIIIIIIAIAI22I2IIIII24IIAAA44444AII22I42I44
IIIIIIII2IIAIIAIIIIAIIIIIIIIAIII22I2IIIII24IIAAA44444AII22I42I44
IIIIIIII2IIAIIAIIIIAIIIIIIIIAIIII2I2IIIII24IIAAA44444AII22I42I44
IIIIIIII2IIAIIAIIIIAIIIIIIIIAIIII2IIIIIII24IIAAA44444AII22I42I44
[MLOP] Prefetch Degree Mean: 7.85836
[MLOP] Prefetch Degree SD: 5.97231
[MLOP] Max Score Left Mean (%): 34.75441
[MLOP] Max Score Left SD (%): 26.10401
[MLOP] Max Score Right Mean (%): 66.43682
[MLOP] Max Score Right SD (%): 22.10713

Channel_0_RQ_row_buffer_hit 3400010
Channel_0_RQ_row_buffer_miss 5648680
Channel_0_WQ_row_buffer_hit 831044
Channel_0_WQ_row_buffer_miss 2477455
Channel_0_WQ_full 337
Channel_0_dbus_congested 8882425

avg_congested_cycle 21

DRAM_bw_pochs 4032527
DRAM_bw_level_0 1813879
DRAM_bw_level_1 679112
DRAM_bw_level_2 576690
DRAM_bw_level_3 962846
