*************************************************
   ChampSim Multicore Out-of-Order Simulator
   Last compiled: Dec 11 2024 17:59:53
*************************************************
parsing config file: /home/functionmain/桌面/Pythia/config/nopref.ini

trace_0 /home/functionmain/桌面/Pythia/traces/403.gcc-16B.champsimtrace.xz
adding L2C_PREFETCHER: NONE
Initialize SHIP state
warmup_instructions 100000000
simulation_instructions 500000000
champsim_seed 169
measure_ipc 0
measure_ipc_epoch 1000
measure_dram_bw 1
measure_dram_bw_epoch 256
measure_cache_acc 1
measure_cache_acc_epoch 1024
l1d_perfect 0
l2c_perfect 0
llc_perfect 0
l1d_semi_perfect 0
l2c_semi_perfect 0
llc_semi_perfect 0
semi_perfect_cache_page_buffer_size 64

num_cpus 1
cpu_freq 4000
dram_io_freq 4800
page_size 4096
block_size 64
max_read_per_cycle 8
max_fill_per_cycle 1
dram_channels 1
log2_dram_channels 0
dram_ranks 1
dram_banks 8
dram_rows 65536
dram_columns 128
dram_row_size 8
dram_size 4096
dram_pages 1048576

fetch_width 6
decode_width 6
exec_width 4
lq_width 2
sq_width 2
retire_width 4
scheduler_size 128
branch_mispredict_penalty 20
rob_size 256
lq_size 72
sq_size 56
num_instr_destinations_sparc 4
num_instr_destinations 2
num_instr_sources 4

itlb_set 16
itlb_way 8
itlb_rq_size 16
itlb_wq_size 16
itlb_pq_size 0
itlb_mshr_size 8
itlb_latency 1

dtlb_set 16
dtlb_way 4
dtlb_rq_size 16
dtlb_wq_size 16
dtlb_pq_size 0
dtlb_mshr_size 8
dtlb_latency 1

stlb_set 128
stlb_way 12
stlb_rq_size 32
stlb_wq_size 32
stlb_pq_size 0
stlb_mshr_size 16
stlb_latency 8

l1i_size 32
l1i_set 64
l1i_way 8
l1i_rq_size 64
l1i_wq_size 64
l1i_pq_size 8
l1i_mshr_size 8
l1i_latency 1

l1d_size 32
l1d_set 64
l1d_way 8
l1d_rq_size 64
l1d_wq_size 64
l1d_pq_size 8
l1d_mshr_size 16
l1d_latency 4

l2c_size 256
l2c_set 512
l2c_way 8
l2c_rq_size 32
l2c_wq_size 32
l2c_pq_size 32
l2c_mshr_size 32
l2c_latency 10

llc_size 2048
llc_set 2048
llc_way 16
llc_rq_size 32
llc_wq_size 32
llc_pq_size 32
llc_mshr_size 64
llc_latency 20

dram_channel_width 8
dram_wq_size 64
dram_rq_size 64
tRP 15
tRCD 15
tCAS 12.5
dram_dbus_turn_around_time 30
dram_write_high_wm 56
dram_write_low_wm 48
min_dram_writes_per_switch 16
dram_mtps 4800
dram_dbus_return_time 6


Heartbeat CPU  0 instructions:    1000000 cycles:     453084 heartbeat IPC: 2.20710 cumulative IPC: 2.20710 (Simulation time: 0 hr 0 min 1 sec) 
Heartbeat CPU  0 instructions:    2000000 cycles:     861369 heartbeat IPC: 2.44927 cumulative IPC: 2.32189 (Simulation time: 0 hr 0 min 3 sec) 
Heartbeat CPU  0 instructions:    3000003 cycles:    1299564 heartbeat IPC: 2.28210 cumulative IPC: 2.30847 (Simulation time: 0 hr 0 min 4 sec) 
Heartbeat CPU  0 instructions:    4000000 cycles:    1765825 heartbeat IPC: 2.14472 cumulative IPC: 2.26523 (Simulation time: 0 hr 0 min 6 sec) 
Heartbeat CPU  0 instructions:    5000000 cycles:    2181330 heartbeat IPC: 2.40671 cumulative IPC: 2.29218 (Simulation time: 0 hr 0 min 7 sec) 
Heartbeat CPU  0 instructions:    6000000 cycles:    2658696 heartbeat IPC: 2.09483 cumulative IPC: 2.25675 (Simulation time: 0 hr 0 min 9 sec) 
Heartbeat CPU  0 instructions:    7000002 cycles:    3082342 heartbeat IPC: 2.36047 cumulative IPC: 2.27100 (Simulation time: 0 hr 0 min 10 sec) 
Heartbeat CPU  0 instructions:    8000000 cycles:    3488552 heartbeat IPC: 2.46178 cumulative IPC: 2.29322 (Simulation time: 0 hr 0 min 12 sec) 
Heartbeat CPU  0 instructions:    9000003 cycles:    3937221 heartbeat IPC: 2.22882 cumulative IPC: 2.28588 (Simulation time: 0 hr 0 min 14 sec) 
Heartbeat CPU  0 instructions:   10000001 cycles:    4377897 heartbeat IPC: 2.26924 cumulative IPC: 2.28420 (Simulation time: 0 hr 0 min 15 sec) 
Heartbeat CPU  0 instructions:   11000000 cycles:    4782111 heartbeat IPC: 2.47393 cumulative IPC: 2.30024 (Simulation time: 0 hr 0 min 17 sec) 
Heartbeat CPU  0 instructions:   12000000 cycles:    5196346 heartbeat IPC: 2.41409 cumulative IPC: 2.30931 (Simulation time: 0 hr 0 min 18 sec) 
Heartbeat CPU  0 instructions:   13000001 cycles:    5649489 heartbeat IPC: 2.20681 cumulative IPC: 2.30109 (Simulation time: 0 hr 0 min 20 sec) 
Heartbeat CPU  0 instructions:   14000003 cycles:    6084805 heartbeat IPC: 2.29719 cumulative IPC: 2.30081 (Simulation time: 0 hr 0 min 21 sec) 
Heartbeat CPU  0 instructions:   15000000 cycles:    6489924 heartbeat IPC: 2.46840 cumulative IPC: 2.31128 (Simulation time: 0 hr 0 min 23 sec) 
Heartbeat CPU  0 instructions:   16000000 cycles:    6910149 heartbeat IPC: 2.37968 cumulative IPC: 2.31543 (Simulation time: 0 hr 0 min 24 sec) 
Heartbeat CPU  0 instructions:   17000001 cycles:    7353128 heartbeat IPC: 2.25745 cumulative IPC: 2.31194 (Simulation time: 0 hr 0 min 26 sec) 
Heartbeat CPU  0 instructions:   18000000 cycles:    7788446 heartbeat IPC: 2.29717 cumulative IPC: 2.31112 (Simulation time: 0 hr 0 min 27 sec) 
Heartbeat CPU  0 instructions:   19000001 cycles:    8189043 heartbeat IPC: 2.49628 cumulative IPC: 2.32017 (Simulation time: 0 hr 0 min 29 sec) 
Heartbeat CPU  0 instructions:   20000000 cycles:    8635794 heartbeat IPC: 2.23838 cumulative IPC: 2.31594 (Simulation time: 0 hr 0 min 31 sec) 
Heartbeat CPU  0 instructions:   21000001 cycles:    9080999 heartbeat IPC: 2.24616 cumulative IPC: 2.31252 (Simulation time: 0 hr 0 min 32 sec) 
Heartbeat CPU  0 instructions:   22000000 cycles:    9481726 heartbeat IPC: 2.49546 cumulative IPC: 2.32025 (Simulation time: 0 hr 0 min 34 sec) 
Heartbeat CPU  0 instructions:   23000003 cycles:    9896018 heartbeat IPC: 2.41376 cumulative IPC: 2.32417 (Simulation time: 0 hr 0 min 35 sec) 
Heartbeat CPU  0 instructions:   24000000 cycles:   10338281 heartbeat IPC: 2.26109 cumulative IPC: 2.32147 (Simulation time: 0 hr 0 min 37 sec) 
Heartbeat CPU  0 instructions:   25000000 cycles:   10787280 heartbeat IPC: 2.22718 cumulative IPC: 2.31754 (Simulation time: 0 hr 0 min 39 sec) 
Heartbeat CPU  0 instructions:   26000000 cycles:   11183588 heartbeat IPC: 2.52329 cumulative IPC: 2.32484 (Simulation time: 0 hr 0 min 40 sec) 
Heartbeat CPU  0 instructions:   27000001 cycles:   11598421 heartbeat IPC: 2.41061 cumulative IPC: 2.32790 (Simulation time: 0 hr 0 min 42 sec) 
Heartbeat CPU  0 instructions:   28000000 cycles:   12046192 heartbeat IPC: 2.23328 cumulative IPC: 2.32439 (Simulation time: 0 hr 0 min 43 sec) 
Heartbeat CPU  0 instructions:   29000000 cycles:   12479089 heartbeat IPC: 2.31002 cumulative IPC: 2.32389 (Simulation time: 0 hr 0 min 45 sec) 
Heartbeat CPU  0 instructions:   30000003 cycles:   12886910 heartbeat IPC: 2.45206 cumulative IPC: 2.32794 (Simulation time: 0 hr 0 min 46 sec) 
Heartbeat CPU  0 instructions:   31000003 cycles:   13377203 heartbeat IPC: 2.03960 cumulative IPC: 2.31738 (Simulation time: 0 hr 0 min 48 sec) 
Heartbeat CPU  0 instructions:   32000000 cycles:   13779930 heartbeat IPC: 2.48306 cumulative IPC: 2.32222 (Simulation time: 0 hr 0 min 50 sec) 
Heartbeat CPU  0 instructions:   33000001 cycles:   14203933 heartbeat IPC: 2.35848 cumulative IPC: 2.32330 (Simulation time: 0 hr 0 min 51 sec) 
Heartbeat CPU  0 instructions:   34000003 cycles:   14656100 heartbeat IPC: 2.21158 cumulative IPC: 2.31985 (Simulation time: 0 hr 0 min 53 sec) 
Heartbeat CPU  0 instructions:   35000002 cycles:   15077540 heartbeat IPC: 2.37281 cumulative IPC: 2.32133 (Simulation time: 0 hr 0 min 55 sec) 
Heartbeat CPU  0 instructions:   36000000 cycles:   15474775 heartbeat IPC: 2.51740 cumulative IPC: 2.32637 (Simulation time: 0 hr 0 min 56 sec) 
Heartbeat CPU  0 instructions:   37000001 cycles:   15910221 heartbeat IPC: 2.29650 cumulative IPC: 2.32555 (Simulation time: 0 hr 0 min 58 sec) 
Heartbeat CPU  0 instructions:   38000000 cycles:   16358452 heartbeat IPC: 2.23099 cumulative IPC: 2.32296 (Simulation time: 0 hr 1 min 0 sec) 
Heartbeat CPU  0 instructions:   39000000 cycles:   16774764 heartbeat IPC: 2.40204 cumulative IPC: 2.32492 (Simulation time: 0 hr 1 min 1 sec) 
Heartbeat CPU  0 instructions:   40000000 cycles:   17173267 heartbeat IPC: 2.50939 cumulative IPC: 2.32920 (Simulation time: 0 hr 1 min 3 sec) 
Heartbeat CPU  0 instructions:   41000003 cycles:   17615387 heartbeat IPC: 2.26184 cumulative IPC: 2.32751 (Simulation time: 0 hr 1 min 5 sec) 
Heartbeat CPU  0 instructions:   42000003 cycles:   18057676 heartbeat IPC: 2.26097 cumulative IPC: 2.32588 (Simulation time: 0 hr 1 min 6 sec) 
Heartbeat CPU  0 instructions:   43000002 cycles:   18463882 heartbeat IPC: 2.46180 cumulative IPC: 2.32887 (Simulation time: 0 hr 1 min 8 sec) 
Heartbeat CPU  0 instructions:   44000000 cycles:   18914311 heartbeat IPC: 2.22010 cumulative IPC: 2.32628 (Simulation time: 0 hr 1 min 10 sec) 
Heartbeat CPU  0 instructions:   45000000 cycles:   19362137 heartbeat IPC: 2.23301 cumulative IPC: 2.32412 (Simulation time: 0 hr 1 min 11 sec) 
Heartbeat CPU  0 instructions:   46000003 cycles:   19775504 heartbeat IPC: 2.41917 cumulative IPC: 2.32611 (Simulation time: 0 hr 1 min 13 sec) 
Heartbeat CPU  0 instructions:   47000003 cycles:   20228926 heartbeat IPC: 2.20545 cumulative IPC: 2.32341 (Simulation time: 0 hr 1 min 14 sec) 
Heartbeat CPU  0 instructions:   48000000 cycles:   20652662 heartbeat IPC: 2.35995 cumulative IPC: 2.32416 (Simulation time: 0 hr 1 min 16 sec) 
Heartbeat CPU  0 instructions:   49000003 cycles:   21061400 heartbeat IPC: 2.44656 cumulative IPC: 2.32653 (Simulation time: 0 hr 1 min 18 sec) 
Heartbeat CPU  0 instructions:   50000000 cycles:   21501722 heartbeat IPC: 2.27106 cumulative IPC: 2.32540 (Simulation time: 0 hr 1 min 19 sec) 
Heartbeat CPU  0 instructions:   51000003 cycles:   21938755 heartbeat IPC: 2.28816 cumulative IPC: 2.32465 (Simulation time: 0 hr 1 min 21 sec) 
Heartbeat CPU  0 instructions:   52000000 cycles:   22346105 heartbeat IPC: 2.45488 cumulative IPC: 2.32703 (Simulation time: 0 hr 1 min 22 sec) 
Heartbeat CPU  0 instructions:   53000000 cycles:   22761564 heartbeat IPC: 2.40698 cumulative IPC: 2.32849 (Simulation time: 0 hr 1 min 24 sec) 
Heartbeat CPU  0 instructions:   54000001 cycles:   23201453 heartbeat IPC: 2.27330 cumulative IPC: 2.32744 (Simulation time: 0 hr 1 min 25 sec) 
Heartbeat CPU  0 instructions:   55000001 cycles:   23636419 heartbeat IPC: 2.29903 cumulative IPC: 2.32692 (Simulation time: 0 hr 1 min 27 sec) 
Heartbeat CPU  0 instructions:   56000000 cycles:   24043752 heartbeat IPC: 2.45499 cumulative IPC: 2.32909 (Simulation time: 0 hr 1 min 28 sec) 
Heartbeat CPU  0 instructions:   57000003 cycles:   24459515 heartbeat IPC: 2.40522 cumulative IPC: 2.33038 (Simulation time: 0 hr 1 min 30 sec) 
Heartbeat CPU  0 instructions:   58000001 cycles:   24906738 heartbeat IPC: 2.23602 cumulative IPC: 2.32869 (Simulation time: 0 hr 1 min 32 sec) 
Heartbeat CPU  0 instructions:   59000000 cycles:   25337421 heartbeat IPC: 2.32189 cumulative IPC: 2.32857 (Simulation time: 0 hr 1 min 33 sec) 
Heartbeat CPU  0 instructions:   60000000 cycles:   25733140 heartbeat IPC: 2.52705 cumulative IPC: 2.33162 (Simulation time: 0 hr 1 min 35 sec) 
Heartbeat CPU  0 instructions:   61000001 cycles:   26184850 heartbeat IPC: 2.21381 cumulative IPC: 2.32959 (Simulation time: 0 hr 1 min 36 sec) 
Heartbeat CPU  0 instructions:   62000001 cycles:   26622929 heartbeat IPC: 2.28269 cumulative IPC: 2.32882 (Simulation time: 0 hr 1 min 38 sec) 
Heartbeat CPU  0 instructions:   63000000 cycles:   27026953 heartbeat IPC: 2.47510 cumulative IPC: 2.33101 (Simulation time: 0 hr 1 min 39 sec) 
Heartbeat CPU  0 instructions:   64000000 cycles:   27436593 heartbeat IPC: 2.44117 cumulative IPC: 2.33265 (Simulation time: 0 hr 1 min 41 sec) 
Heartbeat CPU  0 instructions:   65000001 cycles:   27884575 heartbeat IPC: 2.23223 cumulative IPC: 2.33104 (Simulation time: 0 hr 1 min 42 sec) 
Heartbeat CPU  0 instructions:   66000003 cycles:   28323020 heartbeat IPC: 2.28079 cumulative IPC: 2.33026 (Simulation time: 0 hr 1 min 44 sec) 
Heartbeat CPU  0 instructions:   67000000 cycles:   28722352 heartbeat IPC: 2.50417 cumulative IPC: 2.33268 (Simulation time: 0 hr 1 min 45 sec) 
Heartbeat CPU  0 instructions:   68000000 cycles:   29138533 heartbeat IPC: 2.40280 cumulative IPC: 2.33368 (Simulation time: 0 hr 1 min 47 sec) 
Heartbeat CPU  0 instructions:   69000001 cycles:   29579922 heartbeat IPC: 2.26558 cumulative IPC: 2.33266 (Simulation time: 0 hr 1 min 49 sec) 
Heartbeat CPU  0 instructions:   70000001 cycles:   30013438 heartbeat IPC: 2.30672 cumulative IPC: 2.33229 (Simulation time: 0 hr 1 min 50 sec) 
Heartbeat CPU  0 instructions:   71000003 cycles:   30438823 heartbeat IPC: 2.35082 cumulative IPC: 2.33255 (Simulation time: 0 hr 1 min 52 sec) 
Heartbeat CPU  0 instructions:   72000000 cycles:   30914511 heartbeat IPC: 2.10221 cumulative IPC: 2.32900 (Simulation time: 0 hr 1 min 53 sec) 
Heartbeat CPU  0 instructions:   73000001 cycles:   31310959 heartbeat IPC: 2.52240 cumulative IPC: 2.33145 (Simulation time: 0 hr 1 min 55 sec) 
Heartbeat CPU  0 instructions:   74000000 cycles:   31750796 heartbeat IPC: 2.27357 cumulative IPC: 2.33065 (Simulation time: 0 hr 1 min 56 sec) 
Heartbeat CPU  0 instructions:   75000003 cycles:   32202011 heartbeat IPC: 2.21624 cumulative IPC: 2.32905 (Simulation time: 0 hr 1 min 58 sec) 
Heartbeat CPU  0 instructions:   76000000 cycles:   32602980 heartbeat IPC: 2.49395 cumulative IPC: 2.33108 (Simulation time: 0 hr 1 min 59 sec) 
Heartbeat CPU  0 instructions:   77000001 cycles:   33019873 heartbeat IPC: 2.39870 cumulative IPC: 2.33193 (Simulation time: 0 hr 2 min 1 sec) 
Heartbeat CPU  0 instructions:   78000001 cycles:   33455027 heartbeat IPC: 2.29804 cumulative IPC: 2.33149 (Simulation time: 0 hr 2 min 2 sec) 
Heartbeat CPU  0 instructions:   79000000 cycles:   33901500 heartbeat IPC: 2.23977 cumulative IPC: 2.33028 (Simulation time: 0 hr 2 min 4 sec) 
Heartbeat CPU  0 instructions:   80000000 cycles:   34297588 heartbeat IPC: 2.52469 cumulative IPC: 2.33253 (Simulation time: 0 hr 2 min 6 sec) 
Heartbeat CPU  0 instructions:   81000003 cycles:   34715456 heartbeat IPC: 2.39311 cumulative IPC: 2.33325 (Simulation time: 0 hr 2 min 7 sec) 
Heartbeat CPU  0 instructions:   82000003 cycles:   35156795 heartbeat IPC: 2.26583 cumulative IPC: 2.33241 (Simulation time: 0 hr 2 min 9 sec) 
Heartbeat CPU  0 instructions:   83000000 cycles:   35591934 heartbeat IPC: 2.29811 cumulative IPC: 2.33199 (Simulation time: 0 hr 2 min 10 sec) 
Heartbeat CPU  0 instructions:   84000000 cycles:   35985357 heartbeat IPC: 2.54179 cumulative IPC: 2.33428 (Simulation time: 0 hr 2 min 12 sec) 
Heartbeat CPU  0 instructions:   85000000 cycles:   36425868 heartbeat IPC: 2.27009 cumulative IPC: 2.33351 (Simulation time: 0 hr 2 min 13 sec) 
Heartbeat CPU  0 instructions:   86000001 cycles:   36866670 heartbeat IPC: 2.26859 cumulative IPC: 2.33273 (Simulation time: 0 hr 2 min 15 sec) 
Heartbeat CPU  0 instructions:   87000002 cycles:   37278044 heartbeat IPC: 2.43088 cumulative IPC: 2.33381 (Simulation time: 0 hr 2 min 16 sec) 
Heartbeat CPU  0 instructions:   88000000 cycles:   37694046 heartbeat IPC: 2.40383 cumulative IPC: 2.33459 (Simulation time: 0 hr 2 min 18 sec) 
Heartbeat CPU  0 instructions:   89000001 cycles:   38130345 heartbeat IPC: 2.29201 cumulative IPC: 2.33410 (Simulation time: 0 hr 2 min 19 sec) 
Heartbeat CPU  0 instructions:   90000000 cycles:   38564999 heartbeat IPC: 2.30068 cumulative IPC: 2.33372 (Simulation time: 0 hr 2 min 21 sec) 
Heartbeat CPU  0 instructions:   91000000 cycles:   38971046 heartbeat IPC: 2.46277 cumulative IPC: 2.33507 (Simulation time: 0 hr 2 min 23 sec) 
Heartbeat CPU  0 instructions:   92000000 cycles:   39389535 heartbeat IPC: 2.38955 cumulative IPC: 2.33565 (Simulation time: 0 hr 2 min 24 sec) 
Heartbeat CPU  0 instructions:   93000000 cycles:   39823070 heartbeat IPC: 2.30662 cumulative IPC: 2.33533 (Simulation time: 0 hr 2 min 26 sec) 
Heartbeat CPU  0 instructions:   94000002 cycles:   40263252 heartbeat IPC: 2.27179 cumulative IPC: 2.33464 (Simulation time: 0 hr 2 min 27 sec) 
Heartbeat CPU  0 instructions:   95000000 cycles:   40655305 heartbeat IPC: 2.55067 cumulative IPC: 2.33672 (Simulation time: 0 hr 2 min 29 sec) 
Heartbeat CPU  0 instructions:   96000000 cycles:   41089247 heartbeat IPC: 2.30446 cumulative IPC: 2.33638 (Simulation time: 0 hr 2 min 30 sec) 
Heartbeat CPU  0 instructions:   97000001 cycles:   41551861 heartbeat IPC: 2.16163 cumulative IPC: 2.33443 (Simulation time: 0 hr 2 min 32 sec) 
Heartbeat CPU  0 instructions:   98000003 cycles:   41971019 heartbeat IPC: 2.38574 cumulative IPC: 2.33494 (Simulation time: 0 hr 2 min 33 sec) 
Heartbeat CPU  0 instructions:   99000001 cycles:   42413393 heartbeat IPC: 2.26053 cumulative IPC: 2.33417 (Simulation time: 0 hr 2 min 35 sec) 
Heartbeat CPU  0 instructions:  100000000 cycles:   42844600 heartbeat IPC: 2.31907 cumulative IPC: 2.33402 (Simulation time: 0 hr 2 min 37 sec) 

Warmup complete CPU  0 instructions:  100000001 cycles:   42844601 (Simulation time: 0 hr 2 min 37 sec) 

Heartbeat CPU  0 instructions:  101000001 cycles:   43522080 heartbeat IPC: 1.47606 cumulative IPC: 1.47606 (Simulation time: 0 hr 2 min 38 sec) 
Heartbeat CPU  0 instructions:  102000003 cycles:   44209638 heartbeat IPC: 1.45443 cumulative IPC: 1.46516 (Simulation time: 0 hr 2 min 40 sec) 
Heartbeat CPU  0 instructions:  103000003 cycles:   44893491 heartbeat IPC: 1.46230 cumulative IPC: 1.46421 (Simulation time: 0 hr 2 min 42 sec) 
Heartbeat CPU  0 instructions:  104000000 cycles:   45579499 heartbeat IPC: 1.45770 cumulative IPC: 1.46258 (Simulation time: 0 hr 2 min 44 sec) 
Heartbeat CPU  0 instructions:  105000001 cycles:   46268822 heartbeat IPC: 1.45070 cumulative IPC: 1.46019 (Simulation time: 0 hr 2 min 45 sec) 
Heartbeat CPU  0 instructions:  106000000 cycles:   46951467 heartbeat IPC: 1.46489 cumulative IPC: 1.46097 (Simulation time: 0 hr 2 min 47 sec) 
Heartbeat CPU  0 instructions:  107000001 cycles:   47636354 heartbeat IPC: 1.46010 cumulative IPC: 1.46084 (Simulation time: 0 hr 2 min 49 sec) 
Heartbeat CPU  0 instructions:  108000000 cycles:   48361944 heartbeat IPC: 1.37819 cumulative IPC: 1.44997 (Simulation time: 0 hr 2 min 51 sec) 
Heartbeat CPU  0 instructions:  109000001 cycles:   49047324 heartbeat IPC: 1.45905 cumulative IPC: 1.45098 (Simulation time: 0 hr 2 min 52 sec) 
Heartbeat CPU  0 instructions:  110000003 cycles:   49841298 heartbeat IPC: 1.25949 cumulative IPC: 1.42925 (Simulation time: 0 hr 2 min 54 sec) 
Heartbeat CPU  0 instructions:  111000000 cycles:   50703777 heartbeat IPC: 1.15945 cumulative IPC: 1.39964 (Simulation time: 0 hr 2 min 56 sec) 
Heartbeat CPU  0 instructions:  112000000 cycles:   51524823 heartbeat IPC: 1.21796 cumulative IPC: 1.38245 (Simulation time: 0 hr 2 min 58 sec) 
Heartbeat CPU  0 instructions:  113000003 cycles:   52231663 heartbeat IPC: 1.41475 cumulative IPC: 1.38489 (Simulation time: 0 hr 3 min 0 sec) 
Heartbeat CPU  0 instructions:  114000001 cycles:   52935957 heartbeat IPC: 1.41986 cumulative IPC: 1.38733 (Simulation time: 0 hr 3 min 1 sec) 
Heartbeat CPU  0 instructions:  115000002 cycles:   53656216 heartbeat IPC: 1.38839 cumulative IPC: 1.38740 (Simulation time: 0 hr 3 min 3 sec) 
Heartbeat CPU  0 instructions:  116000000 cycles:   54344919 heartbeat IPC: 1.45200 cumulative IPC: 1.39127 (Simulation time: 0 hr 3 min 5 sec) 
Heartbeat CPU  0 instructions:  117000000 cycles:   55015002 heartbeat IPC: 1.49235 cumulative IPC: 1.39683 (Simulation time: 0 hr 3 min 7 sec) 
Heartbeat CPU  0 instructions:  118000000 cycles:   55666453 heartbeat IPC: 1.53503 cumulative IPC: 1.40385 (Simulation time: 0 hr 3 min 8 sec) 
Heartbeat CPU  0 instructions:  119000002 cycles:   56393565 heartbeat IPC: 1.37531 cumulative IPC: 1.40232 (Simulation time: 0 hr 3 min 10 sec) 
Heartbeat CPU  0 instructions:  120000000 cycles:   57074133 heartbeat IPC: 1.46936 cumulative IPC: 1.40553 (Simulation time: 0 hr 3 min 12 sec) 
Heartbeat CPU  0 instructions:  121000002 cycles:   57746071 heartbeat IPC: 1.48824 cumulative IPC: 1.40926 (Simulation time: 0 hr 3 min 14 sec) 
Heartbeat CPU  0 instructions:  122000000 cycles:   58426304 heartbeat IPC: 1.47008 cumulative IPC: 1.41191 (Simulation time: 0 hr 3 min 16 sec) 
Heartbeat CPU  0 instructions:  123000002 cycles:   59162440 heartbeat IPC: 1.35845 cumulative IPC: 1.40950 (Simulation time: 0 hr 3 min 17 sec) 
Heartbeat CPU  0 instructions:  124000000 cycles:   59916377 heartbeat IPC: 1.32637 cumulative IPC: 1.40583 (Simulation time: 0 hr 3 min 19 sec) 
Heartbeat CPU  0 instructions:  125000000 cycles:   60593979 heartbeat IPC: 1.47579 cumulative IPC: 1.40850 (Simulation time: 0 hr 3 min 21 sec) 
Heartbeat CPU  0 instructions:  126000000 cycles:   61309460 heartbeat IPC: 1.39766 cumulative IPC: 1.40808 (Simulation time: 0 hr 3 min 23 sec) 
Heartbeat CPU  0 instructions:  127000003 cycles:   62034586 heartbeat IPC: 1.37907 cumulative IPC: 1.40698 (Simulation time: 0 hr 3 min 24 sec) 
Heartbeat CPU  0 instructions:  128000000 cycles:   62708362 heartbeat IPC: 1.48417 cumulative IPC: 1.40960 (Simulation time: 0 hr 3 min 26 sec) 
Heartbeat CPU  0 instructions:  129000001 cycles:   63355568 heartbeat IPC: 1.54510 cumulative IPC: 1.41388 (Simulation time: 0 hr 3 min 28 sec) 
Heartbeat CPU  0 instructions:  130000001 cycles:   64047034 heartbeat IPC: 1.44620 cumulative IPC: 1.41493 (Simulation time: 0 hr 3 min 30 sec) 
Heartbeat CPU  0 instructions:  131000002 cycles:   64767930 heartbeat IPC: 1.38716 cumulative IPC: 1.41402 (Simulation time: 0 hr 3 min 32 sec) 
Heartbeat CPU  0 instructions:  132000000 cycles:   65431719 heartbeat IPC: 1.50650 cumulative IPC: 1.41674 (Simulation time: 0 hr 3 min 33 sec) 
Heartbeat CPU  0 instructions:  133000003 cycles:   66086067 heartbeat IPC: 1.52824 cumulative IPC: 1.41988 (Simulation time: 0 hr 3 min 35 sec) 
Heartbeat CPU  0 instructions:  134000001 cycles:   66825508 heartbeat IPC: 1.35237 cumulative IPC: 1.41779 (Simulation time: 0 hr 3 min 37 sec) 
Heartbeat CPU  0 instructions:  135000001 cycles:   67543940 heartbeat IPC: 1.39192 cumulative IPC: 1.41704 (Simulation time: 0 hr 3 min 39 sec) 
Heartbeat CPU  0 instructions:  136000000 cycles:   68307758 heartbeat IPC: 1.30921 cumulative IPC: 1.41381 (Simulation time: 0 hr 3 min 40 sec) 
Heartbeat CPU  0 instructions:  137000003 cycles:   69216086 heartbeat IPC: 1.10093 cumulative IPC: 1.40303 (Simulation time: 0 hr 3 min 42 sec) 
Heartbeat CPU  0 instructions:  138000002 cycles:   69934663 heartbeat IPC: 1.39164 cumulative IPC: 1.40273 (Simulation time: 0 hr 3 min 44 sec) 
Heartbeat CPU  0 instructions:  139000002 cycles:   70598218 heartbeat IPC: 1.50703 cumulative IPC: 1.40522 (Simulation time: 0 hr 3 min 46 sec) 
Heartbeat CPU  0 instructions:  140000000 cycles:   71362261 heartbeat IPC: 1.30882 cumulative IPC: 1.40264 (Simulation time: 0 hr 3 min 47 sec) 
Heartbeat CPU  0 instructions:  141000001 cycles:   72054167 heartbeat IPC: 1.44528 cumulative IPC: 1.40365 (Simulation time: 0 hr 3 min 49 sec) 
Heartbeat CPU  0 instructions:  142000001 cycles:   72716685 heartbeat IPC: 1.50939 cumulative IPC: 1.40600 (Simulation time: 0 hr 3 min 51 sec) 
Heartbeat CPU  0 instructions:  143000002 cycles:   73377404 heartbeat IPC: 1.51350 cumulative IPC: 1.40832 (Simulation time: 0 hr 3 min 53 sec) 
Heartbeat CPU  0 instructions:  144000000 cycles:   74094733 heartbeat IPC: 1.39406 cumulative IPC: 1.40799 (Simulation time: 0 hr 3 min 55 sec) 
Heartbeat CPU  0 instructions:  145000003 cycles:   74787687 heartbeat IPC: 1.44310 cumulative IPC: 1.40876 (Simulation time: 0 hr 3 min 56 sec) 
Heartbeat CPU  0 instructions:  146000000 cycles:   75445196 heartbeat IPC: 1.52089 cumulative IPC: 1.41102 (Simulation time: 0 hr 3 min 58 sec) 
Heartbeat CPU  0 instructions:  147000003 cycles:   76139711 heartbeat IPC: 1.43986 cumulative IPC: 1.41162 (Simulation time: 0 hr 4 min 0 sec) 
Heartbeat CPU  0 instructions:  148000000 cycles:   76856396 heartbeat IPC: 1.39531 cumulative IPC: 1.41128 (Simulation time: 0 hr 4 min 2 sec) 
Heartbeat CPU  0 instructions:  149000001 cycles:   77609712 heartbeat IPC: 1.32747 cumulative IPC: 1.40946 (Simulation time: 0 hr 4 min 3 sec) 
Heartbeat CPU  0 instructions:  150000003 cycles:   78442126 heartbeat IPC: 1.20133 cumulative IPC: 1.40459 (Simulation time: 0 hr 4 min 5 sec) 
Heartbeat CPU  0 instructions:  151000000 cycles:   79262289 heartbeat IPC: 1.21927 cumulative IPC: 1.40042 (Simulation time: 0 hr 4 min 7 sec) 
Heartbeat CPU  0 instructions:  152000000 cycles:   80008903 heartbeat IPC: 1.33938 cumulative IPC: 1.39919 (Simulation time: 0 hr 4 min 9 sec) 
Heartbeat CPU  0 instructions:  153000001 cycles:   80781214 heartbeat IPC: 1.29482 cumulative IPC: 1.39707 (Simulation time: 0 hr 4 min 11 sec) 
Heartbeat CPU  0 instructions:  154000000 cycles:   81557966 heartbeat IPC: 1.28741 cumulative IPC: 1.39487 (Simulation time: 0 hr 4 min 12 sec) 
Heartbeat CPU  0 instructions:  155000000 cycles:   82342271 heartbeat IPC: 1.27501 cumulative IPC: 1.39249 (Simulation time: 0 hr 4 min 14 sec) 
Heartbeat CPU  0 instructions:  156000000 cycles:   83276401 heartbeat IPC: 1.07051 cumulative IPC: 1.38505 (Simulation time: 0 hr 4 min 16 sec) 
Heartbeat CPU  0 instructions:  157000002 cycles:   84009058 heartbeat IPC: 1.36490 cumulative IPC: 1.38469 (Simulation time: 0 hr 4 min 18 sec) 
Heartbeat CPU  0 instructions:  158000001 cycles:   84894915 heartbeat IPC: 1.12885 cumulative IPC: 1.37930 (Simulation time: 0 hr 4 min 20 sec) 
Heartbeat CPU  0 instructions:  159000001 cycles:   85643700 heartbeat IPC: 1.33550 cumulative IPC: 1.37853 (Simulation time: 0 hr 4 min 21 sec) 
Heartbeat CPU  0 instructions:  160000000 cycles:   86340382 heartbeat IPC: 1.43537 cumulative IPC: 1.37944 (Simulation time: 0 hr 4 min 23 sec) 
Heartbeat CPU  0 instructions:  161000001 cycles:   87060962 heartbeat IPC: 1.38777 cumulative IPC: 1.37958 (Simulation time: 0 hr 4 min 25 sec) 
Heartbeat CPU  0 instructions:  162000003 cycles:   87793122 heartbeat IPC: 1.36582 cumulative IPC: 1.37936 (Simulation time: 0 hr 4 min 27 sec) 
Heartbeat CPU  0 instructions:  163000000 cycles:   88462846 heartbeat IPC: 1.49315 cumulative IPC: 1.38103 (Simulation time: 0 hr 4 min 28 sec) 
Heartbeat CPU  0 instructions:  164000000 cycles:   89176842 heartbeat IPC: 1.40057 cumulative IPC: 1.38133 (Simulation time: 0 hr 4 min 30 sec) 
Heartbeat CPU  0 instructions:  165000001 cycles:   89869120 heartbeat IPC: 1.44451 cumulative IPC: 1.38226 (Simulation time: 0 hr 4 min 32 sec) 
Heartbeat CPU  0 instructions:  166000001 cycles:   90545228 heartbeat IPC: 1.47905 cumulative IPC: 1.38363 (Simulation time: 0 hr 4 min 34 sec) 
Heartbeat CPU  0 instructions:  167000002 cycles:   91269475 heartbeat IPC: 1.38075 cumulative IPC: 1.38359 (Simulation time: 0 hr 4 min 36 sec) 
Heartbeat CPU  0 instructions:  168000000 cycles:   92021217 heartbeat IPC: 1.33024 cumulative IPC: 1.38277 (Simulation time: 0 hr 4 min 37 sec) 
Heartbeat CPU  0 instructions:  169000000 cycles:   92752787 heartbeat IPC: 1.36692 cumulative IPC: 1.38254 (Simulation time: 0 hr 4 min 39 sec) 
Heartbeat CPU  0 instructions:  170000001 cycles:   93427063 heartbeat IPC: 1.48307 cumulative IPC: 1.38388 (Simulation time: 0 hr 4 min 41 sec) 
Heartbeat CPU  0 instructions:  171000000 cycles:   94181544 heartbeat IPC: 1.32541 cumulative IPC: 1.38302 (Simulation time: 0 hr 4 min 43 sec) 
Heartbeat CPU  0 instructions:  172000000 cycles:   94924327 heartbeat IPC: 1.34629 cumulative IPC: 1.38250 (Simulation time: 0 hr 4 min 45 sec) 
Heartbeat CPU  0 instructions:  173000001 cycles:   95614428 heartbeat IPC: 1.44906 cumulative IPC: 1.38337 (Simulation time: 0 hr 4 min 46 sec) 
Heartbeat CPU  0 instructions:  174000000 cycles:   96350630 heartbeat IPC: 1.35832 cumulative IPC: 1.38302 (Simulation time: 0 hr 4 min 48 sec) 
Heartbeat CPU  0 instructions:  175000000 cycles:   97056391 heartbeat IPC: 1.41691 cumulative IPC: 1.38346 (Simulation time: 0 hr 4 min 50 sec) 
Heartbeat CPU  0 instructions:  176000000 cycles:   97781700 heartbeat IPC: 1.37872 cumulative IPC: 1.38340 (Simulation time: 0 hr 4 min 52 sec) 
Heartbeat CPU  0 instructions:  177000002 cycles:   98564202 heartbeat IPC: 1.27795 cumulative IPC: 1.38192 (Simulation time: 0 hr 4 min 53 sec) 
Heartbeat CPU  0 instructions:  178000001 cycles:   99370964 heartbeat IPC: 1.23952 cumulative IPC: 1.37989 (Simulation time: 0 hr 4 min 55 sec) 
Heartbeat CPU  0 instructions:  179000003 cycles:  100118761 heartbeat IPC: 1.33726 cumulative IPC: 1.37933 (Simulation time: 0 hr 4 min 57 sec) 
Heartbeat CPU  0 instructions:  180000000 cycles:  100895747 heartbeat IPC: 1.28702 cumulative IPC: 1.37810 (Simulation time: 0 hr 4 min 59 sec) 
Heartbeat CPU  0 instructions:  181000000 cycles:  101669400 heartbeat IPC: 1.29257 cumulative IPC: 1.37697 (Simulation time: 0 hr 5 min 1 sec) 
Heartbeat CPU  0 instructions:  182000003 cycles:  102444722 heartbeat IPC: 1.28979 cumulative IPC: 1.37584 (Simulation time: 0 hr 5 min 2 sec) 
Heartbeat CPU  0 instructions:  183000002 cycles:  103245817 heartbeat IPC: 1.24829 cumulative IPC: 1.37414 (Simulation time: 0 hr 5 min 4 sec) 
Heartbeat CPU  0 instructions:  184000000 cycles:  103947571 heartbeat IPC: 1.42500 cumulative IPC: 1.37473 (Simulation time: 0 hr 5 min 6 sec) 
Heartbeat CPU  0 instructions:  185000002 cycles:  104684002 heartbeat IPC: 1.35790 cumulative IPC: 1.37453 (Simulation time: 0 hr 5 min 8 sec) 
Heartbeat CPU  0 instructions:  186000000 cycles:  105385246 heartbeat IPC: 1.42603 cumulative IPC: 1.37511 (Simulation time: 0 hr 5 min 10 sec) 
Heartbeat CPU  0 instructions:  187000001 cycles:  106078534 heartbeat IPC: 1.44240 cumulative IPC: 1.37584 (Simulation time: 0 hr 5 min 11 sec) 
Heartbeat CPU  0 instructions:  188000000 cycles:  106891998 heartbeat IPC: 1.22931 cumulative IPC: 1.37398 (Simulation time: 0 hr 5 min 13 sec) 
Heartbeat CPU  0 instructions:  189000000 cycles:  107695662 heartbeat IPC: 1.24430 cumulative IPC: 1.37238 (Simulation time: 0 hr 5 min 15 sec) 
Heartbeat CPU  0 instructions:  190000000 cycles:  108447967 heartbeat IPC: 1.32925 cumulative IPC: 1.37188 (Simulation time: 0 hr 5 min 17 sec) 
Heartbeat CPU  0 instructions:  191000003 cycles:  109223716 heartbeat IPC: 1.28908 cumulative IPC: 1.37091 (Simulation time: 0 hr 5 min 19 sec) 
Heartbeat CPU  0 instructions:  192000000 cycles:  109965918 heartbeat IPC: 1.34734 cumulative IPC: 1.37065 (Simulation time: 0 hr 5 min 20 sec) 
Heartbeat CPU  0 instructions:  193000000 cycles:  110773586 heartbeat IPC: 1.23813 cumulative IPC: 1.36908 (Simulation time: 0 hr 5 min 22 sec) 
Heartbeat CPU  0 instructions:  194000001 cycles:  111586048 heartbeat IPC: 1.23083 cumulative IPC: 1.36744 (Simulation time: 0 hr 5 min 24 sec) 
Heartbeat CPU  0 instructions:  195000001 cycles:  112294052 heartbeat IPC: 1.41242 cumulative IPC: 1.36790 (Simulation time: 0 hr 5 min 26 sec) 
Heartbeat CPU  0 instructions:  196000000 cycles:  113114532 heartbeat IPC: 1.21880 cumulative IPC: 1.36616 (Simulation time: 0 hr 5 min 28 sec) 
Heartbeat CPU  0 instructions:  197000001 cycles:  113892404 heartbeat IPC: 1.28556 cumulative IPC: 1.36528 (Simulation time: 0 hr 5 min 29 sec) 
Heartbeat CPU  0 instructions:  198000002 cycles:  114711054 heartbeat IPC: 1.22152 cumulative IPC: 1.36364 (Simulation time: 0 hr 5 min 31 sec) 
Heartbeat CPU  0 instructions:  199000002 cycles:  115592645 heartbeat IPC: 1.13431 cumulative IPC: 1.36086 (Simulation time: 0 hr 5 min 33 sec) 
Heartbeat CPU  0 instructions:  200000000 cycles:  116389342 heartbeat IPC: 1.25518 cumulative IPC: 1.35972 (Simulation time: 0 hr 5 min 35 sec) 
Heartbeat CPU  0 instructions:  201000000 cycles:  117253384 heartbeat IPC: 1.15735 cumulative IPC: 1.35737 (Simulation time: 0 hr 5 min 37 sec) 
Heartbeat CPU  0 instructions:  202000000 cycles:  118039776 heartbeat IPC: 1.27163 cumulative IPC: 1.35647 (Simulation time: 0 hr 5 min 39 sec) 
Heartbeat CPU  0 instructions:  203000000 cycles:  118949696 heartbeat IPC: 1.09900 cumulative IPC: 1.35339 (Simulation time: 0 hr 5 min 41 sec) 
Heartbeat CPU  0 instructions:  204000000 cycles:  119751595 heartbeat IPC: 1.24704 cumulative IPC: 1.35228 (Simulation time: 0 hr 5 min 42 sec) 
Heartbeat CPU  0 instructions:  205000001 cycles:  120625551 heartbeat IPC: 1.14422 cumulative IPC: 1.34994 (Simulation time: 0 hr 5 min 44 sec) 
Heartbeat CPU  0 instructions:  206000003 cycles:  121406422 heartbeat IPC: 1.28062 cumulative IPC: 1.34926 (Simulation time: 0 hr 5 min 46 sec) 
Heartbeat CPU  0 instructions:  207000003 cycles:  122157012 heartbeat IPC: 1.33229 cumulative IPC: 1.34910 (Simulation time: 0 hr 5 min 48 sec) 
Heartbeat CPU  0 instructions:  208000000 cycles:  122913859 heartbeat IPC: 1.32127 cumulative IPC: 1.34883 (Simulation time: 0 hr 5 min 50 sec) 
Heartbeat CPU  0 instructions:  209000001 cycles:  123704777 heartbeat IPC: 1.26435 cumulative IPC: 1.34801 (Simulation time: 0 hr 5 min 51 sec) 
Heartbeat CPU  0 instructions:  210000003 cycles:  124580625 heartbeat IPC: 1.14175 cumulative IPC: 1.34580 (Simulation time: 0 hr 5 min 53 sec) 
Heartbeat CPU  0 instructions:  211000001 cycles:  125328904 heartbeat IPC: 1.33640 cumulative IPC: 1.34571 (Simulation time: 0 hr 5 min 55 sec) 
Heartbeat CPU  0 instructions:  212000000 cycles:  126044678 heartbeat IPC: 1.39709 cumulative IPC: 1.34615 (Simulation time: 0 hr 5 min 57 sec) 
Heartbeat CPU  0 instructions:  213000000 cycles:  126869079 heartbeat IPC: 1.21300 cumulative IPC: 1.34485 (Simulation time: 0 hr 5 min 59 sec) 
Heartbeat CPU  0 instructions:  214000000 cycles:  127655729 heartbeat IPC: 1.27121 cumulative IPC: 1.34416 (Simulation time: 0 hr 6 min 0 sec) 
Heartbeat CPU  0 instructions:  215000001 cycles:  128511472 heartbeat IPC: 1.16858 cumulative IPC: 1.34241 (Simulation time: 0 hr 6 min 2 sec) 
Heartbeat CPU  0 instructions:  216000000 cycles:  129317740 heartbeat IPC: 1.24028 cumulative IPC: 1.34146 (Simulation time: 0 hr 6 min 4 sec) 
Heartbeat CPU  0 instructions:  217000003 cycles:  130217181 heartbeat IPC: 1.11180 cumulative IPC: 1.33909 (Simulation time: 0 hr 6 min 6 sec) 
Heartbeat CPU  0 instructions:  218000002 cycles:  130994408 heartbeat IPC: 1.28662 cumulative IPC: 1.33863 (Simulation time: 0 hr 6 min 8 sec) 
Heartbeat CPU  0 instructions:  219000001 cycles:  131714498 heartbeat IPC: 1.38871 cumulative IPC: 1.33904 (Simulation time: 0 hr 6 min 10 sec) 
Heartbeat CPU  0 instructions:  220000000 cycles:  132423290 heartbeat IPC: 1.41085 cumulative IPC: 1.33960 (Simulation time: 0 hr 6 min 11 sec) 
Heartbeat CPU  0 instructions:  221000000 cycles:  133094525 heartbeat IPC: 1.48979 cumulative IPC: 1.34072 (Simulation time: 0 hr 6 min 13 sec) 
Heartbeat CPU  0 instructions:  222000003 cycles:  133931455 heartbeat IPC: 1.19485 cumulative IPC: 1.33938 (Simulation time: 0 hr 6 min 15 sec) 
Heartbeat CPU  0 instructions:  223000002 cycles:  134641878 heartbeat IPC: 1.40761 cumulative IPC: 1.33991 (Simulation time: 0 hr 6 min 17 sec) 
Heartbeat CPU  0 instructions:  224000000 cycles:  135323601 heartbeat IPC: 1.46687 cumulative IPC: 1.34084 (Simulation time: 0 hr 6 min 18 sec) 
Heartbeat CPU  0 instructions:  225000000 cycles:  136034708 heartbeat IPC: 1.40626 cumulative IPC: 1.34134 (Simulation time: 0 hr 6 min 20 sec) 
Heartbeat CPU  0 instructions:  226000001 cycles:  136854320 heartbeat IPC: 1.22009 cumulative IPC: 1.34029 (Simulation time: 0 hr 6 min 22 sec) 
Heartbeat CPU  0 instructions:  227000002 cycles:  137534571 heartbeat IPC: 1.47005 cumulative IPC: 1.34122 (Simulation time: 0 hr 6 min 24 sec) 
Heartbeat CPU  0 instructions:  228000000 cycles:  138259285 heartbeat IPC: 1.37985 cumulative IPC: 1.34151 (Simulation time: 0 hr 6 min 26 sec) 
Heartbeat CPU  0 instructions:  229000000 cycles:  138963363 heartbeat IPC: 1.42030 cumulative IPC: 1.34209 (Simulation time: 0 hr 6 min 27 sec) 
Heartbeat CPU  0 instructions:  230000002 cycles:  139679767 heartbeat IPC: 1.39586 cumulative IPC: 1.34249 (Simulation time: 0 hr 6 min 29 sec) 
Heartbeat CPU  0 instructions:  231000000 cycles:  140463234 heartbeat IPC: 1.27638 cumulative IPC: 1.34196 (Simulation time: 0 hr 6 min 31 sec) 
Heartbeat CPU  0 instructions:  232000000 cycles:  141183156 heartbeat IPC: 1.38904 cumulative IPC: 1.34230 (Simulation time: 0 hr 6 min 33 sec) 
Heartbeat CPU  0 instructions:  233000001 cycles:  141870478 heartbeat IPC: 1.45492 cumulative IPC: 1.34308 (Simulation time: 0 hr 6 min 34 sec) 
Heartbeat CPU  0 instructions:  234000003 cycles:  142613607 heartbeat IPC: 1.34566 cumulative IPC: 1.34310 (Simulation time: 0 hr 6 min 36 sec) 
Heartbeat CPU  0 instructions:  235000002 cycles:  143393968 heartbeat IPC: 1.28146 cumulative IPC: 1.34262 (Simulation time: 0 hr 6 min 38 sec) 
Heartbeat CPU  0 instructions:  236000000 cycles:  144094325 heartbeat IPC: 1.42784 cumulative IPC: 1.34321 (Simulation time: 0 hr 6 min 40 sec) 
Heartbeat CPU  0 instructions:  237000002 cycles:  144777969 heartbeat IPC: 1.46275 cumulative IPC: 1.34402 (Simulation time: 0 hr 6 min 42 sec) 
Heartbeat CPU  0 instructions:  238000000 cycles:  145540551 heartbeat IPC: 1.31133 cumulative IPC: 1.34377 (Simulation time: 0 hr 6 min 43 sec) 
Heartbeat CPU  0 instructions:  239000000 cycles:  146294585 heartbeat IPC: 1.32620 cumulative IPC: 1.34364 (Simulation time: 0 hr 6 min 45 sec) 
Heartbeat CPU  0 instructions:  240000000 cycles:  146985705 heartbeat IPC: 1.44693 cumulative IPC: 1.34433 (Simulation time: 0 hr 6 min 47 sec) 
Heartbeat CPU  0 instructions:  241000002 cycles:  147700659 heartbeat IPC: 1.39869 cumulative IPC: 1.34470 (Simulation time: 0 hr 6 min 49 sec) 
Heartbeat CPU  0 instructions:  242000002 cycles:  148448260 heartbeat IPC: 1.33761 cumulative IPC: 1.34465 (Simulation time: 0 hr 6 min 50 sec) 
Heartbeat CPU  0 instructions:  243000002 cycles:  149194948 heartbeat IPC: 1.33925 cumulative IPC: 1.34461 (Simulation time: 0 hr 6 min 52 sec) 
Heartbeat CPU  0 instructions:  244000000 cycles:  149916987 heartbeat IPC: 1.38496 cumulative IPC: 1.34488 (Simulation time: 0 hr 6 min 54 sec) 
Heartbeat CPU  0 instructions:  245000000 cycles:  150619421 heartbeat IPC: 1.42362 cumulative IPC: 1.34540 (Simulation time: 0 hr 6 min 56 sec) 
Heartbeat CPU  0 instructions:  246000000 cycles:  151289802 heartbeat IPC: 1.49169 cumulative IPC: 1.34630 (Simulation time: 0 hr 6 min 58 sec) 
Heartbeat CPU  0 instructions:  247000001 cycles:  152039175 heartbeat IPC: 1.33445 cumulative IPC: 1.34622 (Simulation time: 0 hr 6 min 59 sec) 
Heartbeat CPU  0 instructions:  248000000 cycles:  152869376 heartbeat IPC: 1.20453 cumulative IPC: 1.34515 (Simulation time: 0 hr 7 min 1 sec) 
Heartbeat CPU  0 instructions:  249000000 cycles:  153550434 heartbeat IPC: 1.46830 cumulative IPC: 1.34591 (Simulation time: 0 hr 7 min 3 sec) 
Heartbeat CPU  0 instructions:  250000001 cycles:  154272890 heartbeat IPC: 1.38417 cumulative IPC: 1.34616 (Simulation time: 0 hr 7 min 5 sec) 
Heartbeat CPU  0 instructions:  251000000 cycles:  154975100 heartbeat IPC: 1.42407 cumulative IPC: 1.34665 (Simulation time: 0 hr 7 min 7 sec) 
Heartbeat CPU  0 instructions:  252000000 cycles:  155667012 heartbeat IPC: 1.44527 cumulative IPC: 1.34725 (Simulation time: 0 hr 7 min 8 sec) 
Heartbeat CPU  0 instructions:  253000002 cycles:  156525946 heartbeat IPC: 1.16424 cumulative IPC: 1.34587 (Simulation time: 0 hr 7 min 10 sec) 
Heartbeat CPU  0 instructions:  254000002 cycles:  157232148 heartbeat IPC: 1.41603 cumulative IPC: 1.34630 (Simulation time: 0 hr 7 min 12 sec) 
Heartbeat CPU  0 instructions:  255000000 cycles:  157907882 heartbeat IPC: 1.47987 cumulative IPC: 1.34708 (Simulation time: 0 hr 7 min 14 sec) 
Heartbeat CPU  0 instructions:  256000000 cycles:  158730223 heartbeat IPC: 1.21604 cumulative IPC: 1.34615 (Simulation time: 0 hr 7 min 16 sec) 
Heartbeat CPU  0 instructions:  257000000 cycles:  159436482 heartbeat IPC: 1.41591 cumulative IPC: 1.34658 (Simulation time: 0 hr 7 min 17 sec) 
Heartbeat CPU  0 instructions:  258000002 cycles:  160111111 heartbeat IPC: 1.48230 cumulative IPC: 1.34736 (Simulation time: 0 hr 7 min 19 sec) 
Heartbeat CPU  0 instructions:  259000000 cycles:  160936707 heartbeat IPC: 1.21124 cumulative IPC: 1.34641 (Simulation time: 0 hr 7 min 21 sec) 
Heartbeat CPU  0 instructions:  260000000 cycles:  161644810 heartbeat IPC: 1.41222 cumulative IPC: 1.34680 (Simulation time: 0 hr 7 min 23 sec) 
Heartbeat CPU  0 instructions:  261000002 cycles:  162322297 heartbeat IPC: 1.47605 cumulative IPC: 1.34753 (Simulation time: 0 hr 7 min 24 sec) 
Heartbeat CPU  0 instructions:  262000000 cycles:  163143522 heartbeat IPC: 1.21769 cumulative IPC: 1.34665 (Simulation time: 0 hr 7 min 26 sec) 
Heartbeat CPU  0 instructions:  263000002 cycles:  163849074 heartbeat IPC: 1.41733 cumulative IPC: 1.34706 (Simulation time: 0 hr 7 min 28 sec) 
Heartbeat CPU  0 instructions:  264000000 cycles:  164524126 heartbeat IPC: 1.48136 cumulative IPC: 1.34780 (Simulation time: 0 hr 7 min 30 sec) 
Heartbeat CPU  0 instructions:  265000000 cycles:  165354054 heartbeat IPC: 1.20492 cumulative IPC: 1.34683 (Simulation time: 0 hr 7 min 32 sec) 
Heartbeat CPU  0 instructions:  266000000 cycles:  166060005 heartbeat IPC: 1.41653 cumulative IPC: 1.34723 (Simulation time: 0 hr 7 min 33 sec) 
Heartbeat CPU  0 instructions:  267000002 cycles:  166734415 heartbeat IPC: 1.48278 cumulative IPC: 1.34797 (Simulation time: 0 hr 7 min 35 sec) 
Heartbeat CPU  0 instructions:  268000000 cycles:  167556422 heartbeat IPC: 1.21653 cumulative IPC: 1.34711 (Simulation time: 0 hr 7 min 37 sec) 
Heartbeat CPU  0 instructions:  269000002 cycles:  168263387 heartbeat IPC: 1.41450 cumulative IPC: 1.34749 (Simulation time: 0 hr 7 min 39 sec) 
Heartbeat CPU  0 instructions:  270000002 cycles:  168937950 heartbeat IPC: 1.48244 cumulative IPC: 1.34821 (Simulation time: 0 hr 7 min 41 sec) 
Heartbeat CPU  0 instructions:  271000000 cycles:  169766272 heartbeat IPC: 1.20726 cumulative IPC: 1.34729 (Simulation time: 0 hr 7 min 42 sec) 
Heartbeat CPU  0 instructions:  272000000 cycles:  170472313 heartbeat IPC: 1.41635 cumulative IPC: 1.34767 (Simulation time: 0 hr 7 min 44 sec) 
Heartbeat CPU  0 instructions:  273000002 cycles:  171146790 heartbeat IPC: 1.48263 cumulative IPC: 1.34838 (Simulation time: 0 hr 7 min 46 sec) 
Heartbeat CPU  0 instructions:  274000002 cycles:  171969837 heartbeat IPC: 1.21500 cumulative IPC: 1.34753 (Simulation time: 0 hr 7 min 48 sec) 
Heartbeat CPU  0 instructions:  275000000 cycles:  172677214 heartbeat IPC: 1.41367 cumulative IPC: 1.34789 (Simulation time: 0 hr 7 min 50 sec) 
Heartbeat CPU  0 instructions:  276000000 cycles:  173351807 heartbeat IPC: 1.48238 cumulative IPC: 1.34858 (Simulation time: 0 hr 7 min 51 sec) 
Heartbeat CPU  0 instructions:  277000003 cycles:  174178807 heartbeat IPC: 1.20919 cumulative IPC: 1.34771 (Simulation time: 0 hr 7 min 53 sec) 
Heartbeat CPU  0 instructions:  278000002 cycles:  174888958 heartbeat IPC: 1.40815 cumulative IPC: 1.34803 (Simulation time: 0 hr 7 min 55 sec) 
Heartbeat CPU  0 instructions:  279000001 cycles:  175560715 heartbeat IPC: 1.48863 cumulative IPC: 1.34874 (Simulation time: 0 hr 7 min 57 sec) 
Heartbeat CPU  0 instructions:  280000000 cycles:  176389660 heartbeat IPC: 1.20635 cumulative IPC: 1.34786 (Simulation time: 0 hr 7 min 58 sec) 
Heartbeat CPU  0 instructions:  281000000 cycles:  177097188 heartbeat IPC: 1.41337 cumulative IPC: 1.34820 (Simulation time: 0 hr 8 min 0 sec) 
Heartbeat CPU  0 instructions:  282000002 cycles:  177771638 heartbeat IPC: 1.48269 cumulative IPC: 1.34888 (Simulation time: 0 hr 8 min 2 sec) 
Heartbeat CPU  0 instructions:  283000002 cycles:  178595041 heartbeat IPC: 1.21447 cumulative IPC: 1.34806 (Simulation time: 0 hr 8 min 4 sec) 
Heartbeat CPU  0 instructions:  284000000 cycles:  179302151 heartbeat IPC: 1.41420 cumulative IPC: 1.34840 (Simulation time: 0 hr 8 min 6 sec) 
Heartbeat CPU  0 instructions:  285000000 cycles:  179977170 heartbeat IPC: 1.48144 cumulative IPC: 1.34906 (Simulation time: 0 hr 8 min 7 sec) 
Heartbeat CPU  0 instructions:  286000000 cycles:  180797829 heartbeat IPC: 1.21853 cumulative IPC: 1.34828 (Simulation time: 0 hr 8 min 9 sec) 
Heartbeat CPU  0 instructions:  287000000 cycles:  181508044 heartbeat IPC: 1.40802 cumulative IPC: 1.34859 (Simulation time: 0 hr 8 min 11 sec) 
Heartbeat CPU  0 instructions:  288000000 cycles:  182181568 heartbeat IPC: 1.48473 cumulative IPC: 1.34925 (Simulation time: 0 hr 8 min 13 sec) 
Heartbeat CPU  0 instructions:  289000003 cycles:  183009629 heartbeat IPC: 1.20764 cumulative IPC: 1.34841 (Simulation time: 0 hr 8 min 14 sec) 
Heartbeat CPU  0 instructions:  290000002 cycles:  183720017 heartbeat IPC: 1.40768 cumulative IPC: 1.34871 (Simulation time: 0 hr 8 min 16 sec) 
Heartbeat CPU  0 instructions:  291000001 cycles:  184388054 heartbeat IPC: 1.49692 cumulative IPC: 1.34941 (Simulation time: 0 hr 8 min 18 sec) 
Heartbeat CPU  0 instructions:  292000000 cycles:  185146857 heartbeat IPC: 1.31786 cumulative IPC: 1.34924 (Simulation time: 0 hr 8 min 20 sec) 
Heartbeat CPU  0 instructions:  293000001 cycles:  185866040 heartbeat IPC: 1.39047 cumulative IPC: 1.34945 (Simulation time: 0 hr 8 min 22 sec) 
Heartbeat CPU  0 instructions:  294000001 cycles:  186549683 heartbeat IPC: 1.46275 cumulative IPC: 1.34999 (Simulation time: 0 hr 8 min 23 sec) 
Heartbeat CPU  0 instructions:  295000002 cycles:  187278474 heartbeat IPC: 1.37214 cumulative IPC: 1.35010 (Simulation time: 0 hr 8 min 25 sec) 
Heartbeat CPU  0 instructions:  296000000 cycles:  187998971 heartbeat IPC: 1.38793 cumulative IPC: 1.35029 (Simulation time: 0 hr 8 min 27 sec) 
Heartbeat CPU  0 instructions:  297000001 cycles:  188693168 heartbeat IPC: 1.44051 cumulative IPC: 1.35072 (Simulation time: 0 hr 8 min 29 sec) 
Heartbeat CPU  0 instructions:  298000000 cycles:  189420576 heartbeat IPC: 1.37474 cumulative IPC: 1.35084 (Simulation time: 0 hr 8 min 30 sec) 
Heartbeat CPU  0 instructions:  299000000 cycles:  190145860 heartbeat IPC: 1.37877 cumulative IPC: 1.35097 (Simulation time: 0 hr 8 min 32 sec) 
Heartbeat CPU  0 instructions:  300000000 cycles:  190845689 heartbeat IPC: 1.42892 cumulative IPC: 1.35134 (Simulation time: 0 hr 8 min 34 sec) 
Heartbeat CPU  0 instructions:  301000003 cycles:  191557826 heartbeat IPC: 1.40423 cumulative IPC: 1.35159 (Simulation time: 0 hr 8 min 36 sec) 
Heartbeat CPU  0 instructions:  302000003 cycles:  192280701 heartbeat IPC: 1.38337 cumulative IPC: 1.35175 (Simulation time: 0 hr 8 min 38 sec) 
Heartbeat CPU  0 instructions:  303000002 cycles:  192988381 heartbeat IPC: 1.41307 cumulative IPC: 1.35204 (Simulation time: 0 hr 8 min 39 sec) 
Heartbeat CPU  0 instructions:  304000000 cycles:  193722854 heartbeat IPC: 1.36152 cumulative IPC: 1.35208 (Simulation time: 0 hr 8 min 41 sec) 
Heartbeat CPU  0 instructions:  305000001 cycles:  194415542 heartbeat IPC: 1.44365 cumulative IPC: 1.35250 (Simulation time: 0 hr 8 min 43 sec) 
Heartbeat CPU  0 instructions:  306000003 cycles:  195124279 heartbeat IPC: 1.41096 cumulative IPC: 1.35277 (Simulation time: 0 hr 8 min 45 sec) 
Heartbeat CPU  0 instructions:  307000000 cycles:  195866809 heartbeat IPC: 1.34674 cumulative IPC: 1.35274 (Simulation time: 0 hr 8 min 46 sec) 
Heartbeat CPU  0 instructions:  308000000 cycles:  196549361 heartbeat IPC: 1.46509 cumulative IPC: 1.35324 (Simulation time: 0 hr 8 min 48 sec) 
Heartbeat CPU  0 instructions:  309000002 cycles:  197272830 heartbeat IPC: 1.38223 cumulative IPC: 1.35338 (Simulation time: 0 hr 8 min 50 sec) 
Heartbeat CPU  0 instructions:  310000000 cycles:  198072770 heartbeat IPC: 1.25009 cumulative IPC: 1.35285 (Simulation time: 0 hr 8 min 52 sec) 
Heartbeat CPU  0 instructions:  311000001 cycles:  198753144 heartbeat IPC: 1.46978 cumulative IPC: 1.35336 (Simulation time: 0 hr 8 min 54 sec) 
Heartbeat CPU  0 instructions:  312000000 cycles:  199478626 heartbeat IPC: 1.37839 cumulative IPC: 1.35347 (Simulation time: 0 hr 8 min 55 sec) 
Heartbeat CPU  0 instructions:  313000002 cycles:  200342241 heartbeat IPC: 1.15793 cumulative IPC: 1.35240 (Simulation time: 0 hr 8 min 57 sec) 
Heartbeat CPU  0 instructions:  314000001 cycles:  201090145 heartbeat IPC: 1.33707 cumulative IPC: 1.35233 (Simulation time: 0 hr 8 min 59 sec) 
Heartbeat CPU  0 instructions:  315000000 cycles:  201811900 heartbeat IPC: 1.38551 cumulative IPC: 1.35248 (Simulation time: 0 hr 9 min 1 sec) 
Heartbeat CPU  0 instructions:  316000000 cycles:  202554753 heartbeat IPC: 1.34616 cumulative IPC: 1.35245 (Simulation time: 0 hr 9 min 2 sec) 
Heartbeat CPU  0 instructions:  317000001 cycles:  203363099 heartbeat IPC: 1.23710 cumulative IPC: 1.35187 (Simulation time: 0 hr 9 min 4 sec) 
Heartbeat CPU  0 instructions:  318000001 cycles:  204230283 heartbeat IPC: 1.15316 cumulative IPC: 1.35080 (Simulation time: 0 hr 9 min 6 sec) 
Heartbeat CPU  0 instructions:  319000003 cycles:  204924405 heartbeat IPC: 1.44067 cumulative IPC: 1.35119 (Simulation time: 0 hr 9 min 8 sec) 
Heartbeat CPU  0 instructions:  320000000 cycles:  205632094 heartbeat IPC: 1.41305 cumulative IPC: 1.35146 (Simulation time: 0 hr 9 min 10 sec) 
Heartbeat CPU  0 instructions:  321000001 cycles:  206441055 heartbeat IPC: 1.23615 cumulative IPC: 1.35089 (Simulation time: 0 hr 9 min 12 sec) 
Heartbeat CPU  0 instructions:  322000003 cycles:  207235237 heartbeat IPC: 1.25916 cumulative IPC: 1.35044 (Simulation time: 0 hr 9 min 13 sec) 
Heartbeat CPU  0 instructions:  323000001 cycles:  208021390 heartbeat IPC: 1.27201 cumulative IPC: 1.35007 (Simulation time: 0 hr 9 min 15 sec) 
Heartbeat CPU  0 instructions:  324000000 cycles:  208741076 heartbeat IPC: 1.38949 cumulative IPC: 1.35024 (Simulation time: 0 hr 9 min 17 sec) 
Heartbeat CPU  0 instructions:  325000000 cycles:  209477503 heartbeat IPC: 1.35791 cumulative IPC: 1.35027 (Simulation time: 0 hr 9 min 19 sec) 
Heartbeat CPU  0 instructions:  326000003 cycles:  210284785 heartbeat IPC: 1.23873 cumulative IPC: 1.34974 (Simulation time: 0 hr 9 min 21 sec) 
Heartbeat CPU  0 instructions:  327000000 cycles:  211028246 heartbeat IPC: 1.34506 cumulative IPC: 1.34972 (Simulation time: 0 hr 9 min 22 sec) 
Heartbeat CPU  0 instructions:  328000000 cycles:  211813411 heartbeat IPC: 1.27362 cumulative IPC: 1.34936 (Simulation time: 0 hr 9 min 24 sec) 
Heartbeat CPU  0 instructions:  329000001 cycles:  212612053 heartbeat IPC: 1.25213 cumulative IPC: 1.34890 (Simulation time: 0 hr 9 min 26 sec) 
Heartbeat CPU  0 instructions:  330000001 cycles:  213277334 heartbeat IPC: 1.50312 cumulative IPC: 1.34951 (Simulation time: 0 hr 9 min 28 sec) 
Heartbeat CPU  0 instructions:  331000000 cycles:  213980027 heartbeat IPC: 1.42310 cumulative IPC: 1.34981 (Simulation time: 0 hr 9 min 29 sec) 
Heartbeat CPU  0 instructions:  332000000 cycles:  214701138 heartbeat IPC: 1.38675 cumulative IPC: 1.34996 (Simulation time: 0 hr 9 min 31 sec) 
Heartbeat CPU  0 instructions:  333000001 cycles:  215479913 heartbeat IPC: 1.28407 cumulative IPC: 1.34967 (Simulation time: 0 hr 9 min 33 sec) 
Heartbeat CPU  0 instructions:  334000002 cycles:  216253864 heartbeat IPC: 1.29207 cumulative IPC: 1.34941 (Simulation time: 0 hr 9 min 35 sec) 
Heartbeat CPU  0 instructions:  335000000 cycles:  217077061 heartbeat IPC: 1.21477 cumulative IPC: 1.34877 (Simulation time: 0 hr 9 min 37 sec) 
Heartbeat CPU  0 instructions:  336000000 cycles:  217798976 heartbeat IPC: 1.38520 cumulative IPC: 1.34892 (Simulation time: 0 hr 9 min 38 sec) 
Heartbeat CPU  0 instructions:  337000002 cycles:  218516292 heartbeat IPC: 1.39409 cumulative IPC: 1.34911 (Simulation time: 0 hr 9 min 40 sec) 
Heartbeat CPU  0 instructions:  338000003 cycles:  219310652 heartbeat IPC: 1.25888 cumulative IPC: 1.34870 (Simulation time: 0 hr 9 min 42 sec) 
Heartbeat CPU  0 instructions:  339000002 cycles:  220054657 heartbeat IPC: 1.34408 cumulative IPC: 1.34868 (Simulation time: 0 hr 9 min 44 sec) 
Heartbeat CPU  0 instructions:  340000000 cycles:  220826778 heartbeat IPC: 1.29513 cumulative IPC: 1.34845 (Simulation time: 0 hr 9 min 45 sec) 
Heartbeat CPU  0 instructions:  341000001 cycles:  221627467 heartbeat IPC: 1.24893 cumulative IPC: 1.34800 (Simulation time: 0 hr 9 min 47 sec) 
Heartbeat CPU  0 instructions:  342000003 cycles:  222305144 heartbeat IPC: 1.47563 cumulative IPC: 1.34849 (Simulation time: 0 hr 9 min 49 sec) 
Heartbeat CPU  0 instructions:  343000003 cycles:  223072952 heartbeat IPC: 1.30241 cumulative IPC: 1.34829 (Simulation time: 0 hr 9 min 51 sec) 
Heartbeat CPU  0 instructions:  344000000 cycles:  223802116 heartbeat IPC: 1.37143 cumulative IPC: 1.34838 (Simulation time: 0 hr 9 min 53 sec) 
Heartbeat CPU  0 instructions:  345000003 cycles:  224472934 heartbeat IPC: 1.49072 cumulative IPC: 1.34891 (Simulation time: 0 hr 9 min 54 sec) 
Heartbeat CPU  0 instructions:  346000000 cycles:  225190949 heartbeat IPC: 1.39272 cumulative IPC: 1.34908 (Simulation time: 0 hr 9 min 56 sec) 
Heartbeat CPU  0 instructions:  347000001 cycles:  225924048 heartbeat IPC: 1.36407 cumulative IPC: 1.34914 (Simulation time: 0 hr 9 min 58 sec) 
Heartbeat CPU  0 instructions:  348000000 cycles:  226656694 heartbeat IPC: 1.36491 cumulative IPC: 1.34920 (Simulation time: 0 hr 10 min 0 sec) 
Heartbeat CPU  0 instructions:  349000003 cycles:  227389388 heartbeat IPC: 1.36483 cumulative IPC: 1.34927 (Simulation time: 0 hr 10 min 1 sec) 
Heartbeat CPU  0 instructions:  350000003 cycles:  228110404 heartbeat IPC: 1.38693 cumulative IPC: 1.34941 (Simulation time: 0 hr 10 min 3 sec) 
Heartbeat CPU  0 instructions:  351000002 cycles:  228898127 heartbeat IPC: 1.26948 cumulative IPC: 1.34907 (Simulation time: 0 hr 10 min 5 sec) 
Heartbeat CPU  0 instructions:  352000000 cycles:  229590937 heartbeat IPC: 1.44339 cumulative IPC: 1.34942 (Simulation time: 0 hr 10 min 7 sec) 
Heartbeat CPU  0 instructions:  353000003 cycles:  230336579 heartbeat IPC: 1.34113 cumulative IPC: 1.34939 (Simulation time: 0 hr 10 min 9 sec) 
Heartbeat CPU  0 instructions:  354000002 cycles:  231027980 heartbeat IPC: 1.44634 cumulative IPC: 1.34975 (Simulation time: 0 hr 10 min 10 sec) 
Heartbeat CPU  0 instructions:  355000002 cycles:  231745162 heartbeat IPC: 1.39435 cumulative IPC: 1.34992 (Simulation time: 0 hr 10 min 12 sec) 
Heartbeat CPU  0 instructions:  356000000 cycles:  232512316 heartbeat IPC: 1.30352 cumulative IPC: 1.34973 (Simulation time: 0 hr 10 min 14 sec) 
Heartbeat CPU  0 instructions:  357000002 cycles:  233282462 heartbeat IPC: 1.29846 cumulative IPC: 1.34952 (Simulation time: 0 hr 10 min 16 sec) 
Heartbeat CPU  0 instructions:  358000002 cycles:  233980362 heartbeat IPC: 1.43287 cumulative IPC: 1.34983 (Simulation time: 0 hr 10 min 17 sec) 
Heartbeat CPU  0 instructions:  359000002 cycles:  234695360 heartbeat IPC: 1.39861 cumulative IPC: 1.35001 (Simulation time: 0 hr 10 min 19 sec) 
Heartbeat CPU  0 instructions:  360000000 cycles:  235389676 heartbeat IPC: 1.44026 cumulative IPC: 1.35033 (Simulation time: 0 hr 10 min 21 sec) 
Heartbeat CPU  0 instructions:  361000000 cycles:  236079924 heartbeat IPC: 1.44875 cumulative IPC: 1.35068 (Simulation time: 0 hr 10 min 23 sec) 
Heartbeat CPU  0 instructions:  362000003 cycles:  236816075 heartbeat IPC: 1.35842 cumulative IPC: 1.35071 (Simulation time: 0 hr 10 min 25 sec) 
Heartbeat CPU  0 instructions:  363000000 cycles:  237538325 heartbeat IPC: 1.38456 cumulative IPC: 1.35084 (Simulation time: 0 hr 10 min 26 sec) 
Heartbeat CPU  0 instructions:  364000000 cycles:  238255491 heartbeat IPC: 1.39438 cumulative IPC: 1.35100 (Simulation time: 0 hr 10 min 28 sec) 
Heartbeat CPU  0 instructions:  365000001 cycles:  238985765 heartbeat IPC: 1.36935 cumulative IPC: 1.35107 (Simulation time: 0 hr 10 min 30 sec) 
Heartbeat CPU  0 instructions:  366000003 cycles:  239787926 heartbeat IPC: 1.24664 cumulative IPC: 1.35064 (Simulation time: 0 hr 10 min 32 sec) 
Heartbeat CPU  0 instructions:  367000001 cycles:  240536733 heartbeat IPC: 1.33545 cumulative IPC: 1.35058 (Simulation time: 0 hr 10 min 34 sec) 
Heartbeat CPU  0 instructions:  368000000 cycles:  241343901 heartbeat IPC: 1.23890 cumulative IPC: 1.35013 (Simulation time: 0 hr 10 min 35 sec) 
Heartbeat CPU  0 instructions:  369000000 cycles:  242078383 heartbeat IPC: 1.36150 cumulative IPC: 1.35017 (Simulation time: 0 hr 10 min 37 sec) 
Heartbeat CPU  0 instructions:  370000001 cycles:  242751676 heartbeat IPC: 1.48524 cumulative IPC: 1.35063 (Simulation time: 0 hr 10 min 39 sec) 
Heartbeat CPU  0 instructions:  371000001 cycles:  243486376 heartbeat IPC: 1.36110 cumulative IPC: 1.35067 (Simulation time: 0 hr 10 min 41 sec) 
Heartbeat CPU  0 instructions:  372000000 cycles:  244257093 heartbeat IPC: 1.29749 cumulative IPC: 1.35046 (Simulation time: 0 hr 10 min 42 sec) 
Heartbeat CPU  0 instructions:  373000000 cycles:  244986331 heartbeat IPC: 1.37129 cumulative IPC: 1.35054 (Simulation time: 0 hr 10 min 44 sec) 
Heartbeat CPU  0 instructions:  374000002 cycles:  245748649 heartbeat IPC: 1.31179 cumulative IPC: 1.35039 (Simulation time: 0 hr 10 min 46 sec) 
Heartbeat CPU  0 instructions:  375000000 cycles:  246476057 heartbeat IPC: 1.37474 cumulative IPC: 1.35048 (Simulation time: 0 hr 10 min 48 sec) 
Heartbeat CPU  0 instructions:  376000000 cycles:  247215953 heartbeat IPC: 1.35154 cumulative IPC: 1.35048 (Simulation time: 0 hr 10 min 49 sec) 
Heartbeat CPU  0 instructions:  377000001 cycles:  247930439 heartbeat IPC: 1.39961 cumulative IPC: 1.35065 (Simulation time: 0 hr 10 min 51 sec) 
Heartbeat CPU  0 instructions:  378000003 cycles:  248724402 heartbeat IPC: 1.25951 cumulative IPC: 1.35030 (Simulation time: 0 hr 10 min 53 sec) 
Heartbeat CPU  0 instructions:  379000002 cycles:  249425842 heartbeat IPC: 1.42564 cumulative IPC: 1.35056 (Simulation time: 0 hr 10 min 55 sec) 
Heartbeat CPU  0 instructions:  380000000 cycles:  250159660 heartbeat IPC: 1.36273 cumulative IPC: 1.35060 (Simulation time: 0 hr 10 min 57 sec) 
Heartbeat CPU  0 instructions:  381000000 cycles:  250936016 heartbeat IPC: 1.28807 cumulative IPC: 1.35037 (Simulation time: 0 hr 10 min 58 sec) 
Heartbeat CPU  0 instructions:  382000001 cycles:  251626739 heartbeat IPC: 1.44776 cumulative IPC: 1.35069 (Simulation time: 0 hr 11 min 0 sec) 
Heartbeat CPU  0 instructions:  383000002 cycles:  252336137 heartbeat IPC: 1.40965 cumulative IPC: 1.35089 (Simulation time: 0 hr 11 min 2 sec) 
Heartbeat CPU  0 instructions:  384000000 cycles:  253043480 heartbeat IPC: 1.41374 cumulative IPC: 1.35110 (Simulation time: 0 hr 11 min 4 sec) 
Heartbeat CPU  0 instructions:  385000001 cycles:  253826619 heartbeat IPC: 1.27691 cumulative IPC: 1.35083 (Simulation time: 0 hr 11 min 6 sec) 
Heartbeat CPU  0 instructions:  386000003 cycles:  254579252 heartbeat IPC: 1.32867 cumulative IPC: 1.35075 (Simulation time: 0 hr 11 min 7 sec) 
Heartbeat CPU  0 instructions:  387000002 cycles:  255300003 heartbeat IPC: 1.38744 cumulative IPC: 1.35087 (Simulation time: 0 hr 11 min 9 sec) 
Heartbeat CPU  0 instructions:  388000000 cycles:  256027070 heartbeat IPC: 1.37539 cumulative IPC: 1.35096 (Simulation time: 0 hr 11 min 11 sec) 
Heartbeat CPU  0 instructions:  389000000 cycles:  256688906 heartbeat IPC: 1.51095 cumulative IPC: 1.35145 (Simulation time: 0 hr 11 min 13 sec) 
Heartbeat CPU  0 instructions:  390000003 cycles:  257389323 heartbeat IPC: 1.42773 cumulative IPC: 1.35170 (Simulation time: 0 hr 11 min 14 sec) 
Heartbeat CPU  0 instructions:  391000000 cycles:  258125752 heartbeat IPC: 1.35790 cumulative IPC: 1.35172 (Simulation time: 0 hr 11 min 16 sec) 
Heartbeat CPU  0 instructions:  392000000 cycles:  258849027 heartbeat IPC: 1.38260 cumulative IPC: 1.35182 (Simulation time: 0 hr 11 min 18 sec) 
Heartbeat CPU  0 instructions:  393000000 cycles:  259532528 heartbeat IPC: 1.46306 cumulative IPC: 1.35217 (Simulation time: 0 hr 11 min 20 sec) 
Heartbeat CPU  0 instructions:  394000000 cycles:  260269357 heartbeat IPC: 1.35717 cumulative IPC: 1.35219 (Simulation time: 0 hr 11 min 22 sec) 
Heartbeat CPU  0 instructions:  395000000 cycles:  261043892 heartbeat IPC: 1.29110 cumulative IPC: 1.35198 (Simulation time: 0 hr 11 min 23 sec) 
Heartbeat CPU  0 instructions:  396000000 cycles:  261784720 heartbeat IPC: 1.34984 cumulative IPC: 1.35197 (Simulation time: 0 hr 11 min 25 sec) 
Heartbeat CPU  0 instructions:  397000000 cycles:  262631563 heartbeat IPC: 1.18086 cumulative IPC: 1.35131 (Simulation time: 0 hr 11 min 27 sec) 
Heartbeat CPU  0 instructions:  398000000 cycles:  263335346 heartbeat IPC: 1.42089 cumulative IPC: 1.35153 (Simulation time: 0 hr 11 min 29 sec) 
Heartbeat CPU  0 instructions:  399000003 cycles:  264081936 heartbeat IPC: 1.33943 cumulative IPC: 1.35149 (Simulation time: 0 hr 11 min 31 sec) 
Heartbeat CPU  0 instructions:  400000000 cycles:  264799394 heartbeat IPC: 1.39381 cumulative IPC: 1.35163 (Simulation time: 0 hr 11 min 32 sec) 
Heartbeat CPU  0 instructions:  401000001 cycles:  265528964 heartbeat IPC: 1.37067 cumulative IPC: 1.35169 (Simulation time: 0 hr 11 min 34 sec) 
Heartbeat CPU  0 instructions:  402000003 cycles:  266248479 heartbeat IPC: 1.38983 cumulative IPC: 1.35181 (Simulation time: 0 hr 11 min 36 sec) 
Heartbeat CPU  0 instructions:  403000002 cycles:  267006386 heartbeat IPC: 1.31942 cumulative IPC: 1.35170 (Simulation time: 0 hr 11 min 38 sec) 
Heartbeat CPU  0 instructions:  404000000 cycles:  267779853 heartbeat IPC: 1.29288 cumulative IPC: 1.35150 (Simulation time: 0 hr 11 min 39 sec) 
Heartbeat CPU  0 instructions:  405000002 cycles:  268470846 heartbeat IPC: 1.44720 cumulative IPC: 1.35179 (Simulation time: 0 hr 11 min 41 sec) 
Heartbeat CPU  0 instructions:  406000000 cycles:  269219964 heartbeat IPC: 1.33490 cumulative IPC: 1.35174 (Simulation time: 0 hr 11 min 43 sec) 
Heartbeat CPU  0 instructions:  407000000 cycles:  269950511 heartbeat IPC: 1.36884 cumulative IPC: 1.35179 (Simulation time: 0 hr 11 min 45 sec) 
Heartbeat CPU  0 instructions:  408000000 cycles:  270651905 heartbeat IPC: 1.42573 cumulative IPC: 1.35202 (Simulation time: 0 hr 11 min 46 sec) 
Heartbeat CPU  0 instructions:  409000003 cycles:  271443359 heartbeat IPC: 1.26350 cumulative IPC: 1.35171 (Simulation time: 0 hr 11 min 48 sec) 
Heartbeat CPU  0 instructions:  410000000 cycles:  272160368 heartbeat IPC: 1.39468 cumulative IPC: 1.35185 (Simulation time: 0 hr 11 min 50 sec) 
Heartbeat CPU  0 instructions:  411000003 cycles:  272879115 heartbeat IPC: 1.39131 cumulative IPC: 1.35197 (Simulation time: 0 hr 11 min 52 sec) 
Heartbeat CPU  0 instructions:  412000000 cycles:  273759009 heartbeat IPC: 1.13650 cumulative IPC: 1.35115 (Simulation time: 0 hr 11 min 54 sec) 
Heartbeat CPU  0 instructions:  413000002 cycles:  274600100 heartbeat IPC: 1.18893 cumulative IPC: 1.35056 (Simulation time: 0 hr 11 min 55 sec) 
Heartbeat CPU  0 instructions:  414000001 cycles:  279720252 heartbeat IPC: 0.19531 cumulative IPC: 1.32559 (Simulation time: 0 hr 11 min 59 sec) 
Heartbeat CPU  0 instructions:  415000002 cycles:  284358699 heartbeat IPC: 0.21559 cumulative IPC: 1.30427 (Simulation time: 0 hr 12 min 2 sec) 
Heartbeat CPU  0 instructions:  416000000 cycles:  288582530 heartbeat IPC: 0.23675 cumulative IPC: 1.28592 (Simulation time: 0 hr 12 min 5 sec) 
Heartbeat CPU  0 instructions:  417000001 cycles:  292316337 heartbeat IPC: 0.26782 cumulative IPC: 1.27069 (Simulation time: 0 hr 12 min 8 sec) 
Heartbeat CPU  0 instructions:  418000003 cycles:  295362346 heartbeat IPC: 0.32830 cumulative IPC: 1.25932 (Simulation time: 0 hr 12 min 11 sec) 
Heartbeat CPU  0 instructions:  419000001 cycles:  303010690 heartbeat IPC: 0.13075 cumulative IPC: 1.22614 (Simulation time: 0 hr 12 min 15 sec) 
Heartbeat CPU  0 instructions:  420000000 cycles:  311495767 heartbeat IPC: 0.11785 cumulative IPC: 1.19114 (Simulation time: 0 hr 12 min 19 sec) 
Heartbeat CPU  0 instructions:  421000003 cycles:  319354488 heartbeat IPC: 0.12725 cumulative IPC: 1.16090 (Simulation time: 0 hr 12 min 22 sec) 
Heartbeat CPU  0 instructions:  422000001 cycles:  326575283 heartbeat IPC: 0.13849 cumulative IPC: 1.13488 (Simulation time: 0 hr 12 min 26 sec) 
Heartbeat CPU  0 instructions:  423000000 cycles:  333378723 heartbeat IPC: 0.14698 cumulative IPC: 1.11175 (Simulation time: 0 hr 12 min 29 sec) 
Heartbeat CPU  0 instructions:  424000000 cycles:  336600559 heartbeat IPC: 0.31038 cumulative IPC: 1.10296 (Simulation time: 0 hr 12 min 32 sec) 
Heartbeat CPU  0 instructions:  425000002 cycles:  341329200 heartbeat IPC: 0.21148 cumulative IPC: 1.08883 (Simulation time: 0 hr 12 min 36 sec) 
Heartbeat CPU  0 instructions:  426000002 cycles:  346108346 heartbeat IPC: 0.20924 cumulative IPC: 1.07497 (Simulation time: 0 hr 12 min 39 sec) 
Heartbeat CPU  0 instructions:  427000000 cycles:  350900992 heartbeat IPC: 0.20865 cumulative IPC: 1.06149 (Simulation time: 0 hr 12 min 42 sec) 
Heartbeat CPU  0 instructions:  428000000 cycles:  355713476 heartbeat IPC: 0.20779 cumulative IPC: 1.04836 (Simulation time: 0 hr 12 min 46 sec) 
Heartbeat CPU  0 instructions:  429000001 cycles:  360491839 heartbeat IPC: 0.20928 cumulative IPC: 1.03574 (Simulation time: 0 hr 12 min 49 sec) 
Heartbeat CPU  0 instructions:  430000001 cycles:  365389040 heartbeat IPC: 0.20420 cumulative IPC: 1.02311 (Simulation time: 0 hr 12 min 53 sec) 
Heartbeat CPU  0 instructions:  431000000 cycles:  374488575 heartbeat IPC: 0.10990 cumulative IPC: 0.99806 (Simulation time: 0 hr 12 min 57 sec) 
Heartbeat CPU  0 instructions:  432000000 cycles:  377977796 heartbeat IPC: 0.28660 cumulative IPC: 0.99065 (Simulation time: 0 hr 13 min 0 sec) 
Heartbeat CPU  0 instructions:  433000000 cycles:  383481767 heartbeat IPC: 0.18169 cumulative IPC: 0.97758 (Simulation time: 0 hr 13 min 4 sec) 
Heartbeat CPU  0 instructions:  434000001 cycles:  392110823 heartbeat IPC: 0.11589 cumulative IPC: 0.95629 (Simulation time: 0 hr 13 min 7 sec) 
Heartbeat CPU  0 instructions:  435000003 cycles:  400123193 heartbeat IPC: 0.12481 cumulative IPC: 0.93764 (Simulation time: 0 hr 13 min 11 sec) 
Heartbeat CPU  0 instructions:  436000000 cycles:  407649384 heartbeat IPC: 0.13287 cumulative IPC: 0.92104 (Simulation time: 0 hr 13 min 14 sec) 
Heartbeat CPU  0 instructions:  437000002 cycles:  413922066 heartbeat IPC: 0.15942 cumulative IPC: 0.90817 (Simulation time: 0 hr 13 min 18 sec) 
Heartbeat CPU  0 instructions:  438000001 cycles:  418452923 heartbeat IPC: 0.22071 cumulative IPC: 0.89987 (Simulation time: 0 hr 13 min 21 sec) 
Heartbeat CPU  0 instructions:  439000000 cycles:  423084833 heartbeat IPC: 0.21589 cumulative IPC: 0.89154 (Simulation time: 0 hr 13 min 24 sec) 
Heartbeat CPU  0 instructions:  440000000 cycles:  427731728 heartbeat IPC: 0.21520 cumulative IPC: 0.88338 (Simulation time: 0 hr 13 min 28 sec) 
Heartbeat CPU  0 instructions:  441000000 cycles:  432531675 heartbeat IPC: 0.20834 cumulative IPC: 0.87506 (Simulation time: 0 hr 13 min 31 sec) 
Heartbeat CPU  0 instructions:  442000000 cycles:  437310322 heartbeat IPC: 0.20926 cumulative IPC: 0.86700 (Simulation time: 0 hr 13 min 34 sec) 
Heartbeat CPU  0 instructions:  443000001 cycles:  442103064 heartbeat IPC: 0.20865 cumulative IPC: 0.85909 (Simulation time: 0 hr 13 min 38 sec) 
Heartbeat CPU  0 instructions:  444000000 cycles:  446964257 heartbeat IPC: 0.20571 cumulative IPC: 0.85123 (Simulation time: 0 hr 13 min 41 sec) 
Heartbeat CPU  0 instructions:  445000002 cycles:  451868779 heartbeat IPC: 0.20389 cumulative IPC: 0.84347 (Simulation time: 0 hr 13 min 45 sec) 
Heartbeat CPU  0 instructions:  446000003 cycles:  459705169 heartbeat IPC: 0.12761 cumulative IPC: 0.83001 (Simulation time: 0 hr 13 min 49 sec) 
Heartbeat CPU  0 instructions:  447000000 cycles:  463458687 heartbeat IPC: 0.26642 cumulative IPC: 0.82498 (Simulation time: 0 hr 13 min 52 sec) 
Heartbeat CPU  0 instructions:  448000000 cycles:  472529674 heartbeat IPC: 0.11024 cumulative IPC: 0.80990 (Simulation time: 0 hr 13 min 56 sec) 
Heartbeat CPU  0 instructions:  449000001 cycles:  480675673 heartbeat IPC: 0.12276 cumulative IPC: 0.79711 (Simulation time: 0 hr 13 min 59 sec) 
Heartbeat CPU  0 instructions:  450000000 cycles:  488389477 heartbeat IPC: 0.12964 cumulative IPC: 0.78556 (Simulation time: 0 hr 14 min 3 sec) 
Heartbeat CPU  0 instructions:  451000000 cycles:  494905439 heartbeat IPC: 0.15347 cumulative IPC: 0.77644 (Simulation time: 0 hr 14 min 6 sec) 
Heartbeat CPU  0 instructions:  452000000 cycles:  500275214 heartbeat IPC: 0.18623 cumulative IPC: 0.76952 (Simulation time: 0 hr 14 min 9 sec) 
Heartbeat CPU  0 instructions:  453000001 cycles:  504487478 heartbeat IPC: 0.23740 cumulative IPC: 0.76466 (Simulation time: 0 hr 14 min 13 sec) 
Heartbeat CPU  0 instructions:  454000000 cycles:  509099689 heartbeat IPC: 0.21682 cumulative IPC: 0.75924 (Simulation time: 0 hr 14 min 16 sec) 
Heartbeat CPU  0 instructions:  455000001 cycles:  513861646 heartbeat IPC: 0.21000 cumulative IPC: 0.75369 (Simulation time: 0 hr 14 min 20 sec) 
Heartbeat CPU  0 instructions:  456000000 cycles:  518641577 heartbeat IPC: 0.20921 cumulative IPC: 0.74822 (Simulation time: 0 hr 14 min 23 sec) 
Heartbeat CPU  0 instructions:  457000002 cycles:  523427923 heartbeat IPC: 0.20893 cumulative IPC: 0.74285 (Simulation time: 0 hr 14 min 26 sec) 
Heartbeat CPU  0 instructions:  458000000 cycles:  528232684 heartbeat IPC: 0.20813 cumulative IPC: 0.73755 (Simulation time: 0 hr 14 min 30 sec) 
Heartbeat CPU  0 instructions:  459000001 cycles:  533092655 heartbeat IPC: 0.20576 cumulative IPC: 0.73228 (Simulation time: 0 hr 14 min 33 sec) 
Heartbeat CPU  0 instructions:  460000000 cycles:  541286588 heartbeat IPC: 0.12204 cumulative IPC: 0.72225 (Simulation time: 0 hr 14 min 37 sec) 
Heartbeat CPU  0 instructions:  461000002 cycles:  544774643 heartbeat IPC: 0.28669 cumulative IPC: 0.71922 (Simulation time: 0 hr 14 min 41 sec) 
Heartbeat CPU  0 instructions:  462000000 cycles:  552888723 heartbeat IPC: 0.12324 cumulative IPC: 0.70974 (Simulation time: 0 hr 14 min 44 sec) 
Heartbeat CPU  0 instructions:  463000000 cycles:  561166776 heartbeat IPC: 0.12080 cumulative IPC: 0.70034 (Simulation time: 0 hr 14 min 48 sec) 
Heartbeat CPU  0 instructions:  464000000 cycles:  568883541 heartbeat IPC: 0.12959 cumulative IPC: 0.69196 (Simulation time: 0 hr 14 min 51 sec) 
Heartbeat CPU  0 instructions:  465000000 cycles:  575794234 heartbeat IPC: 0.14470 cumulative IPC: 0.68487 (Simulation time: 0 hr 14 min 55 sec) 
Heartbeat CPU  0 instructions:  466000000 cycles:  581923075 heartbeat IPC: 0.16316 cumulative IPC: 0.67894 (Simulation time: 0 hr 14 min 58 sec) 
Heartbeat CPU  0 instructions:  467000000 cycles:  585766671 heartbeat IPC: 0.26017 cumulative IPC: 0.67597 (Simulation time: 0 hr 15 min 1 sec) 
Heartbeat CPU  0 instructions:  468000000 cycles:  590363707 heartbeat IPC: 0.21753 cumulative IPC: 0.67212 (Simulation time: 0 hr 15 min 5 sec) 
Heartbeat CPU  0 instructions:  469000000 cycles:  595087361 heartbeat IPC: 0.21170 cumulative IPC: 0.66818 (Simulation time: 0 hr 15 min 8 sec) 
Heartbeat CPU  0 instructions:  470000002 cycles:  599885087 heartbeat IPC: 0.20843 cumulative IPC: 0.66422 (Simulation time: 0 hr 15 min 11 sec) 
Heartbeat CPU  0 instructions:  471000000 cycles:  604661114 heartbeat IPC: 0.20938 cumulative IPC: 0.66036 (Simulation time: 0 hr 15 min 15 sec) 
Heartbeat CPU  0 instructions:  472000000 cycles:  609441661 heartbeat IPC: 0.20918 cumulative IPC: 0.65655 (Simulation time: 0 hr 15 min 18 sec) 
Heartbeat CPU  0 instructions:  473000002 cycles:  614334110 heartbeat IPC: 0.20440 cumulative IPC: 0.65268 (Simulation time: 0 hr 15 min 22 sec) 
Heartbeat CPU  0 instructions:  474000000 cycles:  623005345 heartbeat IPC: 0.11532 cumulative IPC: 0.64465 (Simulation time: 0 hr 15 min 26 sec) 
Heartbeat CPU  0 instructions:  475000002 cycles:  626329070 heartbeat IPC: 0.30087 cumulative IPC: 0.64269 (Simulation time: 0 hr 15 min 29 sec) 
Heartbeat CPU  0 instructions:  476000000 cycles:  633175210 heartbeat IPC: 0.14607 cumulative IPC: 0.63693 (Simulation time: 0 hr 15 min 33 sec) 
Heartbeat CPU  0 instructions:  477000000 cycles:  641436728 heartbeat IPC: 0.12104 cumulative IPC: 0.62981 (Simulation time: 0 hr 15 min 36 sec) 
Heartbeat CPU  0 instructions:  478000002 cycles:  649302008 heartbeat IPC: 0.12714 cumulative IPC: 0.62329 (Simulation time: 0 hr 15 min 40 sec) 
Heartbeat CPU  0 instructions:  479000000 cycles:  656644215 heartbeat IPC: 0.13620 cumulative IPC: 0.61747 (Simulation time: 0 hr 15 min 43 sec) 
Heartbeat CPU  0 instructions:  480000000 cycles:  663194749 heartbeat IPC: 0.15266 cumulative IPC: 0.61256 (Simulation time: 0 hr 15 min 47 sec) 
Heartbeat CPU  0 instructions:  481000000 cycles:  666986711 heartbeat IPC: 0.26372 cumulative IPC: 0.61044 (Simulation time: 0 hr 15 min 50 sec) 
Heartbeat CPU  0 instructions:  482000000 cycles:  671592602 heartbeat IPC: 0.21711 cumulative IPC: 0.60756 (Simulation time: 0 hr 15 min 54 sec) 
Heartbeat CPU  0 instructions:  483000000 cycles:  676272604 heartbeat IPC: 0.21368 cumulative IPC: 0.60465 (Simulation time: 0 hr 15 min 57 sec) 
Heartbeat CPU  0 instructions:  484000000 cycles:  681044848 heartbeat IPC: 0.20955 cumulative IPC: 0.60169 (Simulation time: 0 hr 16 min 0 sec) 
Heartbeat CPU  0 instructions:  485000002 cycles:  685818713 heartbeat IPC: 0.20947 cumulative IPC: 0.59878 (Simulation time: 0 hr 16 min 3 sec) 
Heartbeat CPU  0 instructions:  486000003 cycles:  690595412 heartbeat IPC: 0.20935 cumulative IPC: 0.59591 (Simulation time: 0 hr 16 min 7 sec) 
Heartbeat CPU  0 instructions:  487000000 cycles:  695452698 heartbeat IPC: 0.20588 cumulative IPC: 0.59301 (Simulation time: 0 hr 16 min 10 sec) 
Heartbeat CPU  0 instructions:  488000000 cycles:  702929293 heartbeat IPC: 0.13375 cumulative IPC: 0.58780 (Simulation time: 0 hr 16 min 14 sec) 
Heartbeat CPU  0 instructions:  489000000 cycles:  707851894 heartbeat IPC: 0.20314 cumulative IPC: 0.58496 (Simulation time: 0 hr 16 min 18 sec) 
Heartbeat CPU  0 instructions:  490000003 cycles:  713011049 heartbeat IPC: 0.19383 cumulative IPC: 0.58195 (Simulation time: 0 hr 16 min 21 sec) 
Heartbeat CPU  0 instructions:  491000003 cycles:  721760584 heartbeat IPC: 0.11429 cumulative IPC: 0.57592 (Simulation time: 0 hr 16 min 25 sec) 
Heartbeat CPU  0 instructions:  492000000 cycles:  729737147 heartbeat IPC: 0.12537 cumulative IPC: 0.57069 (Simulation time: 0 hr 16 min 29 sec) 
Heartbeat CPU  0 instructions:  493000002 cycles:  737314430 heartbeat IPC: 0.13197 cumulative IPC: 0.56590 (Simulation time: 0 hr 16 min 32 sec) 
Heartbeat CPU  0 instructions:  494000001 cycles:  743602526 heartbeat IPC: 0.15903 cumulative IPC: 0.56225 (Simulation time: 0 hr 16 min 35 sec) 
Heartbeat CPU  0 instructions:  495000001 cycles:  748310377 heartbeat IPC: 0.21241 cumulative IPC: 0.55991 (Simulation time: 0 hr 16 min 39 sec) 
Heartbeat CPU  0 instructions:  496000000 cycles:  752827185 heartbeat IPC: 0.22140 cumulative IPC: 0.55776 (Simulation time: 0 hr 16 min 42 sec) 
Heartbeat CPU  0 instructions:  497000001 cycles:  757461918 heartbeat IPC: 0.21576 cumulative IPC: 0.55554 (Simulation time: 0 hr 16 min 46 sec) 
Heartbeat CPU  0 instructions:  498000001 cycles:  762223549 heartbeat IPC: 0.21001 cumulative IPC: 0.55326 (Simulation time: 0 hr 16 min 49 sec) 
Heartbeat CPU  0 instructions:  499000000 cycles:  767006120 heartbeat IPC: 0.20909 cumulative IPC: 0.55098 (Simulation time: 0 hr 16 min 52 sec) 
Heartbeat CPU  0 instructions:  500000000 cycles:  771771763 heartbeat IPC: 0.20984 cumulative IPC: 0.54875 (Simulation time: 0 hr 16 min 56 sec) 
Heartbeat CPU  0 instructions:  501000000 cycles:  776609883 heartbeat IPC: 0.20669 cumulative IPC: 0.54650 (Simulation time: 0 hr 16 min 59 sec) 
Heartbeat CPU  0 instructions:  502000002 cycles:  781494834 heartbeat IPC: 0.20471 cumulative IPC: 0.54424 (Simulation time: 0 hr 17 min 2 sec) 
Heartbeat CPU  0 instructions:  503000003 cycles:  789352112 heartbeat IPC: 0.12727 cumulative IPC: 0.53985 (Simulation time: 0 hr 17 min 6 sec) 
Heartbeat CPU  0 instructions:  504000000 cycles:  792803440 heartbeat IPC: 0.28974 cumulative IPC: 0.53870 (Simulation time: 0 hr 17 min 10 sec) 
Heartbeat CPU  0 instructions:  505000000 cycles:  801963093 heartbeat IPC: 0.10917 cumulative IPC: 0.53351 (Simulation time: 0 hr 17 min 14 sec) 
Heartbeat CPU  0 instructions:  506000001 cycles:  810073719 heartbeat IPC: 0.12330 cumulative IPC: 0.52918 (Simulation time: 0 hr 17 min 17 sec) 
Heartbeat CPU  0 instructions:  507000000 cycles:  817775653 heartbeat IPC: 0.12984 cumulative IPC: 0.52521 (Simulation time: 0 hr 17 min 21 sec) 
Heartbeat CPU  0 instructions:  508000000 cycles:  824377324 heartbeat IPC: 0.15148 cumulative IPC: 0.52205 (Simulation time: 0 hr 17 min 24 sec) 
Heartbeat CPU  0 instructions:  509000002 cycles:  829897337 heartbeat IPC: 0.18116 cumulative IPC: 0.51966 (Simulation time: 0 hr 17 min 27 sec) 
Heartbeat CPU  0 instructions:  510000001 cycles:  834024623 heartbeat IPC: 0.24229 cumulative IPC: 0.51821 (Simulation time: 0 hr 17 min 31 sec) 
Heartbeat CPU  0 instructions:  511000001 cycles:  838629140 heartbeat IPC: 0.21718 cumulative IPC: 0.51647 (Simulation time: 0 hr 17 min 34 sec) 
Heartbeat CPU  0 instructions:  512000000 cycles:  843360633 heartbeat IPC: 0.21135 cumulative IPC: 0.51467 (Simulation time: 0 hr 17 min 37 sec) 
Heartbeat CPU  0 instructions:  513000003 cycles:  848150839 heartbeat IPC: 0.20876 cumulative IPC: 0.51285 (Simulation time: 0 hr 17 min 41 sec) 
Heartbeat CPU  0 instructions:  514000002 cycles:  852926089 heartbeat IPC: 0.20941 cumulative IPC: 0.51106 (Simulation time: 0 hr 17 min 44 sec) 
Heartbeat CPU  0 instructions:  515000001 cycles:  857702953 heartbeat IPC: 0.20934 cumulative IPC: 0.50929 (Simulation time: 0 hr 17 min 47 sec) 
Heartbeat CPU  0 instructions:  516000000 cycles:  862582728 heartbeat IPC: 0.20493 cumulative IPC: 0.50748 (Simulation time: 0 hr 17 min 51 sec) 
Heartbeat CPU  0 instructions:  517000000 cycles:  870864445 heartbeat IPC: 0.12075 cumulative IPC: 0.50361 (Simulation time: 0 hr 17 min 55 sec) 
Heartbeat CPU  0 instructions:  518000002 cycles:  874340218 heartbeat IPC: 0.28771 cumulative IPC: 0.50271 (Simulation time: 0 hr 17 min 58 sec) 
Heartbeat CPU  0 instructions:  519000001 cycles:  882116160 heartbeat IPC: 0.12860 cumulative IPC: 0.49924 (Simulation time: 0 hr 18 min 2 sec) 
Heartbeat CPU  0 instructions:  520000000 cycles:  890479103 heartbeat IPC: 0.11958 cumulative IPC: 0.49550 (Simulation time: 0 hr 18 min 6 sec) 
Heartbeat CPU  0 instructions:  521000001 cycles:  898185255 heartbeat IPC: 0.12977 cumulative IPC: 0.49220 (Simulation time: 0 hr 18 min 9 sec) 
Heartbeat CPU  0 instructions:  522000001 cycles:  905186945 heartbeat IPC: 0.14282 cumulative IPC: 0.48936 (Simulation time: 0 hr 18 min 13 sec) 
Heartbeat CPU  0 instructions:  523000000 cycles:  911511052 heartbeat IPC: 0.15812 cumulative IPC: 0.48695 (Simulation time: 0 hr 18 min 16 sec) 
Heartbeat CPU  0 instructions:  524000000 cycles:  915246205 heartbeat IPC: 0.26773 cumulative IPC: 0.48601 (Simulation time: 0 hr 18 min 19 sec) 
Heartbeat CPU  0 instructions:  525000000 cycles:  919828874 heartbeat IPC: 0.21821 cumulative IPC: 0.48462 (Simulation time: 0 hr 18 min 23 sec) 
Heartbeat CPU  0 instructions:  526000000 cycles:  924547311 heartbeat IPC: 0.21193 cumulative IPC: 0.48316 (Simulation time: 0 hr 18 min 26 sec) 
Heartbeat CPU  0 instructions:  527000000 cycles:  929316665 heartbeat IPC: 0.20967 cumulative IPC: 0.48168 (Simulation time: 0 hr 18 min 29 sec) 
Heartbeat CPU  0 instructions:  528000000 cycles:  934103625 heartbeat IPC: 0.20890 cumulative IPC: 0.48022 (Simulation time: 0 hr 18 min 33 sec) 
Heartbeat CPU  0 instructions:  529000001 cycles:  938873640 heartbeat IPC: 0.20964 cumulative IPC: 0.47878 (Simulation time: 0 hr 18 min 36 sec) 
Heartbeat CPU  0 instructions:  530000001 cycles:  943782464 heartbeat IPC: 0.20371 cumulative IPC: 0.47728 (Simulation time: 0 hr 18 min 39 sec) 
Heartbeat CPU  0 instructions:  531000000 cycles:  952438025 heartbeat IPC: 0.11553 cumulative IPC: 0.47384 (Simulation time: 0 hr 18 min 44 sec) 
Heartbeat CPU  0 instructions:  532000000 cycles:  955850005 heartbeat IPC: 0.29308 cumulative IPC: 0.47316 (Simulation time: 0 hr 18 min 47 sec) 
Heartbeat CPU  0 instructions:  533000000 cycles:  962273221 heartbeat IPC: 0.15569 cumulative IPC: 0.47094 (Simulation time: 0 hr 18 min 51 sec) 
Heartbeat CPU  0 instructions:  534000000 cycles:  970765815 heartbeat IPC: 0.11775 cumulative IPC: 0.46771 (Simulation time: 0 hr 18 min 54 sec) 
Heartbeat CPU  0 instructions:  535000001 cycles:  978619331 heartbeat IPC: 0.12733 cumulative IPC: 0.46486 (Simulation time: 0 hr 18 min 58 sec) 
Heartbeat CPU  0 instructions:  536000000 cycles:  986025312 heartbeat IPC: 0.13503 cumulative IPC: 0.46227 (Simulation time: 0 hr 19 min 1 sec) 
Heartbeat CPU  0 instructions:  537000001 cycles:  992395745 heartbeat IPC: 0.15698 cumulative IPC: 0.46022 (Simulation time: 0 hr 19 min 4 sec) 
Heartbeat CPU  0 instructions:  538000001 cycles:  996375926 heartbeat IPC: 0.25124 cumulative IPC: 0.45935 (Simulation time: 0 hr 19 min 8 sec) 
Heartbeat CPU  0 instructions:  539000001 cycles: 1001049239 heartbeat IPC: 0.21398 cumulative IPC: 0.45815 (Simulation time: 0 hr 19 min 11 sec) 
Heartbeat CPU  0 instructions:  540000000 cycles: 1005707218 heartbeat IPC: 0.21469 cumulative IPC: 0.45697 (Simulation time: 0 hr 19 min 15 sec) 
Heartbeat CPU  0 instructions:  541000001 cycles: 1010495940 heartbeat IPC: 0.20882 cumulative IPC: 0.45574 (Simulation time: 0 hr 19 min 18 sec) 
Heartbeat CPU  0 instructions:  542000003 cycles: 1015257964 heartbeat IPC: 0.21000 cumulative IPC: 0.45454 (Simulation time: 0 hr 19 min 21 sec) 
Heartbeat CPU  0 instructions:  543000001 cycles: 1020033069 heartbeat IPC: 0.20942 cumulative IPC: 0.45334 (Simulation time: 0 hr 19 min 25 sec) 
Heartbeat CPU  0 instructions:  544000000 cycles: 1024888181 heartbeat IPC: 0.20597 cumulative IPC: 0.45212 (Simulation time: 0 hr 19 min 28 sec) 
Heartbeat CPU  0 instructions:  545000000 cycles: 1030665016 heartbeat IPC: 0.17311 cumulative IPC: 0.45049 (Simulation time: 0 hr 19 min 31 sec) 
Heartbeat CPU  0 instructions:  546000000 cycles: 1037337635 heartbeat IPC: 0.14987 cumulative IPC: 0.44847 (Simulation time: 0 hr 19 min 35 sec) 
Heartbeat CPU  0 instructions:  547000000 cycles: 1042197430 heartbeat IPC: 0.20577 cumulative IPC: 0.44729 (Simulation time: 0 hr 19 min 39 sec) 
Heartbeat CPU  0 instructions:  548000000 cycles: 1051101570 heartbeat IPC: 0.11231 cumulative IPC: 0.44433 (Simulation time: 0 hr 19 min 43 sec) 
Heartbeat CPU  0 instructions:  549000000 cycles: 1059058733 heartbeat IPC: 0.12567 cumulative IPC: 0.44184 (Simulation time: 0 hr 19 min 46 sec) 
Heartbeat CPU  0 instructions:  550000001 cycles: 1066701472 heartbeat IPC: 0.13084 cumulative IPC: 0.43951 (Simulation time: 0 hr 19 min 50 sec) 
Heartbeat CPU  0 instructions:  551000000 cycles: 1072996428 heartbeat IPC: 0.15886 cumulative IPC: 0.43780 (Simulation time: 0 hr 19 min 53 sec) 
Heartbeat CPU  0 instructions:  552000000 cycles: 1077835302 heartbeat IPC: 0.20666 cumulative IPC: 0.43672 (Simulation time: 0 hr 19 min 56 sec) 
Heartbeat CPU  0 instructions:  553000000 cycles: 1082288586 heartbeat IPC: 0.22455 cumulative IPC: 0.43581 (Simulation time: 0 hr 20 min 0 sec) 
Heartbeat CPU  0 instructions:  554000001 cycles: 1086933093 heartbeat IPC: 0.21531 cumulative IPC: 0.43483 (Simulation time: 0 hr 20 min 3 sec) 
Heartbeat CPU  0 instructions:  555000002 cycles: 1091690987 heartbeat IPC: 0.21018 cumulative IPC: 0.43381 (Simulation time: 0 hr 20 min 7 sec) 
Heartbeat CPU  0 instructions:  556000000 cycles: 1096458509 heartbeat IPC: 0.20975 cumulative IPC: 0.43280 (Simulation time: 0 hr 20 min 10 sec) 
Heartbeat CPU  0 instructions:  557000000 cycles: 1101239914 heartbeat IPC: 0.20914 cumulative IPC: 0.43179 (Simulation time: 0 hr 20 min 13 sec) 
Heartbeat CPU  0 instructions:  558000003 cycles: 1106060409 heartbeat IPC: 0.20745 cumulative IPC: 0.43077 (Simulation time: 0 hr 20 min 17 sec) 
Heartbeat CPU  0 instructions:  559000003 cycles: 1110840653 heartbeat IPC: 0.20919 cumulative IPC: 0.42978 (Simulation time: 0 hr 20 min 20 sec) 
Heartbeat CPU  0 instructions:  560000000 cycles: 1118826392 heartbeat IPC: 0.12522 cumulative IPC: 0.42752 (Simulation time: 0 hr 20 min 24 sec) 
Heartbeat CPU  0 instructions:  561000001 cycles: 1122287258 heartbeat IPC: 0.28895 cumulative IPC: 0.42707 (Simulation time: 0 hr 20 min 27 sec) 
Heartbeat CPU  0 instructions:  562000002 cycles: 1131289489 heartbeat IPC: 0.11108 cumulative IPC: 0.42446 (Simulation time: 0 hr 20 min 31 sec) 
Heartbeat CPU  0 instructions:  563000003 cycles: 1139548746 heartbeat IPC: 0.12108 cumulative IPC: 0.42217 (Simulation time: 0 hr 20 min 35 sec) 
Heartbeat CPU  0 instructions:  564000000 cycles: 1147188653 heartbeat IPC: 0.13089 cumulative IPC: 0.42016 (Simulation time: 0 hr 20 min 38 sec) 
Heartbeat CPU  0 instructions:  565000003 cycles: 1153826401 heartbeat IPC: 0.15065 cumulative IPC: 0.41855 (Simulation time: 0 hr 20 min 42 sec) 
Heartbeat CPU  0 instructions:  566000003 cycles: 1159415736 heartbeat IPC: 0.17891 cumulative IPC: 0.41735 (Simulation time: 0 hr 20 min 45 sec) 
Heartbeat CPU  0 instructions:  567000000 cycles: 1163515114 heartbeat IPC: 0.24394 cumulative IPC: 0.41671 (Simulation time: 0 hr 20 min 48 sec) 
Heartbeat CPU  0 instructions:  568000000 cycles: 1168121790 heartbeat IPC: 0.21708 cumulative IPC: 0.41590 (Simulation time: 0 hr 20 min 52 sec) 
Heartbeat CPU  0 instructions:  569000000 cycles: 1172862480 heartbeat IPC: 0.21094 cumulative IPC: 0.41504 (Simulation time: 0 hr 20 min 55 sec) 
Heartbeat CPU  0 instructions:  570000000 cycles: 1177648225 heartbeat IPC: 0.20895 cumulative IPC: 0.41417 (Simulation time: 0 hr 20 min 58 sec) 
Heartbeat CPU  0 instructions:  571000001 cycles: 1182422607 heartbeat IPC: 0.20945 cumulative IPC: 0.41331 (Simulation time: 0 hr 21 min 2 sec) 
Heartbeat CPU  0 instructions:  572000000 cycles: 1187199241 heartbeat IPC: 0.20935 cumulative IPC: 0.41246 (Simulation time: 0 hr 21 min 5 sec) 
Heartbeat CPU  0 instructions:  573000002 cycles: 1192080162 heartbeat IPC: 0.20488 cumulative IPC: 0.41158 (Simulation time: 0 hr 21 min 9 sec) 
Heartbeat CPU  0 instructions:  574000003 cycles: 1200343021 heartbeat IPC: 0.12102 cumulative IPC: 0.40950 (Simulation time: 0 hr 21 min 13 sec) 
Heartbeat CPU  0 instructions:  575000002 cycles: 1203802116 heartbeat IPC: 0.28909 cumulative IPC: 0.40915 (Simulation time: 0 hr 21 min 16 sec) 
Heartbeat CPU  0 instructions:  576000000 cycles: 1211529116 heartbeat IPC: 0.12942 cumulative IPC: 0.40730 (Simulation time: 0 hr 21 min 20 sec) 
Heartbeat CPU  0 instructions:  577000003 cycles: 1219945341 heartbeat IPC: 0.11882 cumulative IPC: 0.40523 (Simulation time: 0 hr 21 min 23 sec) 
Heartbeat CPU  0 instructions:  578000000 cycles: 1227651763 heartbeat IPC: 0.12976 cumulative IPC: 0.40344 (Simulation time: 0 hr 21 min 27 sec) 
Heartbeat CPU  0 instructions:  579000001 cycles: 1234667434 heartbeat IPC: 0.14254 cumulative IPC: 0.40191 (Simulation time: 0 hr 21 min 30 sec) 
Heartbeat CPU  0 instructions:  580000000 cycles: 1241001092 heartbeat IPC: 0.15789 cumulative IPC: 0.40062 (Simulation time: 0 hr 21 min 34 sec) 
Heartbeat CPU  0 instructions:  581000003 cycles: 1244724351 heartbeat IPC: 0.26858 cumulative IPC: 0.40021 (Simulation time: 0 hr 21 min 37 sec) 
Heartbeat CPU  0 instructions:  582000003 cycles: 1249324537 heartbeat IPC: 0.21738 cumulative IPC: 0.39951 (Simulation time: 0 hr 21 min 40 sec) 
Heartbeat CPU  0 instructions:  583000002 cycles: 1254028174 heartbeat IPC: 0.21260 cumulative IPC: 0.39878 (Simulation time: 0 hr 21 min 44 sec) 
Heartbeat CPU  0 instructions:  584000000 cycles: 1258818199 heartbeat IPC: 0.20877 cumulative IPC: 0.39803 (Simulation time: 0 hr 21 min 47 sec) 
Heartbeat CPU  0 instructions:  585000002 cycles: 1263593414 heartbeat IPC: 0.20942 cumulative IPC: 0.39730 (Simulation time: 0 hr 21 min 50 sec) 
Heartbeat CPU  0 instructions:  586000002 cycles: 1268362302 heartbeat IPC: 0.20969 cumulative IPC: 0.39657 (Simulation time: 0 hr 21 min 54 sec) 
Heartbeat CPU  0 instructions:  587000000 cycles: 1273276047 heartbeat IPC: 0.20351 cumulative IPC: 0.39580 (Simulation time: 0 hr 21 min 57 sec) 
Heartbeat CPU  0 instructions:  588000000 cycles: 1281937664 heartbeat IPC: 0.11545 cumulative IPC: 0.39384 (Simulation time: 0 hr 22 min 1 sec) 
Heartbeat CPU  0 instructions:  589000001 cycles: 1285352544 heartbeat IPC: 0.29284 cumulative IPC: 0.39356 (Simulation time: 0 hr 22 min 5 sec) 
Heartbeat CPU  0 instructions:  590000002 cycles: 1291729552 heartbeat IPC: 0.15681 cumulative IPC: 0.39235 (Simulation time: 0 hr 22 min 8 sec) 
Heartbeat CPU  0 instructions:  591000000 cycles: 1300238867 heartbeat IPC: 0.11752 cumulative IPC: 0.39049 (Simulation time: 0 hr 22 min 12 sec) 
Heartbeat CPU  0 instructions:  592000000 cycles: 1308184646 heartbeat IPC: 0.12585 cumulative IPC: 0.38883 (Simulation time: 0 hr 22 min 15 sec) 
Heartbeat CPU  0 instructions:  593000003 cycles: 1315556741 heartbeat IPC: 0.13565 cumulative IPC: 0.38736 (Simulation time: 0 hr 22 min 19 sec) 
Heartbeat CPU  0 instructions:  594000000 cycles: 1321924601 heartbeat IPC: 0.15704 cumulative IPC: 0.38622 (Simulation time: 0 hr 22 min 22 sec) 
Heartbeat CPU  0 instructions:  595000001 cycles: 1325902651 heartbeat IPC: 0.25138 cumulative IPC: 0.38580 (Simulation time: 0 hr 22 min 26 sec) 
Heartbeat CPU  0 instructions:  596000000 cycles: 1330575692 heartbeat IPC: 0.21399 cumulative IPC: 0.38517 (Simulation time: 0 hr 22 min 29 sec) 
Heartbeat CPU  0 instructions:  597000003 cycles: 1335235148 heartbeat IPC: 0.21462 cumulative IPC: 0.38456 (Simulation time: 0 hr 22 min 32 sec) 
Heartbeat CPU  0 instructions:  598000002 cycles: 1340021558 heartbeat IPC: 0.20892 cumulative IPC: 0.38391 (Simulation time: 0 hr 22 min 36 sec) 
Heartbeat CPU  0 instructions:  599000001 cycles: 1344793629 heartbeat IPC: 0.20955 cumulative IPC: 0.38327 (Simulation time: 0 hr 22 min 39 sec) 
Heartbeat CPU  0 instructions:  600000000 cycles: 1349576299 heartbeat IPC: 0.20909 cumulative IPC: 0.38263 (Simulation time: 0 hr 22 min 42 sec) 
Finished CPU 0 instructions: 500000000 cycles: 1306731706 cumulative IPC: 0.38263 (Simulation time: 0 hr 22 min 42 sec) 

ChampSim completed all CPUs

[ROI Statistics]
Core_0_instructions 500000000
Core_0_cycles 1306731706
Core_0_IPC 0.38263

Core_0_branch_prediction_accuracy 99.11262
Core_0_branch_MPKI 1.69223
Core_0_average_ROB_occupancy_at_mispredict 138.88235

Core_0_L1D_total_access 69684002
Core_0_L1D_total_hit 46730236
Core_0_L1D_total_miss 22953766
Core_0_L1D_loads 33251603
Core_0_L1D_load_hit 27894414
Core_0_L1D_load_miss 5357189
Core_0_L1D_RFOs 36432399
Core_0_L1D_RFO_hit 18835822
Core_0_L1D_RFO_miss 17596577
Core_0_L1D_prefetches 0
Core_0_L1D_prefetch_hit 0
Core_0_L1D_prefetch_miss 0
Core_0_L1D_writebacks 0
Core_0_L1D_writeback_hit 0
Core_0_L1D_writeback_miss 0
Core_0_L1D_prefetch_requested 0
Core_0_L1D_prefetch_dropped 0
Core_0_L1D_prefetch_issued 0
Core_0_L1D_prefetch_filled 0
Core_0_L1D_prefetch_useful 0
Core_0_L1D_prefetch_useless 0
Core_0_L1D_prefetch_late 0
Core_0_L1D_average_miss_latency 110.21932

Core_0_L1D_rq_access 60883633
Core_0_L1D_rq_forward 0
Core_0_L1D_rq_merged 24791327
Core_0_L1D_rq_to_cache 36089518
Core_0_L1D_rq_full 0

Core_0_L1D_wq_access 156857733
Core_0_L1D_wq_forward 2788
Core_0_L1D_wq_merged 39799
Core_0_L1D_wq_to_cache 156817934
Core_0_L1D_wq_full 1336521

Core_0_L1D_pq_access 0
Core_0_L1D_pq_forward 0
Core_0_L1D_pq_merged 0
Core_0_L1D_pq_to_cache 0
Core_0_L1D_pq_full 0

Core_0_L1D_acc_epochs 1294066
Core_0_L1D_acc_level_0 1294066
Core_0_L1D_acc_level_1 0
Core_0_L1D_acc_level_2 0
Core_0_L1D_acc_level_3 0
Core_0_L1D_acc_level_4 0
Core_0_L1D_acc_level_5 0
Core_0_L1D_acc_level_6 0
Core_0_L1D_acc_level_7 0
Core_0_L1D_acc_level_8 0
Core_0_L1D_acc_level_9 0

Core_0_L1I_total_access 122833293
Core_0_L1I_total_hit 122814149
Core_0_L1I_total_miss 19144
Core_0_L1I_loads 122833293
Core_0_L1I_load_hit 122814149
Core_0_L1I_load_miss 19144
Core_0_L1I_RFOs 0
Core_0_L1I_RFO_hit 0
Core_0_L1I_RFO_miss 0
Core_0_L1I_prefetches 0
Core_0_L1I_prefetch_hit 0
Core_0_L1I_prefetch_miss 0
Core_0_L1I_writebacks 0
Core_0_L1I_writeback_hit 0
Core_0_L1I_writeback_miss 0
Core_0_L1I_prefetch_requested 0
Core_0_L1I_prefetch_dropped 0
Core_0_L1I_prefetch_issued 0
Core_0_L1I_prefetch_filled 0
Core_0_L1I_prefetch_useful 0
Core_0_L1I_prefetch_useless 0
Core_0_L1I_prefetch_late 0
Core_0_L1I_average_miss_latency 44.27309

Core_0_L1I_rq_access 500000003
Core_0_L1I_rq_forward 0
Core_0_L1I_rq_merged 377142021
Core_0_L1I_rq_to_cache 122857982
Core_0_L1I_rq_full 0

Core_0_L1I_wq_access 0
Core_0_L1I_wq_forward 0
Core_0_L1I_wq_merged 0
Core_0_L1I_wq_to_cache 0
Core_0_L1I_wq_full 0

Core_0_L1I_pq_access 0
Core_0_L1I_pq_forward 0
Core_0_L1I_pq_merged 0
Core_0_L1I_pq_to_cache 0
Core_0_L1I_pq_full 0

Core_0_L1I_acc_epochs 1294066
Core_0_L1I_acc_level_0 1294066
Core_0_L1I_acc_level_1 0
Core_0_L1I_acc_level_2 0
Core_0_L1I_acc_level_3 0
Core_0_L1I_acc_level_4 0
Core_0_L1I_acc_level_5 0
Core_0_L1I_acc_level_6 0
Core_0_L1I_acc_level_7 0
Core_0_L1I_acc_level_8 0
Core_0_L1I_acc_level_9 0

Core_0_L2C_total_access 41591523
Core_0_L2C_total_hit 18800190
Core_0_L2C_total_miss 22791333
Core_0_L2C_loads 5376333
Core_0_L2C_load_hit 174284
Core_0_L2C_load_miss 5202049
Core_0_L2C_RFOs 17596576
Core_0_L2C_RFO_hit 7441
Core_0_L2C_RFO_miss 17589135
Core_0_L2C_prefetches 0
Core_0_L2C_prefetch_hit 0
Core_0_L2C_prefetch_miss 0
Core_0_L2C_writebacks 18618614
Core_0_L2C_writeback_hit 18618465
Core_0_L2C_writeback_miss 149
Core_0_L2C_prefetch_requested 0
Core_0_L2C_prefetch_dropped 0
Core_0_L2C_prefetch_issued 0
Core_0_L2C_prefetch_filled 0
Core_0_L2C_prefetch_useful 0
Core_0_L2C_prefetch_useless 0
Core_0_L2C_prefetch_late 0
Core_0_L2C_average_miss_latency 96.73478

Core_0_L2C_rq_access 22972910
Core_0_L2C_rq_forward 0
Core_0_L2C_rq_merged 0
Core_0_L2C_rq_to_cache 22972909
Core_0_L2C_rq_full 0

Core_0_L2C_wq_access 18618614
Core_0_L2C_wq_forward 1
Core_0_L2C_wq_merged 0
Core_0_L2C_wq_to_cache 18618614
Core_0_L2C_wq_full 0

Core_0_L2C_pq_access 0
Core_0_L2C_pq_forward 0
Core_0_L2C_pq_merged 0
Core_0_L2C_pq_to_cache 0
Core_0_L2C_pq_full 0

Core_0_L2C_acc_epochs 1294066
Core_0_L2C_acc_level_0 1294066
Core_0_L2C_acc_level_1 0
Core_0_L2C_acc_level_2 0
Core_0_L2C_acc_level_3 0
Core_0_L2C_acc_level_4 0
Core_0_L2C_acc_level_5 0
Core_0_L2C_acc_level_6 0
Core_0_L2C_acc_level_7 0
Core_0_L2C_acc_level_8 0
Core_0_L2C_acc_level_9 0

Core_0_LLC_total_access 41398655
Core_0_LLC_total_hit 31190438
Core_0_LLC_total_miss 10208217
Core_0_LLC_loads 5202049
Core_0_LLC_load_hit 335866
Core_0_LLC_load_miss 4866183
Core_0_LLC_RFOs 17589135
Core_0_LLC_RFO_hit 15288390
Core_0_LLC_RFO_miss 2300745
Core_0_LLC_prefetches 0
Core_0_LLC_prefetch_hit 0
Core_0_LLC_prefetch_miss 0
Core_0_LLC_writebacks 18607471
Core_0_LLC_writeback_hit 15566182
Core_0_LLC_writeback_miss 3041289
Core_0_LLC_prefetch_requested 0
Core_0_LLC_prefetch_dropped 0
Core_0_LLC_prefetch_issued 0
Core_0_LLC_prefetch_filled 0
Core_0_LLC_prefetch_useful 0
Core_0_LLC_prefetch_useless 0
Core_0_LLC_prefetch_late 0
Core_0_LLC_average_miss_latency 148.77711

Core_0_LLC_rq_access 22791184
Core_0_LLC_rq_forward 0
Core_0_LLC_rq_merged 0
Core_0_LLC_rq_to_cache 22791184
Core_0_LLC_rq_full 0

Core_0_LLC_wq_access 18607471
Core_0_LLC_wq_forward 0
Core_0_LLC_wq_merged 0
Core_0_LLC_wq_to_cache 18607471
Core_0_LLC_wq_full 0

Core_0_LLC_pq_access 0
Core_0_LLC_pq_forward 0
Core_0_LLC_pq_merged 0
Core_0_LLC_pq_to_cache 0
Core_0_LLC_pq_full 0

Core_0_LLC_acc_epochs 1317946
Core_0_LLC_acc_level_0 1317946
Core_0_LLC_acc_level_1 0
Core_0_LLC_acc_level_2 0
Core_0_LLC_acc_level_3 0
Core_0_LLC_acc_level_4 0
Core_0_LLC_acc_level_5 0
Core_0_LLC_acc_level_6 0
Core_0_LLC_acc_level_7 0
Core_0_LLC_acc_level_8 0
Core_0_LLC_acc_level_9 0

Core_0_major_page_fault 0
Core_0_minor_page_fault 13167

Channel_0_RQ_row_buffer_hit 1631392
Channel_0_RQ_row_buffer_miss 5535484
Channel_0_WQ_row_buffer_hit 1534010
Channel_0_WQ_row_buffer_miss 1694937
Channel_0_WQ_full 29482
Channel_0_dbus_congested 3210246

avg_congested_cycle 4

DRAM_bw_pochs 5271783
DRAM_bw_level_0 5139234
DRAM_bw_level_1 131345
DRAM_bw_level_2 1199
DRAM_bw_level_3 5
