*************************************************
   ChampSim Multicore Out-of-Order Simulator
   Last compiled: Dec 11 2024 17:59:53
*************************************************
parsing config file: /home/functionmain/桌面/Pythia/config/bingo.ini

trace_0 /home/functionmain/桌面/Pythia/traces/403.gcc-16B.champsimtrace.xz
adding L2C_PREFETCHER: Bingo
Initialize SHIP state
warmup_instructions 100000000
simulation_instructions 500000000
champsim_seed 169
measure_ipc 0
measure_ipc_epoch 1000
measure_dram_bw 1
measure_dram_bw_epoch 256
measure_cache_acc 1
measure_cache_acc_epoch 1024
l1d_perfect 0
l2c_perfect 0
llc_perfect 0
l1d_semi_perfect 0
l2c_semi_perfect 0
llc_semi_perfect 0
semi_perfect_cache_page_buffer_size 64

num_cpus 1
cpu_freq 4000
dram_io_freq 1200
page_size 4096
block_size 64
max_read_per_cycle 8
max_fill_per_cycle 1
dram_channels 1
log2_dram_channels 0
dram_ranks 1
dram_banks 8
dram_rows 65536
dram_columns 128
dram_row_size 8
dram_size 4096
dram_pages 1048576

fetch_width 6
decode_width 6
exec_width 4
lq_width 2
sq_width 2
retire_width 4
scheduler_size 128
branch_mispredict_penalty 20
rob_size 256
lq_size 72
sq_size 56
num_instr_destinations_sparc 4
num_instr_destinations 2
num_instr_sources 4

itlb_set 16
itlb_way 8
itlb_rq_size 16
itlb_wq_size 16
itlb_pq_size 0
itlb_mshr_size 8
itlb_latency 1

dtlb_set 16
dtlb_way 4
dtlb_rq_size 16
dtlb_wq_size 16
dtlb_pq_size 0
dtlb_mshr_size 8
dtlb_latency 1

stlb_set 128
stlb_way 12
stlb_rq_size 32
stlb_wq_size 32
stlb_pq_size 0
stlb_mshr_size 16
stlb_latency 8

l1i_size 32
l1i_set 64
l1i_way 8
l1i_rq_size 64
l1i_wq_size 64
l1i_pq_size 8
l1i_mshr_size 8
l1i_latency 1

l1d_size 32
l1d_set 64
l1d_way 8
l1d_rq_size 64
l1d_wq_size 64
l1d_pq_size 8
l1d_mshr_size 16
l1d_latency 4

l2c_size 256
l2c_set 512
l2c_way 8
l2c_rq_size 32
l2c_wq_size 32
l2c_pq_size 32
l2c_mshr_size 32
l2c_latency 10

llc_size 2048
llc_set 2048
llc_way 16
llc_rq_size 32
llc_wq_size 32
llc_pq_size 32
llc_mshr_size 64
llc_latency 20

dram_channel_width 8
dram_wq_size 64
dram_rq_size 64
tRP 15
tRCD 15
tCAS 12.5
dram_dbus_turn_around_time 30
dram_write_high_wm 56
dram_write_low_wm 48
min_dram_writes_per_switch 16
dram_mtps 1200
dram_dbus_return_time 26

bingo_region_size 2048
bingo_pattern_len 32
bingo_pc_width 16
bingo_min_addr_width 5
bingo_max_addr_width 16
bingo_ft_size 64
bingo_at_size 128
bingo_pht_size 4096
bingo_pht_ways 16
bingo_pf_streamer_size 128
bingo_debug_level 0
bingo_l1d_thresh 1.01
bingo_l2c_thresh 0.8
bingo_llc_thresh 0.05
bingo_pc_address_fill_level L2


Heartbeat CPU  0 instructions:    1000000 cycles:     453084 heartbeat IPC: 2.20710 cumulative IPC: 2.20710 (Simulation time: 0 hr 0 min 2 sec) 
Heartbeat CPU  0 instructions:    2000000 cycles:     861369 heartbeat IPC: 2.44927 cumulative IPC: 2.32189 (Simulation time: 0 hr 0 min 3 sec) 
Heartbeat CPU  0 instructions:    3000003 cycles:    1299566 heartbeat IPC: 2.28209 cumulative IPC: 2.30847 (Simulation time: 0 hr 0 min 5 sec) 
Heartbeat CPU  0 instructions:    4000000 cycles:    1765828 heartbeat IPC: 2.14471 cumulative IPC: 2.26523 (Simulation time: 0 hr 0 min 6 sec) 
Heartbeat CPU  0 instructions:    5000000 cycles:    2181333 heartbeat IPC: 2.40671 cumulative IPC: 2.29218 (Simulation time: 0 hr 0 min 8 sec) 
Heartbeat CPU  0 instructions:    6000000 cycles:    2658686 heartbeat IPC: 2.09489 cumulative IPC: 2.25675 (Simulation time: 0 hr 0 min 9 sec) 
Heartbeat CPU  0 instructions:    7000002 cycles:    3082332 heartbeat IPC: 2.36047 cumulative IPC: 2.27101 (Simulation time: 0 hr 0 min 11 sec) 
Heartbeat CPU  0 instructions:    8000000 cycles:    3488536 heartbeat IPC: 2.46181 cumulative IPC: 2.29323 (Simulation time: 0 hr 0 min 12 sec) 
Heartbeat CPU  0 instructions:    9000003 cycles:    3937202 heartbeat IPC: 2.22884 cumulative IPC: 2.28589 (Simulation time: 0 hr 0 min 14 sec) 
Heartbeat CPU  0 instructions:   10000001 cycles:    4377880 heartbeat IPC: 2.26923 cumulative IPC: 2.28421 (Simulation time: 0 hr 0 min 15 sec) 
Heartbeat CPU  0 instructions:   11000000 cycles:    4782094 heartbeat IPC: 2.47393 cumulative IPC: 2.30025 (Simulation time: 0 hr 0 min 17 sec) 
Heartbeat CPU  0 instructions:   12000000 cycles:    5196328 heartbeat IPC: 2.41409 cumulative IPC: 2.30932 (Simulation time: 0 hr 0 min 18 sec) 
Heartbeat CPU  0 instructions:   13000001 cycles:    5649470 heartbeat IPC: 2.20682 cumulative IPC: 2.30110 (Simulation time: 0 hr 0 min 20 sec) 
Heartbeat CPU  0 instructions:   14000003 cycles:    6084781 heartbeat IPC: 2.29721 cumulative IPC: 2.30082 (Simulation time: 0 hr 0 min 21 sec) 
Heartbeat CPU  0 instructions:   15000000 cycles:    6489885 heartbeat IPC: 2.46849 cumulative IPC: 2.31129 (Simulation time: 0 hr 0 min 23 sec) 
Heartbeat CPU  0 instructions:   16000000 cycles:    6910111 heartbeat IPC: 2.37967 cumulative IPC: 2.31545 (Simulation time: 0 hr 0 min 24 sec) 
Heartbeat CPU  0 instructions:   17000001 cycles:    7353091 heartbeat IPC: 2.25744 cumulative IPC: 2.31195 (Simulation time: 0 hr 0 min 26 sec) 
Heartbeat CPU  0 instructions:   18000000 cycles:    7788399 heartbeat IPC: 2.29722 cumulative IPC: 2.31113 (Simulation time: 0 hr 0 min 27 sec) 
Heartbeat CPU  0 instructions:   19000001 cycles:    8188992 heartbeat IPC: 2.49630 cumulative IPC: 2.32019 (Simulation time: 0 hr 0 min 29 sec) 
Heartbeat CPU  0 instructions:   20000000 cycles:    8635742 heartbeat IPC: 2.23839 cumulative IPC: 2.31596 (Simulation time: 0 hr 0 min 30 sec) 
Heartbeat CPU  0 instructions:   21000001 cycles:    9080945 heartbeat IPC: 2.24617 cumulative IPC: 2.31253 (Simulation time: 0 hr 0 min 32 sec) 
Heartbeat CPU  0 instructions:   22000000 cycles:    9481672 heartbeat IPC: 2.49546 cumulative IPC: 2.32027 (Simulation time: 0 hr 0 min 33 sec) 
Heartbeat CPU  0 instructions:   23000003 cycles:    9895966 heartbeat IPC: 2.41375 cumulative IPC: 2.32418 (Simulation time: 0 hr 0 min 35 sec) 
Heartbeat CPU  0 instructions:   24000000 cycles:   10338226 heartbeat IPC: 2.26111 cumulative IPC: 2.32148 (Simulation time: 0 hr 0 min 36 sec) 
Heartbeat CPU  0 instructions:   25000000 cycles:   10787222 heartbeat IPC: 2.22719 cumulative IPC: 2.31756 (Simulation time: 0 hr 0 min 38 sec) 
Heartbeat CPU  0 instructions:   26000000 cycles:   11183530 heartbeat IPC: 2.52329 cumulative IPC: 2.32485 (Simulation time: 0 hr 0 min 39 sec) 
Heartbeat CPU  0 instructions:   27000001 cycles:   11598360 heartbeat IPC: 2.41063 cumulative IPC: 2.32792 (Simulation time: 0 hr 0 min 41 sec) 
Heartbeat CPU  0 instructions:   28000000 cycles:   12046133 heartbeat IPC: 2.23327 cumulative IPC: 2.32440 (Simulation time: 0 hr 0 min 42 sec) 
Heartbeat CPU  0 instructions:   29000000 cycles:   12479029 heartbeat IPC: 2.31002 cumulative IPC: 2.32390 (Simulation time: 0 hr 0 min 44 sec) 
Heartbeat CPU  0 instructions:   30000003 cycles:   12886833 heartbeat IPC: 2.45217 cumulative IPC: 2.32796 (Simulation time: 0 hr 0 min 45 sec) 
Heartbeat CPU  0 instructions:   31000003 cycles:   13377106 heartbeat IPC: 2.03968 cumulative IPC: 2.31739 (Simulation time: 0 hr 0 min 47 sec) 
Heartbeat CPU  0 instructions:   32000000 cycles:   13779817 heartbeat IPC: 2.48316 cumulative IPC: 2.32224 (Simulation time: 0 hr 0 min 48 sec) 
Heartbeat CPU  0 instructions:   33000001 cycles:   14203809 heartbeat IPC: 2.35854 cumulative IPC: 2.32332 (Simulation time: 0 hr 0 min 50 sec) 
Heartbeat CPU  0 instructions:   34000003 cycles:   14655958 heartbeat IPC: 2.21166 cumulative IPC: 2.31988 (Simulation time: 0 hr 0 min 51 sec) 
Heartbeat CPU  0 instructions:   35000002 cycles:   15077391 heartbeat IPC: 2.37285 cumulative IPC: 2.32136 (Simulation time: 0 hr 0 min 53 sec) 
Heartbeat CPU  0 instructions:   36000000 cycles:   15474623 heartbeat IPC: 2.51742 cumulative IPC: 2.32639 (Simulation time: 0 hr 0 min 54 sec) 
Heartbeat CPU  0 instructions:   37000001 cycles:   15910068 heartbeat IPC: 2.29650 cumulative IPC: 2.32557 (Simulation time: 0 hr 0 min 56 sec) 
Heartbeat CPU  0 instructions:   38000000 cycles:   16358293 heartbeat IPC: 2.23102 cumulative IPC: 2.32298 (Simulation time: 0 hr 0 min 57 sec) 
Heartbeat CPU  0 instructions:   39000000 cycles:   16774588 heartbeat IPC: 2.40214 cumulative IPC: 2.32495 (Simulation time: 0 hr 0 min 59 sec) 
Heartbeat CPU  0 instructions:   40000000 cycles:   17173089 heartbeat IPC: 2.50940 cumulative IPC: 2.32923 (Simulation time: 0 hr 1 min 0 sec) 
Heartbeat CPU  0 instructions:   41000003 cycles:   17615196 heartbeat IPC: 2.26190 cumulative IPC: 2.32754 (Simulation time: 0 hr 1 min 2 sec) 
Heartbeat CPU  0 instructions:   42000003 cycles:   18057475 heartbeat IPC: 2.26102 cumulative IPC: 2.32591 (Simulation time: 0 hr 1 min 3 sec) 
Heartbeat CPU  0 instructions:   43000002 cycles:   18463688 heartbeat IPC: 2.46176 cumulative IPC: 2.32890 (Simulation time: 0 hr 1 min 5 sec) 
Heartbeat CPU  0 instructions:   44000000 cycles:   18914097 heartbeat IPC: 2.22020 cumulative IPC: 2.32631 (Simulation time: 0 hr 1 min 6 sec) 
Heartbeat CPU  0 instructions:   45000000 cycles:   19361896 heartbeat IPC: 2.23314 cumulative IPC: 2.32415 (Simulation time: 0 hr 1 min 8 sec) 
Heartbeat CPU  0 instructions:   46000003 cycles:   19775249 heartbeat IPC: 2.41925 cumulative IPC: 2.32614 (Simulation time: 0 hr 1 min 9 sec) 
Heartbeat CPU  0 instructions:   47000003 cycles:   20228651 heartbeat IPC: 2.20555 cumulative IPC: 2.32344 (Simulation time: 0 hr 1 min 11 sec) 
Heartbeat CPU  0 instructions:   48000000 cycles:   20652379 heartbeat IPC: 2.36000 cumulative IPC: 2.32419 (Simulation time: 0 hr 1 min 12 sec) 
Heartbeat CPU  0 instructions:   49000003 cycles:   21061111 heartbeat IPC: 2.44660 cumulative IPC: 2.32656 (Simulation time: 0 hr 1 min 14 sec) 
Heartbeat CPU  0 instructions:   50000000 cycles:   21501411 heartbeat IPC: 2.27117 cumulative IPC: 2.32543 (Simulation time: 0 hr 1 min 15 sec) 
Heartbeat CPU  0 instructions:   51000003 cycles:   21938443 heartbeat IPC: 2.28817 cumulative IPC: 2.32469 (Simulation time: 0 hr 1 min 17 sec) 
Heartbeat CPU  0 instructions:   52000000 cycles:   22345793 heartbeat IPC: 2.45488 cumulative IPC: 2.32706 (Simulation time: 0 hr 1 min 18 sec) 
Heartbeat CPU  0 instructions:   53000000 cycles:   22761244 heartbeat IPC: 2.40702 cumulative IPC: 2.32852 (Simulation time: 0 hr 1 min 20 sec) 
Heartbeat CPU  0 instructions:   54000001 cycles:   23201109 heartbeat IPC: 2.27343 cumulative IPC: 2.32748 (Simulation time: 0 hr 1 min 21 sec) 
Heartbeat CPU  0 instructions:   55000001 cycles:   23636075 heartbeat IPC: 2.29903 cumulative IPC: 2.32695 (Simulation time: 0 hr 1 min 23 sec) 
Heartbeat CPU  0 instructions:   56000000 cycles:   24043395 heartbeat IPC: 2.45507 cumulative IPC: 2.32912 (Simulation time: 0 hr 1 min 24 sec) 
Heartbeat CPU  0 instructions:   57000003 cycles:   24459138 heartbeat IPC: 2.40534 cumulative IPC: 2.33042 (Simulation time: 0 hr 1 min 26 sec) 
Heartbeat CPU  0 instructions:   58000001 cycles:   24906336 heartbeat IPC: 2.23614 cumulative IPC: 2.32872 (Simulation time: 0 hr 1 min 27 sec) 
Heartbeat CPU  0 instructions:   59000000 cycles:   25337016 heartbeat IPC: 2.32191 cumulative IPC: 2.32861 (Simulation time: 0 hr 1 min 29 sec) 
Heartbeat CPU  0 instructions:   60000000 cycles:   25732728 heartbeat IPC: 2.52709 cumulative IPC: 2.33166 (Simulation time: 0 hr 1 min 30 sec) 
Heartbeat CPU  0 instructions:   61000001 cycles:   26184427 heartbeat IPC: 2.21387 cumulative IPC: 2.32963 (Simulation time: 0 hr 1 min 32 sec) 
Heartbeat CPU  0 instructions:   62000001 cycles:   26622503 heartbeat IPC: 2.28271 cumulative IPC: 2.32886 (Simulation time: 0 hr 1 min 33 sec) 
Heartbeat CPU  0 instructions:   63000000 cycles:   27026528 heartbeat IPC: 2.47509 cumulative IPC: 2.33104 (Simulation time: 0 hr 1 min 35 sec) 
Heartbeat CPU  0 instructions:   64000000 cycles:   27436167 heartbeat IPC: 2.44117 cumulative IPC: 2.33269 (Simulation time: 0 hr 1 min 36 sec) 
Heartbeat CPU  0 instructions:   65000001 cycles:   27884148 heartbeat IPC: 2.23224 cumulative IPC: 2.33107 (Simulation time: 0 hr 1 min 38 sec) 
Heartbeat CPU  0 instructions:   66000003 cycles:   28322576 heartbeat IPC: 2.28088 cumulative IPC: 2.33030 (Simulation time: 0 hr 1 min 39 sec) 
Heartbeat CPU  0 instructions:   67000000 cycles:   28721905 heartbeat IPC: 2.50419 cumulative IPC: 2.33271 (Simulation time: 0 hr 1 min 41 sec) 
Heartbeat CPU  0 instructions:   68000000 cycles:   29138079 heartbeat IPC: 2.40284 cumulative IPC: 2.33372 (Simulation time: 0 hr 1 min 42 sec) 
Heartbeat CPU  0 instructions:   69000001 cycles:   29579464 heartbeat IPC: 2.26560 cumulative IPC: 2.33270 (Simulation time: 0 hr 1 min 44 sec) 
Heartbeat CPU  0 instructions:   70000001 cycles:   30012952 heartbeat IPC: 2.30687 cumulative IPC: 2.33233 (Simulation time: 0 hr 1 min 45 sec) 
Heartbeat CPU  0 instructions:   71000003 cycles:   30438291 heartbeat IPC: 2.35107 cumulative IPC: 2.33259 (Simulation time: 0 hr 1 min 47 sec) 
Heartbeat CPU  0 instructions:   72000000 cycles:   30913952 heartbeat IPC: 2.10233 cumulative IPC: 2.32905 (Simulation time: 0 hr 1 min 48 sec) 
Heartbeat CPU  0 instructions:   73000001 cycles:   31310388 heartbeat IPC: 2.52248 cumulative IPC: 2.33149 (Simulation time: 0 hr 1 min 50 sec) 
Heartbeat CPU  0 instructions:   74000000 cycles:   31750220 heartbeat IPC: 2.27359 cumulative IPC: 2.33069 (Simulation time: 0 hr 1 min 51 sec) 
Heartbeat CPU  0 instructions:   75000003 cycles:   32201434 heartbeat IPC: 2.21625 cumulative IPC: 2.32909 (Simulation time: 0 hr 1 min 53 sec) 
Heartbeat CPU  0 instructions:   76000000 cycles:   32602401 heartbeat IPC: 2.49396 cumulative IPC: 2.33112 (Simulation time: 0 hr 1 min 54 sec) 
Heartbeat CPU  0 instructions:   77000001 cycles:   33019292 heartbeat IPC: 2.39871 cumulative IPC: 2.33197 (Simulation time: 0 hr 1 min 56 sec) 
Heartbeat CPU  0 instructions:   78000001 cycles:   33454445 heartbeat IPC: 2.29804 cumulative IPC: 2.33153 (Simulation time: 0 hr 1 min 57 sec) 
Heartbeat CPU  0 instructions:   79000000 cycles:   33900915 heartbeat IPC: 2.23979 cumulative IPC: 2.33032 (Simulation time: 0 hr 1 min 59 sec) 
Heartbeat CPU  0 instructions:   80000000 cycles:   34296996 heartbeat IPC: 2.52474 cumulative IPC: 2.33257 (Simulation time: 0 hr 2 min 0 sec) 
Heartbeat CPU  0 instructions:   81000003 cycles:   34714862 heartbeat IPC: 2.39312 cumulative IPC: 2.33329 (Simulation time: 0 hr 2 min 2 sec) 
Heartbeat CPU  0 instructions:   82000003 cycles:   35156175 heartbeat IPC: 2.26597 cumulative IPC: 2.33245 (Simulation time: 0 hr 2 min 3 sec) 
Heartbeat CPU  0 instructions:   83000000 cycles:   35591297 heartbeat IPC: 2.29820 cumulative IPC: 2.33203 (Simulation time: 0 hr 2 min 5 sec) 
Heartbeat CPU  0 instructions:   84000000 cycles:   35984709 heartbeat IPC: 2.54186 cumulative IPC: 2.33432 (Simulation time: 0 hr 2 min 6 sec) 
Heartbeat CPU  0 instructions:   85000000 cycles:   36425197 heartbeat IPC: 2.27021 cumulative IPC: 2.33355 (Simulation time: 0 hr 2 min 8 sec) 
Heartbeat CPU  0 instructions:   86000001 cycles:   36865991 heartbeat IPC: 2.26864 cumulative IPC: 2.33277 (Simulation time: 0 hr 2 min 9 sec) 
Heartbeat CPU  0 instructions:   87000002 cycles:   37277362 heartbeat IPC: 2.43090 cumulative IPC: 2.33386 (Simulation time: 0 hr 2 min 11 sec) 
Heartbeat CPU  0 instructions:   88000000 cycles:   37693357 heartbeat IPC: 2.40387 cumulative IPC: 2.33463 (Simulation time: 0 hr 2 min 12 sec) 
Heartbeat CPU  0 instructions:   89000001 cycles:   38129650 heartbeat IPC: 2.29204 cumulative IPC: 2.33414 (Simulation time: 0 hr 2 min 14 sec) 
Heartbeat CPU  0 instructions:   90000000 cycles:   38564297 heartbeat IPC: 2.30072 cumulative IPC: 2.33376 (Simulation time: 0 hr 2 min 15 sec) 
Heartbeat CPU  0 instructions:   91000000 cycles:   38970332 heartbeat IPC: 2.46284 cumulative IPC: 2.33511 (Simulation time: 0 hr 2 min 17 sec) 
Heartbeat CPU  0 instructions:   92000000 cycles:   39388815 heartbeat IPC: 2.38958 cumulative IPC: 2.33569 (Simulation time: 0 hr 2 min 18 sec) 
Heartbeat CPU  0 instructions:   93000000 cycles:   39822347 heartbeat IPC: 2.30663 cumulative IPC: 2.33537 (Simulation time: 0 hr 2 min 20 sec) 
Heartbeat CPU  0 instructions:   94000002 cycles:   40262493 heartbeat IPC: 2.27198 cumulative IPC: 2.33468 (Simulation time: 0 hr 2 min 21 sec) 
Heartbeat CPU  0 instructions:   95000000 cycles:   40654512 heartbeat IPC: 2.55089 cumulative IPC: 2.33676 (Simulation time: 0 hr 2 min 23 sec) 
Heartbeat CPU  0 instructions:   96000000 cycles:   41088415 heartbeat IPC: 2.30466 cumulative IPC: 2.33643 (Simulation time: 0 hr 2 min 24 sec) 
Heartbeat CPU  0 instructions:   97000001 cycles:   41550970 heartbeat IPC: 2.16191 cumulative IPC: 2.33448 (Simulation time: 0 hr 2 min 26 sec) 
Heartbeat CPU  0 instructions:   98000003 cycles:   41970090 heartbeat IPC: 2.38596 cumulative IPC: 2.33500 (Simulation time: 0 hr 2 min 27 sec) 
Heartbeat CPU  0 instructions:   99000001 cycles:   42412456 heartbeat IPC: 2.26057 cumulative IPC: 2.33422 (Simulation time: 0 hr 2 min 29 sec) 
Heartbeat CPU  0 instructions:  100000000 cycles:   42843644 heartbeat IPC: 2.31917 cumulative IPC: 2.33407 (Simulation time: 0 hr 2 min 30 sec) 

Warmup complete CPU  0 instructions:  100000001 cycles:   42843645 (Simulation time: 0 hr 2 min 30 sec) 

Heartbeat CPU  0 instructions:  101000001 cycles:   43519433 heartbeat IPC: 1.47975 cumulative IPC: 1.47975 (Simulation time: 0 hr 2 min 32 sec) 
Heartbeat CPU  0 instructions:  102000003 cycles:   44204736 heartbeat IPC: 1.45921 cumulative IPC: 1.46941 (Simulation time: 0 hr 2 min 34 sec) 
Heartbeat CPU  0 instructions:  103000003 cycles:   44887399 heartbeat IPC: 1.46485 cumulative IPC: 1.46789 (Simulation time: 0 hr 2 min 35 sec) 
Heartbeat CPU  0 instructions:  104000000 cycles:   45570407 heartbeat IPC: 1.46411 cumulative IPC: 1.46694 (Simulation time: 0 hr 2 min 37 sec) 
Heartbeat CPU  0 instructions:  105000001 cycles:   46259181 heartbeat IPC: 1.45186 cumulative IPC: 1.46390 (Simulation time: 0 hr 2 min 39 sec) 
Heartbeat CPU  0 instructions:  106000000 cycles:   46940390 heartbeat IPC: 1.46798 cumulative IPC: 1.46458 (Simulation time: 0 hr 2 min 40 sec) 
Heartbeat CPU  0 instructions:  107000001 cycles:   47621102 heartbeat IPC: 1.46905 cumulative IPC: 1.46521 (Simulation time: 0 hr 2 min 42 sec) 
Heartbeat CPU  0 instructions:  108000000 cycles:   48336911 heartbeat IPC: 1.39702 cumulative IPC: 1.45633 (Simulation time: 0 hr 2 min 44 sec) 
Heartbeat CPU  0 instructions:  109000001 cycles:   49011861 heartbeat IPC: 1.48159 cumulative IPC: 1.45909 (Simulation time: 0 hr 2 min 46 sec) 
Heartbeat CPU  0 instructions:  110000003 cycles:   49791560 heartbeat IPC: 1.28255 cumulative IPC: 1.43928 (Simulation time: 0 hr 2 min 47 sec) 
Heartbeat CPU  0 instructions:  111000000 cycles:   50640110 heartbeat IPC: 1.17848 cumulative IPC: 1.41090 (Simulation time: 0 hr 2 min 49 sec) 
Heartbeat CPU  0 instructions:  112000000 cycles:   51445555 heartbeat IPC: 1.24155 cumulative IPC: 1.39504 (Simulation time: 0 hr 2 min 51 sec) 
Heartbeat CPU  0 instructions:  113000003 cycles:   52147290 heartbeat IPC: 1.42504 cumulative IPC: 1.39730 (Simulation time: 0 hr 2 min 53 sec) 
Heartbeat CPU  0 instructions:  114000001 cycles:   52847675 heartbeat IPC: 1.42778 cumulative IPC: 1.39944 (Simulation time: 0 hr 2 min 54 sec) 
Heartbeat CPU  0 instructions:  115000002 cycles:   53565986 heartbeat IPC: 1.39216 cumulative IPC: 1.39895 (Simulation time: 0 hr 2 min 56 sec) 
Heartbeat CPU  0 instructions:  116000000 cycles:   54252488 heartbeat IPC: 1.45666 cumulative IPC: 1.40242 (Simulation time: 0 hr 2 min 58 sec) 
Heartbeat CPU  0 instructions:  117000000 cycles:   54921069 heartbeat IPC: 1.49571 cumulative IPC: 1.40758 (Simulation time: 0 hr 2 min 59 sec) 
Heartbeat CPU  0 instructions:  118000000 cycles:   55570622 heartbeat IPC: 1.53952 cumulative IPC: 1.41432 (Simulation time: 0 hr 3 min 1 sec) 
Heartbeat CPU  0 instructions:  119000002 cycles:   56295480 heartbeat IPC: 1.37958 cumulative IPC: 1.41245 (Simulation time: 0 hr 3 min 3 sec) 
Heartbeat CPU  0 instructions:  120000000 cycles:   56971881 heartbeat IPC: 1.47841 cumulative IPC: 1.41560 (Simulation time: 0 hr 3 min 5 sec) 
Heartbeat CPU  0 instructions:  121000002 cycles:   57639608 heartbeat IPC: 1.49762 cumulative IPC: 1.41931 (Simulation time: 0 hr 3 min 6 sec) 
Heartbeat CPU  0 instructions:  122000000 cycles:   58312645 heartbeat IPC: 1.48580 cumulative IPC: 1.42220 (Simulation time: 0 hr 3 min 8 sec) 
Heartbeat CPU  0 instructions:  123000002 cycles:   59037645 heartbeat IPC: 1.37931 cumulative IPC: 1.42028 (Simulation time: 0 hr 3 min 10 sec) 
Heartbeat CPU  0 instructions:  124000000 cycles:   59779135 heartbeat IPC: 1.34863 cumulative IPC: 1.41714 (Simulation time: 0 hr 3 min 12 sec) 
Heartbeat CPU  0 instructions:  125000000 cycles:   60453457 heartbeat IPC: 1.48297 cumulative IPC: 1.41966 (Simulation time: 0 hr 3 min 13 sec) 
Heartbeat CPU  0 instructions:  126000000 cycles:   61163091 heartbeat IPC: 1.40918 cumulative IPC: 1.41926 (Simulation time: 0 hr 3 min 15 sec) 
Heartbeat CPU  0 instructions:  127000003 cycles:   61883167 heartbeat IPC: 1.38875 cumulative IPC: 1.41810 (Simulation time: 0 hr 3 min 17 sec) 
Heartbeat CPU  0 instructions:  128000000 cycles:   62556710 heartbeat IPC: 1.48468 cumulative IPC: 1.42038 (Simulation time: 0 hr 3 min 18 sec) 
Heartbeat CPU  0 instructions:  129000001 cycles:   63203927 heartbeat IPC: 1.54508 cumulative IPC: 1.42434 (Simulation time: 0 hr 3 min 20 sec) 
Heartbeat CPU  0 instructions:  130000001 cycles:   63891700 heartbeat IPC: 1.45397 cumulative IPC: 1.42531 (Simulation time: 0 hr 3 min 22 sec) 
Heartbeat CPU  0 instructions:  131000002 cycles:   64608920 heartbeat IPC: 1.39427 cumulative IPC: 1.42429 (Simulation time: 0 hr 3 min 24 sec) 
Heartbeat CPU  0 instructions:  132000000 cycles:   65271113 heartbeat IPC: 1.51013 cumulative IPC: 1.42682 (Simulation time: 0 hr 3 min 25 sec) 
Heartbeat CPU  0 instructions:  133000003 cycles:   65921225 heartbeat IPC: 1.53820 cumulative IPC: 1.42996 (Simulation time: 0 hr 3 min 27 sec) 
Heartbeat CPU  0 instructions:  134000001 cycles:   66649565 heartbeat IPC: 1.37298 cumulative IPC: 1.42822 (Simulation time: 0 hr 3 min 29 sec) 
Heartbeat CPU  0 instructions:  135000001 cycles:   67357208 heartbeat IPC: 1.41314 cumulative IPC: 1.42778 (Simulation time: 0 hr 3 min 30 sec) 
Heartbeat CPU  0 instructions:  136000000 cycles:   68103285 heartbeat IPC: 1.34034 cumulative IPC: 1.42520 (Simulation time: 0 hr 3 min 32 sec) 
Heartbeat CPU  0 instructions:  137000003 cycles:   68991353 heartbeat IPC: 1.12604 cumulative IPC: 1.41504 (Simulation time: 0 hr 3 min 34 sec) 
Heartbeat CPU  0 instructions:  138000002 cycles:   69705866 heartbeat IPC: 1.39955 cumulative IPC: 1.41463 (Simulation time: 0 hr 3 min 36 sec) 
Heartbeat CPU  0 instructions:  139000002 cycles:   70367382 heartbeat IPC: 1.51168 cumulative IPC: 1.41696 (Simulation time: 0 hr 3 min 37 sec) 
Heartbeat CPU  0 instructions:  140000000 cycles:   71125216 heartbeat IPC: 1.31955 cumulative IPC: 1.41435 (Simulation time: 0 hr 3 min 39 sec) 
Heartbeat CPU  0 instructions:  141000001 cycles:   71813150 heartbeat IPC: 1.45363 cumulative IPC: 1.41528 (Simulation time: 0 hr 3 min 41 sec) 
Heartbeat CPU  0 instructions:  142000001 cycles:   72475260 heartbeat IPC: 1.51032 cumulative IPC: 1.41741 (Simulation time: 0 hr 3 min 43 sec) 
Heartbeat CPU  0 instructions:  143000002 cycles:   73135114 heartbeat IPC: 1.51549 cumulative IPC: 1.41954 (Simulation time: 0 hr 3 min 44 sec) 
Heartbeat CPU  0 instructions:  144000000 cycles:   73848254 heartbeat IPC: 1.40225 cumulative IPC: 1.41914 (Simulation time: 0 hr 3 min 46 sec) 
Heartbeat CPU  0 instructions:  145000003 cycles:   74537780 heartbeat IPC: 1.45028 cumulative IPC: 1.41982 (Simulation time: 0 hr 3 min 48 sec) 
Heartbeat CPU  0 instructions:  146000000 cycles:   75194942 heartbeat IPC: 1.52169 cumulative IPC: 1.42189 (Simulation time: 0 hr 3 min 49 sec) 
Heartbeat CPU  0 instructions:  147000003 cycles:   75884316 heartbeat IPC: 1.45060 cumulative IPC: 1.42249 (Simulation time: 0 hr 3 min 51 sec) 
Heartbeat CPU  0 instructions:  148000000 cycles:   76591163 heartbeat IPC: 1.41473 cumulative IPC: 1.42233 (Simulation time: 0 hr 3 min 53 sec) 
Heartbeat CPU  0 instructions:  149000001 cycles:   77329161 heartbeat IPC: 1.35502 cumulative IPC: 1.42089 (Simulation time: 0 hr 3 min 55 sec) 
Heartbeat CPU  0 instructions:  150000003 cycles:   78137015 heartbeat IPC: 1.23785 cumulative IPC: 1.41670 (Simulation time: 0 hr 3 min 56 sec) 
Heartbeat CPU  0 instructions:  151000000 cycles:   78937425 heartbeat IPC: 1.24936 cumulative IPC: 1.41299 (Simulation time: 0 hr 3 min 58 sec) 
Heartbeat CPU  0 instructions:  152000000 cycles:   79676545 heartbeat IPC: 1.35296 cumulative IPC: 1.41178 (Simulation time: 0 hr 4 min 0 sec) 
Heartbeat CPU  0 instructions:  153000001 cycles:   80434295 heartbeat IPC: 1.31970 cumulative IPC: 1.40993 (Simulation time: 0 hr 4 min 2 sec) 
Heartbeat CPU  0 instructions:  154000000 cycles:   81190458 heartbeat IPC: 1.32246 cumulative IPC: 1.40820 (Simulation time: 0 hr 4 min 3 sec) 
Heartbeat CPU  0 instructions:  155000000 cycles:   81965623 heartbeat IPC: 1.29005 cumulative IPC: 1.40586 (Simulation time: 0 hr 4 min 5 sec) 
Heartbeat CPU  0 instructions:  156000000 cycles:   82865399 heartbeat IPC: 1.11139 cumulative IPC: 1.39924 (Simulation time: 0 hr 4 min 7 sec) 
Heartbeat CPU  0 instructions:  157000002 cycles:   83585138 heartbeat IPC: 1.38940 cumulative IPC: 1.39907 (Simulation time: 0 hr 4 min 9 sec) 
Heartbeat CPU  0 instructions:  158000001 cycles:   84449257 heartbeat IPC: 1.15725 cumulative IPC: 1.39404 (Simulation time: 0 hr 4 min 11 sec) 
Heartbeat CPU  0 instructions:  159000001 cycles:   85192713 heartbeat IPC: 1.34507 cumulative IPC: 1.39318 (Simulation time: 0 hr 4 min 12 sec) 
Heartbeat CPU  0 instructions:  160000000 cycles:   85882781 heartbeat IPC: 1.44913 cumulative IPC: 1.39408 (Simulation time: 0 hr 4 min 14 sec) 
Heartbeat CPU  0 instructions:  161000001 cycles:   86594864 heartbeat IPC: 1.40433 cumulative IPC: 1.39425 (Simulation time: 0 hr 4 min 16 sec) 
Heartbeat CPU  0 instructions:  162000003 cycles:   87313045 heartbeat IPC: 1.39241 cumulative IPC: 1.39422 (Simulation time: 0 hr 4 min 17 sec) 
Heartbeat CPU  0 instructions:  163000000 cycles:   87984123 heartbeat IPC: 1.49014 cumulative IPC: 1.39564 (Simulation time: 0 hr 4 min 19 sec) 
Heartbeat CPU  0 instructions:  164000000 cycles:   88691730 heartbeat IPC: 1.41321 cumulative IPC: 1.39591 (Simulation time: 0 hr 4 min 21 sec) 
Heartbeat CPU  0 instructions:  165000001 cycles:   89381418 heartbeat IPC: 1.44993 cumulative IPC: 1.39671 (Simulation time: 0 hr 4 min 23 sec) 
Heartbeat CPU  0 instructions:  166000001 cycles:   90052784 heartbeat IPC: 1.48950 cumulative IPC: 1.39803 (Simulation time: 0 hr 4 min 24 sec) 
Heartbeat CPU  0 instructions:  167000002 cycles:   90772435 heartbeat IPC: 1.38956 cumulative IPC: 1.39791 (Simulation time: 0 hr 4 min 26 sec) 
Heartbeat CPU  0 instructions:  168000000 cycles:   91516143 heartbeat IPC: 1.34461 cumulative IPC: 1.39709 (Simulation time: 0 hr 4 min 28 sec) 
Heartbeat CPU  0 instructions:  169000000 cycles:   92238731 heartbeat IPC: 1.38391 cumulative IPC: 1.39690 (Simulation time: 0 hr 4 min 30 sec) 
Heartbeat CPU  0 instructions:  170000001 cycles:   92911403 heartbeat IPC: 1.48661 cumulative IPC: 1.39811 (Simulation time: 0 hr 4 min 31 sec) 
Heartbeat CPU  0 instructions:  171000000 cycles:   93654872 heartbeat IPC: 1.34504 cumulative IPC: 1.39733 (Simulation time: 0 hr 4 min 33 sec) 
Heartbeat CPU  0 instructions:  172000000 cycles:   94391084 heartbeat IPC: 1.35830 cumulative IPC: 1.39677 (Simulation time: 0 hr 4 min 35 sec) 
Heartbeat CPU  0 instructions:  173000001 cycles:   95078158 heartbeat IPC: 1.45545 cumulative IPC: 1.39754 (Simulation time: 0 hr 4 min 36 sec) 
Heartbeat CPU  0 instructions:  174000000 cycles:   95812223 heartbeat IPC: 1.36228 cumulative IPC: 1.39705 (Simulation time: 0 hr 4 min 38 sec) 
Heartbeat CPU  0 instructions:  175000000 cycles:   96512026 heartbeat IPC: 1.42897 cumulative IPC: 1.39747 (Simulation time: 0 hr 4 min 40 sec) 
Heartbeat CPU  0 instructions:  176000000 cycles:   97231537 heartbeat IPC: 1.38983 cumulative IPC: 1.39737 (Simulation time: 0 hr 4 min 42 sec) 
Heartbeat CPU  0 instructions:  177000002 cycles:   98004753 heartbeat IPC: 1.29330 cumulative IPC: 1.39591 (Simulation time: 0 hr 4 min 43 sec) 
Heartbeat CPU  0 instructions:  178000001 cycles:   98800845 heartbeat IPC: 1.25613 cumulative IPC: 1.39392 (Simulation time: 0 hr 4 min 45 sec) 
Heartbeat CPU  0 instructions:  179000003 cycles:   99543104 heartbeat IPC: 1.34724 cumulative IPC: 1.39331 (Simulation time: 0 hr 4 min 47 sec) 
Heartbeat CPU  0 instructions:  180000000 cycles:  100314211 heartbeat IPC: 1.29683 cumulative IPC: 1.39202 (Simulation time: 0 hr 4 min 49 sec) 
Heartbeat CPU  0 instructions:  181000000 cycles:  101083279 heartbeat IPC: 1.30028 cumulative IPC: 1.39081 (Simulation time: 0 hr 4 min 50 sec) 
Heartbeat CPU  0 instructions:  182000003 cycles:  101849719 heartbeat IPC: 1.30474 cumulative IPC: 1.38969 (Simulation time: 0 hr 4 min 52 sec) 
Heartbeat CPU  0 instructions:  183000002 cycles:  102642664 heartbeat IPC: 1.26112 cumulative IPC: 1.38798 (Simulation time: 0 hr 4 min 54 sec) 
Heartbeat CPU  0 instructions:  184000000 cycles:  103340121 heartbeat IPC: 1.43378 cumulative IPC: 1.38851 (Simulation time: 0 hr 4 min 56 sec) 
Heartbeat CPU  0 instructions:  185000002 cycles:  104074021 heartbeat IPC: 1.36259 cumulative IPC: 1.38820 (Simulation time: 0 hr 4 min 58 sec) 
Heartbeat CPU  0 instructions:  186000000 cycles:  104771119 heartbeat IPC: 1.43452 cumulative IPC: 1.38872 (Simulation time: 0 hr 4 min 59 sec) 
Heartbeat CPU  0 instructions:  187000001 cycles:  105460099 heartbeat IPC: 1.45142 cumulative IPC: 1.38941 (Simulation time: 0 hr 5 min 1 sec) 
Heartbeat CPU  0 instructions:  188000000 cycles:  106267696 heartbeat IPC: 1.23824 cumulative IPC: 1.38749 (Simulation time: 0 hr 5 min 3 sec) 
Heartbeat CPU  0 instructions:  189000000 cycles:  107058559 heartbeat IPC: 1.26444 cumulative IPC: 1.38597 (Simulation time: 0 hr 5 min 5 sec) 
Heartbeat CPU  0 instructions:  190000000 cycles:  107803776 heartbeat IPC: 1.34189 cumulative IPC: 1.38547 (Simulation time: 0 hr 5 min 6 sec) 
Heartbeat CPU  0 instructions:  191000003 cycles:  108571070 heartbeat IPC: 1.30329 cumulative IPC: 1.38451 (Simulation time: 0 hr 5 min 8 sec) 
Heartbeat CPU  0 instructions:  192000000 cycles:  109306670 heartbeat IPC: 1.35943 cumulative IPC: 1.38423 (Simulation time: 0 hr 5 min 10 sec) 
Heartbeat CPU  0 instructions:  193000000 cycles:  110102585 heartbeat IPC: 1.25642 cumulative IPC: 1.38272 (Simulation time: 0 hr 5 min 12 sec) 
Heartbeat CPU  0 instructions:  194000001 cycles:  110904308 heartbeat IPC: 1.24731 cumulative IPC: 1.38112 (Simulation time: 0 hr 5 min 13 sec) 
Heartbeat CPU  0 instructions:  195000001 cycles:  111599510 heartbeat IPC: 1.43843 cumulative IPC: 1.38170 (Simulation time: 0 hr 5 min 15 sec) 
Heartbeat CPU  0 instructions:  196000000 cycles:  112401235 heartbeat IPC: 1.24731 cumulative IPC: 1.38015 (Simulation time: 0 hr 5 min 17 sec) 
Heartbeat CPU  0 instructions:  197000001 cycles:  113155345 heartbeat IPC: 1.32607 cumulative IPC: 1.37957 (Simulation time: 0 hr 5 min 19 sec) 
Heartbeat CPU  0 instructions:  198000002 cycles:  113959164 heartbeat IPC: 1.24406 cumulative IPC: 1.37804 (Simulation time: 0 hr 5 min 20 sec) 
Heartbeat CPU  0 instructions:  199000002 cycles:  114817071 heartbeat IPC: 1.16563 cumulative IPC: 1.37551 (Simulation time: 0 hr 5 min 22 sec) 
Heartbeat CPU  0 instructions:  200000000 cycles:  115600792 heartbeat IPC: 1.27596 cumulative IPC: 1.37444 (Simulation time: 0 hr 5 min 24 sec) 
Heartbeat CPU  0 instructions:  201000000 cycles:  116444758 heartbeat IPC: 1.18488 cumulative IPC: 1.37226 (Simulation time: 0 hr 5 min 26 sec) 
Heartbeat CPU  0 instructions:  202000000 cycles:  117214836 heartbeat IPC: 1.29857 cumulative IPC: 1.37150 (Simulation time: 0 hr 5 min 27 sec) 
Heartbeat CPU  0 instructions:  203000000 cycles:  118094191 heartbeat IPC: 1.13720 cumulative IPC: 1.36876 (Simulation time: 0 hr 5 min 29 sec) 
Heartbeat CPU  0 instructions:  204000000 cycles:  118874894 heartbeat IPC: 1.28090 cumulative IPC: 1.36786 (Simulation time: 0 hr 5 min 31 sec) 
Heartbeat CPU  0 instructions:  205000001 cycles:  119723196 heartbeat IPC: 1.17883 cumulative IPC: 1.36577 (Simulation time: 0 hr 5 min 33 sec) 
Heartbeat CPU  0 instructions:  206000003 cycles:  120491848 heartbeat IPC: 1.30098 cumulative IPC: 1.36513 (Simulation time: 0 hr 5 min 35 sec) 
Heartbeat CPU  0 instructions:  207000003 cycles:  121238701 heartbeat IPC: 1.33895 cumulative IPC: 1.36488 (Simulation time: 0 hr 5 min 36 sec) 
Heartbeat CPU  0 instructions:  208000000 cycles:  121979506 heartbeat IPC: 1.34988 cumulative IPC: 1.36474 (Simulation time: 0 hr 5 min 38 sec) 
Heartbeat CPU  0 instructions:  209000001 cycles:  122760332 heartbeat IPC: 1.28070 cumulative IPC: 1.36392 (Simulation time: 0 hr 5 min 40 sec) 
Heartbeat CPU  0 instructions:  210000003 cycles:  123615025 heartbeat IPC: 1.17001 cumulative IPC: 1.36187 (Simulation time: 0 hr 5 min 42 sec) 
Heartbeat CPU  0 instructions:  211000001 cycles:  124356046 heartbeat IPC: 1.34949 cumulative IPC: 1.36176 (Simulation time: 0 hr 5 min 43 sec) 
Heartbeat CPU  0 instructions:  212000000 cycles:  125070516 heartbeat IPC: 1.39964 cumulative IPC: 1.36209 (Simulation time: 0 hr 5 min 45 sec) 
Heartbeat CPU  0 instructions:  213000000 cycles:  125869939 heartbeat IPC: 1.25090 cumulative IPC: 1.36101 (Simulation time: 0 hr 5 min 47 sec) 
Heartbeat CPU  0 instructions:  214000000 cycles:  126641886 heartbeat IPC: 1.29543 cumulative IPC: 1.36041 (Simulation time: 0 hr 5 min 49 sec) 
Heartbeat CPU  0 instructions:  215000001 cycles:  127477597 heartbeat IPC: 1.19659 cumulative IPC: 1.35879 (Simulation time: 0 hr 5 min 51 sec) 
Heartbeat CPU  0 instructions:  216000000 cycles:  128265535 heartbeat IPC: 1.26913 cumulative IPC: 1.35797 (Simulation time: 0 hr 5 min 52 sec) 
Heartbeat CPU  0 instructions:  217000003 cycles:  129134274 heartbeat IPC: 1.15110 cumulative IPC: 1.35588 (Simulation time: 0 hr 5 min 54 sec) 
Heartbeat CPU  0 instructions:  218000002 cycles:  129898993 heartbeat IPC: 1.30767 cumulative IPC: 1.35546 (Simulation time: 0 hr 5 min 56 sec) 
Heartbeat CPU  0 instructions:  219000001 cycles:  130615565 heartbeat IPC: 1.39553 cumulative IPC: 1.35579 (Simulation time: 0 hr 5 min 58 sec) 
Heartbeat CPU  0 instructions:  220000000 cycles:  131320061 heartbeat IPC: 1.41945 cumulative IPC: 1.35629 (Simulation time: 0 hr 5 min 59 sec) 
Heartbeat CPU  0 instructions:  221000000 cycles:  131989925 heartbeat IPC: 1.49284 cumulative IPC: 1.35732 (Simulation time: 0 hr 6 min 1 sec) 
Heartbeat CPU  0 instructions:  222000003 cycles:  132806419 heartbeat IPC: 1.22475 cumulative IPC: 1.35612 (Simulation time: 0 hr 6 min 3 sec) 
Heartbeat CPU  0 instructions:  223000002 cycles:  133512078 heartbeat IPC: 1.41711 cumulative IPC: 1.35659 (Simulation time: 0 hr 6 min 5 sec) 
Heartbeat CPU  0 instructions:  224000000 cycles:  134191712 heartbeat IPC: 1.47138 cumulative IPC: 1.35745 (Simulation time: 0 hr 6 min 6 sec) 
Heartbeat CPU  0 instructions:  225000000 cycles:  134899728 heartbeat IPC: 1.41240 cumulative IPC: 1.35787 (Simulation time: 0 hr 6 min 8 sec) 
Heartbeat CPU  0 instructions:  226000001 cycles:  135698920 heartbeat IPC: 1.25127 cumulative IPC: 1.35695 (Simulation time: 0 hr 6 min 10 sec) 
Heartbeat CPU  0 instructions:  227000002 cycles:  136377962 heartbeat IPC: 1.47266 cumulative IPC: 1.35779 (Simulation time: 0 hr 6 min 12 sec) 
Heartbeat CPU  0 instructions:  228000000 cycles:  137099737 heartbeat IPC: 1.38547 cumulative IPC: 1.35800 (Simulation time: 0 hr 6 min 13 sec) 
Heartbeat CPU  0 instructions:  229000000 cycles:  137802360 heartbeat IPC: 1.42324 cumulative IPC: 1.35849 (Simulation time: 0 hr 6 min 15 sec) 
Heartbeat CPU  0 instructions:  230000002 cycles:  138508175 heartbeat IPC: 1.41680 cumulative IPC: 1.35892 (Simulation time: 0 hr 6 min 17 sec) 
Heartbeat CPU  0 instructions:  231000000 cycles:  139283452 heartbeat IPC: 1.28986 cumulative IPC: 1.35836 (Simulation time: 0 hr 6 min 19 sec) 
Heartbeat CPU  0 instructions:  232000000 cycles:  140000708 heartbeat IPC: 1.39420 cumulative IPC: 1.35862 (Simulation time: 0 hr 6 min 20 sec) 
Heartbeat CPU  0 instructions:  233000001 cycles:  140687845 heartbeat IPC: 1.45532 cumulative IPC: 1.35930 (Simulation time: 0 hr 6 min 22 sec) 
Heartbeat CPU  0 instructions:  234000003 cycles:  141414149 heartbeat IPC: 1.37684 cumulative IPC: 1.35943 (Simulation time: 0 hr 6 min 24 sec) 
Heartbeat CPU  0 instructions:  235000002 cycles:  142185222 heartbeat IPC: 1.29689 cumulative IPC: 1.35895 (Simulation time: 0 hr 6 min 26 sec) 
Heartbeat CPU  0 instructions:  236000000 cycles:  142881923 heartbeat IPC: 1.43533 cumulative IPC: 1.35948 (Simulation time: 0 hr 6 min 27 sec) 
Heartbeat CPU  0 instructions:  237000002 cycles:  143563153 heartbeat IPC: 1.46794 cumulative IPC: 1.36021 (Simulation time: 0 hr 6 min 29 sec) 
Heartbeat CPU  0 instructions:  238000000 cycles:  144310672 heartbeat IPC: 1.33776 cumulative IPC: 1.36005 (Simulation time: 0 hr 6 min 31 sec) 
Heartbeat CPU  0 instructions:  239000000 cycles:  145058275 heartbeat IPC: 1.33761 cumulative IPC: 1.35988 (Simulation time: 0 hr 6 min 32 sec) 
Heartbeat CPU  0 instructions:  240000000 cycles:  145746933 heartbeat IPC: 1.45210 cumulative IPC: 1.36050 (Simulation time: 0 hr 6 min 34 sec) 
Heartbeat CPU  0 instructions:  241000002 cycles:  146459667 heartbeat IPC: 1.40305 cumulative IPC: 1.36079 (Simulation time: 0 hr 6 min 36 sec) 
Heartbeat CPU  0 instructions:  242000002 cycles:  147194262 heartbeat IPC: 1.36129 cumulative IPC: 1.36080 (Simulation time: 0 hr 6 min 38 sec) 
Heartbeat CPU  0 instructions:  243000002 cycles:  147934306 heartbeat IPC: 1.35127 cumulative IPC: 1.36073 (Simulation time: 0 hr 6 min 39 sec) 
Heartbeat CPU  0 instructions:  244000000 cycles:  148653300 heartbeat IPC: 1.39083 cumulative IPC: 1.36093 (Simulation time: 0 hr 6 min 41 sec) 
Heartbeat CPU  0 instructions:  245000000 cycles:  149352480 heartbeat IPC: 1.43025 cumulative IPC: 1.36139 (Simulation time: 0 hr 6 min 43 sec) 
Heartbeat CPU  0 instructions:  246000000 cycles:  150019359 heartbeat IPC: 1.49952 cumulative IPC: 1.36225 (Simulation time: 0 hr 6 min 45 sec) 
Heartbeat CPU  0 instructions:  247000001 cycles:  150754889 heartbeat IPC: 1.35957 cumulative IPC: 1.36223 (Simulation time: 0 hr 6 min 46 sec) 
Heartbeat CPU  0 instructions:  248000000 cycles:  151567779 heartbeat IPC: 1.23018 cumulative IPC: 1.36124 (Simulation time: 0 hr 6 min 48 sec) 
Heartbeat CPU  0 instructions:  249000000 cycles:  152246426 heartbeat IPC: 1.47352 cumulative IPC: 1.36194 (Simulation time: 0 hr 6 min 50 sec) 
Heartbeat CPU  0 instructions:  250000001 cycles:  152966604 heartbeat IPC: 1.38855 cumulative IPC: 1.36211 (Simulation time: 0 hr 6 min 52 sec) 
Heartbeat CPU  0 instructions:  251000000 cycles:  153662928 heartbeat IPC: 1.43611 cumulative IPC: 1.36258 (Simulation time: 0 hr 6 min 53 sec) 
Heartbeat CPU  0 instructions:  252000000 cycles:  154352504 heartbeat IPC: 1.45017 cumulative IPC: 1.36312 (Simulation time: 0 hr 6 min 55 sec) 
Heartbeat CPU  0 instructions:  253000002 cycles:  155183646 heartbeat IPC: 1.20317 cumulative IPC: 1.36194 (Simulation time: 0 hr 6 min 57 sec) 
Heartbeat CPU  0 instructions:  254000002 cycles:  155886858 heartbeat IPC: 1.42205 cumulative IPC: 1.36231 (Simulation time: 0 hr 6 min 59 sec) 
Heartbeat CPU  0 instructions:  255000000 cycles:  156562855 heartbeat IPC: 1.47929 cumulative IPC: 1.36301 (Simulation time: 0 hr 7 min 0 sec) 
Heartbeat CPU  0 instructions:  256000000 cycles:  157365285 heartbeat IPC: 1.24621 cumulative IPC: 1.36219 (Simulation time: 0 hr 7 min 2 sec) 
Heartbeat CPU  0 instructions:  257000000 cycles:  158067815 heartbeat IPC: 1.42343 cumulative IPC: 1.36256 (Simulation time: 0 hr 7 min 4 sec) 
Heartbeat CPU  0 instructions:  258000002 cycles:  158741418 heartbeat IPC: 1.48456 cumulative IPC: 1.36327 (Simulation time: 0 hr 7 min 6 sec) 
Heartbeat CPU  0 instructions:  259000000 cycles:  159547777 heartbeat IPC: 1.24014 cumulative IPC: 1.36242 (Simulation time: 0 hr 7 min 7 sec) 
Heartbeat CPU  0 instructions:  260000000 cycles:  160251694 heartbeat IPC: 1.42062 cumulative IPC: 1.36277 (Simulation time: 0 hr 7 min 9 sec) 
Heartbeat CPU  0 instructions:  261000002 cycles:  160928093 heartbeat IPC: 1.47842 cumulative IPC: 1.36343 (Simulation time: 0 hr 7 min 11 sec) 
Heartbeat CPU  0 instructions:  262000000 cycles:  161729489 heartbeat IPC: 1.24782 cumulative IPC: 1.36265 (Simulation time: 0 hr 7 min 13 sec) 
Heartbeat CPU  0 instructions:  263000002 cycles:  162430834 heartbeat IPC: 1.42583 cumulative IPC: 1.36302 (Simulation time: 0 hr 7 min 14 sec) 
Heartbeat CPU  0 instructions:  264000000 cycles:  163105013 heartbeat IPC: 1.48328 cumulative IPC: 1.36370 (Simulation time: 0 hr 7 min 16 sec) 
Heartbeat CPU  0 instructions:  265000000 cycles:  163908005 heartbeat IPC: 1.24534 cumulative IPC: 1.36291 (Simulation time: 0 hr 7 min 18 sec) 
Heartbeat CPU  0 instructions:  266000000 cycles:  164608818 heartbeat IPC: 1.42691 cumulative IPC: 1.36328 (Simulation time: 0 hr 7 min 19 sec) 
Heartbeat CPU  0 instructions:  267000002 cycles:  165282632 heartbeat IPC: 1.48409 cumulative IPC: 1.36394 (Simulation time: 0 hr 7 min 21 sec) 
Heartbeat CPU  0 instructions:  268000000 cycles:  166082242 heartbeat IPC: 1.25061 cumulative IPC: 1.36321 (Simulation time: 0 hr 7 min 23 sec) 
Heartbeat CPU  0 instructions:  269000002 cycles:  166783044 heartbeat IPC: 1.42694 cumulative IPC: 1.36357 (Simulation time: 0 hr 7 min 25 sec) 
Heartbeat CPU  0 instructions:  270000002 cycles:  167456614 heartbeat IPC: 1.48463 cumulative IPC: 1.36422 (Simulation time: 0 hr 7 min 26 sec) 
Heartbeat CPU  0 instructions:  271000000 cycles:  168262596 heartbeat IPC: 1.24072 cumulative IPC: 1.36343 (Simulation time: 0 hr 7 min 28 sec) 
Heartbeat CPU  0 instructions:  272000000 cycles:  168962599 heartbeat IPC: 1.42857 cumulative IPC: 1.36379 (Simulation time: 0 hr 7 min 30 sec) 
Heartbeat CPU  0 instructions:  273000002 cycles:  169636561 heartbeat IPC: 1.48377 cumulative IPC: 1.36443 (Simulation time: 0 hr 7 min 32 sec) 
Heartbeat CPU  0 instructions:  274000002 cycles:  170435468 heartbeat IPC: 1.25171 cumulative IPC: 1.36372 (Simulation time: 0 hr 7 min 33 sec) 
Heartbeat CPU  0 instructions:  275000000 cycles:  171136873 heartbeat IPC: 1.42571 cumulative IPC: 1.36406 (Simulation time: 0 hr 7 min 35 sec) 
Heartbeat CPU  0 instructions:  276000000 cycles:  171809420 heartbeat IPC: 1.48688 cumulative IPC: 1.36470 (Simulation time: 0 hr 7 min 37 sec) 
Heartbeat CPU  0 instructions:  277000003 cycles:  172617390 heartbeat IPC: 1.23767 cumulative IPC: 1.36391 (Simulation time: 0 hr 7 min 39 sec) 
Heartbeat CPU  0 instructions:  278000002 cycles:  173323363 heartbeat IPC: 1.41648 cumulative IPC: 1.36420 (Simulation time: 0 hr 7 min 40 sec) 
Heartbeat CPU  0 instructions:  279000001 cycles:  173994574 heartbeat IPC: 1.48984 cumulative IPC: 1.36484 (Simulation time: 0 hr 7 min 42 sec) 
Heartbeat CPU  0 instructions:  280000000 cycles:  174798309 heartbeat IPC: 1.24419 cumulative IPC: 1.36410 (Simulation time: 0 hr 7 min 44 sec) 
Heartbeat CPU  0 instructions:  281000000 cycles:  175500348 heartbeat IPC: 1.42442 cumulative IPC: 1.36442 (Simulation time: 0 hr 7 min 46 sec) 
Heartbeat CPU  0 instructions:  282000002 cycles:  176173582 heartbeat IPC: 1.48537 cumulative IPC: 1.36503 (Simulation time: 0 hr 7 min 47 sec) 
Heartbeat CPU  0 instructions:  283000002 cycles:  176975401 heartbeat IPC: 1.24716 cumulative IPC: 1.36433 (Simulation time: 0 hr 7 min 49 sec) 
Heartbeat CPU  0 instructions:  284000000 cycles:  177678393 heartbeat IPC: 1.42249 cumulative IPC: 1.36463 (Simulation time: 0 hr 7 min 51 sec) 
Heartbeat CPU  0 instructions:  285000000 cycles:  178352854 heartbeat IPC: 1.48267 cumulative IPC: 1.36522 (Simulation time: 0 hr 7 min 52 sec) 
Heartbeat CPU  0 instructions:  286000000 cycles:  179153755 heartbeat IPC: 1.24859 cumulative IPC: 1.36454 (Simulation time: 0 hr 7 min 54 sec) 
Heartbeat CPU  0 instructions:  287000000 cycles:  179858475 heartbeat IPC: 1.41900 cumulative IPC: 1.36482 (Simulation time: 0 hr 7 min 56 sec) 
Heartbeat CPU  0 instructions:  288000000 cycles:  180531282 heartbeat IPC: 1.48631 cumulative IPC: 1.36541 (Simulation time: 0 hr 7 min 58 sec) 
Heartbeat CPU  0 instructions:  289000003 cycles:  181334051 heartbeat IPC: 1.24569 cumulative IPC: 1.36472 (Simulation time: 0 hr 7 min 59 sec) 
Heartbeat CPU  0 instructions:  290000002 cycles:  182039571 heartbeat IPC: 1.41739 cumulative IPC: 1.36498 (Simulation time: 0 hr 8 min 1 sec) 
Heartbeat CPU  0 instructions:  291000001 cycles:  182706783 heartbeat IPC: 1.49877 cumulative IPC: 1.36562 (Simulation time: 0 hr 8 min 3 sec) 
Heartbeat CPU  0 instructions:  292000000 cycles:  183450037 heartbeat IPC: 1.34543 cumulative IPC: 1.36551 (Simulation time: 0 hr 8 min 5 sec) 
Heartbeat CPU  0 instructions:  293000001 cycles:  184164218 heartbeat IPC: 1.40021 cumulative IPC: 1.36569 (Simulation time: 0 hr 8 min 6 sec) 
Heartbeat CPU  0 instructions:  294000001 cycles:  184843896 heartbeat IPC: 1.47128 cumulative IPC: 1.36619 (Simulation time: 0 hr 8 min 8 sec) 
Heartbeat CPU  0 instructions:  295000002 cycles:  185561247 heartbeat IPC: 1.39402 cumulative IPC: 1.36633 (Simulation time: 0 hr 8 min 10 sec) 
Heartbeat CPU  0 instructions:  296000000 cycles:  186278232 heartbeat IPC: 1.39473 cumulative IPC: 1.36648 (Simulation time: 0 hr 8 min 12 sec) 
Heartbeat CPU  0 instructions:  297000001 cycles:  186965668 heartbeat IPC: 1.45468 cumulative IPC: 1.36690 (Simulation time: 0 hr 8 min 13 sec) 
Heartbeat CPU  0 instructions:  298000000 cycles:  187681343 heartbeat IPC: 1.39728 cumulative IPC: 1.36705 (Simulation time: 0 hr 8 min 15 sec) 
Heartbeat CPU  0 instructions:  299000000 cycles:  188401931 heartbeat IPC: 1.38776 cumulative IPC: 1.36715 (Simulation time: 0 hr 8 min 17 sec) 
Heartbeat CPU  0 instructions:  300000000 cycles:  189096837 heartbeat IPC: 1.43904 cumulative IPC: 1.36749 (Simulation time: 0 hr 8 min 18 sec) 
Heartbeat CPU  0 instructions:  301000003 cycles:  189798647 heartbeat IPC: 1.42489 cumulative IPC: 1.36777 (Simulation time: 0 hr 8 min 20 sec) 
Heartbeat CPU  0 instructions:  302000003 cycles:  190517059 heartbeat IPC: 1.39196 cumulative IPC: 1.36788 (Simulation time: 0 hr 8 min 22 sec) 
Heartbeat CPU  0 instructions:  303000002 cycles:  191217970 heartbeat IPC: 1.42671 cumulative IPC: 1.36816 (Simulation time: 0 hr 8 min 24 sec) 
Heartbeat CPU  0 instructions:  304000000 cycles:  191939138 heartbeat IPC: 1.38664 cumulative IPC: 1.36825 (Simulation time: 0 hr 8 min 25 sec) 
Heartbeat CPU  0 instructions:  305000001 cycles:  192629065 heartbeat IPC: 1.44943 cumulative IPC: 1.36862 (Simulation time: 0 hr 8 min 27 sec) 
Heartbeat CPU  0 instructions:  306000003 cycles:  193332666 heartbeat IPC: 1.42126 cumulative IPC: 1.36887 (Simulation time: 0 hr 8 min 29 sec) 
Heartbeat CPU  0 instructions:  307000000 cycles:  194060124 heartbeat IPC: 1.37465 cumulative IPC: 1.36890 (Simulation time: 0 hr 8 min 31 sec) 
Heartbeat CPU  0 instructions:  308000000 cycles:  194740675 heartbeat IPC: 1.46940 cumulative IPC: 1.36935 (Simulation time: 0 hr 8 min 32 sec) 
Heartbeat CPU  0 instructions:  309000002 cycles:  195457409 heartbeat IPC: 1.39522 cumulative IPC: 1.36947 (Simulation time: 0 hr 8 min 34 sec) 
Heartbeat CPU  0 instructions:  310000000 cycles:  196240378 heartbeat IPC: 1.27719 cumulative IPC: 1.36900 (Simulation time: 0 hr 8 min 36 sec) 
Heartbeat CPU  0 instructions:  311000001 cycles:  196919636 heartbeat IPC: 1.47220 cumulative IPC: 1.36945 (Simulation time: 0 hr 8 min 37 sec) 
Heartbeat CPU  0 instructions:  312000000 cycles:  197634049 heartbeat IPC: 1.39975 cumulative IPC: 1.36959 (Simulation time: 0 hr 8 min 39 sec) 
Heartbeat CPU  0 instructions:  313000002 cycles:  198467976 heartbeat IPC: 1.19915 cumulative IPC: 1.36868 (Simulation time: 0 hr 8 min 41 sec) 
Heartbeat CPU  0 instructions:  314000001 cycles:  199211607 heartbeat IPC: 1.34475 cumulative IPC: 1.36857 (Simulation time: 0 hr 8 min 43 sec) 
Heartbeat CPU  0 instructions:  315000000 cycles:  199929609 heartbeat IPC: 1.39275 cumulative IPC: 1.36868 (Simulation time: 0 hr 8 min 44 sec) 
Heartbeat CPU  0 instructions:  316000000 cycles:  200654829 heartbeat IPC: 1.37889 cumulative IPC: 1.36872 (Simulation time: 0 hr 8 min 46 sec) 
Heartbeat CPU  0 instructions:  317000001 cycles:  201445773 heartbeat IPC: 1.26431 cumulative IPC: 1.36820 (Simulation time: 0 hr 8 min 48 sec) 
Heartbeat CPU  0 instructions:  318000001 cycles:  202288231 heartbeat IPC: 1.18700 cumulative IPC: 1.36725 (Simulation time: 0 hr 8 min 50 sec) 
Heartbeat CPU  0 instructions:  319000003 cycles:  202978422 heartbeat IPC: 1.44888 cumulative IPC: 1.36760 (Simulation time: 0 hr 8 min 51 sec) 
Heartbeat CPU  0 instructions:  320000000 cycles:  203684341 heartbeat IPC: 1.41659 cumulative IPC: 1.36781 (Simulation time: 0 hr 8 min 53 sec) 
Heartbeat CPU  0 instructions:  321000001 cycles:  204465396 heartbeat IPC: 1.28032 cumulative IPC: 1.36739 (Simulation time: 0 hr 8 min 55 sec) 
Heartbeat CPU  0 instructions:  322000003 cycles:  205248543 heartbeat IPC: 1.27690 cumulative IPC: 1.36695 (Simulation time: 0 hr 8 min 57 sec) 
Heartbeat CPU  0 instructions:  323000001 cycles:  206032516 heartbeat IPC: 1.27555 cumulative IPC: 1.36651 (Simulation time: 0 hr 8 min 59 sec) 
Heartbeat CPU  0 instructions:  324000000 cycles:  206744481 heartbeat IPC: 1.40456 cumulative IPC: 1.36668 (Simulation time: 0 hr 9 min 0 sec) 
Heartbeat CPU  0 instructions:  325000000 cycles:  207480232 heartbeat IPC: 1.35916 cumulative IPC: 1.36665 (Simulation time: 0 hr 9 min 2 sec) 
Heartbeat CPU  0 instructions:  326000003 cycles:  208276446 heartbeat IPC: 1.25595 cumulative IPC: 1.36611 (Simulation time: 0 hr 9 min 4 sec) 
Heartbeat CPU  0 instructions:  327000000 cycles:  209014514 heartbeat IPC: 1.35488 cumulative IPC: 1.36606 (Simulation time: 0 hr 9 min 5 sec) 
Heartbeat CPU  0 instructions:  328000000 cycles:  209795265 heartbeat IPC: 1.28082 cumulative IPC: 1.36567 (Simulation time: 0 hr 9 min 7 sec) 
Heartbeat CPU  0 instructions:  329000001 cycles:  210591197 heartbeat IPC: 1.25639 cumulative IPC: 1.36515 (Simulation time: 0 hr 9 min 9 sec) 
Heartbeat CPU  0 instructions:  330000001 cycles:  211253399 heartbeat IPC: 1.51011 cumulative IPC: 1.36572 (Simulation time: 0 hr 9 min 11 sec) 
Heartbeat CPU  0 instructions:  331000000 cycles:  211954637 heartbeat IPC: 1.42605 cumulative IPC: 1.36597 (Simulation time: 0 hr 9 min 12 sec) 
Heartbeat CPU  0 instructions:  332000000 cycles:  212672764 heartbeat IPC: 1.39251 cumulative IPC: 1.36608 (Simulation time: 0 hr 9 min 14 sec) 
Heartbeat CPU  0 instructions:  333000001 cycles:  213447992 heartbeat IPC: 1.28994 cumulative IPC: 1.36573 (Simulation time: 0 hr 9 min 16 sec) 
Heartbeat CPU  0 instructions:  334000002 cycles:  214211436 heartbeat IPC: 1.30986 cumulative IPC: 1.36548 (Simulation time: 0 hr 9 min 18 sec) 
Heartbeat CPU  0 instructions:  335000000 cycles:  215028781 heartbeat IPC: 1.22347 cumulative IPC: 1.36481 (Simulation time: 0 hr 9 min 19 sec) 
Heartbeat CPU  0 instructions:  336000000 cycles:  215746269 heartbeat IPC: 1.39375 cumulative IPC: 1.36493 (Simulation time: 0 hr 9 min 21 sec) 
Heartbeat CPU  0 instructions:  337000002 cycles:  216456048 heartbeat IPC: 1.40889 cumulative IPC: 1.36511 (Simulation time: 0 hr 9 min 23 sec) 
Heartbeat CPU  0 instructions:  338000003 cycles:  217244877 heartbeat IPC: 1.26770 cumulative IPC: 1.36467 (Simulation time: 0 hr 9 min 25 sec) 
Heartbeat CPU  0 instructions:  339000002 cycles:  217988870 heartbeat IPC: 1.34410 cumulative IPC: 1.36458 (Simulation time: 0 hr 9 min 26 sec) 
Heartbeat CPU  0 instructions:  340000000 cycles:  218759615 heartbeat IPC: 1.29744 cumulative IPC: 1.36429 (Simulation time: 0 hr 9 min 28 sec) 
Heartbeat CPU  0 instructions:  341000001 cycles:  219557205 heartbeat IPC: 1.25378 cumulative IPC: 1.36379 (Simulation time: 0 hr 9 min 30 sec) 
Heartbeat CPU  0 instructions:  342000003 cycles:  220234454 heartbeat IPC: 1.47656 cumulative IPC: 1.36422 (Simulation time: 0 hr 9 min 31 sec) 
Heartbeat CPU  0 instructions:  343000003 cycles:  220992381 heartbeat IPC: 1.31939 cumulative IPC: 1.36403 (Simulation time: 0 hr 9 min 33 sec) 
Heartbeat CPU  0 instructions:  344000000 cycles:  221719430 heartbeat IPC: 1.37542 cumulative IPC: 1.36408 (Simulation time: 0 hr 9 min 35 sec) 
Heartbeat CPU  0 instructions:  345000003 cycles:  222388102 heartbeat IPC: 1.49551 cumulative IPC: 1.36456 (Simulation time: 0 hr 9 min 37 sec) 
Heartbeat CPU  0 instructions:  346000000 cycles:  223101621 heartbeat IPC: 1.40150 cumulative IPC: 1.36471 (Simulation time: 0 hr 9 min 38 sec) 
Heartbeat CPU  0 instructions:  347000001 cycles:  223832762 heartbeat IPC: 1.36773 cumulative IPC: 1.36472 (Simulation time: 0 hr 9 min 40 sec) 
Heartbeat CPU  0 instructions:  348000000 cycles:  224557806 heartbeat IPC: 1.37923 cumulative IPC: 1.36478 (Simulation time: 0 hr 9 min 42 sec) 
Heartbeat CPU  0 instructions:  349000003 cycles:  225289033 heartbeat IPC: 1.36757 cumulative IPC: 1.36479 (Simulation time: 0 hr 9 min 44 sec) 
Heartbeat CPU  0 instructions:  350000003 cycles:  226005907 heartbeat IPC: 1.39495 cumulative IPC: 1.36491 (Simulation time: 0 hr 9 min 45 sec) 
Heartbeat CPU  0 instructions:  351000002 cycles:  226787268 heartbeat IPC: 1.27982 cumulative IPC: 1.36455 (Simulation time: 0 hr 9 min 47 sec) 
Heartbeat CPU  0 instructions:  352000000 cycles:  227480408 heartbeat IPC: 1.44271 cumulative IPC: 1.36484 (Simulation time: 0 hr 9 min 49 sec) 
Heartbeat CPU  0 instructions:  353000003 cycles:  228221671 heartbeat IPC: 1.34905 cumulative IPC: 1.36478 (Simulation time: 0 hr 9 min 51 sec) 
Heartbeat CPU  0 instructions:  354000002 cycles:  228911453 heartbeat IPC: 1.44973 cumulative IPC: 1.36509 (Simulation time: 0 hr 9 min 52 sec) 
Heartbeat CPU  0 instructions:  355000002 cycles:  229624183 heartbeat IPC: 1.40306 cumulative IPC: 1.36524 (Simulation time: 0 hr 9 min 54 sec) 
Heartbeat CPU  0 instructions:  356000000 cycles:  230383759 heartbeat IPC: 1.31652 cumulative IPC: 1.36504 (Simulation time: 0 hr 9 min 56 sec) 
Heartbeat CPU  0 instructions:  357000002 cycles:  231151867 heartbeat IPC: 1.30190 cumulative IPC: 1.36478 (Simulation time: 0 hr 9 min 57 sec) 
Heartbeat CPU  0 instructions:  358000002 cycles:  231846343 heartbeat IPC: 1.43993 cumulative IPC: 1.36506 (Simulation time: 0 hr 9 min 59 sec) 
Heartbeat CPU  0 instructions:  359000002 cycles:  232557973 heartbeat IPC: 1.40522 cumulative IPC: 1.36521 (Simulation time: 0 hr 10 min 1 sec) 
Heartbeat CPU  0 instructions:  360000000 cycles:  233247753 heartbeat IPC: 1.44973 cumulative IPC: 1.36552 (Simulation time: 0 hr 10 min 3 sec) 
Heartbeat CPU  0 instructions:  361000000 cycles:  233934744 heartbeat IPC: 1.45562 cumulative IPC: 1.36584 (Simulation time: 0 hr 10 min 4 sec) 
Heartbeat CPU  0 instructions:  362000003 cycles:  234666587 heartbeat IPC: 1.36642 cumulative IPC: 1.36584 (Simulation time: 0 hr 10 min 6 sec) 
Heartbeat CPU  0 instructions:  363000000 cycles:  235384111 heartbeat IPC: 1.39368 cumulative IPC: 1.36595 (Simulation time: 0 hr 10 min 8 sec) 
Heartbeat CPU  0 instructions:  364000000 cycles:  236096688 heartbeat IPC: 1.40336 cumulative IPC: 1.36608 (Simulation time: 0 hr 10 min 9 sec) 
Heartbeat CPU  0 instructions:  365000001 cycles:  236823891 heartbeat IPC: 1.37513 cumulative IPC: 1.36612 (Simulation time: 0 hr 10 min 11 sec) 
Heartbeat CPU  0 instructions:  366000003 cycles:  237617099 heartbeat IPC: 1.26071 cumulative IPC: 1.36569 (Simulation time: 0 hr 10 min 13 sec) 
Heartbeat CPU  0 instructions:  367000001 cycles:  238364489 heartbeat IPC: 1.33799 cumulative IPC: 1.36558 (Simulation time: 0 hr 10 min 15 sec) 
Heartbeat CPU  0 instructions:  368000000 cycles:  239169263 heartbeat IPC: 1.24258 cumulative IPC: 1.36508 (Simulation time: 0 hr 10 min 16 sec) 
Heartbeat CPU  0 instructions:  369000000 cycles:  239901910 heartbeat IPC: 1.36491 cumulative IPC: 1.36508 (Simulation time: 0 hr 10 min 18 sec) 
Heartbeat CPU  0 instructions:  370000001 cycles:  240566400 heartbeat IPC: 1.50491 cumulative IPC: 1.36555 (Simulation time: 0 hr 10 min 20 sec) 
Heartbeat CPU  0 instructions:  371000001 cycles:  241292724 heartbeat IPC: 1.37680 cumulative IPC: 1.36559 (Simulation time: 0 hr 10 min 22 sec) 
Heartbeat CPU  0 instructions:  372000000 cycles:  242052762 heartbeat IPC: 1.31572 cumulative IPC: 1.36540 (Simulation time: 0 hr 10 min 23 sec) 
Heartbeat CPU  0 instructions:  373000000 cycles:  242773532 heartbeat IPC: 1.38741 cumulative IPC: 1.36548 (Simulation time: 0 hr 10 min 25 sec) 
Heartbeat CPU  0 instructions:  374000002 cycles:  243531614 heartbeat IPC: 1.31912 cumulative IPC: 1.36530 (Simulation time: 0 hr 10 min 27 sec) 
Heartbeat CPU  0 instructions:  375000000 cycles:  244251058 heartbeat IPC: 1.38996 cumulative IPC: 1.36539 (Simulation time: 0 hr 10 min 29 sec) 
Heartbeat CPU  0 instructions:  376000000 cycles:  244983475 heartbeat IPC: 1.36534 cumulative IPC: 1.36539 (Simulation time: 0 hr 10 min 30 sec) 
Heartbeat CPU  0 instructions:  377000001 cycles:  245695133 heartbeat IPC: 1.40517 cumulative IPC: 1.36553 (Simulation time: 0 hr 10 min 32 sec) 
Heartbeat CPU  0 instructions:  378000003 cycles:  246482772 heartbeat IPC: 1.26962 cumulative IPC: 1.36516 (Simulation time: 0 hr 10 min 34 sec) 
Heartbeat CPU  0 instructions:  379000002 cycles:  247180428 heartbeat IPC: 1.43337 cumulative IPC: 1.36539 (Simulation time: 0 hr 10 min 35 sec) 
Heartbeat CPU  0 instructions:  380000000 cycles:  247908725 heartbeat IPC: 1.37306 cumulative IPC: 1.36542 (Simulation time: 0 hr 10 min 37 sec) 
Heartbeat CPU  0 instructions:  381000000 cycles:  248683080 heartbeat IPC: 1.29140 cumulative IPC: 1.36514 (Simulation time: 0 hr 10 min 39 sec) 
Heartbeat CPU  0 instructions:  382000001 cycles:  249368769 heartbeat IPC: 1.45839 cumulative IPC: 1.36545 (Simulation time: 0 hr 10 min 41 sec) 
Heartbeat CPU  0 instructions:  383000002 cycles:  250075310 heartbeat IPC: 1.41535 cumulative IPC: 1.36562 (Simulation time: 0 hr 10 min 42 sec) 
Heartbeat CPU  0 instructions:  384000000 cycles:  250778964 heartbeat IPC: 1.42115 cumulative IPC: 1.36581 (Simulation time: 0 hr 10 min 44 sec) 
Heartbeat CPU  0 instructions:  385000001 cycles:  251550491 heartbeat IPC: 1.29613 cumulative IPC: 1.36555 (Simulation time: 0 hr 10 min 46 sec) 
Heartbeat CPU  0 instructions:  386000003 cycles:  252300175 heartbeat IPC: 1.33390 cumulative IPC: 1.36544 (Simulation time: 0 hr 10 min 48 sec) 
Heartbeat CPU  0 instructions:  387000002 cycles:  253017563 heartbeat IPC: 1.39394 cumulative IPC: 1.36554 (Simulation time: 0 hr 10 min 49 sec) 
Heartbeat CPU  0 instructions:  388000000 cycles:  253741599 heartbeat IPC: 1.38114 cumulative IPC: 1.36559 (Simulation time: 0 hr 10 min 51 sec) 
Heartbeat CPU  0 instructions:  389000000 cycles:  254400460 heartbeat IPC: 1.51777 cumulative IPC: 1.36606 (Simulation time: 0 hr 10 min 53 sec) 
Heartbeat CPU  0 instructions:  390000003 cycles:  255094587 heartbeat IPC: 1.44066 cumulative IPC: 1.36631 (Simulation time: 0 hr 10 min 54 sec) 
Heartbeat CPU  0 instructions:  391000000 cycles:  255825885 heartbeat IPC: 1.36743 cumulative IPC: 1.36631 (Simulation time: 0 hr 10 min 56 sec) 
Heartbeat CPU  0 instructions:  392000000 cycles:  256545631 heartbeat IPC: 1.38938 cumulative IPC: 1.36639 (Simulation time: 0 hr 10 min 58 sec) 
Heartbeat CPU  0 instructions:  393000000 cycles:  257224259 heartbeat IPC: 1.47356 cumulative IPC: 1.36673 (Simulation time: 0 hr 11 min 0 sec) 
Heartbeat CPU  0 instructions:  394000000 cycles:  257956242 heartbeat IPC: 1.36615 cumulative IPC: 1.36673 (Simulation time: 0 hr 11 min 1 sec) 
Heartbeat CPU  0 instructions:  395000000 cycles:  258722610 heartbeat IPC: 1.30486 cumulative IPC: 1.36651 (Simulation time: 0 hr 11 min 3 sec) 
Heartbeat CPU  0 instructions:  396000000 cycles:  259456084 heartbeat IPC: 1.36337 cumulative IPC: 1.36650 (Simulation time: 0 hr 11 min 5 sec) 
Heartbeat CPU  0 instructions:  397000000 cycles:  260298164 heartbeat IPC: 1.18754 cumulative IPC: 1.36580 (Simulation time: 0 hr 11 min 7 sec) 
Heartbeat CPU  0 instructions:  398000000 cycles:  261001205 heartbeat IPC: 1.42239 cumulative IPC: 1.36599 (Simulation time: 0 hr 11 min 8 sec) 
Heartbeat CPU  0 instructions:  399000003 cycles:  261747853 heartbeat IPC: 1.33932 cumulative IPC: 1.36589 (Simulation time: 0 hr 11 min 10 sec) 
Heartbeat CPU  0 instructions:  400000000 cycles:  262457521 heartbeat IPC: 1.40911 cumulative IPC: 1.36603 (Simulation time: 0 hr 11 min 12 sec) 
Heartbeat CPU  0 instructions:  401000001 cycles:  263180091 heartbeat IPC: 1.38395 cumulative IPC: 1.36609 (Simulation time: 0 hr 11 min 14 sec) 
Heartbeat CPU  0 instructions:  402000003 cycles:  263890933 heartbeat IPC: 1.40679 cumulative IPC: 1.36622 (Simulation time: 0 hr 11 min 15 sec) 
Heartbeat CPU  0 instructions:  403000002 cycles:  264636357 heartbeat IPC: 1.34152 cumulative IPC: 1.36614 (Simulation time: 0 hr 11 min 17 sec) 
Heartbeat CPU  0 instructions:  404000000 cycles:  265403911 heartbeat IPC: 1.30284 cumulative IPC: 1.36592 (Simulation time: 0 hr 11 min 19 sec) 
Heartbeat CPU  0 instructions:  405000002 cycles:  266088672 heartbeat IPC: 1.46037 cumulative IPC: 1.36621 (Simulation time: 0 hr 11 min 20 sec) 
Heartbeat CPU  0 instructions:  406000000 cycles:  266832054 heartbeat IPC: 1.34520 cumulative IPC: 1.36614 (Simulation time: 0 hr 11 min 22 sec) 
Heartbeat CPU  0 instructions:  407000000 cycles:  267557131 heartbeat IPC: 1.37916 cumulative IPC: 1.36618 (Simulation time: 0 hr 11 min 24 sec) 
Heartbeat CPU  0 instructions:  408000000 cycles:  268254571 heartbeat IPC: 1.43382 cumulative IPC: 1.36639 (Simulation time: 0 hr 11 min 26 sec) 
Heartbeat CPU  0 instructions:  409000003 cycles:  269040961 heartbeat IPC: 1.27164 cumulative IPC: 1.36606 (Simulation time: 0 hr 11 min 27 sec) 
Heartbeat CPU  0 instructions:  410000000 cycles:  269756877 heartbeat IPC: 1.39681 cumulative IPC: 1.36616 (Simulation time: 0 hr 11 min 29 sec) 
Heartbeat CPU  0 instructions:  411000003 cycles:  270470142 heartbeat IPC: 1.40201 cumulative IPC: 1.36627 (Simulation time: 0 hr 11 min 31 sec) 
Heartbeat CPU  0 instructions:  412000000 cycles:  271338845 heartbeat IPC: 1.15114 cumulative IPC: 1.36546 (Simulation time: 0 hr 11 min 33 sec) 
Heartbeat CPU  0 instructions:  413000002 cycles:  272205948 heartbeat IPC: 1.15327 cumulative IPC: 1.36465 (Simulation time: 0 hr 11 min 34 sec) 
Heartbeat CPU  0 instructions:  414000001 cycles:  278600106 heartbeat IPC: 0.15639 cumulative IPC: 1.33188 (Simulation time: 0 hr 11 min 39 sec) 
Heartbeat CPU  0 instructions:  415000002 cycles:  281932485 heartbeat IPC: 0.30009 cumulative IPC: 1.31750 (Simulation time: 0 hr 11 min 42 sec) 
Heartbeat CPU  0 instructions:  416000000 cycles:  285132887 heartbeat IPC: 0.31246 cumulative IPC: 1.30423 (Simulation time: 0 hr 11 min 45 sec) 
Heartbeat CPU  0 instructions:  417000001 cycles:  288153895 heartbeat IPC: 0.33102 cumulative IPC: 1.29224 (Simulation time: 0 hr 11 min 48 sec) 
Heartbeat CPU  0 instructions:  418000001 cycles:  291545404 heartbeat IPC: 0.29485 cumulative IPC: 1.27864 (Simulation time: 0 hr 11 min 51 sec) 
Heartbeat CPU  0 instructions:  419000001 cycles:  299288795 heartbeat IPC: 0.12914 cumulative IPC: 1.24393 (Simulation time: 0 hr 11 min 56 sec) 
Heartbeat CPU  0 instructions:  420000000 cycles:  305324780 heartbeat IPC: 0.16567 cumulative IPC: 1.21914 (Simulation time: 0 hr 12 min 0 sec) 
Heartbeat CPU  0 instructions:  421000003 cycles:  310698164 heartbeat IPC: 0.18610 cumulative IPC: 1.19841 (Simulation time: 0 hr 12 min 3 sec) 
Heartbeat CPU  0 instructions:  422000001 cycles:  315549288 heartbeat IPC: 0.20614 cumulative IPC: 1.18076 (Simulation time: 0 hr 12 min 6 sec) 
Heartbeat CPU  0 instructions:  423000000 cycles:  320216860 heartbeat IPC: 0.21424 cumulative IPC: 1.16450 (Simulation time: 0 hr 12 min 9 sec) 
Heartbeat CPU  0 instructions:  424000000 cycles:  323644994 heartbeat IPC: 0.29170 cumulative IPC: 1.15384 (Simulation time: 0 hr 12 min 13 sec) 
Heartbeat CPU  0 instructions:  425000002 cycles:  326049832 heartbeat IPC: 0.41583 cumulative IPC: 1.14757 (Simulation time: 0 hr 12 min 16 sec) 
Heartbeat CPU  0 instructions:  426000002 cycles:  328015523 heartbeat IPC: 0.50873 cumulative IPC: 1.14317 (Simulation time: 0 hr 12 min 18 sec) 
Heartbeat CPU  0 instructions:  427000000 cycles:  329941805 heartbeat IPC: 0.51913 cumulative IPC: 1.13898 (Simulation time: 0 hr 12 min 20 sec) 
Heartbeat CPU  0 instructions:  428000000 cycles:  331938178 heartbeat IPC: 0.50091 cumulative IPC: 1.13458 (Simulation time: 0 hr 12 min 23 sec) 
Heartbeat CPU  0 instructions:  429000000 cycles:  333887087 heartbeat IPC: 0.51311 cumulative IPC: 1.13042 (Simulation time: 0 hr 12 min 25 sec) 
Heartbeat CPU  0 instructions:  430000001 cycles:  335860591 heartbeat IPC: 0.50671 cumulative IPC: 1.12621 (Simulation time: 0 hr 12 min 28 sec) 
Heartbeat CPU  0 instructions:  431000000 cycles:  341389908 heartbeat IPC: 0.18085 cumulative IPC: 1.10871 (Simulation time: 0 hr 12 min 31 sec) 
Heartbeat CPU  0 instructions:  432000000 cycles:  345471827 heartbeat IPC: 0.24498 cumulative IPC: 1.09706 (Simulation time: 0 hr 12 min 35 sec) 
Heartbeat CPU  0 instructions:  433000000 cycles:  352173247 heartbeat IPC: 0.14922 cumulative IPC: 1.07652 (Simulation time: 0 hr 12 min 40 sec) 
Heartbeat CPU  0 instructions:  434000001 cycles:  358941308 heartbeat IPC: 0.14775 cumulative IPC: 1.05664 (Simulation time: 0 hr 12 min 44 sec) 
Heartbeat CPU  0 instructions:  435000003 cycles:  364473388 heartbeat IPC: 0.18076 cumulative IPC: 1.04157 (Simulation time: 0 hr 12 min 47 sec) 
Heartbeat CPU  0 instructions:  436000000 cycles:  369550888 heartbeat IPC: 0.19695 cumulative IPC: 1.02844 (Simulation time: 0 hr 12 min 50 sec) 
Heartbeat CPU  0 instructions:  437000002 cycles:  373740274 heartbeat IPC: 0.23870 cumulative IPC: 1.01844 (Simulation time: 0 hr 12 min 53 sec) 
Heartbeat CPU  0 instructions:  438000002 cycles:  377243060 heartbeat IPC: 0.28549 cumulative IPC: 1.01077 (Simulation time: 0 hr 12 min 57 sec) 
Heartbeat CPU  0 instructions:  439000000 cycles:  380290582 heartbeat IPC: 0.32813 cumulative IPC: 1.00460 (Simulation time: 0 hr 13 min 0 sec) 
Heartbeat CPU  0 instructions:  440000000 cycles:  382268804 heartbeat IPC: 0.50550 cumulative IPC: 1.00169 (Simulation time: 0 hr 13 min 2 sec) 
Heartbeat CPU  0 instructions:  441000000 cycles:  384228662 heartbeat IPC: 0.51024 cumulative IPC: 0.99887 (Simulation time: 0 hr 13 min 5 sec) 
Heartbeat CPU  0 instructions:  442000000 cycles:  386225594 heartbeat IPC: 0.50077 cumulative IPC: 0.99598 (Simulation time: 0 hr 13 min 7 sec) 
Heartbeat CPU  0 instructions:  443000001 cycles:  388161946 heartbeat IPC: 0.51644 cumulative IPC: 0.99329 (Simulation time: 0 hr 13 min 10 sec) 
Heartbeat CPU  0 instructions:  444000000 cycles:  390134525 heartbeat IPC: 0.50695 cumulative IPC: 0.99052 (Simulation time: 0 hr 13 min 12 sec) 
Heartbeat CPU  0 instructions:  445000002 cycles:  392709261 heartbeat IPC: 0.38839 cumulative IPC: 0.98609 (Simulation time: 0 hr 13 min 15 sec) 
Heartbeat CPU  0 instructions:  446000003 cycles:  398964082 heartbeat IPC: 0.15988 cumulative IPC: 0.97158 (Simulation time: 0 hr 13 min 19 sec) 
Heartbeat CPU  0 instructions:  447000000 cycles:  403930539 heartbeat IPC: 0.20135 cumulative IPC: 0.96099 (Simulation time: 0 hr 13 min 23 sec) 
Heartbeat CPU  0 instructions:  448000000 cycles:  411955976 heartbeat IPC: 0.12460 cumulative IPC: 0.94280 (Simulation time: 0 hr 13 min 27 sec) 
Heartbeat CPU  0 instructions:  449000001 cycles:  417627977 heartbeat IPC: 0.17630 cumulative IPC: 0.93120 (Simulation time: 0 hr 13 min 31 sec) 
Heartbeat CPU  0 instructions:  450000000 cycles:  422934679 heartbeat IPC: 0.18844 cumulative IPC: 0.92083 (Simulation time: 0 hr 13 min 34 sec) 
Heartbeat CPU  0 instructions:  451000000 cycles:  427272406 heartbeat IPC: 0.23054 cumulative IPC: 0.91304 (Simulation time: 0 hr 13 min 37 sec) 
Heartbeat CPU  0 instructions:  452000000 cycles:  430982104 heartbeat IPC: 0.26956 cumulative IPC: 0.90689 (Simulation time: 0 hr 13 min 40 sec) 
Heartbeat CPU  0 instructions:  453000001 cycles:  434227413 heartbeat IPC: 0.30814 cumulative IPC: 0.90193 (Simulation time: 0 hr 13 min 44 sec) 
Heartbeat CPU  0 instructions:  454000000 cycles:  436297441 heartbeat IPC: 0.48308 cumulative IPC: 0.89972 (Simulation time: 0 hr 13 min 46 sec) 
Heartbeat CPU  0 instructions:  455000001 cycles:  438254722 heartbeat IPC: 0.51091 cumulative IPC: 0.89780 (Simulation time: 0 hr 13 min 49 sec) 
Heartbeat CPU  0 instructions:  456000000 cycles:  440254298 heartbeat IPC: 0.50011 cumulative IPC: 0.89580 (Simulation time: 0 hr 13 min 51 sec) 
Heartbeat CPU  0 instructions:  457000002 cycles:  442203449 heartbeat IPC: 0.51304 cumulative IPC: 0.89393 (Simulation time: 0 hr 13 min 54 sec) 
Heartbeat CPU  0 instructions:  458000000 cycles:  444173448 heartbeat IPC: 0.50761 cumulative IPC: 0.89203 (Simulation time: 0 hr 13 min 56 sec) 
Heartbeat CPU  0 instructions:  459000001 cycles:  446336446 heartbeat IPC: 0.46232 cumulative IPC: 0.88973 (Simulation time: 0 hr 13 min 59 sec) 
Heartbeat CPU  0 instructions:  460000000 cycles:  452316622 heartbeat IPC: 0.16722 cumulative IPC: 0.87918 (Simulation time: 0 hr 14 min 2 sec) 
Heartbeat CPU  0 instructions:  461000002 cycles:  456839278 heartbeat IPC: 0.22111 cumulative IPC: 0.87199 (Simulation time: 0 hr 14 min 7 sec) 
Heartbeat CPU  0 instructions:  462000000 cycles:  464980423 heartbeat IPC: 0.12283 cumulative IPC: 0.85754 (Simulation time: 0 hr 14 min 11 sec) 
Heartbeat CPU  0 instructions:  463000000 cycles:  470826380 heartbeat IPC: 0.17106 cumulative IPC: 0.84817 (Simulation time: 0 hr 14 min 15 sec) 
Heartbeat CPU  0 instructions:  464000000 cycles:  476128699 heartbeat IPC: 0.18860 cumulative IPC: 0.84009 (Simulation time: 0 hr 14 min 18 sec) 
Heartbeat CPU  0 instructions:  465000000 cycles:  480769868 heartbeat IPC: 0.21546 cumulative IPC: 0.83347 (Simulation time: 0 hr 14 min 21 sec) 
Heartbeat CPU  0 instructions:  466000000 cycles:  484985299 heartbeat IPC: 0.23722 cumulative IPC: 0.82779 (Simulation time: 0 hr 14 min 24 sec) 
Heartbeat CPU  0 instructions:  467000000 cycles:  488191772 heartbeat IPC: 0.31187 cumulative IPC: 0.82407 (Simulation time: 0 hr 14 min 28 sec) 
Heartbeat CPU  0 instructions:  468000000 cycles:  490328144 heartbeat IPC: 0.46808 cumulative IPC: 0.82237 (Simulation time: 0 hr 14 min 30 sec) 
Heartbeat CPU  0 instructions:  469000000 cycles:  492283055 heartbeat IPC: 0.51153 cumulative IPC: 0.82102 (Simulation time: 0 hr 14 min 33 sec) 
Heartbeat CPU  0 instructions:  470000002 cycles:  494247287 heartbeat IPC: 0.50911 cumulative IPC: 0.81967 (Simulation time: 0 hr 14 min 35 sec) 
Heartbeat CPU  0 instructions:  471000000 cycles:  496236373 heartbeat IPC: 0.50274 cumulative IPC: 0.81828 (Simulation time: 0 hr 14 min 38 sec) 
Heartbeat CPU  0 instructions:  472000000 cycles:  498203389 heartbeat IPC: 0.50838 cumulative IPC: 0.81694 (Simulation time: 0 hr 14 min 40 sec) 
Heartbeat CPU  0 instructions:  473000002 cycles:  500268974 heartbeat IPC: 0.48413 cumulative IPC: 0.81543 (Simulation time: 0 hr 14 min 43 sec) 
Heartbeat CPU  0 instructions:  474000000 cycles:  505909844 heartbeat IPC: 0.17728 cumulative IPC: 0.80766 (Simulation time: 0 hr 14 min 46 sec) 
Heartbeat CPU  0 instructions:  475000002 cycles:  510083636 heartbeat IPC: 0.23959 cumulative IPC: 0.80259 (Simulation time: 0 hr 14 min 50 sec) 
Heartbeat CPU  0 instructions:  476000000 cycles:  517800367 heartbeat IPC: 0.12959 cumulative IPC: 0.79165 (Simulation time: 0 hr 14 min 55 sec) 
Heartbeat CPU  0 instructions:  477000000 cycles:  523870648 heartbeat IPC: 0.16474 cumulative IPC: 0.78374 (Simulation time: 0 hr 14 min 59 sec) 
Heartbeat CPU  0 instructions:  478000002 cycles:  529302985 heartbeat IPC: 0.18408 cumulative IPC: 0.77704 (Simulation time: 0 hr 15 min 2 sec) 
Heartbeat CPU  0 instructions:  479000000 cycles:  534246768 heartbeat IPC: 0.20227 cumulative IPC: 0.77126 (Simulation time: 0 hr 15 min 5 sec) 
Heartbeat CPU  0 instructions:  480000000 cycles:  538708242 heartbeat IPC: 0.22414 cumulative IPC: 0.76634 (Simulation time: 0 hr 15 min 8 sec) 
Heartbeat CPU  0 instructions:  481000000 cycles:  542076499 heartbeat IPC: 0.29689 cumulative IPC: 0.76317 (Simulation time: 0 hr 15 min 12 sec) 
Heartbeat CPU  0 instructions:  482000000 cycles:  544382194 heartbeat IPC: 0.43371 cumulative IPC: 0.76166 (Simulation time: 0 hr 15 min 15 sec) 
Heartbeat CPU  0 instructions:  483000000 cycles:  546341163 heartbeat IPC: 0.51047 cumulative IPC: 0.76068 (Simulation time: 0 hr 15 min 17 sec) 
Heartbeat CPU  0 instructions:  484000000 cycles:  548311231 heartbeat IPC: 0.50760 cumulative IPC: 0.75969 (Simulation time: 0 hr 15 min 19 sec) 
Heartbeat CPU  0 instructions:  485000002 cycles:  550316931 heartbeat IPC: 0.49858 cumulative IPC: 0.75866 (Simulation time: 0 hr 15 min 22 sec) 
Heartbeat CPU  0 instructions:  486000003 cycles:  552265667 heartbeat IPC: 0.51315 cumulative IPC: 0.75772 (Simulation time: 0 hr 15 min 24 sec) 
Heartbeat CPU  0 instructions:  487000000 cycles:  554210397 heartbeat IPC: 0.51421 cumulative IPC: 0.75680 (Simulation time: 0 hr 15 min 27 sec) 
Heartbeat CPU  0 instructions:  488000000 cycles:  558796009 heartbeat IPC: 0.21807 cumulative IPC: 0.75201 (Simulation time: 0 hr 15 min 30 sec) 
Heartbeat CPU  0 instructions:  489000001 cycles:  563513325 heartbeat IPC: 0.21199 cumulative IPC: 0.74711 (Simulation time: 0 hr 15 min 34 sec) 
Heartbeat CPU  0 instructions:  490000003 cycles:  569933227 heartbeat IPC: 0.15577 cumulative IPC: 0.73991 (Simulation time: 0 hr 15 min 39 sec) 
Heartbeat CPU  0 instructions:  491000003 cycles:  576958454 heartbeat IPC: 0.14234 cumulative IPC: 0.73205 (Simulation time: 0 hr 15 min 43 sec) 
Heartbeat CPU  0 instructions:  492000000 cycles:  582498126 heartbeat IPC: 0.18052 cumulative IPC: 0.72639 (Simulation time: 0 hr 15 min 46 sec) 
Heartbeat CPU  0 instructions:  493000002 cycles:  587647590 heartbeat IPC: 0.19420 cumulative IPC: 0.72136 (Simulation time: 0 hr 15 min 49 sec) 
Heartbeat CPU  0 instructions:  494000001 cycles:  591834287 heartbeat IPC: 0.23885 cumulative IPC: 0.71768 (Simulation time: 0 hr 15 min 52 sec) 
Heartbeat CPU  0 instructions:  495000002 cycles:  595373893 heartbeat IPC: 0.28252 cumulative IPC: 0.71489 (Simulation time: 0 hr 15 min 56 sec) 
Heartbeat CPU  0 instructions:  496000000 cycles:  598517076 heartbeat IPC: 0.31815 cumulative IPC: 0.71265 (Simulation time: 0 hr 15 min 59 sec) 
Heartbeat CPU  0 instructions:  497000001 cycles:  600515712 heartbeat IPC: 0.50034 cumulative IPC: 0.71189 (Simulation time: 0 hr 16 min 1 sec) 
Heartbeat CPU  0 instructions:  498000001 cycles:  602469685 heartbeat IPC: 0.51178 cumulative IPC: 0.71119 (Simulation time: 0 hr 16 min 4 sec) 
Heartbeat CPU  0 instructions:  499000000 cycles:  604487818 heartbeat IPC: 0.49551 cumulative IPC: 0.71041 (Simulation time: 0 hr 16 min 6 sec) 
Heartbeat CPU  0 instructions:  500000000 cycles:  606426963 heartbeat IPC: 0.51569 cumulative IPC: 0.70974 (Simulation time: 0 hr 16 min 9 sec) 
Heartbeat CPU  0 instructions:  501000000 cycles:  608399459 heartbeat IPC: 0.50697 cumulative IPC: 0.70904 (Simulation time: 0 hr 16 min 11 sec) 
Heartbeat CPU  0 instructions:  502000002 cycles:  610849293 heartbeat IPC: 0.40819 cumulative IPC: 0.70774 (Simulation time: 0 hr 16 min 14 sec) 
Heartbeat CPU  0 instructions:  503000003 cycles:  617017188 heartbeat IPC: 0.16213 cumulative IPC: 0.70188 (Simulation time: 0 hr 16 min 18 sec) 
Heartbeat CPU  0 instructions:  504000000 cycles:  621588996 heartbeat IPC: 0.21873 cumulative IPC: 0.69806 (Simulation time: 0 hr 16 min 22 sec) 
Heartbeat CPU  0 instructions:  505000000 cycles:  630038375 heartbeat IPC: 0.11835 cumulative IPC: 0.68972 (Simulation time: 0 hr 16 min 26 sec) 
Heartbeat CPU  0 instructions:  506000001 cycles:  635734727 heartbeat IPC: 0.17555 cumulative IPC: 0.68478 (Simulation time: 0 hr 16 min 30 sec) 
Heartbeat CPU  0 instructions:  507000000 cycles:  641043069 heartbeat IPC: 0.18838 cumulative IPC: 0.68038 (Simulation time: 0 hr 16 min 33 sec) 
Heartbeat CPU  0 instructions:  508000000 cycles:  645445718 heartbeat IPC: 0.22714 cumulative IPC: 0.67706 (Simulation time: 0 hr 16 min 36 sec) 
Heartbeat CPU  0 instructions:  509000002 cycles:  649222128 heartbeat IPC: 0.26480 cumulative IPC: 0.67450 (Simulation time: 0 hr 16 min 40 sec) 
Heartbeat CPU  0 instructions:  510000001 cycles:  652497649 heartbeat IPC: 0.30529 cumulative IPC: 0.67251 (Simulation time: 0 hr 16 min 43 sec) 
Heartbeat CPU  0 instructions:  511000001 cycles:  654555207 heartbeat IPC: 0.48601 cumulative IPC: 0.67189 (Simulation time: 0 hr 16 min 45 sec) 
Heartbeat CPU  0 instructions:  512000000 cycles:  656504358 heartbeat IPC: 0.51304 cumulative IPC: 0.67138 (Simulation time: 0 hr 16 min 48 sec) 
Heartbeat CPU  0 instructions:  513000003 cycles:  658522134 heartbeat IPC: 0.49560 cumulative IPC: 0.67080 (Simulation time: 0 hr 16 min 50 sec) 
Heartbeat CPU  0 instructions:  514000002 cycles:  660486881 heartbeat IPC: 0.50897 cumulative IPC: 0.67029 (Simulation time: 0 hr 16 min 53 sec) 
Heartbeat CPU  0 instructions:  515000001 cycles:  662465840 heartbeat IPC: 0.50532 cumulative IPC: 0.66976 (Simulation time: 0 hr 16 min 55 sec) 
Heartbeat CPU  0 instructions:  516000000 cycles:  664620114 heartbeat IPC: 0.46419 cumulative IPC: 0.66905 (Simulation time: 0 hr 16 min 58 sec) 
Heartbeat CPU  0 instructions:  517000000 cycles:  670446260 heartbeat IPC: 0.17164 cumulative IPC: 0.66443 (Simulation time: 0 hr 17 min 1 sec) 
Heartbeat CPU  0 instructions:  518000002 cycles:  674889590 heartbeat IPC: 0.22506 cumulative IPC: 0.66134 (Simulation time: 0 hr 17 min 6 sec) 
Heartbeat CPU  0 instructions:  519000001 cycles:  682989067 heartbeat IPC: 0.12346 cumulative IPC: 0.65454 (Simulation time: 0 hr 17 min 10 sec) 
Heartbeat CPU  0 instructions:  520000000 cycles:  688944853 heartbeat IPC: 0.16790 cumulative IPC: 0.65005 (Simulation time: 0 hr 17 min 14 sec) 
Heartbeat CPU  0 instructions:  521000001 cycles:  694251648 heartbeat IPC: 0.18844 cumulative IPC: 0.64629 (Simulation time: 0 hr 17 min 17 sec) 
Heartbeat CPU  0 instructions:  522000001 cycles:  698964840 heartbeat IPC: 0.21217 cumulative IPC: 0.64317 (Simulation time: 0 hr 17 min 20 sec) 
Heartbeat CPU  0 instructions:  523000001 cycles:  703368844 heartbeat IPC: 0.22707 cumulative IPC: 0.64040 (Simulation time: 0 hr 17 min 24 sec) 
Heartbeat CPU  0 instructions:  524000000 cycles:  706530181 heartbeat IPC: 0.31632 cumulative IPC: 0.63886 (Simulation time: 0 hr 17 min 27 sec) 
Heartbeat CPU  0 instructions:  525000000 cycles:  708666816 heartbeat IPC: 0.46803 cumulative IPC: 0.63831 (Simulation time: 0 hr 17 min 30 sec) 
Heartbeat CPU  0 instructions:  526000000 cycles:  710607734 heartbeat IPC: 0.51522 cumulative IPC: 0.63795 (Simulation time: 0 hr 17 min 32 sec) 
Heartbeat CPU  0 instructions:  527000000 cycles:  712593120 heartbeat IPC: 0.50368 cumulative IPC: 0.63755 (Simulation time: 0 hr 17 min 35 sec) 
Heartbeat CPU  0 instructions:  528000000 cycles:  714584113 heartbeat IPC: 0.50226 cumulative IPC: 0.63715 (Simulation time: 0 hr 17 min 37 sec) 
Heartbeat CPU  0 instructions:  529000001 cycles:  716558753 heartbeat IPC: 0.50642 cumulative IPC: 0.63677 (Simulation time: 0 hr 17 min 40 sec) 
Heartbeat CPU  0 instructions:  530000001 cycles:  718514452 heartbeat IPC: 0.51133 cumulative IPC: 0.63640 (Simulation time: 0 hr 17 min 42 sec) 
Heartbeat CPU  0 instructions:  531000000 cycles:  724188276 heartbeat IPC: 0.17625 cumulative IPC: 0.63257 (Simulation time: 0 hr 17 min 46 sec) 
Heartbeat CPU  0 instructions:  532000000 cycles:  728304911 heartbeat IPC: 0.24292 cumulative IPC: 0.63023 (Simulation time: 0 hr 17 min 49 sec) 
Heartbeat CPU  0 instructions:  533000000 cycles:  735677367 heartbeat IPC: 0.13564 cumulative IPC: 0.62497 (Simulation time: 0 hr 17 min 54 sec) 
Heartbeat CPU  0 instructions:  534000000 cycles:  742111139 heartbeat IPC: 0.15543 cumulative IPC: 0.62065 (Simulation time: 0 hr 17 min 58 sec) 
Heartbeat CPU  0 instructions:  535000001 cycles:  747546129 heartbeat IPC: 0.18399 cumulative IPC: 0.61728 (Simulation time: 0 hr 18 min 1 sec) 
Heartbeat CPU  0 instructions:  536000000 cycles:  752546093 heartbeat IPC: 0.20000 cumulative IPC: 0.61434 (Simulation time: 0 hr 18 min 5 sec) 
Heartbeat CPU  0 instructions:  537000001 cycles:  756857079 heartbeat IPC: 0.23197 cumulative IPC: 0.61203 (Simulation time: 0 hr 18 min 8 sec) 
Heartbeat CPU  0 instructions:  538000001 cycles:  760248023 heartbeat IPC: 0.29490 cumulative IPC: 0.61053 (Simulation time: 0 hr 18 min 11 sec) 
Heartbeat CPU  0 instructions:  539000001 cycles:  762809764 heartbeat IPC: 0.39036 cumulative IPC: 0.60975 (Simulation time: 0 hr 18 min 14 sec) 
Heartbeat CPU  0 instructions:  540000000 cycles:  764776952 heartbeat IPC: 0.50834 cumulative IPC: 0.60947 (Simulation time: 0 hr 18 min 16 sec) 
Heartbeat CPU  0 instructions:  541000001 cycles:  766735806 heartbeat IPC: 0.51050 cumulative IPC: 0.60921 (Simulation time: 0 hr 18 min 19 sec) 
Heartbeat CPU  0 instructions:  542000002 cycles:  768730235 heartbeat IPC: 0.50140 cumulative IPC: 0.60891 (Simulation time: 0 hr 18 min 21 sec) 
Heartbeat CPU  0 instructions:  543000001 cycles:  770671634 heartbeat IPC: 0.51509 cumulative IPC: 0.60866 (Simulation time: 0 hr 18 min 24 sec) 
Heartbeat CPU  0 instructions:  544000000 cycles:  772631070 heartbeat IPC: 0.51035 cumulative IPC: 0.60840 (Simulation time: 0 hr 18 min 26 sec) 
Heartbeat CPU  0 instructions:  545000000 cycles:  776203402 heartbeat IPC: 0.27993 cumulative IPC: 0.60680 (Simulation time: 0 hr 18 min 29 sec) 
Heartbeat CPU  0 instructions:  546000000 cycles:  781801552 heartbeat IPC: 0.17863 cumulative IPC: 0.60355 (Simulation time: 0 hr 18 min 33 sec) 
Heartbeat CPU  0 instructions:  547000000 cycles:  788003677 heartbeat IPC: 0.16124 cumulative IPC: 0.59987 (Simulation time: 0 hr 18 min 38 sec) 
Heartbeat CPU  0 instructions:  548000000 cycles:  795237144 heartbeat IPC: 0.13825 cumulative IPC: 0.59543 (Simulation time: 0 hr 18 min 42 sec) 
Heartbeat CPU  0 instructions:  549000000 cycles:  800813107 heartbeat IPC: 0.17934 cumulative IPC: 0.59237 (Simulation time: 0 hr 18 min 45 sec) 
Heartbeat CPU  0 instructions:  550000001 cycles:  806032867 heartbeat IPC: 0.19158 cumulative IPC: 0.58963 (Simulation time: 0 hr 18 min 49 sec) 
Heartbeat CPU  0 instructions:  551000000 cycles:  810219520 heartbeat IPC: 0.23885 cumulative IPC: 0.58772 (Simulation time: 0 hr 18 min 52 sec) 
Heartbeat CPU  0 instructions:  552000000 cycles:  813786664 heartbeat IPC: 0.28034 cumulative IPC: 0.58629 (Simulation time: 0 hr 18 min 55 sec) 
Heartbeat CPU  0 instructions:  553000000 cycles:  816825087 heartbeat IPC: 0.32912 cumulative IPC: 0.58529 (Simulation time: 0 hr 18 min 58 sec) 
Heartbeat CPU  0 instructions:  554000001 cycles:  818849020 heartbeat IPC: 0.49409 cumulative IPC: 0.58505 (Simulation time: 0 hr 19 min 1 sec) 
Heartbeat CPU  0 instructions:  555000002 cycles:  820798620 heartbeat IPC: 0.51293 cumulative IPC: 0.58487 (Simulation time: 0 hr 19 min 3 sec) 
Heartbeat CPU  0 instructions:  556000000 cycles:  822828075 heartbeat IPC: 0.49274 cumulative IPC: 0.58463 (Simulation time: 0 hr 19 min 6 sec) 
Heartbeat CPU  0 instructions:  557000000 cycles:  824763159 heartbeat IPC: 0.51677 cumulative IPC: 0.58446 (Simulation time: 0 hr 19 min 8 sec) 
Heartbeat CPU  0 instructions:  558000003 cycles:  826744677 heartbeat IPC: 0.50467 cumulative IPC: 0.58426 (Simulation time: 0 hr 19 min 11 sec) 
Heartbeat CPU  0 instructions:  559000003 cycles:  828937376 heartbeat IPC: 0.45606 cumulative IPC: 0.58390 (Simulation time: 0 hr 19 min 13 sec) 
Heartbeat CPU  0 instructions:  560000000 cycles:  835294329 heartbeat IPC: 0.15731 cumulative IPC: 0.58048 (Simulation time: 0 hr 19 min 17 sec) 
Heartbeat CPU  0 instructions:  561000001 cycles:  839856779 heartbeat IPC: 0.21918 cumulative IPC: 0.57841 (Simulation time: 0 hr 19 min 21 sec) 
Heartbeat CPU  0 instructions:  562000002 cycles:  848254496 heartbeat IPC: 0.11908 cumulative IPC: 0.57362 (Simulation time: 0 hr 19 min 26 sec) 
Heartbeat CPU  0 instructions:  563000001 cycles:  854063598 heartbeat IPC: 0.17214 cumulative IPC: 0.57075 (Simulation time: 0 hr 19 min 29 sec) 
Heartbeat CPU  0 instructions:  564000000 cycles:  859325943 heartbeat IPC: 0.19003 cumulative IPC: 0.56829 (Simulation time: 0 hr 19 min 33 sec) 
Heartbeat CPU  0 instructions:  565000003 cycles:  863771736 heartbeat IPC: 0.22493 cumulative IPC: 0.56643 (Simulation time: 0 hr 19 min 36 sec) 
Heartbeat CPU  0 instructions:  566000003 cycles:  867582308 heartbeat IPC: 0.26243 cumulative IPC: 0.56503 (Simulation time: 0 hr 19 min 39 sec) 
Heartbeat CPU  0 instructions:  567000000 cycles:  870854191 heartbeat IPC: 0.30563 cumulative IPC: 0.56400 (Simulation time: 0 hr 19 min 42 sec) 
Heartbeat CPU  0 instructions:  568000000 cycles:  872938398 heartbeat IPC: 0.47980 cumulative IPC: 0.56379 (Simulation time: 0 hr 19 min 45 sec) 
Heartbeat CPU  0 instructions:  569000000 cycles:  874880287 heartbeat IPC: 0.51496 cumulative IPC: 0.56368 (Simulation time: 0 hr 19 min 47 sec) 
Heartbeat CPU  0 instructions:  570000000 cycles:  876884506 heartbeat IPC: 0.49895 cumulative IPC: 0.56352 (Simulation time: 0 hr 19 min 50 sec) 
Heartbeat CPU  0 instructions:  571000001 cycles:  878837445 heartbeat IPC: 0.51205 cumulative IPC: 0.56340 (Simulation time: 0 hr 19 min 52 sec) 
Heartbeat CPU  0 instructions:  572000000 cycles:  880814025 heartbeat IPC: 0.50592 cumulative IPC: 0.56327 (Simulation time: 0 hr 19 min 55 sec) 
Heartbeat CPU  0 instructions:  573000002 cycles:  882944990 heartbeat IPC: 0.46927 cumulative IPC: 0.56303 (Simulation time: 0 hr 19 min 57 sec) 
Heartbeat CPU  0 instructions:  574000000 cycles:  888760981 heartbeat IPC: 0.17194 cumulative IPC: 0.56034 (Simulation time: 0 hr 20 min 1 sec) 
Heartbeat CPU  0 instructions:  575000003 cycles:  893189372 heartbeat IPC: 0.22582 cumulative IPC: 0.55860 (Simulation time: 0 hr 20 min 5 sec) 
Heartbeat CPU  0 instructions:  576000000 cycles:  901268207 heartbeat IPC: 0.12378 cumulative IPC: 0.55450 (Simulation time: 0 hr 20 min 10 sec) 
Heartbeat CPU  0 instructions:  577000003 cycles:  907267148 heartbeat IPC: 0.16670 cumulative IPC: 0.55181 (Simulation time: 0 hr 20 min 13 sec) 
Heartbeat CPU  0 instructions:  578000000 cycles:  912599485 heartbeat IPC: 0.18753 cumulative IPC: 0.54958 (Simulation time: 0 hr 20 min 17 sec) 
Heartbeat CPU  0 instructions:  579000001 cycles:  917323081 heartbeat IPC: 0.21170 cumulative IPC: 0.54775 (Simulation time: 0 hr 20 min 20 sec) 
Heartbeat CPU  0 instructions:  580000000 cycles:  921745996 heartbeat IPC: 0.22610 cumulative IPC: 0.54614 (Simulation time: 0 hr 20 min 23 sec) 
Heartbeat CPU  0 instructions:  581000003 cycles:  924882440 heartbeat IPC: 0.31883 cumulative IPC: 0.54533 (Simulation time: 0 hr 20 min 26 sec) 
Heartbeat CPU  0 instructions:  582000003 cycles:  927062381 heartbeat IPC: 0.45873 cumulative IPC: 0.54511 (Simulation time: 0 hr 20 min 29 sec) 
Heartbeat CPU  0 instructions:  583000002 cycles:  929001322 heartbeat IPC: 0.51574 cumulative IPC: 0.54505 (Simulation time: 0 hr 20 min 31 sec) 
Heartbeat CPU  0 instructions:  584000000 cycles:  930980500 heartbeat IPC: 0.50526 cumulative IPC: 0.54496 (Simulation time: 0 hr 20 min 34 sec) 
Heartbeat CPU  0 instructions:  585000002 cycles:  932968422 heartbeat IPC: 0.50304 cumulative IPC: 0.54487 (Simulation time: 0 hr 20 min 36 sec) 
Heartbeat CPU  0 instructions:  586000002 cycles:  934941459 heartbeat IPC: 0.50683 cumulative IPC: 0.54478 (Simulation time: 0 hr 20 min 39 sec) 
Heartbeat CPU  0 instructions:  587000000 cycles:  936884877 heartbeat IPC: 0.51456 cumulative IPC: 0.54472 (Simulation time: 0 hr 20 min 41 sec) 
Heartbeat CPU  0 instructions:  588000000 cycles:  942522899 heartbeat IPC: 0.17737 cumulative IPC: 0.54242 (Simulation time: 0 hr 20 min 45 sec) 
Heartbeat CPU  0 instructions:  589000001 cycles:  946644619 heartbeat IPC: 0.24262 cumulative IPC: 0.54105 (Simulation time: 0 hr 20 min 49 sec) 
Heartbeat CPU  0 instructions:  590000000 cycles:  953972524 heartbeat IPC: 0.13646 cumulative IPC: 0.53779 (Simulation time: 0 hr 20 min 53 sec) 
Heartbeat CPU  0 instructions:  591000000 cycles:  960448909 heartbeat IPC: 0.15441 cumulative IPC: 0.53509 (Simulation time: 0 hr 20 min 57 sec) 
Heartbeat CPU  0 instructions:  592000000 cycles:  965939398 heartbeat IPC: 0.18213 cumulative IPC: 0.53299 (Simulation time: 0 hr 21 min 1 sec) 
Heartbeat CPU  0 instructions:  593000003 cycles:  970928041 heartbeat IPC: 0.20046 cumulative IPC: 0.53120 (Simulation time: 0 hr 21 min 4 sec) 
Heartbeat CPU  0 instructions:  594000000 cycles:  975240568 heartbeat IPC: 0.23188 cumulative IPC: 0.52982 (Simulation time: 0 hr 21 min 7 sec) 
Heartbeat CPU  0 instructions:  595000001 cycles:  978633755 heartbeat IPC: 0.29471 cumulative IPC: 0.52896 (Simulation time: 0 hr 21 min 11 sec) 
Heartbeat CPU  0 instructions:  596000000 cycles:  981212353 heartbeat IPC: 0.38781 cumulative IPC: 0.52858 (Simulation time: 0 hr 21 min 13 sec) 
Heartbeat CPU  0 instructions:  597000003 cycles:  983174455 heartbeat IPC: 0.50966 cumulative IPC: 0.52854 (Simulation time: 0 hr 21 min 16 sec) 
Heartbeat CPU  0 instructions:  598000002 cycles:  985130202 heartbeat IPC: 0.51131 cumulative IPC: 0.52850 (Simulation time: 0 hr 21 min 18 sec) 
Heartbeat CPU  0 instructions:  599000001 cycles:  987133948 heartbeat IPC: 0.49906 cumulative IPC: 0.52844 (Simulation time: 0 hr 21 min 21 sec) 
Heartbeat CPU  0 instructions:  600000000 cycles:  989075185 heartbeat IPC: 0.51513 cumulative IPC: 0.52841 (Simulation time: 0 hr 21 min 23 sec) 
Finished CPU 0 instructions: 500000000 cycles: 946231548 cumulative IPC: 0.52841 (Simulation time: 0 hr 21 min 23 sec) 

ChampSim completed all CPUs

[ROI Statistics]
Core_0_instructions 500000000
Core_0_cycles 946231548
Core_0_IPC 0.52841

Core_0_branch_prediction_accuracy 99.11262
Core_0_branch_MPKI 1.69223
Core_0_average_ROB_occupancy_at_mispredict 138.65394

Core_0_L1D_total_access 70868155
Core_0_L1D_total_hit 47914431
Core_0_L1D_total_miss 22953724
Core_0_L1D_loads 34221926
Core_0_L1D_load_hit 28853610
Core_0_L1D_load_miss 5368316
Core_0_L1D_RFOs 36646229
Core_0_L1D_RFO_hit 19060821
Core_0_L1D_RFO_miss 17585408
Core_0_L1D_prefetches 0
Core_0_L1D_prefetch_hit 0
Core_0_L1D_prefetch_miss 0
Core_0_L1D_writebacks 0
Core_0_L1D_writeback_hit 0
Core_0_L1D_writeback_miss 0
Core_0_L1D_prefetch_requested 0
Core_0_L1D_prefetch_dropped 0
Core_0_L1D_prefetch_issued 0
Core_0_L1D_prefetch_filled 0
Core_0_L1D_prefetch_useful 0
Core_0_L1D_prefetch_useless 0
Core_0_L1D_prefetch_late 0
Core_0_L1D_average_miss_latency 114.09306

Core_0_L1D_rq_access 60984273
Core_0_L1D_rq_forward 0
Core_0_L1D_rq_merged 24741809
Core_0_L1D_rq_to_cache 36202249
Core_0_L1D_rq_full 0

Core_0_L1D_wq_access 156857733
Core_0_L1D_wq_forward 40215
Core_0_L1D_wq_merged 48568
Core_0_L1D_wq_to_cache 156809165
Core_0_L1D_wq_full 2891554

Core_0_L1D_pq_access 0
Core_0_L1D_pq_forward 0
Core_0_L1D_pq_merged 0
Core_0_L1D_pq_to_cache 0
Core_0_L1D_pq_full 0

Core_0_L1D_acc_epochs 942015
Core_0_L1D_acc_level_0 942015
Core_0_L1D_acc_level_1 0
Core_0_L1D_acc_level_2 0
Core_0_L1D_acc_level_3 0
Core_0_L1D_acc_level_4 0
Core_0_L1D_acc_level_5 0
Core_0_L1D_acc_level_6 0
Core_0_L1D_acc_level_7 0
Core_0_L1D_acc_level_8 0
Core_0_L1D_acc_level_9 0

Core_0_L1I_total_access 122806491
Core_0_L1I_total_hit 122787347
Core_0_L1I_total_miss 19144
Core_0_L1I_loads 122806491
Core_0_L1I_load_hit 122787347
Core_0_L1I_load_miss 19144
Core_0_L1I_RFOs 0
Core_0_L1I_RFO_hit 0
Core_0_L1I_RFO_miss 0
Core_0_L1I_prefetches 0
Core_0_L1I_prefetch_hit 0
Core_0_L1I_prefetch_miss 0
Core_0_L1I_writebacks 0
Core_0_L1I_writeback_hit 0
Core_0_L1I_writeback_miss 0
Core_0_L1I_prefetch_requested 0
Core_0_L1I_prefetch_dropped 0
Core_0_L1I_prefetch_issued 0
Core_0_L1I_prefetch_filled 0
Core_0_L1I_prefetch_useful 0
Core_0_L1I_prefetch_useless 0
Core_0_L1I_prefetch_late 0
Core_0_L1I_average_miss_latency 44.17870

Core_0_L1I_rq_access 500000003
Core_0_L1I_rq_forward 0
Core_0_L1I_rq_merged 377168568
Core_0_L1I_rq_to_cache 122831435
Core_0_L1I_rq_full 0

Core_0_L1I_wq_access 0
Core_0_L1I_wq_forward 0
Core_0_L1I_wq_merged 0
Core_0_L1I_wq_to_cache 0
Core_0_L1I_wq_full 0

Core_0_L1I_pq_access 0
Core_0_L1I_pq_forward 0
Core_0_L1I_pq_merged 0
Core_0_L1I_pq_to_cache 0
Core_0_L1I_pq_full 0

Core_0_L1I_acc_epochs 942015
Core_0_L1I_acc_level_0 942015
Core_0_L1I_acc_level_1 0
Core_0_L1I_acc_level_2 0
Core_0_L1I_acc_level_3 0
Core_0_L1I_acc_level_4 0
Core_0_L1I_acc_level_5 0
Core_0_L1I_acc_level_6 0
Core_0_L1I_acc_level_7 0
Core_0_L1I_acc_level_8 0
Core_0_L1I_acc_level_9 0

Core_0_L2C_total_access 43879657
Core_0_L2C_total_hit 20875384
Core_0_L2C_total_miss 23004273
Core_0_L2C_loads 5387460
Core_0_L2C_load_hit 2194702
Core_0_L2C_load_miss 3192758
Core_0_L2C_RFOs 17585408
Core_0_L2C_RFO_hit 16849
Core_0_L2C_RFO_miss 17568559
Core_0_L2C_prefetches 2282316
Core_0_L2C_prefetch_hit 39569
Core_0_L2C_prefetch_miss 2242747
Core_0_L2C_writebacks 18624473
Core_0_L2C_writeback_hit 18624264
Core_0_L2C_writeback_miss 209
Core_0_L2C_prefetch_requested 9030830
Core_0_L2C_prefetch_dropped 0
Core_0_L2C_prefetch_issued 9030830
Core_0_L2C_prefetch_filled 2247017
Core_0_L2C_prefetch_useful 2031872
Core_0_L2C_prefetch_useless 215019
Core_0_L2C_prefetch_late 63777
Core_0_L2C_average_miss_latency 160.14296

Core_0_L2C_rq_access 22972870
Core_0_L2C_rq_forward 0
Core_0_L2C_rq_merged 0
Core_0_L2C_rq_to_cache 22972869
Core_0_L2C_rq_full 0

Core_0_L2C_wq_access 18624473
Core_0_L2C_wq_forward 1
Core_0_L2C_wq_merged 0
Core_0_L2C_wq_to_cache 18624473
Core_0_L2C_wq_full 0

Core_0_L2C_pq_access 9030830
Core_0_L2C_pq_forward 0
Core_0_L2C_pq_merged 0
Core_0_L2C_pq_to_cache 9030830
Core_0_L2C_pq_full 0

Core_0_L2C_acc_epochs 942015
Core_0_L2C_acc_level_0 631916
Core_0_L2C_acc_level_1 51959
Core_0_L2C_acc_level_2 41986
Core_0_L2C_acc_level_3 22686
Core_0_L2C_acc_level_4 14725
Core_0_L2C_acc_level_5 36490
Core_0_L2C_acc_level_6 15625
Core_0_L2C_acc_level_7 13449
Core_0_L2C_acc_level_8 9797
Core_0_L2C_acc_level_9 103382

Core_0_LLC_total_access 48149937
Core_0_LLC_total_hit 34159979
Core_0_LLC_total_miss 13989958
Core_0_LLC_loads 3130712
Core_0_LLC_load_hit 2117798
Core_0_LLC_load_miss 1012914
Core_0_LLC_RFOs 17566837
Core_0_LLC_RFO_hit 15549455
Core_0_LLC_RFO_miss 2017382
Core_0_LLC_prefetches 8838877
Core_0_LLC_prefetch_hit 337555
Core_0_LLC_prefetch_miss 8501322
Core_0_LLC_writebacks 18613511
Core_0_LLC_writeback_hit 16155171
Core_0_LLC_writeback_miss 2458340
Core_0_LLC_prefetch_requested 0
Core_0_LLC_prefetch_dropped 0
Core_0_LLC_prefetch_issued 0
Core_0_LLC_prefetch_filled 8515838
Core_0_LLC_prefetch_useful 2051545
Core_0_LLC_prefetch_useless 6458119
Core_0_LLC_prefetch_late 111899
Core_0_LLC_average_miss_latency 458.80483

Core_0_LLC_rq_access 20697550
Core_0_LLC_rq_forward 0
Core_0_LLC_rq_merged 0
Core_0_LLC_rq_to_cache 20697550
Core_0_LLC_rq_full 0

Core_0_LLC_wq_access 18613511
Core_0_LLC_wq_forward 0
Core_0_LLC_wq_merged 0
Core_0_LLC_wq_to_cache 18613511
Core_0_LLC_wq_full 0

Core_0_LLC_pq_access 8966521
Core_0_LLC_pq_forward 0
Core_0_LLC_pq_merged 0
Core_0_LLC_pq_to_cache 8966521
Core_0_LLC_pq_full 0

Core_0_LLC_acc_epochs 965894
Core_0_LLC_acc_level_0 530353
Core_0_LLC_acc_level_1 122683
Core_0_LLC_acc_level_2 80173
Core_0_LLC_acc_level_3 50194
Core_0_LLC_acc_level_4 32423
Core_0_LLC_acc_level_5 30592
Core_0_LLC_acc_level_6 18583
Core_0_LLC_acc_level_7 15778
Core_0_LLC_acc_level_8 13020
Core_0_LLC_acc_level_9 72095

Core_0_major_page_fault 0
Core_0_minor_page_fault 13167

[Bingo] PHT Access: 506779
[Bingo] PHT Hit PC+Addr: 10457
[Bingo] PHT Hit PC+Offs: 448665
[Bingo] PHT Miss: 47657
[Bingo] Prefetch PC+Addr: 0
[Bingo] Prefetch PC+Offs: 0
[Bingo] Useful PC+Addr: 0
[Bingo] Useful PC+Offs: 0
[Bingo] Useless PC+Addr: 0
[Bingo] Useless PC+Offs: 0
[Bingo] L1 Prefetch per Region: 0.00000
[Bingo] L2 Prefetch per Region: 6.10887
[Bingo] L3 Prefetch per Region: 14.59938
[Bingo] No Prefetch per Region: 11.29175
[Bingo] Number of Voters Mean: 11.01363
[Bingo] Number of Voters SD: 4.92530

Channel_0_RQ_row_buffer_hit 7282870
Channel_0_RQ_row_buffer_miss 4248715
Channel_0_WQ_row_buffer_hit 707409
Channel_0_WQ_row_buffer_miss 2561179
Channel_0_WQ_full 730
Channel_0_dbus_congested 13404317

avg_congested_cycle 24

DRAM_bw_pochs 3863575
DRAM_bw_level_0 2125891
DRAM_bw_level_1 375445
DRAM_bw_level_2 264637
DRAM_bw_level_3 1097602
