*************************************************
   ChampSim Multicore Out-of-Order Simulator
   Last compiled: Dec 11 2024 17:59:53
*************************************************
parsing config file: /home/functionmain/桌面/Pythia/config/spp_dev2.ini

trace_0 /home/functionmain/桌面/Pythia/traces/403.gcc-16B.champsimtrace.xz
adding L2C_PREFETCHER: SPP_dev2
Initialize SIGNATURE TABLE
ST_SET: 1
ST_WAY: 256
ST_TAG_BIT: 16
ST_TAG_MASK: ffff

Initialize PATTERN TABLE
PT_SET: 512
PT_WAY: 4
SIG_DELTA_BIT: 7
C_SIG_BIT: 4
C_DELTA_BIT: 4

Initialize PREFETCH FILTER
FILTER_SET: 1024
fill_threshold: 90
pf_threshold: 40

Initialize SHIP state
warmup_instructions 100000000
simulation_instructions 500000000
champsim_seed 169
measure_ipc 0
measure_ipc_epoch 1000
measure_dram_bw 1
measure_dram_bw_epoch 256
measure_cache_acc 1
measure_cache_acc_epoch 1024
l1d_perfect 0
l2c_perfect 0
llc_perfect 0
l1d_semi_perfect 0
l2c_semi_perfect 0
llc_semi_perfect 0
semi_perfect_cache_page_buffer_size 64

num_cpus 1
cpu_freq 4000
dram_io_freq 150
page_size 4096
block_size 64
max_read_per_cycle 8
max_fill_per_cycle 1
dram_channels 1
log2_dram_channels 0
dram_ranks 1
dram_banks 8
dram_rows 65536
dram_columns 128
dram_row_size 8
dram_size 4096
dram_pages 1048576

fetch_width 6
decode_width 6
exec_width 4
lq_width 2
sq_width 2
retire_width 4
scheduler_size 128
branch_mispredict_penalty 20
rob_size 256
lq_size 72
sq_size 56
num_instr_destinations_sparc 4
num_instr_destinations 2
num_instr_sources 4

itlb_set 16
itlb_way 8
itlb_rq_size 16
itlb_wq_size 16
itlb_pq_size 0
itlb_mshr_size 8
itlb_latency 1

dtlb_set 16
dtlb_way 4
dtlb_rq_size 16
dtlb_wq_size 16
dtlb_pq_size 0
dtlb_mshr_size 8
dtlb_latency 1

stlb_set 128
stlb_way 12
stlb_rq_size 32
stlb_wq_size 32
stlb_pq_size 0
stlb_mshr_size 16
stlb_latency 8

l1i_size 32
l1i_set 64
l1i_way 8
l1i_rq_size 64
l1i_wq_size 64
l1i_pq_size 8
l1i_mshr_size 8
l1i_latency 1

l1d_size 32
l1d_set 64
l1d_way 8
l1d_rq_size 64
l1d_wq_size 64
l1d_pq_size 8
l1d_mshr_size 16
l1d_latency 4

l2c_size 256
l2c_set 512
l2c_way 8
l2c_rq_size 32
l2c_wq_size 32
l2c_pq_size 32
l2c_mshr_size 32
l2c_latency 10

llc_size 2048
llc_set 2048
llc_way 16
llc_rq_size 32
llc_wq_size 32
llc_pq_size 32
llc_mshr_size 64
llc_latency 20

dram_channel_width 8
dram_wq_size 64
dram_rq_size 64
tRP 15
tRCD 15
tCAS 12.5
dram_dbus_turn_around_time 30
dram_write_high_wm 56
dram_write_low_wm 48
min_dram_writes_per_switch 16
dram_mtps 150
dram_dbus_return_time 213


Heartbeat CPU  0 instructions:    1000000 cycles:     453077 heartbeat IPC: 2.20713 cumulative IPC: 2.20713 (Simulation time: 0 hr 0 min 2 sec) 
Heartbeat CPU  0 instructions:    2000000 cycles:     861359 heartbeat IPC: 2.44929 cumulative IPC: 2.32191 (Simulation time: 0 hr 0 min 3 sec) 
Heartbeat CPU  0 instructions:    3000003 cycles:    1299549 heartbeat IPC: 2.28212 cumulative IPC: 2.30850 (Simulation time: 0 hr 0 min 5 sec) 
Heartbeat CPU  0 instructions:    4000000 cycles:    1765800 heartbeat IPC: 2.14476 cumulative IPC: 2.26526 (Simulation time: 0 hr 0 min 7 sec) 
Heartbeat CPU  0 instructions:    5000000 cycles:    2181292 heartbeat IPC: 2.40679 cumulative IPC: 2.29222 (Simulation time: 0 hr 0 min 8 sec) 
Heartbeat CPU  0 instructions:    6000000 cycles:    2658649 heartbeat IPC: 2.09487 cumulative IPC: 2.25679 (Simulation time: 0 hr 0 min 10 sec) 
Heartbeat CPU  0 instructions:    7000002 cycles:    3082296 heartbeat IPC: 2.36046 cumulative IPC: 2.27103 (Simulation time: 0 hr 0 min 11 sec) 
Heartbeat CPU  0 instructions:    8000000 cycles:    3488503 heartbeat IPC: 2.46179 cumulative IPC: 2.29325 (Simulation time: 0 hr 0 min 12 sec) 
Heartbeat CPU  0 instructions:    9000003 cycles:    3937173 heartbeat IPC: 2.22882 cumulative IPC: 2.28590 (Simulation time: 0 hr 0 min 14 sec) 
Heartbeat CPU  0 instructions:   10000001 cycles:    4377848 heartbeat IPC: 2.26924 cumulative IPC: 2.28423 (Simulation time: 0 hr 0 min 16 sec) 
Heartbeat CPU  0 instructions:   11000000 cycles:    4782061 heartbeat IPC: 2.47394 cumulative IPC: 2.30026 (Simulation time: 0 hr 0 min 17 sec) 
Heartbeat CPU  0 instructions:   12000000 cycles:    5196292 heartbeat IPC: 2.41411 cumulative IPC: 2.30934 (Simulation time: 0 hr 0 min 19 sec) 
Heartbeat CPU  0 instructions:   13000001 cycles:    5649430 heartbeat IPC: 2.20684 cumulative IPC: 2.30112 (Simulation time: 0 hr 0 min 20 sec) 
Heartbeat CPU  0 instructions:   14000003 cycles:    6084744 heartbeat IPC: 2.29720 cumulative IPC: 2.30084 (Simulation time: 0 hr 0 min 22 sec) 
Heartbeat CPU  0 instructions:   15000000 cycles:    6489858 heartbeat IPC: 2.46843 cumulative IPC: 2.31130 (Simulation time: 0 hr 0 min 23 sec) 
Heartbeat CPU  0 instructions:   16000000 cycles:    6910079 heartbeat IPC: 2.37970 cumulative IPC: 2.31546 (Simulation time: 0 hr 0 min 25 sec) 
Heartbeat CPU  0 instructions:   17000001 cycles:    7353041 heartbeat IPC: 2.25753 cumulative IPC: 2.31197 (Simulation time: 0 hr 0 min 26 sec) 
Heartbeat CPU  0 instructions:   18000000 cycles:    7788351 heartbeat IPC: 2.29721 cumulative IPC: 2.31114 (Simulation time: 0 hr 0 min 28 sec) 
Heartbeat CPU  0 instructions:   19000001 cycles:    8188945 heartbeat IPC: 2.49630 cumulative IPC: 2.32020 (Simulation time: 0 hr 0 min 29 sec) 
Heartbeat CPU  0 instructions:   20000000 cycles:    8635696 heartbeat IPC: 2.23838 cumulative IPC: 2.31597 (Simulation time: 0 hr 0 min 31 sec) 
Heartbeat CPU  0 instructions:   21000001 cycles:    9080899 heartbeat IPC: 2.24617 cumulative IPC: 2.31255 (Simulation time: 0 hr 0 min 32 sec) 
Heartbeat CPU  0 instructions:   22000000 cycles:    9481624 heartbeat IPC: 2.49547 cumulative IPC: 2.32028 (Simulation time: 0 hr 0 min 34 sec) 
Heartbeat CPU  0 instructions:   23000003 cycles:    9895914 heartbeat IPC: 2.41378 cumulative IPC: 2.32419 (Simulation time: 0 hr 0 min 35 sec) 
Heartbeat CPU  0 instructions:   24000000 cycles:   10338175 heartbeat IPC: 2.26110 cumulative IPC: 2.32149 (Simulation time: 0 hr 0 min 37 sec) 
Heartbeat CPU  0 instructions:   25000000 cycles:   10787162 heartbeat IPC: 2.22724 cumulative IPC: 2.31757 (Simulation time: 0 hr 0 min 38 sec) 
Heartbeat CPU  0 instructions:   26000000 cycles:   11183469 heartbeat IPC: 2.52330 cumulative IPC: 2.32486 (Simulation time: 0 hr 0 min 40 sec) 
Heartbeat CPU  0 instructions:   27000001 cycles:   11598299 heartbeat IPC: 2.41063 cumulative IPC: 2.32793 (Simulation time: 0 hr 0 min 41 sec) 
Heartbeat CPU  0 instructions:   28000000 cycles:   12046057 heartbeat IPC: 2.23335 cumulative IPC: 2.32441 (Simulation time: 0 hr 0 min 43 sec) 
Heartbeat CPU  0 instructions:   29000000 cycles:   12478937 heartbeat IPC: 2.31011 cumulative IPC: 2.32392 (Simulation time: 0 hr 0 min 44 sec) 
Heartbeat CPU  0 instructions:   30000003 cycles:   12886750 heartbeat IPC: 2.45211 cumulative IPC: 2.32797 (Simulation time: 0 hr 0 min 46 sec) 
Heartbeat CPU  0 instructions:   31000003 cycles:   13377015 heartbeat IPC: 2.03971 cumulative IPC: 2.31741 (Simulation time: 0 hr 0 min 47 sec) 
Heartbeat CPU  0 instructions:   32000000 cycles:   13779741 heartbeat IPC: 2.48307 cumulative IPC: 2.32225 (Simulation time: 0 hr 0 min 49 sec) 
Heartbeat CPU  0 instructions:   33000001 cycles:   14203744 heartbeat IPC: 2.35848 cumulative IPC: 2.32333 (Simulation time: 0 hr 0 min 50 sec) 
Heartbeat CPU  0 instructions:   34000003 cycles:   14655903 heartbeat IPC: 2.21162 cumulative IPC: 2.31988 (Simulation time: 0 hr 0 min 52 sec) 
Heartbeat CPU  0 instructions:   35000002 cycles:   15077346 heartbeat IPC: 2.37280 cumulative IPC: 2.32136 (Simulation time: 0 hr 0 min 54 sec) 
Heartbeat CPU  0 instructions:   36000000 cycles:   15474581 heartbeat IPC: 2.51740 cumulative IPC: 2.32640 (Simulation time: 0 hr 0 min 55 sec) 
Heartbeat CPU  0 instructions:   37000001 cycles:   15910024 heartbeat IPC: 2.29651 cumulative IPC: 2.32558 (Simulation time: 0 hr 0 min 57 sec) 
Heartbeat CPU  0 instructions:   38000000 cycles:   16358253 heartbeat IPC: 2.23100 cumulative IPC: 2.32299 (Simulation time: 0 hr 0 min 58 sec) 
Heartbeat CPU  0 instructions:   39000000 cycles:   16774566 heartbeat IPC: 2.40204 cumulative IPC: 2.32495 (Simulation time: 0 hr 1 min 0 sec) 
Heartbeat CPU  0 instructions:   40000000 cycles:   17173069 heartbeat IPC: 2.50939 cumulative IPC: 2.32923 (Simulation time: 0 hr 1 min 1 sec) 
Heartbeat CPU  0 instructions:   41000003 cycles:   17615181 heartbeat IPC: 2.26188 cumulative IPC: 2.32754 (Simulation time: 0 hr 1 min 3 sec) 
Heartbeat CPU  0 instructions:   42000003 cycles:   18057454 heartbeat IPC: 2.26105 cumulative IPC: 2.32591 (Simulation time: 0 hr 1 min 4 sec) 
Heartbeat CPU  0 instructions:   43000002 cycles:   18463657 heartbeat IPC: 2.46182 cumulative IPC: 2.32890 (Simulation time: 0 hr 1 min 6 sec) 
Heartbeat CPU  0 instructions:   44000000 cycles:   18914073 heartbeat IPC: 2.22017 cumulative IPC: 2.32631 (Simulation time: 0 hr 1 min 7 sec) 
Heartbeat CPU  0 instructions:   45000000 cycles:   19361887 heartbeat IPC: 2.23307 cumulative IPC: 2.32415 (Simulation time: 0 hr 1 min 9 sec) 
Heartbeat CPU  0 instructions:   46000003 cycles:   19775250 heartbeat IPC: 2.41919 cumulative IPC: 2.32614 (Simulation time: 0 hr 1 min 10 sec) 
Heartbeat CPU  0 instructions:   47000003 cycles:   20228669 heartbeat IPC: 2.20547 cumulative IPC: 2.32344 (Simulation time: 0 hr 1 min 12 sec) 
Heartbeat CPU  0 instructions:   48000000 cycles:   20652403 heartbeat IPC: 2.35996 cumulative IPC: 2.32418 (Simulation time: 0 hr 1 min 13 sec) 
Heartbeat CPU  0 instructions:   49000003 cycles:   21061143 heartbeat IPC: 2.44655 cumulative IPC: 2.32656 (Simulation time: 0 hr 1 min 15 sec) 
Heartbeat CPU  0 instructions:   50000000 cycles:   21501457 heartbeat IPC: 2.27110 cumulative IPC: 2.32542 (Simulation time: 0 hr 1 min 16 sec) 
Heartbeat CPU  0 instructions:   51000003 cycles:   21938490 heartbeat IPC: 2.28816 cumulative IPC: 2.32468 (Simulation time: 0 hr 1 min 18 sec) 
Heartbeat CPU  0 instructions:   52000000 cycles:   22345835 heartbeat IPC: 2.45491 cumulative IPC: 2.32706 (Simulation time: 0 hr 1 min 19 sec) 
Heartbeat CPU  0 instructions:   53000000 cycles:   22761289 heartbeat IPC: 2.40701 cumulative IPC: 2.32851 (Simulation time: 0 hr 1 min 21 sec) 
Heartbeat CPU  0 instructions:   54000001 cycles:   23201173 heartbeat IPC: 2.27333 cumulative IPC: 2.32747 (Simulation time: 0 hr 1 min 22 sec) 
Heartbeat CPU  0 instructions:   55000001 cycles:   23636139 heartbeat IPC: 2.29903 cumulative IPC: 2.32695 (Simulation time: 0 hr 1 min 24 sec) 
Heartbeat CPU  0 instructions:   56000000 cycles:   24043459 heartbeat IPC: 2.45507 cumulative IPC: 2.32912 (Simulation time: 0 hr 1 min 25 sec) 
Heartbeat CPU  0 instructions:   57000003 cycles:   24459210 heartbeat IPC: 2.40529 cumulative IPC: 2.33041 (Simulation time: 0 hr 1 min 27 sec) 
Heartbeat CPU  0 instructions:   58000001 cycles:   24906420 heartbeat IPC: 2.23608 cumulative IPC: 2.32872 (Simulation time: 0 hr 1 min 29 sec) 
Heartbeat CPU  0 instructions:   59000000 cycles:   25337099 heartbeat IPC: 2.32191 cumulative IPC: 2.32860 (Simulation time: 0 hr 1 min 30 sec) 
Heartbeat CPU  0 instructions:   60000000 cycles:   25732816 heartbeat IPC: 2.52706 cumulative IPC: 2.33165 (Simulation time: 0 hr 1 min 32 sec) 
Heartbeat CPU  0 instructions:   61000001 cycles:   26184516 heartbeat IPC: 2.21386 cumulative IPC: 2.32962 (Simulation time: 0 hr 1 min 33 sec) 
Heartbeat CPU  0 instructions:   62000001 cycles:   26622588 heartbeat IPC: 2.28273 cumulative IPC: 2.32885 (Simulation time: 0 hr 1 min 35 sec) 
Heartbeat CPU  0 instructions:   63000000 cycles:   27026611 heartbeat IPC: 2.47510 cumulative IPC: 2.33104 (Simulation time: 0 hr 1 min 36 sec) 
Heartbeat CPU  0 instructions:   64000000 cycles:   27436250 heartbeat IPC: 2.44117 cumulative IPC: 2.33268 (Simulation time: 0 hr 1 min 38 sec) 
Heartbeat CPU  0 instructions:   65000001 cycles:   27884226 heartbeat IPC: 2.23226 cumulative IPC: 2.33107 (Simulation time: 0 hr 1 min 39 sec) 
Heartbeat CPU  0 instructions:   66000003 cycles:   28322666 heartbeat IPC: 2.28082 cumulative IPC: 2.33029 (Simulation time: 0 hr 1 min 41 sec) 
Heartbeat CPU  0 instructions:   67000000 cycles:   28721998 heartbeat IPC: 2.50417 cumulative IPC: 2.33271 (Simulation time: 0 hr 1 min 42 sec) 
Heartbeat CPU  0 instructions:   68000000 cycles:   29138173 heartbeat IPC: 2.40284 cumulative IPC: 2.33371 (Simulation time: 0 hr 1 min 44 sec) 
Heartbeat CPU  0 instructions:   69000001 cycles:   29579556 heartbeat IPC: 2.26561 cumulative IPC: 2.33269 (Simulation time: 0 hr 1 min 45 sec) 
Heartbeat CPU  0 instructions:   70000001 cycles:   30013068 heartbeat IPC: 2.30674 cumulative IPC: 2.33232 (Simulation time: 0 hr 1 min 47 sec) 
Heartbeat CPU  0 instructions:   71000003 cycles:   30438442 heartbeat IPC: 2.35088 cumulative IPC: 2.33258 (Simulation time: 0 hr 1 min 48 sec) 
Heartbeat CPU  0 instructions:   72000000 cycles:   30914124 heartbeat IPC: 2.10224 cumulative IPC: 2.32903 (Simulation time: 0 hr 1 min 50 sec) 
Heartbeat CPU  0 instructions:   73000001 cycles:   31310569 heartbeat IPC: 2.52242 cumulative IPC: 2.33148 (Simulation time: 0 hr 1 min 51 sec) 
Heartbeat CPU  0 instructions:   74000000 cycles:   31750402 heartbeat IPC: 2.27359 cumulative IPC: 2.33068 (Simulation time: 0 hr 1 min 53 sec) 
Heartbeat CPU  0 instructions:   75000003 cycles:   32201616 heartbeat IPC: 2.21625 cumulative IPC: 2.32908 (Simulation time: 0 hr 1 min 54 sec) 
Heartbeat CPU  0 instructions:   76000000 cycles:   32602587 heartbeat IPC: 2.49394 cumulative IPC: 2.33110 (Simulation time: 0 hr 1 min 56 sec) 
Heartbeat CPU  0 instructions:   77000001 cycles:   33019478 heartbeat IPC: 2.39871 cumulative IPC: 2.33196 (Simulation time: 0 hr 1 min 57 sec) 
Heartbeat CPU  0 instructions:   78000001 cycles:   33454632 heartbeat IPC: 2.29804 cumulative IPC: 2.33152 (Simulation time: 0 hr 1 min 59 sec) 
Heartbeat CPU  0 instructions:   79000000 cycles:   33901101 heartbeat IPC: 2.23979 cumulative IPC: 2.33031 (Simulation time: 0 hr 2 min 0 sec) 
Heartbeat CPU  0 instructions:   80000000 cycles:   34297183 heartbeat IPC: 2.52473 cumulative IPC: 2.33255 (Simulation time: 0 hr 2 min 2 sec) 
Heartbeat CPU  0 instructions:   81000003 cycles:   34715051 heartbeat IPC: 2.39311 cumulative IPC: 2.33328 (Simulation time: 0 hr 2 min 3 sec) 
Heartbeat CPU  0 instructions:   82000003 cycles:   35156385 heartbeat IPC: 2.26586 cumulative IPC: 2.33244 (Simulation time: 0 hr 2 min 5 sec) 
Heartbeat CPU  0 instructions:   83000000 cycles:   35591515 heartbeat IPC: 2.29816 cumulative IPC: 2.33202 (Simulation time: 0 hr 2 min 6 sec) 
Heartbeat CPU  0 instructions:   84000000 cycles:   35984940 heartbeat IPC: 2.54178 cumulative IPC: 2.33431 (Simulation time: 0 hr 2 min 8 sec) 
Heartbeat CPU  0 instructions:   85000000 cycles:   36425452 heartbeat IPC: 2.27009 cumulative IPC: 2.33353 (Simulation time: 0 hr 2 min 9 sec) 
Heartbeat CPU  0 instructions:   86000001 cycles:   36866251 heartbeat IPC: 2.26861 cumulative IPC: 2.33276 (Simulation time: 0 hr 2 min 11 sec) 
Heartbeat CPU  0 instructions:   87000002 cycles:   37277624 heartbeat IPC: 2.43089 cumulative IPC: 2.33384 (Simulation time: 0 hr 2 min 12 sec) 
Heartbeat CPU  0 instructions:   88000000 cycles:   37693627 heartbeat IPC: 2.40382 cumulative IPC: 2.33461 (Simulation time: 0 hr 2 min 14 sec) 
Heartbeat CPU  0 instructions:   89000001 cycles:   38129927 heartbeat IPC: 2.29200 cumulative IPC: 2.33412 (Simulation time: 0 hr 2 min 16 sec) 
Heartbeat CPU  0 instructions:   90000000 cycles:   38564580 heartbeat IPC: 2.30068 cumulative IPC: 2.33375 (Simulation time: 0 hr 2 min 17 sec) 
Heartbeat CPU  0 instructions:   91000000 cycles:   38970622 heartbeat IPC: 2.46280 cumulative IPC: 2.33509 (Simulation time: 0 hr 2 min 19 sec) 
Heartbeat CPU  0 instructions:   92000000 cycles:   39389103 heartbeat IPC: 2.38959 cumulative IPC: 2.33567 (Simulation time: 0 hr 2 min 20 sec) 
Heartbeat CPU  0 instructions:   93000000 cycles:   39822638 heartbeat IPC: 2.30662 cumulative IPC: 2.33536 (Simulation time: 0 hr 2 min 22 sec) 
Heartbeat CPU  0 instructions:   94000002 cycles:   40262800 heartbeat IPC: 2.27190 cumulative IPC: 2.33466 (Simulation time: 0 hr 2 min 23 sec) 
Heartbeat CPU  0 instructions:   95000000 cycles:   40654840 heartbeat IPC: 2.55076 cumulative IPC: 2.33675 (Simulation time: 0 hr 2 min 25 sec) 
Heartbeat CPU  0 instructions:   96000000 cycles:   41088773 heartbeat IPC: 2.30450 cumulative IPC: 2.33640 (Simulation time: 0 hr 2 min 26 sec) 
Heartbeat CPU  0 instructions:   97000001 cycles:   41551378 heartbeat IPC: 2.16167 cumulative IPC: 2.33446 (Simulation time: 0 hr 2 min 28 sec) 
Heartbeat CPU  0 instructions:   98000003 cycles:   41970530 heartbeat IPC: 2.38577 cumulative IPC: 2.33497 (Simulation time: 0 hr 2 min 29 sec) 
Heartbeat CPU  0 instructions:   99000001 cycles:   42412898 heartbeat IPC: 2.26056 cumulative IPC: 2.33420 (Simulation time: 0 hr 2 min 31 sec) 
Heartbeat CPU  0 instructions:  100000000 cycles:   42844099 heartbeat IPC: 2.31910 cumulative IPC: 2.33404 (Simulation time: 0 hr 2 min 32 sec) 

Warmup complete CPU  0 instructions:  100000001 cycles:   42844100 (Simulation time: 0 hr 2 min 32 sec) 

Heartbeat CPU  0 instructions:  101000001 cycles:   43523116 heartbeat IPC: 1.47272 cumulative IPC: 1.47272 (Simulation time: 0 hr 2 min 34 sec) 
Heartbeat CPU  0 instructions:  102000003 cycles:   44212959 heartbeat IPC: 1.44961 cumulative IPC: 1.46107 (Simulation time: 0 hr 2 min 36 sec) 
Heartbeat CPU  0 instructions:  103000003 cycles:   44898015 heartbeat IPC: 1.45973 cumulative IPC: 1.46063 (Simulation time: 0 hr 2 min 37 sec) 
Heartbeat CPU  0 instructions:  104000000 cycles:   45586830 heartbeat IPC: 1.45176 cumulative IPC: 1.45840 (Simulation time: 0 hr 2 min 39 sec) 
Heartbeat CPU  0 instructions:  105000001 cycles:   46278647 heartbeat IPC: 1.44547 cumulative IPC: 1.45580 (Simulation time: 0 hr 2 min 41 sec) 
Heartbeat CPU  0 instructions:  106000000 cycles:   46967259 heartbeat IPC: 1.45220 cumulative IPC: 1.45519 (Simulation time: 0 hr 2 min 43 sec) 
Heartbeat CPU  0 instructions:  107000001 cycles:   47654401 heartbeat IPC: 1.45530 cumulative IPC: 1.45521 (Simulation time: 0 hr 2 min 44 sec) 
Heartbeat CPU  0 instructions:  108000000 cycles:   48392373 heartbeat IPC: 1.35506 cumulative IPC: 1.44189 (Simulation time: 0 hr 2 min 46 sec) 
Heartbeat CPU  0 instructions:  109000001 cycles:   49084409 heartbeat IPC: 1.44501 cumulative IPC: 1.44224 (Simulation time: 0 hr 2 min 48 sec) 
Heartbeat CPU  0 instructions:  110000003 cycles:   49906373 heartbeat IPC: 1.21660 cumulative IPC: 1.41597 (Simulation time: 0 hr 2 min 50 sec) 
Heartbeat CPU  0 instructions:  111000000 cycles:   50786869 heartbeat IPC: 1.13572 cumulative IPC: 1.38491 (Simulation time: 0 hr 2 min 52 sec) 
Heartbeat CPU  0 instructions:  112000000 cycles:   51628639 heartbeat IPC: 1.18797 cumulative IPC: 1.36604 (Simulation time: 0 hr 2 min 53 sec) 
Heartbeat CPU  0 instructions:  113000003 cycles:   52339557 heartbeat IPC: 1.40664 cumulative IPC: 1.36908 (Simulation time: 0 hr 2 min 55 sec) 
Heartbeat CPU  0 instructions:  114000001 cycles:   53047713 heartbeat IPC: 1.41212 cumulative IPC: 1.37206 (Simulation time: 0 hr 2 min 57 sec) 
Heartbeat CPU  0 instructions:  115000002 cycles:   53770421 heartbeat IPC: 1.38369 cumulative IPC: 1.37283 (Simulation time: 0 hr 2 min 59 sec) 
Heartbeat CPU  0 instructions:  116000000 cycles:   54460257 heartbeat IPC: 1.44962 cumulative IPC: 1.37739 (Simulation time: 0 hr 3 min 0 sec) 
Heartbeat CPU  0 instructions:  117000000 cycles:   55131984 heartbeat IPC: 1.48870 cumulative IPC: 1.38348 (Simulation time: 0 hr 3 min 2 sec) 
Heartbeat CPU  0 instructions:  118000000 cycles:   55786925 heartbeat IPC: 1.52686 cumulative IPC: 1.39073 (Simulation time: 0 hr 3 min 4 sec) 
Heartbeat CPU  0 instructions:  119000002 cycles:   56516439 heartbeat IPC: 1.37078 cumulative IPC: 1.38967 (Simulation time: 0 hr 3 min 6 sec) 
Heartbeat CPU  0 instructions:  120000000 cycles:   57203631 heartbeat IPC: 1.45519 cumulative IPC: 1.39280 (Simulation time: 0 hr 3 min 7 sec) 
Heartbeat CPU  0 instructions:  121000002 cycles:   57879828 heartbeat IPC: 1.47886 cumulative IPC: 1.39667 (Simulation time: 0 hr 3 min 9 sec) 
Heartbeat CPU  0 instructions:  122000000 cycles:   58567596 heartbeat IPC: 1.45398 cumulative IPC: 1.39918 (Simulation time: 0 hr 3 min 11 sec) 
Heartbeat CPU  0 instructions:  123000002 cycles:   59317341 heartbeat IPC: 1.33379 cumulative IPC: 1.39620 (Simulation time: 0 hr 3 min 13 sec) 
Heartbeat CPU  0 instructions:  124000000 cycles:   60089678 heartbeat IPC: 1.29477 cumulative IPC: 1.39166 (Simulation time: 0 hr 3 min 14 sec) 
Heartbeat CPU  0 instructions:  125000000 cycles:   60769036 heartbeat IPC: 1.47198 cumulative IPC: 1.39471 (Simulation time: 0 hr 3 min 16 sec) 
Heartbeat CPU  0 instructions:  126000000 cycles:   61487810 heartbeat IPC: 1.39126 cumulative IPC: 1.39457 (Simulation time: 0 hr 3 min 18 sec) 
Heartbeat CPU  0 instructions:  127000003 cycles:   62214509 heartbeat IPC: 1.37609 cumulative IPC: 1.39388 (Simulation time: 0 hr 3 min 20 sec) 
Heartbeat CPU  0 instructions:  128000000 cycles:   62889401 heartbeat IPC: 1.48171 cumulative IPC: 1.39684 (Simulation time: 0 hr 3 min 21 sec) 
Heartbeat CPU  0 instructions:  129000001 cycles:   63537840 heartbeat IPC: 1.54217 cumulative IPC: 1.40139 (Simulation time: 0 hr 3 min 23 sec) 
Heartbeat CPU  0 instructions:  130000001 cycles:   64231606 heartbeat IPC: 1.44141 cumulative IPC: 1.40269 (Simulation time: 0 hr 3 min 25 sec) 
Heartbeat CPU  0 instructions:  131000002 cycles:   64957468 heartbeat IPC: 1.37767 cumulative IPC: 1.40187 (Simulation time: 0 hr 3 min 27 sec) 
Heartbeat CPU  0 instructions:  132000000 cycles:   65623838 heartbeat IPC: 1.50066 cumulative IPC: 1.40476 (Simulation time: 0 hr 3 min 28 sec) 
Heartbeat CPU  0 instructions:  133000003 cycles:   66281371 heartbeat IPC: 1.52084 cumulative IPC: 1.40801 (Simulation time: 0 hr 3 min 30 sec) 
Heartbeat CPU  0 instructions:  134000001 cycles:   67034773 heartbeat IPC: 1.32731 cumulative IPC: 1.40550 (Simulation time: 0 hr 3 min 32 sec) 
Heartbeat CPU  0 instructions:  135000001 cycles:   67762817 heartbeat IPC: 1.37354 cumulative IPC: 1.40457 (Simulation time: 0 hr 3 min 34 sec) 
Heartbeat CPU  0 instructions:  136000000 cycles:   68554078 heartbeat IPC: 1.26380 cumulative IPC: 1.40023 (Simulation time: 0 hr 3 min 35 sec) 
Heartbeat CPU  0 instructions:  137000003 cycles:   69493344 heartbeat IPC: 1.06466 cumulative IPC: 1.38841 (Simulation time: 0 hr 3 min 37 sec) 
Heartbeat CPU  0 instructions:  138000002 cycles:   70214550 heartbeat IPC: 1.38656 cumulative IPC: 1.38836 (Simulation time: 0 hr 3 min 39 sec) 
Heartbeat CPU  0 instructions:  139000002 cycles:   70878613 heartbeat IPC: 1.50588 cumulative IPC: 1.39114 (Simulation time: 0 hr 3 min 41 sec) 
Heartbeat CPU  0 instructions:  140000000 cycles:   71647085 heartbeat IPC: 1.30128 cumulative IPC: 1.38874 (Simulation time: 0 hr 3 min 42 sec) 
Heartbeat CPU  0 instructions:  141000001 cycles:   72340993 heartbeat IPC: 1.44111 cumulative IPC: 1.38998 (Simulation time: 0 hr 3 min 44 sec) 
Heartbeat CPU  0 instructions:  142000001 cycles:   73004290 heartbeat IPC: 1.50762 cumulative IPC: 1.39256 (Simulation time: 0 hr 3 min 46 sec) 
Heartbeat CPU  0 instructions:  143000002 cycles:   73664889 heartbeat IPC: 1.51378 cumulative IPC: 1.39516 (Simulation time: 0 hr 3 min 48 sec) 
Heartbeat CPU  0 instructions:  144000000 cycles:   74384864 heartbeat IPC: 1.38893 cumulative IPC: 1.39502 (Simulation time: 0 hr 3 min 49 sec) 
Heartbeat CPU  0 instructions:  145000003 cycles:   75081660 heartbeat IPC: 1.43514 cumulative IPC: 1.39589 (Simulation time: 0 hr 3 min 51 sec) 
Heartbeat CPU  0 instructions:  146000000 cycles:   75742398 heartbeat IPC: 1.51345 cumulative IPC: 1.39825 (Simulation time: 0 hr 3 min 53 sec) 
Heartbeat CPU  0 instructions:  147000003 cycles:   76444300 heartbeat IPC: 1.42470 cumulative IPC: 1.39880 (Simulation time: 0 hr 3 min 55 sec) 
Heartbeat CPU  0 instructions:  148000000 cycles:   77170748 heartbeat IPC: 1.37656 cumulative IPC: 1.39833 (Simulation time: 0 hr 3 min 56 sec) 
Heartbeat CPU  0 instructions:  149000001 cycles:   77947743 heartbeat IPC: 1.28701 cumulative IPC: 1.39587 (Simulation time: 0 hr 3 min 58 sec) 
Heartbeat CPU  0 instructions:  150000003 cycles:   78802976 heartbeat IPC: 1.16927 cumulative IPC: 1.39048 (Simulation time: 0 hr 4 min 0 sec) 
Heartbeat CPU  0 instructions:  151000000 cycles:   79652609 heartbeat IPC: 1.17698 cumulative IPC: 1.38555 (Simulation time: 0 hr 4 min 2 sec) 
Heartbeat CPU  0 instructions:  152000000 cycles:   80413256 heartbeat IPC: 1.31467 cumulative IPC: 1.38411 (Simulation time: 0 hr 4 min 3 sec) 
Heartbeat CPU  0 instructions:  153000001 cycles:   81196881 heartbeat IPC: 1.27612 cumulative IPC: 1.38191 (Simulation time: 0 hr 4 min 5 sec) 
Heartbeat CPU  0 instructions:  154000000 cycles:   81989773 heartbeat IPC: 1.26120 cumulative IPC: 1.37946 (Simulation time: 0 hr 4 min 7 sec) 
Heartbeat CPU  0 instructions:  155000000 cycles:   82793862 heartbeat IPC: 1.24364 cumulative IPC: 1.37673 (Simulation time: 0 hr 4 min 9 sec) 
Heartbeat CPU  0 instructions:  156000000 cycles:   83765563 heartbeat IPC: 1.02912 cumulative IPC: 1.36847 (Simulation time: 0 hr 4 min 11 sec) 
Heartbeat CPU  0 instructions:  157000002 cycles:   84521029 heartbeat IPC: 1.32369 cumulative IPC: 1.36766 (Simulation time: 0 hr 4 min 12 sec) 
Heartbeat CPU  0 instructions:  158000001 cycles:   85433603 heartbeat IPC: 1.09580 cumulative IPC: 1.36184 (Simulation time: 0 hr 4 min 14 sec) 
Heartbeat CPU  0 instructions:  159000001 cycles:   86205387 heartbeat IPC: 1.29570 cumulative IPC: 1.36066 (Simulation time: 0 hr 4 min 16 sec) 
Heartbeat CPU  0 instructions:  160000000 cycles:   86913233 heartbeat IPC: 1.41274 cumulative IPC: 1.36150 (Simulation time: 0 hr 4 min 18 sec) 
Heartbeat CPU  0 instructions:  161000001 cycles:   87649719 heartbeat IPC: 1.35780 cumulative IPC: 1.36144 (Simulation time: 0 hr 4 min 20 sec) 
Heartbeat CPU  0 instructions:  162000003 cycles:   88393993 heartbeat IPC: 1.34359 cumulative IPC: 1.36114 (Simulation time: 0 hr 4 min 21 sec) 
Heartbeat CPU  0 instructions:  163000000 cycles:   89067401 heartbeat IPC: 1.48498 cumulative IPC: 1.36295 (Simulation time: 0 hr 4 min 23 sec) 
Heartbeat CPU  0 instructions:  164000000 cycles:   89789782 heartbeat IPC: 1.38431 cumulative IPC: 1.36328 (Simulation time: 0 hr 4 min 25 sec) 
Heartbeat CPU  0 instructions:  165000001 cycles:   90484963 heartbeat IPC: 1.43848 cumulative IPC: 1.36437 (Simulation time: 0 hr 4 min 27 sec) 
Heartbeat CPU  0 instructions:  166000001 cycles:   91165848 heartbeat IPC: 1.46868 cumulative IPC: 1.36584 (Simulation time: 0 hr 4 min 28 sec) 
Heartbeat CPU  0 instructions:  167000002 cycles:   91906585 heartbeat IPC: 1.35001 cumulative IPC: 1.36561 (Simulation time: 0 hr 4 min 30 sec) 
Heartbeat CPU  0 instructions:  168000000 cycles:   92665134 heartbeat IPC: 1.31830 cumulative IPC: 1.36489 (Simulation time: 0 hr 4 min 32 sec) 
Heartbeat CPU  0 instructions:  169000000 cycles:   93411061 heartbeat IPC: 1.34061 cumulative IPC: 1.36453 (Simulation time: 0 hr 4 min 34 sec) 
Heartbeat CPU  0 instructions:  170000001 cycles:   94097506 heartbeat IPC: 1.45678 cumulative IPC: 1.36576 (Simulation time: 0 hr 4 min 35 sec) 
Heartbeat CPU  0 instructions:  171000000 cycles:   94880971 heartbeat IPC: 1.27638 cumulative IPC: 1.36442 (Simulation time: 0 hr 4 min 37 sec) 
Heartbeat CPU  0 instructions:  172000000 cycles:   95639406 heartbeat IPC: 1.31850 cumulative IPC: 1.36376 (Simulation time: 0 hr 4 min 39 sec) 
Heartbeat CPU  0 instructions:  173000001 cycles:   96333634 heartbeat IPC: 1.44045 cumulative IPC: 1.36475 (Simulation time: 0 hr 4 min 41 sec) 
Heartbeat CPU  0 instructions:  174000000 cycles:   97071160 heartbeat IPC: 1.35588 cumulative IPC: 1.36463 (Simulation time: 0 hr 4 min 42 sec) 
Heartbeat CPU  0 instructions:  175000000 cycles:   97781165 heartbeat IPC: 1.40844 cumulative IPC: 1.36520 (Simulation time: 0 hr 4 min 44 sec) 
Heartbeat CPU  0 instructions:  176000000 cycles:   98511103 heartbeat IPC: 1.36998 cumulative IPC: 1.36526 (Simulation time: 0 hr 4 min 46 sec) 
Heartbeat CPU  0 instructions:  177000002 cycles:   99299105 heartbeat IPC: 1.26903 cumulative IPC: 1.36392 (Simulation time: 0 hr 4 min 48 sec) 
Heartbeat CPU  0 instructions:  178000001 cycles:  100117252 heartbeat IPC: 1.22227 cumulative IPC: 1.36189 (Simulation time: 0 hr 4 min 50 sec) 
Heartbeat CPU  0 instructions:  179000003 cycles:  100873303 heartbeat IPC: 1.32266 cumulative IPC: 1.36138 (Simulation time: 0 hr 4 min 51 sec) 
Heartbeat CPU  0 instructions:  180000000 cycles:  101658577 heartbeat IPC: 1.27344 cumulative IPC: 1.36021 (Simulation time: 0 hr 4 min 53 sec) 
Heartbeat CPU  0 instructions:  181000000 cycles:  102435767 heartbeat IPC: 1.28669 cumulative IPC: 1.35925 (Simulation time: 0 hr 4 min 55 sec) 
Heartbeat CPU  0 instructions:  182000003 cycles:  103223966 heartbeat IPC: 1.26872 cumulative IPC: 1.35807 (Simulation time: 0 hr 4 min 57 sec) 
Heartbeat CPU  0 instructions:  183000002 cycles:  104031749 heartbeat IPC: 1.23795 cumulative IPC: 1.35648 (Simulation time: 0 hr 4 min 59 sec) 
Heartbeat CPU  0 instructions:  184000000 cycles:  104735824 heartbeat IPC: 1.42030 cumulative IPC: 1.35721 (Simulation time: 0 hr 5 min 0 sec) 
Heartbeat CPU  0 instructions:  185000002 cycles:  105472566 heartbeat IPC: 1.35733 cumulative IPC: 1.35721 (Simulation time: 0 hr 5 min 2 sec) 
Heartbeat CPU  0 instructions:  186000000 cycles:  106180675 heartbeat IPC: 1.41221 cumulative IPC: 1.35783 (Simulation time: 0 hr 5 min 4 sec) 
Heartbeat CPU  0 instructions:  187000001 cycles:  106879451 heartbeat IPC: 1.43108 cumulative IPC: 1.35862 (Simulation time: 0 hr 5 min 6 sec) 
Heartbeat CPU  0 instructions:  188000000 cycles:  107699782 heartbeat IPC: 1.21902 cumulative IPC: 1.35686 (Simulation time: 0 hr 5 min 7 sec) 
Heartbeat CPU  0 instructions:  189000000 cycles:  108512772 heartbeat IPC: 1.23003 cumulative IPC: 1.35529 (Simulation time: 0 hr 5 min 9 sec) 
Heartbeat CPU  0 instructions:  190000000 cycles:  109272365 heartbeat IPC: 1.31649 cumulative IPC: 1.35484 (Simulation time: 0 hr 5 min 11 sec) 
Heartbeat CPU  0 instructions:  191000003 cycles:  110058300 heartbeat IPC: 1.27237 cumulative IPC: 1.35388 (Simulation time: 0 hr 5 min 13 sec) 
Heartbeat CPU  0 instructions:  192000000 cycles:  110803930 heartbeat IPC: 1.34114 cumulative IPC: 1.35374 (Simulation time: 0 hr 5 min 14 sec) 
Heartbeat CPU  0 instructions:  193000000 cycles:  111620234 heartbeat IPC: 1.22503 cumulative IPC: 1.35221 (Simulation time: 0 hr 5 min 16 sec) 
Heartbeat CPU  0 instructions:  194000001 cycles:  112448047 heartbeat IPC: 1.20800 cumulative IPC: 1.35050 (Simulation time: 0 hr 5 min 18 sec) 
Heartbeat CPU  0 instructions:  195000001 cycles:  113167093 heartbeat IPC: 1.39073 cumulative IPC: 1.35091 (Simulation time: 0 hr 5 min 20 sec) 
Heartbeat CPU  0 instructions:  196000000 cycles:  114009058 heartbeat IPC: 1.18770 cumulative IPC: 1.34898 (Simulation time: 0 hr 5 min 22 sec) 
Heartbeat CPU  0 instructions:  197000001 cycles:  114808410 heartbeat IPC: 1.25101 cumulative IPC: 1.34789 (Simulation time: 0 hr 5 min 23 sec) 
Heartbeat CPU  0 instructions:  198000002 cycles:  115648591 heartbeat IPC: 1.19022 cumulative IPC: 1.34607 (Simulation time: 0 hr 5 min 25 sec) 
Heartbeat CPU  0 instructions:  199000002 cycles:  116569715 heartbeat IPC: 1.08563 cumulative IPC: 1.34282 (Simulation time: 0 hr 5 min 27 sec) 
Heartbeat CPU  0 instructions:  200000000 cycles:  117388884 heartbeat IPC: 1.22075 cumulative IPC: 1.34148 (Simulation time: 0 hr 5 min 29 sec) 
Heartbeat CPU  0 instructions:  201000000 cycles:  118283000 heartbeat IPC: 1.11842 cumulative IPC: 1.33883 (Simulation time: 0 hr 5 min 31 sec) 
Heartbeat CPU  0 instructions:  202000000 cycles:  119092822 heartbeat IPC: 1.23484 cumulative IPC: 1.33773 (Simulation time: 0 hr 5 min 33 sec) 
Heartbeat CPU  0 instructions:  203000000 cycles:  120041919 heartbeat IPC: 1.05363 cumulative IPC: 1.33423 (Simulation time: 0 hr 5 min 34 sec) 
Heartbeat CPU  0 instructions:  204000000 cycles:  120865868 heartbeat IPC: 1.21367 cumulative IPC: 1.33296 (Simulation time: 0 hr 5 min 36 sec) 
Heartbeat CPU  0 instructions:  205000001 cycles:  121766244 heartbeat IPC: 1.11065 cumulative IPC: 1.33043 (Simulation time: 0 hr 5 min 38 sec) 
Heartbeat CPU  0 instructions:  206000003 cycles:  122561931 heartbeat IPC: 1.25678 cumulative IPC: 1.32969 (Simulation time: 0 hr 5 min 40 sec) 
Heartbeat CPU  0 instructions:  207000003 cycles:  123314862 heartbeat IPC: 1.32814 cumulative IPC: 1.32968 (Simulation time: 0 hr 5 min 42 sec) 
Heartbeat CPU  0 instructions:  208000000 cycles:  124084396 heartbeat IPC: 1.29948 cumulative IPC: 1.32939 (Simulation time: 0 hr 5 min 43 sec) 
Heartbeat CPU  0 instructions:  209000001 cycles:  124893203 heartbeat IPC: 1.23639 cumulative IPC: 1.32847 (Simulation time: 0 hr 5 min 45 sec) 
Heartbeat CPU  0 instructions:  210000003 cycles:  125802351 heartbeat IPC: 1.09993 cumulative IPC: 1.32597 (Simulation time: 0 hr 5 min 47 sec) 
Heartbeat CPU  0 instructions:  211000001 cycles:  126556208 heartbeat IPC: 1.32651 cumulative IPC: 1.32597 (Simulation time: 0 hr 5 min 49 sec) 
Heartbeat CPU  0 instructions:  212000000 cycles:  127272429 heartbeat IPC: 1.39622 cumulative IPC: 1.32657 (Simulation time: 0 hr 5 min 51 sec) 
Heartbeat CPU  0 instructions:  213000000 cycles:  128119855 heartbeat IPC: 1.18004 cumulative IPC: 1.32511 (Simulation time: 0 hr 5 min 52 sec) 
Heartbeat CPU  0 instructions:  214000000 cycles:  128924839 heartbeat IPC: 1.24226 cumulative IPC: 1.32434 (Simulation time: 0 hr 5 min 54 sec) 
Heartbeat CPU  0 instructions:  215000001 cycles:  129806553 heartbeat IPC: 1.13416 cumulative IPC: 1.32241 (Simulation time: 0 hr 5 min 56 sec) 
Heartbeat CPU  0 instructions:  216000000 cycles:  130636224 heartbeat IPC: 1.20530 cumulative IPC: 1.32130 (Simulation time: 0 hr 5 min 58 sec) 
Heartbeat CPU  0 instructions:  217000003 cycles:  131572645 heartbeat IPC: 1.06790 cumulative IPC: 1.31863 (Simulation time: 0 hr 6 min 0 sec) 
Heartbeat CPU  0 instructions:  218000002 cycles:  132361846 heartbeat IPC: 1.26710 cumulative IPC: 1.31817 (Simulation time: 0 hr 6 min 2 sec) 
Heartbeat CPU  0 instructions:  219000001 cycles:  133085961 heartbeat IPC: 1.38099 cumulative IPC: 1.31868 (Simulation time: 0 hr 6 min 3 sec) 
Heartbeat CPU  0 instructions:  220000000 cycles:  133796360 heartbeat IPC: 1.40766 cumulative IPC: 1.31937 (Simulation time: 0 hr 6 min 5 sec) 
Heartbeat CPU  0 instructions:  221000000 cycles:  134468294 heartbeat IPC: 1.48824 cumulative IPC: 1.32061 (Simulation time: 0 hr 6 min 7 sec) 
Heartbeat CPU  0 instructions:  222000003 cycles:  135333597 heartbeat IPC: 1.15567 cumulative IPC: 1.31907 (Simulation time: 0 hr 6 min 9 sec) 
Heartbeat CPU  0 instructions:  223000002 cycles:  136046623 heartbeat IPC: 1.40247 cumulative IPC: 1.31971 (Simulation time: 0 hr 6 min 10 sec) 
Heartbeat CPU  0 instructions:  224000000 cycles:  136730283 heartbeat IPC: 1.46271 cumulative IPC: 1.32075 (Simulation time: 0 hr 6 min 12 sec) 
Heartbeat CPU  0 instructions:  225000000 cycles:  137442231 heartbeat IPC: 1.40460 cumulative IPC: 1.32138 (Simulation time: 0 hr 6 min 14 sec) 
Heartbeat CPU  0 instructions:  226000001 cycles:  138286097 heartbeat IPC: 1.18502 cumulative IPC: 1.32017 (Simulation time: 0 hr 6 min 16 sec) 
Heartbeat CPU  0 instructions:  227000002 cycles:  138970069 heartbeat IPC: 1.46205 cumulative IPC: 1.32118 (Simulation time: 0 hr 6 min 17 sec) 
Heartbeat CPU  0 instructions:  228000000 cycles:  139699032 heartbeat IPC: 1.37181 cumulative IPC: 1.32156 (Simulation time: 0 hr 6 min 19 sec) 
Heartbeat CPU  0 instructions:  229000000 cycles:  140404815 heartbeat IPC: 1.41687 cumulative IPC: 1.32225 (Simulation time: 0 hr 6 min 21 sec) 
Heartbeat CPU  0 instructions:  230000002 cycles:  141137284 heartbeat IPC: 1.36525 cumulative IPC: 1.32257 (Simulation time: 0 hr 6 min 23 sec) 
Heartbeat CPU  0 instructions:  231000000 cycles:  141929880 heartbeat IPC: 1.26167 cumulative IPC: 1.32209 (Simulation time: 0 hr 6 min 24 sec) 
Heartbeat CPU  0 instructions:  232000000 cycles:  142652907 heartbeat IPC: 1.38307 cumulative IPC: 1.32253 (Simulation time: 0 hr 6 min 26 sec) 
Heartbeat CPU  0 instructions:  233000001 cycles:  143342604 heartbeat IPC: 1.44991 cumulative IPC: 1.32340 (Simulation time: 0 hr 6 min 28 sec) 
Heartbeat CPU  0 instructions:  234000003 cycles:  144099958 heartbeat IPC: 1.32039 cumulative IPC: 1.32338 (Simulation time: 0 hr 6 min 30 sec) 
Heartbeat CPU  0 instructions:  235000002 cycles:  144893237 heartbeat IPC: 1.26059 cumulative IPC: 1.32289 (Simulation time: 0 hr 6 min 31 sec) 
Heartbeat CPU  0 instructions:  236000000 cycles:  145596018 heartbeat IPC: 1.42292 cumulative IPC: 1.32358 (Simulation time: 0 hr 6 min 33 sec) 
Heartbeat CPU  0 instructions:  237000002 cycles:  146281956 heartbeat IPC: 1.45786 cumulative IPC: 1.32447 (Simulation time: 0 hr 6 min 35 sec) 
Heartbeat CPU  0 instructions:  238000000 cycles:  147063147 heartbeat IPC: 1.28009 cumulative IPC: 1.32413 (Simulation time: 0 hr 6 min 37 sec) 
Heartbeat CPU  0 instructions:  239000000 cycles:  147832814 heartbeat IPC: 1.29926 cumulative IPC: 1.32395 (Simulation time: 0 hr 6 min 39 sec) 
Heartbeat CPU  0 instructions:  240000000 cycles:  148525852 heartbeat IPC: 1.44292 cumulative IPC: 1.32473 (Simulation time: 0 hr 6 min 40 sec) 
Heartbeat CPU  0 instructions:  241000002 cycles:  149242593 heartbeat IPC: 1.39521 cumulative IPC: 1.32521 (Simulation time: 0 hr 6 min 42 sec) 
Heartbeat CPU  0 instructions:  242000002 cycles:  150006144 heartbeat IPC: 1.30967 cumulative IPC: 1.32510 (Simulation time: 0 hr 6 min 44 sec) 
Heartbeat CPU  0 instructions:  243000002 cycles:  150766016 heartbeat IPC: 1.31601 cumulative IPC: 1.32503 (Simulation time: 0 hr 6 min 46 sec) 
Heartbeat CPU  0 instructions:  244000000 cycles:  151492148 heartbeat IPC: 1.37716 cumulative IPC: 1.32538 (Simulation time: 0 hr 6 min 47 sec) 
Heartbeat CPU  0 instructions:  245000000 cycles:  152196121 heartbeat IPC: 1.42051 cumulative IPC: 1.32599 (Simulation time: 0 hr 6 min 49 sec) 
Heartbeat CPU  0 instructions:  246000000 cycles:  152871137 heartbeat IPC: 1.48145 cumulative IPC: 1.32695 (Simulation time: 0 hr 6 min 51 sec) 
Heartbeat CPU  0 instructions:  247000001 cycles:  153637016 heartbeat IPC: 1.30569 cumulative IPC: 1.32680 (Simulation time: 0 hr 6 min 53 sec) 
Heartbeat CPU  0 instructions:  248000000 cycles:  154492685 heartbeat IPC: 1.16868 cumulative IPC: 1.32559 (Simulation time: 0 hr 6 min 54 sec) 
Heartbeat CPU  0 instructions:  249000000 cycles:  155173018 heartbeat IPC: 1.46987 cumulative IPC: 1.32646 (Simulation time: 0 hr 6 min 56 sec) 
Heartbeat CPU  0 instructions:  250000001 cycles:  155897227 heartbeat IPC: 1.38082 cumulative IPC: 1.32681 (Simulation time: 0 hr 6 min 58 sec) 
Heartbeat CPU  0 instructions:  251000000 cycles:  156605124 heartbeat IPC: 1.41263 cumulative IPC: 1.32734 (Simulation time: 0 hr 7 min 0 sec) 
Heartbeat CPU  0 instructions:  252000000 cycles:  157302235 heartbeat IPC: 1.43449 cumulative IPC: 1.32800 (Simulation time: 0 hr 7 min 1 sec) 
Heartbeat CPU  0 instructions:  253000002 cycles:  158191735 heartbeat IPC: 1.12423 cumulative IPC: 1.32643 (Simulation time: 0 hr 7 min 3 sec) 
Heartbeat CPU  0 instructions:  254000002 cycles:  158902271 heartbeat IPC: 1.40739 cumulative IPC: 1.32692 (Simulation time: 0 hr 7 min 5 sec) 
Heartbeat CPU  0 instructions:  255000000 cycles:  159578697 heartbeat IPC: 1.47836 cumulative IPC: 1.32780 (Simulation time: 0 hr 7 min 7 sec) 
Heartbeat CPU  0 instructions:  256000000 cycles:  160423672 heartbeat IPC: 1.18347 cumulative IPC: 1.32676 (Simulation time: 0 hr 7 min 9 sec) 
Heartbeat CPU  0 instructions:  257000000 cycles:  161133162 heartbeat IPC: 1.40946 cumulative IPC: 1.32726 (Simulation time: 0 hr 7 min 10 sec) 
Heartbeat CPU  0 instructions:  258000002 cycles:  161810274 heartbeat IPC: 1.47686 cumulative IPC: 1.32811 (Simulation time: 0 hr 7 min 12 sec) 
Heartbeat CPU  0 instructions:  259000000 cycles:  162657597 heartbeat IPC: 1.18019 cumulative IPC: 1.32706 (Simulation time: 0 hr 7 min 14 sec) 
Heartbeat CPU  0 instructions:  260000000 cycles:  163370201 heartbeat IPC: 1.40330 cumulative IPC: 1.32751 (Simulation time: 0 hr 7 min 16 sec) 
Heartbeat CPU  0 instructions:  261000002 cycles:  164047867 heartbeat IPC: 1.47566 cumulative IPC: 1.32834 (Simulation time: 0 hr 7 min 17 sec) 
Heartbeat CPU  0 instructions:  262000000 cycles:  164890228 heartbeat IPC: 1.18714 cumulative IPC: 1.32737 (Simulation time: 0 hr 7 min 19 sec) 
Heartbeat CPU  0 instructions:  263000002 cycles:  165600882 heartbeat IPC: 1.40716 cumulative IPC: 1.32783 (Simulation time: 0 hr 7 min 21 sec) 
Heartbeat CPU  0 instructions:  264000000 cycles:  166276566 heartbeat IPC: 1.47998 cumulative IPC: 1.32866 (Simulation time: 0 hr 7 min 23 sec) 
Heartbeat CPU  0 instructions:  265000000 cycles:  167126666 heartbeat IPC: 1.17633 cumulative IPC: 1.32762 (Simulation time: 0 hr 7 min 25 sec) 
Heartbeat CPU  0 instructions:  266000000 cycles:  167835897 heartbeat IPC: 1.40998 cumulative IPC: 1.32809 (Simulation time: 0 hr 7 min 26 sec) 
Heartbeat CPU  0 instructions:  267000002 cycles:  168511466 heartbeat IPC: 1.48024 cumulative IPC: 1.32891 (Simulation time: 0 hr 7 min 28 sec) 
Heartbeat CPU  0 instructions:  268000000 cycles:  169354685 heartbeat IPC: 1.18593 cumulative IPC: 1.32795 (Simulation time: 0 hr 7 min 30 sec) 
Heartbeat CPU  0 instructions:  269000002 cycles:  170064608 heartbeat IPC: 1.40861 cumulative IPC: 1.32840 (Simulation time: 0 hr 7 min 32 sec) 
Heartbeat CPU  0 instructions:  270000002 cycles:  170740573 heartbeat IPC: 1.47937 cumulative IPC: 1.32920 (Simulation time: 0 hr 7 min 33 sec) 
Heartbeat CPU  0 instructions:  271000000 cycles:  171590672 heartbeat IPC: 1.17633 cumulative IPC: 1.32819 (Simulation time: 0 hr 7 min 35 sec) 
Heartbeat CPU  0 instructions:  272000000 cycles:  172300693 heartbeat IPC: 1.40841 cumulative IPC: 1.32863 (Simulation time: 0 hr 7 min 37 sec) 
Heartbeat CPU  0 instructions:  273000002 cycles:  172976371 heartbeat IPC: 1.48000 cumulative IPC: 1.32942 (Simulation time: 0 hr 7 min 39 sec) 
Heartbeat CPU  0 instructions:  274000002 cycles:  173820139 heartbeat IPC: 1.18516 cumulative IPC: 1.32849 (Simulation time: 0 hr 7 min 40 sec) 
Heartbeat CPU  0 instructions:  275000000 cycles:  174529030 heartbeat IPC: 1.41065 cumulative IPC: 1.32893 (Simulation time: 0 hr 7 min 42 sec) 
Heartbeat CPU  0 instructions:  276000000 cycles:  175204598 heartbeat IPC: 1.48024 cumulative IPC: 1.32970 (Simulation time: 0 hr 7 min 44 sec) 
Heartbeat CPU  0 instructions:  277000003 cycles:  176051590 heartbeat IPC: 1.18065 cumulative IPC: 1.32875 (Simulation time: 0 hr 7 min 46 sec) 
Heartbeat CPU  0 instructions:  278000002 cycles:  176766651 heartbeat IPC: 1.39848 cumulative IPC: 1.32913 (Simulation time: 0 hr 7 min 48 sec) 
Heartbeat CPU  0 instructions:  279000001 cycles:  177439962 heartbeat IPC: 1.48520 cumulative IPC: 1.32991 (Simulation time: 0 hr 7 min 49 sec) 
Heartbeat CPU  0 instructions:  280000000 cycles:  178284780 heartbeat IPC: 1.18369 cumulative IPC: 1.32900 (Simulation time: 0 hr 7 min 51 sec) 
Heartbeat CPU  0 instructions:  281000000 cycles:  178995205 heartbeat IPC: 1.40761 cumulative IPC: 1.32941 (Simulation time: 0 hr 7 min 53 sec) 
Heartbeat CPU  0 instructions:  282000002 cycles:  179669724 heartbeat IPC: 1.48254 cumulative IPC: 1.33016 (Simulation time: 0 hr 7 min 55 sec) 
Heartbeat CPU  0 instructions:  283000002 cycles:  180517814 heartbeat IPC: 1.17912 cumulative IPC: 1.32923 (Simulation time: 0 hr 7 min 56 sec) 
Heartbeat CPU  0 instructions:  284000000 cycles:  181228355 heartbeat IPC: 1.40738 cumulative IPC: 1.32963 (Simulation time: 0 hr 7 min 58 sec) 
Heartbeat CPU  0 instructions:  285000000 cycles:  181904255 heartbeat IPC: 1.47951 cumulative IPC: 1.33036 (Simulation time: 0 hr 8 min 0 sec) 
Heartbeat CPU  0 instructions:  286000000 cycles:  182747602 heartbeat IPC: 1.18575 cumulative IPC: 1.32949 (Simulation time: 0 hr 8 min 2 sec) 
Heartbeat CPU  0 instructions:  287000000 cycles:  183463121 heartbeat IPC: 1.39759 cumulative IPC: 1.32983 (Simulation time: 0 hr 8 min 4 sec) 
Heartbeat CPU  0 instructions:  288000000 cycles:  184139029 heartbeat IPC: 1.47949 cumulative IPC: 1.33055 (Simulation time: 0 hr 8 min 5 sec) 
Heartbeat CPU  0 instructions:  289000003 cycles:  184985199 heartbeat IPC: 1.18180 cumulative IPC: 1.32966 (Simulation time: 0 hr 8 min 7 sec) 
Heartbeat CPU  0 instructions:  290000002 cycles:  185700319 heartbeat IPC: 1.39837 cumulative IPC: 1.33001 (Simulation time: 0 hr 8 min 9 sec) 
Heartbeat CPU  0 instructions:  291000001 cycles:  186369597 heartbeat IPC: 1.49415 cumulative IPC: 1.33077 (Simulation time: 0 hr 8 min 11 sec) 
Heartbeat CPU  0 instructions:  292000000 cycles:  187152411 heartbeat IPC: 1.27744 cumulative IPC: 1.33048 (Simulation time: 0 hr 8 min 12 sec) 
Heartbeat CPU  0 instructions:  293000001 cycles:  187874965 heartbeat IPC: 1.38398 cumulative IPC: 1.33075 (Simulation time: 0 hr 8 min 14 sec) 
Heartbeat CPU  0 instructions:  294000001 cycles:  188565111 heartbeat IPC: 1.44897 cumulative IPC: 1.33131 (Simulation time: 0 hr 8 min 16 sec) 
Heartbeat CPU  0 instructions:  295000002 cycles:  189309652 heartbeat IPC: 1.34311 cumulative IPC: 1.33137 (Simulation time: 0 hr 8 min 18 sec) 
Heartbeat CPU  0 instructions:  296000000 cycles:  190033540 heartbeat IPC: 1.38143 cumulative IPC: 1.33162 (Simulation time: 0 hr 8 min 19 sec) 
Heartbeat CPU  0 instructions:  297000001 cycles:  190734013 heartbeat IPC: 1.42761 cumulative IPC: 1.33207 (Simulation time: 0 hr 8 min 21 sec) 
Heartbeat CPU  0 instructions:  298000000 cycles:  191476453 heartbeat IPC: 1.34691 cumulative IPC: 1.33215 (Simulation time: 0 hr 8 min 23 sec) 
Heartbeat CPU  0 instructions:  299000000 cycles:  192204181 heartbeat IPC: 1.37414 cumulative IPC: 1.33235 (Simulation time: 0 hr 8 min 25 sec) 
Heartbeat CPU  0 instructions:  300000000 cycles:  192909356 heartbeat IPC: 1.41809 cumulative IPC: 1.33275 (Simulation time: 0 hr 8 min 27 sec) 
Heartbeat CPU  0 instructions:  301000003 cycles:  193637954 heartbeat IPC: 1.37250 cumulative IPC: 1.33295 (Simulation time: 0 hr 8 min 28 sec) 
Heartbeat CPU  0 instructions:  302000003 cycles:  194364448 heartbeat IPC: 1.37647 cumulative IPC: 1.33315 (Simulation time: 0 hr 8 min 30 sec) 
Heartbeat CPU  0 instructions:  303000002 cycles:  195079715 heartbeat IPC: 1.39808 cumulative IPC: 1.33346 (Simulation time: 0 hr 8 min 32 sec) 
Heartbeat CPU  0 instructions:  304000000 cycles:  195826307 heartbeat IPC: 1.33942 cumulative IPC: 1.33349 (Simulation time: 0 hr 8 min 34 sec) 
Heartbeat CPU  0 instructions:  305000001 cycles:  196520015 heartbeat IPC: 1.44153 cumulative IPC: 1.33398 (Simulation time: 0 hr 8 min 35 sec) 
Heartbeat CPU  0 instructions:  306000003 cycles:  197234779 heartbeat IPC: 1.39907 cumulative IPC: 1.33428 (Simulation time: 0 hr 8 min 37 sec) 
Heartbeat CPU  0 instructions:  307000000 cycles:  197993345 heartbeat IPC: 1.31827 cumulative IPC: 1.33420 (Simulation time: 0 hr 8 min 39 sec) 
Heartbeat CPU  0 instructions:  308000000 cycles:  198677034 heartbeat IPC: 1.46265 cumulative IPC: 1.33476 (Simulation time: 0 hr 8 min 41 sec) 
Heartbeat CPU  0 instructions:  309000002 cycles:  199414356 heartbeat IPC: 1.35626 cumulative IPC: 1.33486 (Simulation time: 0 hr 8 min 42 sec) 
Heartbeat CPU  0 instructions:  310000000 cycles:  200228832 heartbeat IPC: 1.22778 cumulative IPC: 1.33431 (Simulation time: 0 hr 8 min 44 sec) 
Heartbeat CPU  0 instructions:  311000001 cycles:  200909789 heartbeat IPC: 1.46852 cumulative IPC: 1.33489 (Simulation time: 0 hr 8 min 46 sec) 
Heartbeat CPU  0 instructions:  312000000 cycles:  201647474 heartbeat IPC: 1.35559 cumulative IPC: 1.33498 (Simulation time: 0 hr 8 min 48 sec) 
Heartbeat CPU  0 instructions:  313000002 cycles:  202542597 heartbeat IPC: 1.11717 cumulative IPC: 1.33376 (Simulation time: 0 hr 8 min 50 sec) 
Heartbeat CPU  0 instructions:  314000001 cycles:  203299694 heartbeat IPC: 1.32083 cumulative IPC: 1.33370 (Simulation time: 0 hr 8 min 51 sec) 
Heartbeat CPU  0 instructions:  315000000 cycles:  204023216 heartbeat IPC: 1.38213 cumulative IPC: 1.33392 (Simulation time: 0 hr 8 min 53 sec) 
Heartbeat CPU  0 instructions:  316000000 cycles:  204780694 heartbeat IPC: 1.32017 cumulative IPC: 1.33386 (Simulation time: 0 hr 8 min 55 sec) 
Heartbeat CPU  0 instructions:  317000001 cycles:  205613203 heartbeat IPC: 1.20119 cumulative IPC: 1.33318 (Simulation time: 0 hr 8 min 57 sec) 
Heartbeat CPU  0 instructions:  318000001 cycles:  206505896 heartbeat IPC: 1.12021 cumulative IPC: 1.33202 (Simulation time: 0 hr 8 min 58 sec) 
Heartbeat CPU  0 instructions:  319000003 cycles:  207202136 heartbeat IPC: 1.43629 cumulative IPC: 1.33246 (Simulation time: 0 hr 9 min 0 sec) 
Heartbeat CPU  0 instructions:  320000000 cycles:  207912644 heartbeat IPC: 1.40744 cumulative IPC: 1.33278 (Simulation time: 0 hr 9 min 2 sec) 
Heartbeat CPU  0 instructions:  321000001 cycles:  208749650 heartbeat IPC: 1.19474 cumulative IPC: 1.33208 (Simulation time: 0 hr 9 min 4 sec) 
Heartbeat CPU  0 instructions:  322000003 cycles:  209555539 heartbeat IPC: 1.24087 cumulative IPC: 1.33164 (Simulation time: 0 hr 9 min 6 sec) 
Heartbeat CPU  0 instructions:  323000001 cycles:  210357276 heartbeat IPC: 1.24729 cumulative IPC: 1.33124 (Simulation time: 0 hr 9 min 7 sec) 
Heartbeat CPU  0 instructions:  324000000 cycles:  211084869 heartbeat IPC: 1.37439 cumulative IPC: 1.33143 (Simulation time: 0 hr 9 min 9 sec) 
Heartbeat CPU  0 instructions:  325000000 cycles:  211832981 heartbeat IPC: 1.33670 cumulative IPC: 1.33145 (Simulation time: 0 hr 9 min 11 sec) 
Heartbeat CPU  0 instructions:  326000003 cycles:  212655421 heartbeat IPC: 1.21590 cumulative IPC: 1.33089 (Simulation time: 0 hr 9 min 13 sec) 
Heartbeat CPU  0 instructions:  327000000 cycles:  213401319 heartbeat IPC: 1.34066 cumulative IPC: 1.33093 (Simulation time: 0 hr 9 min 14 sec) 
Heartbeat CPU  0 instructions:  328000000 cycles:  214188899 heartbeat IPC: 1.26971 cumulative IPC: 1.33065 (Simulation time: 0 hr 9 min 16 sec) 
Heartbeat CPU  0 instructions:  329000001 cycles:  214996649 heartbeat IPC: 1.23801 cumulative IPC: 1.33022 (Simulation time: 0 hr 9 min 18 sec) 
Heartbeat CPU  0 instructions:  330000001 cycles:  215663726 heartbeat IPC: 1.49908 cumulative IPC: 1.33087 (Simulation time: 0 hr 9 min 20 sec) 
Heartbeat CPU  0 instructions:  331000000 cycles:  216368785 heartbeat IPC: 1.41832 cumulative IPC: 1.33122 (Simulation time: 0 hr 9 min 21 sec) 
Heartbeat CPU  0 instructions:  332000000 cycles:  217103297 heartbeat IPC: 1.36145 cumulative IPC: 1.33135 (Simulation time: 0 hr 9 min 23 sec) 
Heartbeat CPU  0 instructions:  333000001 cycles:  217884862 heartbeat IPC: 1.27949 cumulative IPC: 1.33112 (Simulation time: 0 hr 9 min 25 sec) 
Heartbeat CPU  0 instructions:  334000002 cycles:  218674876 heartbeat IPC: 1.26580 cumulative IPC: 1.33083 (Simulation time: 0 hr 9 min 27 sec) 
Heartbeat CPU  0 instructions:  335000000 cycles:  219506606 heartbeat IPC: 1.20231 cumulative IPC: 1.33022 (Simulation time: 0 hr 9 min 29 sec) 
Heartbeat CPU  0 instructions:  336000000 cycles:  220236773 heartbeat IPC: 1.36955 cumulative IPC: 1.33038 (Simulation time: 0 hr 9 min 30 sec) 
Heartbeat CPU  0 instructions:  337000002 cycles:  220957477 heartbeat IPC: 1.38753 cumulative IPC: 1.33061 (Simulation time: 0 hr 9 min 32 sec) 
Heartbeat CPU  0 instructions:  338000003 cycles:  221763524 heartbeat IPC: 1.24062 cumulative IPC: 1.33021 (Simulation time: 0 hr 9 min 34 sec) 
Heartbeat CPU  0 instructions:  339000002 cycles:  222510262 heartbeat IPC: 1.33916 cumulative IPC: 1.33024 (Simulation time: 0 hr 9 min 36 sec) 
Heartbeat CPU  0 instructions:  340000000 cycles:  223283550 heartbeat IPC: 1.29318 cumulative IPC: 1.33009 (Simulation time: 0 hr 9 min 37 sec) 
Heartbeat CPU  0 instructions:  341000001 cycles:  224086583 heartbeat IPC: 1.24528 cumulative IPC: 1.32971 (Simulation time: 0 hr 9 min 39 sec) 
Heartbeat CPU  0 instructions:  342000003 cycles:  224764070 heartbeat IPC: 1.47605 cumulative IPC: 1.33026 (Simulation time: 0 hr 9 min 41 sec) 
Heartbeat CPU  0 instructions:  343000003 cycles:  225539130 heartbeat IPC: 1.29022 cumulative IPC: 1.33009 (Simulation time: 0 hr 9 min 43 sec) 
Heartbeat CPU  0 instructions:  344000000 cycles:  226270088 heartbeat IPC: 1.36806 cumulative IPC: 1.33024 (Simulation time: 0 hr 9 min 44 sec) 
Heartbeat CPU  0 instructions:  345000003 cycles:  226941855 heartbeat IPC: 1.48862 cumulative IPC: 1.33081 (Simulation time: 0 hr 9 min 46 sec) 
Heartbeat CPU  0 instructions:  346000000 cycles:  227663470 heartbeat IPC: 1.38578 cumulative IPC: 1.33103 (Simulation time: 0 hr 9 min 48 sec) 
Heartbeat CPU  0 instructions:  347000001 cycles:  228396872 heartbeat IPC: 1.36351 cumulative IPC: 1.33116 (Simulation time: 0 hr 9 min 50 sec) 
Heartbeat CPU  0 instructions:  348000000 cycles:  229135473 heartbeat IPC: 1.35391 cumulative IPC: 1.33125 (Simulation time: 0 hr 9 min 51 sec) 
Heartbeat CPU  0 instructions:  349000003 cycles:  229872068 heartbeat IPC: 1.35760 cumulative IPC: 1.33135 (Simulation time: 0 hr 9 min 53 sec) 
Heartbeat CPU  0 instructions:  350000003 cycles:  230598972 heartbeat IPC: 1.37570 cumulative IPC: 1.33152 (Simulation time: 0 hr 9 min 55 sec) 
Heartbeat CPU  0 instructions:  351000002 cycles:  231393444 heartbeat IPC: 1.25870 cumulative IPC: 1.33122 (Simulation time: 0 hr 9 min 57 sec) 
Heartbeat CPU  0 instructions:  352000000 cycles:  232089343 heartbeat IPC: 1.43699 cumulative IPC: 1.33161 (Simulation time: 0 hr 9 min 58 sec) 
Heartbeat CPU  0 instructions:  353000003 cycles:  232838867 heartbeat IPC: 1.33418 cumulative IPC: 1.33162 (Simulation time: 0 hr 10 min 0 sec) 
Heartbeat CPU  0 instructions:  354000002 cycles:  233533517 heartbeat IPC: 1.43957 cumulative IPC: 1.33201 (Simulation time: 0 hr 10 min 2 sec) 
Heartbeat CPU  0 instructions:  355000002 cycles:  234257467 heartbeat IPC: 1.38131 cumulative IPC: 1.33220 (Simulation time: 0 hr 10 min 4 sec) 
Heartbeat CPU  0 instructions:  356000000 cycles:  235032246 heartbeat IPC: 1.29069 cumulative IPC: 1.33203 (Simulation time: 0 hr 10 min 5 sec) 
Heartbeat CPU  0 instructions:  357000002 cycles:  235806391 heartbeat IPC: 1.29175 cumulative IPC: 1.33187 (Simulation time: 0 hr 10 min 7 sec) 
Heartbeat CPU  0 instructions:  358000002 cycles:  236511268 heartbeat IPC: 1.41869 cumulative IPC: 1.33218 (Simulation time: 0 hr 10 min 9 sec) 
Heartbeat CPU  0 instructions:  359000002 cycles:  237227888 heartbeat IPC: 1.39544 cumulative IPC: 1.33242 (Simulation time: 0 hr 10 min 11 sec) 
Heartbeat CPU  0 instructions:  360000000 cycles:  237925272 heartbeat IPC: 1.43393 cumulative IPC: 1.33278 (Simulation time: 0 hr 10 min 12 sec) 
Heartbeat CPU  0 instructions:  361000000 cycles:  238619963 heartbeat IPC: 1.43949 cumulative IPC: 1.33316 (Simulation time: 0 hr 10 min 14 sec) 
Heartbeat CPU  0 instructions:  362000003 cycles:  239359218 heartbeat IPC: 1.35272 cumulative IPC: 1.33323 (Simulation time: 0 hr 10 min 16 sec) 
Heartbeat CPU  0 instructions:  363000000 cycles:  240088700 heartbeat IPC: 1.37083 cumulative IPC: 1.33337 (Simulation time: 0 hr 10 min 18 sec) 
Heartbeat CPU  0 instructions:  364000000 cycles:  240810332 heartbeat IPC: 1.38575 cumulative IPC: 1.33356 (Simulation time: 0 hr 10 min 19 sec) 
Heartbeat CPU  0 instructions:  365000001 cycles:  241545044 heartbeat IPC: 1.36108 cumulative IPC: 1.33366 (Simulation time: 0 hr 10 min 21 sec) 
Heartbeat CPU  0 instructions:  366000003 cycles:  242355916 heartbeat IPC: 1.23324 cumulative IPC: 1.33325 (Simulation time: 0 hr 10 min 23 sec) 
Heartbeat CPU  0 instructions:  367000001 cycles:  243106966 heartbeat IPC: 1.33147 cumulative IPC: 1.33325 (Simulation time: 0 hr 10 min 25 sec) 
Heartbeat CPU  0 instructions:  368000000 cycles:  243915425 heartbeat IPC: 1.23692 cumulative IPC: 1.33286 (Simulation time: 0 hr 10 min 27 sec) 
Heartbeat CPU  0 instructions:  369000000 cycles:  244651761 heartbeat IPC: 1.35808 cumulative IPC: 1.33295 (Simulation time: 0 hr 10 min 28 sec) 
Heartbeat CPU  0 instructions:  370000001 cycles:  245332422 heartbeat IPC: 1.46916 cumulative IPC: 1.33341 (Simulation time: 0 hr 10 min 30 sec) 
Heartbeat CPU  0 instructions:  371000001 cycles:  246077131 heartbeat IPC: 1.34281 cumulative IPC: 1.33344 (Simulation time: 0 hr 10 min 32 sec) 
Heartbeat CPU  0 instructions:  372000000 cycles:  246859466 heartbeat IPC: 1.27822 cumulative IPC: 1.33323 (Simulation time: 0 hr 10 min 34 sec) 
Heartbeat CPU  0 instructions:  373000000 cycles:  247596301 heartbeat IPC: 1.35716 cumulative IPC: 1.33332 (Simulation time: 0 hr 10 min 35 sec) 
Heartbeat CPU  0 instructions:  374000002 cycles:  248363487 heartbeat IPC: 1.30347 cumulative IPC: 1.33321 (Simulation time: 0 hr 10 min 37 sec) 
Heartbeat CPU  0 instructions:  375000000 cycles:  249100706 heartbeat IPC: 1.35645 cumulative IPC: 1.33329 (Simulation time: 0 hr 10 min 39 sec) 
Heartbeat CPU  0 instructions:  376000000 cycles:  249849689 heartbeat IPC: 1.33514 cumulative IPC: 1.33330 (Simulation time: 0 hr 10 min 41 sec) 
Heartbeat CPU  0 instructions:  377000001 cycles:  250567375 heartbeat IPC: 1.39337 cumulative IPC: 1.33350 (Simulation time: 0 hr 10 min 42 sec) 
Heartbeat CPU  0 instructions:  378000003 cycles:  251369130 heartbeat IPC: 1.24727 cumulative IPC: 1.33317 (Simulation time: 0 hr 10 min 44 sec) 
Heartbeat CPU  0 instructions:  379000002 cycles:  252073563 heartbeat IPC: 1.41958 cumulative IPC: 1.33346 (Simulation time: 0 hr 10 min 46 sec) 
Heartbeat CPU  0 instructions:  380000000 cycles:  252815764 heartbeat IPC: 1.34734 cumulative IPC: 1.33351 (Simulation time: 0 hr 10 min 48 sec) 
Heartbeat CPU  0 instructions:  381000000 cycles:  253595434 heartbeat IPC: 1.28259 cumulative IPC: 1.33332 (Simulation time: 0 hr 10 min 49 sec) 
Heartbeat CPU  0 instructions:  382000001 cycles:  254290178 heartbeat IPC: 1.43938 cumulative IPC: 1.33367 (Simulation time: 0 hr 10 min 51 sec) 
Heartbeat CPU  0 instructions:  383000002 cycles:  255001102 heartbeat IPC: 1.40662 cumulative IPC: 1.33392 (Simulation time: 0 hr 10 min 53 sec) 
Heartbeat CPU  0 instructions:  384000000 cycles:  255713447 heartbeat IPC: 1.40381 cumulative IPC: 1.33415 (Simulation time: 0 hr 10 min 55 sec) 
Heartbeat CPU  0 instructions:  385000001 cycles:  256504756 heartbeat IPC: 1.26373 cumulative IPC: 1.33389 (Simulation time: 0 hr 10 min 56 sec) 
Heartbeat CPU  0 instructions:  386000003 cycles:  257262718 heartbeat IPC: 1.31933 cumulative IPC: 1.33384 (Simulation time: 0 hr 10 min 58 sec) 
Heartbeat CPU  0 instructions:  387000002 cycles:  257986771 heartbeat IPC: 1.38111 cumulative IPC: 1.33400 (Simulation time: 0 hr 11 min 0 sec) 
Heartbeat CPU  0 instructions:  388000000 cycles:  258719716 heartbeat IPC: 1.36436 cumulative IPC: 1.33410 (Simulation time: 0 hr 11 min 2 sec) 
Heartbeat CPU  0 instructions:  389000000 cycles:  259382283 heartbeat IPC: 1.50928 cumulative IPC: 1.33464 (Simulation time: 0 hr 11 min 3 sec) 
Heartbeat CPU  0 instructions:  390000003 cycles:  260084602 heartbeat IPC: 1.42386 cumulative IPC: 1.33493 (Simulation time: 0 hr 11 min 5 sec) 
Heartbeat CPU  0 instructions:  391000000 cycles:  260827560 heartbeat IPC: 1.34597 cumulative IPC: 1.33496 (Simulation time: 0 hr 11 min 7 sec) 
Heartbeat CPU  0 instructions:  392000000 cycles:  261552582 heartbeat IPC: 1.37927 cumulative IPC: 1.33511 (Simulation time: 0 hr 11 min 9 sec) 
Heartbeat CPU  0 instructions:  393000000 cycles:  262240870 heartbeat IPC: 1.45288 cumulative IPC: 1.33548 (Simulation time: 0 hr 11 min 10 sec) 
Heartbeat CPU  0 instructions:  394000000 cycles:  262982101 heartbeat IPC: 1.34911 cumulative IPC: 1.33553 (Simulation time: 0 hr 11 min 12 sec) 
Heartbeat CPU  0 instructions:  395000000 cycles:  263764888 heartbeat IPC: 1.27749 cumulative IPC: 1.33532 (Simulation time: 0 hr 11 min 14 sec) 
Heartbeat CPU  0 instructions:  396000000 cycles:  264510662 heartbeat IPC: 1.34089 cumulative IPC: 1.33534 (Simulation time: 0 hr 11 min 16 sec) 
Heartbeat CPU  0 instructions:  397000000 cycles:  265360021 heartbeat IPC: 1.17736 cumulative IPC: 1.33474 (Simulation time: 0 hr 11 min 18 sec) 
Heartbeat CPU  0 instructions:  398000000 cycles:  266063489 heartbeat IPC: 1.42153 cumulative IPC: 1.33501 (Simulation time: 0 hr 11 min 19 sec) 
Heartbeat CPU  0 instructions:  399000003 cycles:  266812148 heartbeat IPC: 1.33573 cumulative IPC: 1.33501 (Simulation time: 0 hr 11 min 21 sec) 
Heartbeat CPU  0 instructions:  400000000 cycles:  267536964 heartbeat IPC: 1.37966 cumulative IPC: 1.33516 (Simulation time: 0 hr 11 min 23 sec) 
Heartbeat CPU  0 instructions:  401000001 cycles:  268272109 heartbeat IPC: 1.36028 cumulative IPC: 1.33524 (Simulation time: 0 hr 11 min 24 sec) 
Heartbeat CPU  0 instructions:  402000003 cycles:  269000470 heartbeat IPC: 1.37295 cumulative IPC: 1.33536 (Simulation time: 0 hr 11 min 26 sec) 
Heartbeat CPU  0 instructions:  403000002 cycles:  269766078 heartbeat IPC: 1.30615 cumulative IPC: 1.33526 (Simulation time: 0 hr 11 min 28 sec) 
Heartbeat CPU  0 instructions:  404000000 cycles:  270543155 heartbeat IPC: 1.28687 cumulative IPC: 1.33510 (Simulation time: 0 hr 11 min 30 sec) 
Heartbeat CPU  0 instructions:  405000002 cycles:  271243036 heartbeat IPC: 1.42882 cumulative IPC: 1.33538 (Simulation time: 0 hr 11 min 32 sec) 
Heartbeat CPU  0 instructions:  406000000 cycles:  271997479 heartbeat IPC: 1.32548 cumulative IPC: 1.33535 (Simulation time: 0 hr 11 min 33 sec) 
Heartbeat CPU  0 instructions:  407000000 cycles:  272733046 heartbeat IPC: 1.35950 cumulative IPC: 1.33543 (Simulation time: 0 hr 11 min 35 sec) 
Heartbeat CPU  0 instructions:  408000000 cycles:  273437828 heartbeat IPC: 1.41888 cumulative IPC: 1.33568 (Simulation time: 0 hr 11 min 37 sec) 
Heartbeat CPU  0 instructions:  409000003 cycles:  274234318 heartbeat IPC: 1.25551 cumulative IPC: 1.33541 (Simulation time: 0 hr 11 min 39 sec) 
Heartbeat CPU  0 instructions:  410000000 cycles:  274955648 heartbeat IPC: 1.38632 cumulative IPC: 1.33556 (Simulation time: 0 hr 11 min 40 sec) 
Heartbeat CPU  0 instructions:  411000003 cycles:  275685251 heartbeat IPC: 1.37061 cumulative IPC: 1.33567 (Simulation time: 0 hr 11 min 42 sec) 
Heartbeat CPU  0 instructions:  412000000 cycles:  276579326 heartbeat IPC: 1.11847 cumulative IPC: 1.33484 (Simulation time: 0 hr 11 min 44 sec) 
Heartbeat CPU  0 instructions:  413000000 cycles:  278226638 heartbeat IPC: 0.60705 cumulative IPC: 1.32975 (Simulation time: 0 hr 11 min 46 sec) 
Heartbeat CPU  0 instructions:  414000001 cycles:  300190000 heartbeat IPC: 0.04553 cumulative IPC: 1.22015 (Simulation time: 0 hr 11 min 58 sec) 
Heartbeat CPU  0 instructions:  415000002 cycles:  308045761 heartbeat IPC: 0.12730 cumulative IPC: 1.18778 (Simulation time: 0 hr 12 min 2 sec) 
Heartbeat CPU  0 instructions:  416000000 cycles:  313666893 heartbeat IPC: 0.17790 cumulative IPC: 1.16681 (Simulation time: 0 hr 12 min 6 sec) 
Heartbeat CPU  0 instructions:  417000001 cycles:  319240692 heartbeat IPC: 0.17941 cumulative IPC: 1.14690 (Simulation time: 0 hr 12 min 10 sec) 
Heartbeat CPU  0 instructions:  418000001 cycles:  339515297 heartbeat IPC: 0.04932 cumulative IPC: 1.07189 (Simulation time: 0 hr 12 min 21 sec) 
Heartbeat CPU  0 instructions:  419000001 cycles:  360803699 heartbeat IPC: 0.04697 cumulative IPC: 1.00327 (Simulation time: 0 hr 12 min 31 sec) 
Heartbeat CPU  0 instructions:  420000000 cycles:  372425329 heartbeat IPC: 0.08605 cumulative IPC: 0.97093 (Simulation time: 0 hr 12 min 36 sec) 
Heartbeat CPU  0 instructions:  421000003 cycles:  383016985 heartbeat IPC: 0.09441 cumulative IPC: 0.94364 (Simulation time: 0 hr 12 min 40 sec) 
Heartbeat CPU  0 instructions:  422000001 cycles:  392590724 heartbeat IPC: 0.10445 cumulative IPC: 0.92067 (Simulation time: 0 hr 12 min 44 sec) 
Heartbeat CPU  0 instructions:  423000000 cycles:  401555961 heartbeat IPC: 0.11154 cumulative IPC: 0.90044 (Simulation time: 0 hr 12 min 48 sec) 
Heartbeat CPU  0 instructions:  424000000 cycles:  419849871 heartbeat IPC: 0.05466 cumulative IPC: 0.85940 (Simulation time: 0 hr 12 min 59 sec) 
Heartbeat CPU  0 instructions:  425000002 cycles:  431818767 heartbeat IPC: 0.08355 cumulative IPC: 0.83553 (Simulation time: 0 hr 13 min 5 sec) 
Heartbeat CPU  0 instructions:  426000002 cycles:  441760952 heartbeat IPC: 0.10058 cumulative IPC: 0.81721 (Simulation time: 0 hr 13 min 11 sec) 
Heartbeat CPU  0 instructions:  427000000 cycles:  451842870 heartbeat IPC: 0.09919 cumulative IPC: 0.79951 (Simulation time: 0 hr 13 min 16 sec) 
Heartbeat CPU  0 instructions:  428000000 cycles:  461547056 heartbeat IPC: 0.10305 cumulative IPC: 0.78337 (Simulation time: 0 hr 13 min 22 sec) 
Heartbeat CPU  0 instructions:  429000000 cycles:  471323616 heartbeat IPC: 0.10229 cumulative IPC: 0.76783 (Simulation time: 0 hr 13 min 27 sec) 
Heartbeat CPU  0 instructions:  430000000 cycles:  481751306 heartbeat IPC: 0.09590 cumulative IPC: 0.75187 (Simulation time: 0 hr 13 min 33 sec) 
Heartbeat CPU  0 instructions:  431000000 cycles:  498046545 heartbeat IPC: 0.06137 cumulative IPC: 0.72715 (Simulation time: 0 hr 13 min 40 sec) 
Heartbeat CPU  0 instructions:  432000000 cycles:  518279616 heartbeat IPC: 0.04942 cumulative IPC: 0.69831 (Simulation time: 0 hr 13 min 51 sec) 
Heartbeat CPU  0 instructions:  433000000 cycles:  541778283 heartbeat IPC: 0.04256 cumulative IPC: 0.66742 (Simulation time: 0 hr 14 min 3 sec) 
Heartbeat CPU  0 instructions:  434000001 cycles:  554925872 heartbeat IPC: 0.07606 cumulative IPC: 0.65224 (Simulation time: 0 hr 14 min 9 sec) 
Heartbeat CPU  0 instructions:  435000003 cycles:  565940482 heartbeat IPC: 0.09079 cumulative IPC: 0.64042 (Simulation time: 0 hr 14 min 13 sec) 
Heartbeat CPU  0 instructions:  436000000 cycles:  575979884 heartbeat IPC: 0.09961 cumulative IPC: 0.63023 (Simulation time: 0 hr 14 min 17 sec) 
Heartbeat CPU  0 instructions:  437000002 cycles:  584368085 heartbeat IPC: 0.11922 cumulative IPC: 0.62232 (Simulation time: 0 hr 14 min 21 sec) 
Heartbeat CPU  0 instructions:  438000002 cycles:  598572908 heartbeat IPC: 0.07040 cumulative IPC: 0.60821 (Simulation time: 0 hr 14 min 29 sec) 
Heartbeat CPU  0 instructions:  439000000 cycles:  614194470 heartbeat IPC: 0.06401 cumulative IPC: 0.59333 (Simulation time: 0 hr 14 min 38 sec) 
Heartbeat CPU  0 instructions:  440000000 cycles:  624915119 heartbeat IPC: 0.09328 cumulative IPC: 0.58412 (Simulation time: 0 hr 14 min 43 sec) 
Heartbeat CPU  0 instructions:  441000000 cycles:  634887632 heartbeat IPC: 0.10028 cumulative IPC: 0.57597 (Simulation time: 0 hr 14 min 49 sec) 
Heartbeat CPU  0 instructions:  442000002 cycles:  644642554 heartbeat IPC: 0.10251 cumulative IPC: 0.56830 (Simulation time: 0 hr 14 min 55 sec) 
Heartbeat CPU  0 instructions:  443000001 cycles:  654398649 heartbeat IPC: 0.10250 cumulative IPC: 0.56087 (Simulation time: 0 hr 15 min 0 sec) 
Heartbeat CPU  0 instructions:  444000000 cycles:  664643711 heartbeat IPC: 0.09761 cumulative IPC: 0.55323 (Simulation time: 0 hr 15 min 6 sec) 
Heartbeat CPU  0 instructions:  445000002 cycles:  675043205 heartbeat IPC: 0.09616 cumulative IPC: 0.54571 (Simulation time: 0 hr 15 min 11 sec) 
Heartbeat CPU  0 instructions:  446000003 cycles:  697305198 heartbeat IPC: 0.04492 cumulative IPC: 0.52868 (Simulation time: 0 hr 15 min 22 sec) 
Heartbeat CPU  0 instructions:  447000000 cycles:  721737525 heartbeat IPC: 0.04093 cumulative IPC: 0.51113 (Simulation time: 0 hr 15 min 35 sec) 
Heartbeat CPU  0 instructions:  448000000 cycles:  737559668 heartbeat IPC: 0.06320 cumulative IPC: 0.50092 (Simulation time: 0 hr 15 min 41 sec) 
Heartbeat CPU  0 instructions:  449000001 cycles:  748723371 heartbeat IPC: 0.08958 cumulative IPC: 0.49442 (Simulation time: 0 hr 15 min 46 sec) 
Heartbeat CPU  0 instructions:  450000000 cycles:  759138633 heartbeat IPC: 0.09601 cumulative IPC: 0.48863 (Simulation time: 0 hr 15 min 50 sec) 
Heartbeat CPU  0 instructions:  451000000 cycles:  767807607 heartbeat IPC: 0.11535 cumulative IPC: 0.48416 (Simulation time: 0 hr 15 min 54 sec) 
Heartbeat CPU  0 instructions:  452000000 cycles:  779017905 heartbeat IPC: 0.08920 cumulative IPC: 0.47815 (Simulation time: 0 hr 16 min 0 sec) 
Heartbeat CPU  0 instructions:  453000001 cycles:  796542101 heartbeat IPC: 0.05706 cumulative IPC: 0.46836 (Simulation time: 0 hr 16 min 10 sec) 
Heartbeat CPU  0 instructions:  454000000 cycles:  808006626 heartbeat IPC: 0.08723 cumulative IPC: 0.46265 (Simulation time: 0 hr 16 min 16 sec) 
Heartbeat CPU  0 instructions:  455000001 cycles:  817734386 heartbeat IPC: 0.10280 cumulative IPC: 0.45813 (Simulation time: 0 hr 16 min 22 sec) 
Heartbeat CPU  0 instructions:  456000000 cycles:  827665060 heartbeat IPC: 0.10070 cumulative IPC: 0.45361 (Simulation time: 0 hr 16 min 27 sec) 
Heartbeat CPU  0 instructions:  457000002 cycles:  837475906 heartbeat IPC: 0.10193 cumulative IPC: 0.44926 (Simulation time: 0 hr 16 min 33 sec) 
Heartbeat CPU  0 instructions:  458000000 cycles:  847333455 heartbeat IPC: 0.10144 cumulative IPC: 0.44500 (Simulation time: 0 hr 16 min 38 sec) 
Heartbeat CPU  0 instructions:  459000001 cycles:  857644196 heartbeat IPC: 0.09699 cumulative IPC: 0.44060 (Simulation time: 0 hr 16 min 44 sec) 
Heartbeat CPU  0 instructions:  460000000 cycles:  877262557 heartbeat IPC: 0.05097 cumulative IPC: 0.43144 (Simulation time: 0 hr 16 min 53 sec) 
Heartbeat CPU  0 instructions:  461000002 cycles:  901148482 heartbeat IPC: 0.04187 cumulative IPC: 0.42060 (Simulation time: 0 hr 17 min 6 sec) 
Heartbeat CPU  0 instructions:  462000000 cycles:  920435197 heartbeat IPC: 0.05185 cumulative IPC: 0.41249 (Simulation time: 0 hr 17 min 14 sec) 
Heartbeat CPU  0 instructions:  463000000 cycles:  931590057 heartbeat IPC: 0.08965 cumulative IPC: 0.40844 (Simulation time: 0 hr 17 min 19 sec) 
Heartbeat CPU  0 instructions:  464000000 cycles:  942067027 heartbeat IPC: 0.09545 cumulative IPC: 0.40479 (Simulation time: 0 hr 17 min 24 sec) 
Heartbeat CPU  0 instructions:  465000000 cycles:  951281354 heartbeat IPC: 0.10853 cumulative IPC: 0.40179 (Simulation time: 0 hr 17 min 28 sec) 
Heartbeat CPU  0 instructions:  466000000 cycles:  961015561 heartbeat IPC: 0.10273 cumulative IPC: 0.39862 (Simulation time: 0 hr 17 min 32 sec) 
Heartbeat CPU  0 instructions:  467000000 cycles:  979117552 heartbeat IPC: 0.05524 cumulative IPC: 0.39198 (Simulation time: 0 hr 17 min 43 sec) 
Heartbeat CPU  0 instructions:  468000000 cycles:  990863205 heartbeat IPC: 0.08514 cumulative IPC: 0.38818 (Simulation time: 0 hr 17 min 49 sec) 
Heartbeat CPU  0 instructions:  469000000 cycles: 1000685842 heartbeat IPC: 0.10181 cumulative IPC: 0.38524 (Simulation time: 0 hr 17 min 55 sec) 
Heartbeat CPU  0 instructions:  470000000 cycles: 1010746426 heartbeat IPC: 0.09940 cumulative IPC: 0.38227 (Simulation time: 0 hr 18 min 0 sec) 
Heartbeat CPU  0 instructions:  471000000 cycles: 1020506331 heartbeat IPC: 0.10246 cumulative IPC: 0.37948 (Simulation time: 0 hr 18 min 6 sec) 
Heartbeat CPU  0 instructions:  472000000 cycles: 1030304189 heartbeat IPC: 0.10206 cumulative IPC: 0.37672 (Simulation time: 0 hr 18 min 11 sec) 
Heartbeat CPU  0 instructions:  473000002 cycles: 1040731222 heartbeat IPC: 0.09590 cumulative IPC: 0.37379 (Simulation time: 0 hr 18 min 17 sec) 
Heartbeat CPU  0 instructions:  474000000 cycles: 1057763226 heartbeat IPC: 0.05871 cumulative IPC: 0.36850 (Simulation time: 0 hr 18 min 25 sec) 
Heartbeat CPU  0 instructions:  475000002 cycles: 1080047306 heartbeat IPC: 0.04488 cumulative IPC: 0.36155 (Simulation time: 0 hr 18 min 37 sec) 
Heartbeat CPU  0 instructions:  476000000 cycles: 1102615583 heartbeat IPC: 0.04431 cumulative IPC: 0.35479 (Simulation time: 0 hr 18 min 47 sec) 
Heartbeat CPU  0 instructions:  477000000 cycles: 1114403873 heartbeat IPC: 0.08483 cumulative IPC: 0.35182 (Simulation time: 0 hr 18 min 53 sec) 
Heartbeat CPU  0 instructions:  478000002 cycles: 1125053494 heartbeat IPC: 0.09390 cumulative IPC: 0.34929 (Simulation time: 0 hr 18 min 57 sec) 
Heartbeat CPU  0 instructions:  479000000 cycles: 1134879429 heartbeat IPC: 0.10177 cumulative IPC: 0.34706 (Simulation time: 0 hr 19 min 1 sec) 
Heartbeat CPU  0 instructions:  480000000 cycles: 1143595293 heartbeat IPC: 0.11473 cumulative IPC: 0.34522 (Simulation time: 0 hr 19 min 5 sec) 
Heartbeat CPU  0 instructions:  481000000 cycles: 1161426582 heartbeat IPC: 0.05608 cumulative IPC: 0.34061 (Simulation time: 0 hr 19 min 15 sec) 
Heartbeat CPU  0 instructions:  482000000 cycles: 1173622945 heartbeat IPC: 0.08199 cumulative IPC: 0.33782 (Simulation time: 0 hr 19 min 22 sec) 
Heartbeat CPU  0 instructions:  483000000 cycles: 1183863063 heartbeat IPC: 0.09766 cumulative IPC: 0.33566 (Simulation time: 0 hr 19 min 27 sec) 
Heartbeat CPU  0 instructions:  484000000 cycles: 1193908856 heartbeat IPC: 0.09954 cumulative IPC: 0.33360 (Simulation time: 0 hr 19 min 33 sec) 
Heartbeat CPU  0 instructions:  485000002 cycles: 1203660287 heartbeat IPC: 0.10255 cumulative IPC: 0.33166 (Simulation time: 0 hr 19 min 39 sec) 
Heartbeat CPU  0 instructions:  486000003 cycles: 1213421905 heartbeat IPC: 0.10244 cumulative IPC: 0.32975 (Simulation time: 0 hr 19 min 44 sec) 
Heartbeat CPU  0 instructions:  487000000 cycles: 1223801977 heartbeat IPC: 0.09634 cumulative IPC: 0.32770 (Simulation time: 0 hr 19 min 50 sec) 
Heartbeat CPU  0 instructions:  488000000 cycles: 1237260999 heartbeat IPC: 0.07430 cumulative IPC: 0.32484 (Simulation time: 0 hr 19 min 56 sec) 
Heartbeat CPU  0 instructions:  489000000 cycles: 1259421086 heartbeat IPC: 0.04513 cumulative IPC: 0.31975 (Simulation time: 0 hr 20 min 8 sec) 
Heartbeat CPU  0 instructions:  490000003 cycles: 1283253808 heartbeat IPC: 0.04196 cumulative IPC: 0.31441 (Simulation time: 0 hr 20 min 20 sec) 
Heartbeat CPU  0 instructions:  491000003 cycles: 1297012845 heartbeat IPC: 0.07268 cumulative IPC: 0.31176 (Simulation time: 0 hr 20 min 26 sec) 
Heartbeat CPU  0 instructions:  492000000 cycles: 1308007550 heartbeat IPC: 0.09095 cumulative IPC: 0.30984 (Simulation time: 0 hr 20 min 30 sec) 
Heartbeat CPU  0 instructions:  493000002 cycles: 1318162538 heartbeat IPC: 0.09847 cumulative IPC: 0.30816 (Simulation time: 0 hr 20 min 35 sec) 
Heartbeat CPU  0 instructions:  494000001 cycles: 1326617254 heartbeat IPC: 0.11828 cumulative IPC: 0.30691 (Simulation time: 0 hr 20 min 39 sec) 
Heartbeat CPU  0 instructions:  495000001 cycles: 1340084289 heartbeat IPC: 0.07426 cumulative IPC: 0.30449 (Simulation time: 0 hr 20 min 46 sec) 
Heartbeat CPU  0 instructions:  496000000 cycles: 1356199906 heartbeat IPC: 0.06205 cumulative IPC: 0.30152 (Simulation time: 0 hr 20 min 55 sec) 
Heartbeat CPU  0 instructions:  497000001 cycles: 1367091595 heartbeat IPC: 0.09181 cumulative IPC: 0.29979 (Simulation time: 0 hr 21 min 1 sec) 
Heartbeat CPU  0 instructions:  498000001 cycles: 1376976144 heartbeat IPC: 0.10117 cumulative IPC: 0.29832 (Simulation time: 0 hr 21 min 6 sec) 
Heartbeat CPU  0 instructions:  499000000 cycles: 1386781094 heartbeat IPC: 0.10199 cumulative IPC: 0.29689 (Simulation time: 0 hr 21 min 12 sec) 
Heartbeat CPU  0 instructions:  500000000 cycles: 1396546582 heartbeat IPC: 0.10240 cumulative IPC: 0.29549 (Simulation time: 0 hr 21 min 17 sec) 
Heartbeat CPU  0 instructions:  501000000 cycles: 1406707980 heartbeat IPC: 0.09841 cumulative IPC: 0.29402 (Simulation time: 0 hr 21 min 23 sec) 
Heartbeat CPU  0 instructions:  502000002 cycles: 1417154990 heartbeat IPC: 0.09572 cumulative IPC: 0.29251 (Simulation time: 0 hr 21 min 29 sec) 
Heartbeat CPU  0 instructions:  503000003 cycles: 1438525466 heartbeat IPC: 0.04679 cumulative IPC: 0.28875 (Simulation time: 0 hr 21 min 39 sec) 
Heartbeat CPU  0 instructions:  504000000 cycles: 1462942203 heartbeat IPC: 0.04096 cumulative IPC: 0.28449 (Simulation time: 0 hr 21 min 52 sec) 
Heartbeat CPU  0 instructions:  505000000 cycles: 1479955391 heartbeat IPC: 0.05878 cumulative IPC: 0.28182 (Simulation time: 0 hr 21 min 59 sec) 
Heartbeat CPU  0 instructions:  506000001 cycles: 1491029239 heartbeat IPC: 0.09030 cumulative IPC: 0.28035 (Simulation time: 0 hr 22 min 4 sec) 
Heartbeat CPU  0 instructions:  507000000 cycles: 1501374439 heartbeat IPC: 0.09666 cumulative IPC: 0.27905 (Simulation time: 0 hr 22 min 8 sec) 
Heartbeat CPU  0 instructions:  508000000 cycles: 1510189825 heartbeat IPC: 0.11344 cumulative IPC: 0.27805 (Simulation time: 0 hr 22 min 12 sec) 
Heartbeat CPU  0 instructions:  509000002 cycles: 1520891816 heartbeat IPC: 0.09344 cumulative IPC: 0.27672 (Simulation time: 0 hr 22 min 17 sec) 
Heartbeat CPU  0 instructions:  510000001 cycles: 1538678133 heartbeat IPC: 0.05622 cumulative IPC: 0.27409 (Simulation time: 0 hr 22 min 27 sec) 
Heartbeat CPU  0 instructions:  511000001 cycles: 1550274889 heartbeat IPC: 0.08623 cumulative IPC: 0.27265 (Simulation time: 0 hr 22 min 34 sec) 
Heartbeat CPU  0 instructions:  512000000 cycles: 1559930686 heartbeat IPC: 0.10356 cumulative IPC: 0.27157 (Simulation time: 0 hr 22 min 39 sec) 
Heartbeat CPU  0 instructions:  513000003 cycles: 1569916894 heartbeat IPC: 0.10014 cumulative IPC: 0.27045 (Simulation time: 0 hr 22 min 45 sec) 
Heartbeat CPU  0 instructions:  514000002 cycles: 1579744155 heartbeat IPC: 0.10176 cumulative IPC: 0.26937 (Simulation time: 0 hr 22 min 50 sec) 
Heartbeat CPU  0 instructions:  515000001 cycles: 1589583740 heartbeat IPC: 0.10163 cumulative IPC: 0.26831 (Simulation time: 0 hr 22 min 56 sec) 
Heartbeat CPU  0 instructions:  516000000 cycles: 1599923860 heartbeat IPC: 0.09671 cumulative IPC: 0.26717 (Simulation time: 0 hr 23 min 2 sec) 
Heartbeat CPU  0 instructions:  517000000 cycles: 1618670282 heartbeat IPC: 0.05334 cumulative IPC: 0.26462 (Simulation time: 0 hr 23 min 10 sec) 
Heartbeat CPU  0 instructions:  518000002 cycles: 1642098958 heartbeat IPC: 0.04268 cumulative IPC: 0.26137 (Simulation time: 0 hr 23 min 23 sec) 
Heartbeat CPU  0 instructions:  519000001 cycles: 1662413512 heartbeat IPC: 0.04923 cumulative IPC: 0.25871 (Simulation time: 0 hr 23 min 32 sec) 
Heartbeat CPU  0 instructions:  520000000 cycles: 1673865472 heartbeat IPC: 0.08732 cumulative IPC: 0.25751 (Simulation time: 0 hr 23 min 37 sec) 
Heartbeat CPU  0 instructions:  521000001 cycles: 1684388349 heartbeat IPC: 0.09503 cumulative IPC: 0.25647 (Simulation time: 0 hr 23 min 41 sec) 
Heartbeat CPU  0 instructions:  522000001 cycles: 1693748424 heartbeat IPC: 0.10684 cumulative IPC: 0.25562 (Simulation time: 0 hr 23 min 45 sec) 
Heartbeat CPU  0 instructions:  523000001 cycles: 1703203609 heartbeat IPC: 0.10576 cumulative IPC: 0.25476 (Simulation time: 0 hr 23 min 50 sec) 
Heartbeat CPU  0 instructions:  524000000 cycles: 1721354957 heartbeat IPC: 0.05509 cumulative IPC: 0.25260 (Simulation time: 0 hr 24 min 0 sec) 
Heartbeat CPU  0 instructions:  525000000 cycles: 1733125463 heartbeat IPC: 0.08496 cumulative IPC: 0.25144 (Simulation time: 0 hr 24 min 7 sec) 
Heartbeat CPU  0 instructions:  526000000 cycles: 1743034136 heartbeat IPC: 0.10092 cumulative IPC: 0.25056 (Simulation time: 0 hr 24 min 12 sec) 
Heartbeat CPU  0 instructions:  527000000 cycles: 1753152835 heartbeat IPC: 0.09883 cumulative IPC: 0.24966 (Simulation time: 0 hr 24 min 18 sec) 
Heartbeat CPU  0 instructions:  528000000 cycles: 1762875366 heartbeat IPC: 0.10285 cumulative IPC: 0.24883 (Simulation time: 0 hr 24 min 23 sec) 
Heartbeat CPU  0 instructions:  529000001 cycles: 1772645665 heartbeat IPC: 0.10235 cumulative IPC: 0.24801 (Simulation time: 0 hr 24 min 29 sec) 
[...]
Heartbeat CPU  0 instructions:  545000000 cycles: 1977155802 heartbeat IPC: 0.09162 cumulative IPC: 0.23006 (Simulation time: 0 hr 26 min 13 sec) 
Heartbeat CPU  0 instructions:  546000000 cycles: 2001137655 heartbeat IPC: 0.04170 cumulative IPC: 0.22775 (Simulation time: 0 hr 26 min 25 sec) 
Heartbeat CPU  0 instructions:  547000000 cycles: 2025232182 heartbeat IPC: 0.04150 cumulative IPC: 0.22549 (Simulation time: 0 hr 26 min 37 sec) 
Heartbeat CPU  0 instructions:  548000000 cycles: 2039407558 heartbeat IPC: 0.07054 cumulative IPC: 0.22439 (Simulation time: 0 hr 26 min 43 sec) 
Heartbeat CPU  0 instructions:  549000000 cycles: 2050500901 heartbeat IPC: 0.09014 cumulative IPC: 0.22364 (Simulation time: 0 hr 26 min 48 sec) 
Heartbeat CPU  0 instructions:  550000001 cycles: 2060782396 heartbeat IPC: 0.09726 cumulative IPC: 0.22300 (Simulation time: 0 hr 26 min 52 sec) 
Heartbeat CPU  0 instructions:  551000000 cycles: 2069242727 heartbeat IPC: 0.11820 cumulative IPC: 0.22256 (Simulation time: 0 hr 26 min 56 sec) 
Heartbeat CPU  0 instructions:  552000000 cycles: 2082294372 heartbeat IPC: 0.07662 cumulative IPC: 0.22163 (Simulation time: 0 hr 27 min 3 sec) 
Heartbeat CPU  0 instructions:  553000000 cycles: 2098664955 heartbeat IPC: 0.06109 cumulative IPC: 0.22035 (Simulation time: 0 hr 27 min 12 sec) 
Heartbeat CPU  0 instructions:  554000001 cycles: 2109714064 heartbeat IPC: 0.09051 cumulative IPC: 0.21966 (Simulation time: 0 hr 27 min 18 sec) 
Heartbeat CPU  0 instructions:  555000002 cycles: 2119578347 heartbeat IPC: 0.10138 cumulative IPC: 0.21909 (Simulation time: 0 hr 27 min 24 sec) 
Heartbeat CPU  0 instructions:  556000000 cycles: 2129379907 heartbeat IPC: 0.10202 cumulative IPC: 0.21854 (Simulation time: 0 hr 27 min 29 sec) 
Heartbeat CPU  0 instructions:  557000000 cycles: 2139203136 heartbeat IPC: 0.10180 cumulative IPC: 0.21800 (Simulation time: 0 hr 27 min 35 sec) 
Heartbeat CPU  0 instructions:  558000003 cycles: 2149277122 heartbeat IPC: 0.09927 cumulative IPC: 0.21743 (Simulation time: 0 hr 27 min 40 sec) 
Heartbeat CPU  0 instructions:  559000003 cycles: 2159230846 heartbeat IPC: 0.10046 cumulative IPC: 0.21688 (Simulation time: 0 hr 27 min 46 sec) 
Heartbeat CPU  0 instructions:  560000000 cycles: 2180821959 heartbeat IPC: 0.04632 cumulative IPC: 0.21516 (Simulation time: 0 hr 27 min 56 sec) 
Heartbeat CPU  0 instructions:  561000001 cycles: 2205245171 heartbeat IPC: 0.04094 cumulative IPC: 0.21319 (Simulation time: 0 hr 28 min 9 sec) 
Heartbeat CPU  0 instructions:  562000002 cycles: 2222538692 heartbeat IPC: 0.05783 cumulative IPC: 0.21196 (Simulation time: 0 hr 28 min 17 sec) 
Heartbeat CPU  0 instructions:  563000003 cycles: 2233699661 heartbeat IPC: 0.08960 cumulative IPC: 0.21133 (Simulation time: 0 hr 28 min 21 sec) 
Heartbeat CPU  0 instructions:  564000000 cycles: 2243984387 heartbeat IPC: 0.09723 cumulative IPC: 0.21080 (Simulation time: 0 hr 28 min 26 sec) 
Heartbeat CPU  0 instructions:  565000003 cycles: 2252852226 heartbeat IPC: 0.11277 cumulative IPC: 0.21041 (Simulation time: 0 hr 28 min 30 sec) 
Heartbeat CPU  0 instructions:  566000003 cycles: 2263459316 heartbeat IPC: 0.09428 cumulative IPC: 0.20985 (Simulation time: 0 hr 28 min 35 sec) 
Heartbeat CPU  0 instructions:  567000000 cycles: 2281321473 heartbeat IPC: 0.05598 cumulative IPC: 0.20862 (Simulation time: 0 hr 28 min 45 sec) 
Heartbeat CPU  0 instructions:  568000000 cycles: 2292929505 heartbeat IPC: 0.08615 cumulative IPC: 0.20799 (Simulation time: 0 hr 28 min 51 sec) 
Heartbeat CPU  0 instructions:  569000000 cycles: 2302586232 heartbeat IPC: 0.10355 cumulative IPC: 0.20755 (Simulation time: 0 hr 28 min 57 sec) 
Heartbeat CPU  0 instructions:  570000000 cycles: 2312584851 heartbeat IPC: 0.10001 cumulative IPC: 0.20707 (Simulation time: 0 hr 29 min 2 sec) 
Heartbeat CPU  0 instructions:  571000001 cycles: 2322414657 heartbeat IPC: 0.10173 cumulative IPC: 0.20662 (Simulation time: 0 hr 29 min 8 sec) 
Heartbeat CPU  0 instructions:  572000000 cycles: 2332241636 heartbeat IPC: 0.10176 cumulative IPC: 0.20617 (Simulation time: 0 hr 29 min 13 sec) 
Heartbeat CPU  0 instructions:  573000002 cycles: 2342612677 heartbeat IPC: 0.09642 cumulative IPC: 0.20567 (Simulation time: 0 hr 29 min 19 sec) 
Heartbeat CPU  0 instructions:  574000000 cycles: 2361273442 heartbeat IPC: 0.05359 cumulative IPC: 0.20445 (Simulation time: 0 hr 29 min 28 sec) 
Heartbeat CPU  0 instructions:  575000002 cycles: 2384605181 heartbeat IPC: 0.04286 cumulative IPC: 0.20284 (Simulation time: 0 hr 29 min 40 sec) 
Heartbeat CPU  0 instructions:  576000000 cycles: 2404984935 heartbeat IPC: 0.04907 cumulative IPC: 0.20151 (Simulation time: 0 hr 29 min 50 sec) 
Heartbeat CPU  0 instructions:  577000003 cycles: 2416539147 heartbeat IPC: 0.08655 cumulative IPC: 0.20095 (Simulation time: 0 hr 29 min 55 sec) 
Heartbeat CPU  0 instructions:  578000000 cycles: 2427135001 heartbeat IPC: 0.09438 cumulative IPC: 0.20048 (Simulation time: 0 hr 29 min 59 sec) 
Heartbeat CPU  0 instructions:  579000001 cycles: 2436504420 heartbeat IPC: 0.10673 cumulative IPC: 0.20011 (Simulation time: 0 hr 30 min 3 sec) 
Heartbeat CPU  0 instructions:  580000000 cycles: 2445976599 heartbeat IPC: 0.10557 cumulative IPC: 0.19974 (Simulation time: 0 hr 30 min 7 sec) 
Heartbeat CPU  0 instructions:  581000003 cycles: 2464106916 heartbeat IPC: 0.05516 cumulative IPC: 0.19866 (Simulation time: 0 hr 30 min 18 sec) 
Heartbeat CPU  0 instructions:  582000003 cycles: 2475923427 heartbeat IPC: 0.08463 cumulative IPC: 0.19810 (Simulation time: 0 hr 30 min 24 sec) 
Heartbeat CPU  0 instructions:  583000002 cycles: 2485821793 heartbeat IPC: 0.10103 cumulative IPC: 0.19771 (Simulation time: 0 hr 30 min 30 sec) 
Heartbeat CPU  0 instructions:  584000000 cycles: 2495936816 heartbeat IPC: 0.09886 cumulative IPC: 0.19730 (Simulation time: 0 hr 30 min 35 sec) 
Heartbeat CPU  0 instructions:  585000002 cycles: 2505667980 heartbeat IPC: 0.10276 cumulative IPC: 0.19693 (Simulation time: 0 hr 30 min 41 sec) 
Heartbeat CPU  0 instructions:  586000002 cycles: 2515436947 heartbeat IPC: 0.10236 cumulative IPC: 0.19655 (Simulation time: 0 hr 30 min 46 sec) 
Heartbeat CPU  0 instructions:  587000000 cycles: 2525915971 heartbeat IPC: 0.09543 cumulative IPC: 0.19613 (Simulation time: 0 hr 30 min 52 sec) 
Heartbeat CPU  0 instructions:  588000000 cycles: 2543048262 heartbeat IPC: 0.05837 cumulative IPC: 0.19518 (Simulation time: 0 hr 31 min 0 sec) 
Heartbeat CPU  0 instructions:  589000002 cycles: 2564118612 heartbeat IPC: 0.04746 cumulative IPC: 0.19395 (Simulation time: 0 hr 31 min 11 sec) 
Heartbeat CPU  0 instructions:  590000002 cycles: 2587189890 heartbeat IPC: 0.04334 cumulative IPC: 0.19258 (Simulation time: 0 hr 31 min 22 sec) 
Heartbeat CPU  0 instructions:  591000000 cycles: 2599509378 heartbeat IPC: 0.08117 cumulative IPC: 0.19205 (Simulation time: 0 hr 31 min 28 sec) 
Heartbeat CPU  0 instructions:  592000000 cycles: 2610232412 heartbeat IPC: 0.09326 cumulative IPC: 0.19163 (Simulation time: 0 hr 31 min 32 sec) 
Heartbeat CPU  0 instructions:  593000003 cycles: 2620110593 heartbeat IPC: 0.10123 cumulative IPC: 0.19129 (Simulation time: 0 hr 31 min 36 sec) 
Heartbeat CPU  0 instructions:  594000000 cycles: 2628659564 heartbeat IPC: 0.11697 cumulative IPC: 0.19104 (Simulation time: 0 hr 31 min 40 sec) 
Heartbeat CPU  0 instructions:  595000001 cycles: 2645387692 heartbeat IPC: 0.05978 cumulative IPC: 0.19020 (Simulation time: 0 hr 31 min 50 sec) 
Heartbeat CPU  0 instructions:  596000000 cycles: 2658747468 heartbeat IPC: 0.07485 cumulative IPC: 0.18961 (Simulation time: 0 hr 31 min 57 sec) 
Heartbeat CPU  0 instructions:  597000003 cycles: 2669095229 heartbeat IPC: 0.09664 cumulative IPC: 0.18924 (Simulation time: 0 hr 32 min 3 sec) 
Heartbeat CPU  0 instructions:  598000002 cycles: 2679150457 heartbeat IPC: 0.09945 cumulative IPC: 0.18890 (Simulation time: 0 hr 32 min 8 sec) 
Heartbeat CPU  0 instructions:  599000001 cycles: 2688896510 heartbeat IPC: 0.10261 cumulative IPC: 0.18858 (Simulation time: 0 hr 32 min 14 sec) 
Heartbeat CPU  0 instructions:  600000000 cycles: 2698641071 heartbeat IPC: 0.10262 cumulative IPC: 0.18827 (Simulation time: 0 hr 32 min 19 sec) 
Finished CPU 0 instructions: 500000000 cycles: 2655796979 cumulative IPC: 0.18827 (Simulation time: 0 hr 32 min 19 sec) 

ChampSim completed all CPUs

[ROI Statistics]
Core_0_instructions 500000000
Core_0_cycles 2655796979
Core_0_IPC 0.18827

Core_0_branch_prediction_accuracy 99.11262
Core_0_branch_MPKI 1.69223
Core_0_average_ROB_occupancy_at_mispredict 139.28000

Core_0_L1D_total_access 69516389
Core_0_L1D_total_hit 46562649
Core_0_L1D_total_miss 22953740
Core_0_L1D_loads 32994671
Core_0_L1D_load_hit 27627496
Core_0_L1D_load_miss 5367175
Core_0_L1D_RFOs 36521718
Core_0_L1D_RFO_hit 18935153
Core_0_L1D_RFO_miss 17586565
Core_0_L1D_prefetches 0
Core_0_L1D_prefetch_hit 0
Core_0_L1D_prefetch_miss 0
Core_0_L1D_writebacks 0
Core_0_L1D_writeback_hit 0
Core_0_L1D_writeback_miss 0
Core_0_L1D_prefetch_requested 0
Core_0_L1D_prefetch_dropped 0
Core_0_L1D_prefetch_issued 0
Core_0_L1D_prefetch_filled 0
Core_0_L1D_prefetch_useful 0
Core_0_L1D_prefetch_useless 0
Core_0_L1D_prefetch_late 0
Core_0_L1D_average_miss_latency 475.85314

Core_0_L1D_rq_access 60894621
Core_0_L1D_rq_forward 0
Core_0_L1D_rq_merged 24869080
Core_0_L1D_rq_to_cache 35982767
Core_0_L1D_rq_full 0

Core_0_L1D_wq_access 156857733
Core_0_L1D_wq_forward 42774
Core_0_L1D_wq_merged 48158
Core_0_L1D_wq_to_cache 156809575
Core_0_L1D_wq_full 16338598

Core_0_L1D_pq_access 0
Core_0_L1D_pq_forward 0
Core_0_L1D_pq_merged 0
Core_0_L1D_pq_to_cache 0
Core_0_L1D_pq_full 0

Core_0_L1D_acc_epochs 2611512
Core_0_L1D_acc_level_0 2611512
Core_0_L1D_acc_level_1 0
Core_0_L1D_acc_level_2 0
Core_0_L1D_acc_level_3 0
Core_0_L1D_acc_level_4 0
Core_0_L1D_acc_level_5 0
Core_0_L1D_acc_level_6 0
Core_0_L1D_acc_level_7 0
Core_0_L1D_acc_level_8 0
Core_0_L1D_acc_level_9 0

Core_0_L1I_total_access 122978530
Core_0_L1I_total_hit 122959388
Core_0_L1I_total_miss 19142
Core_0_L1I_loads 122978530
Core_0_L1I_load_hit 122959388
Core_0_L1I_load_miss 19142
Core_0_L1I_RFOs 0
Core_0_L1I_RFO_hit 0
Core_0_L1I_RFO_miss 0
Core_0_L1I_prefetches 0
Core_0_L1I_prefetch_hit 0
Core_0_L1I_prefetch_miss 0
Core_0_L1I_writebacks 0
Core_0_L1I_writeback_hit 0
Core_0_L1I_writeback_miss 0
Core_0_L1I_prefetch_requested 0
Core_0_L1I_prefetch_dropped 0
Core_0_L1I_prefetch_issued 0
Core_0_L1I_prefetch_filled 0
Core_0_L1I_prefetch_useful 0
Core_0_L1I_prefetch_useless 0
Core_0_L1I_prefetch_late 0
Core_0_L1I_average_miss_latency 50.30948

Core_0_L1I_rq_access 500000003
Core_0_L1I_rq_forward 0
Core_0_L1I_rq_merged 376996835
Core_0_L1I_rq_to_cache 123003168
Core_0_L1I_rq_full 0

Core_0_L1I_wq_access 0
Core_0_L1I_wq_forward 0
Core_0_L1I_wq_merged 0
Core_0_L1I_wq_to_cache 0
Core_0_L1I_wq_full 0

Core_0_L1I_pq_access 0
Core_0_L1I_pq_forward 0
Core_0_L1I_pq_merged 0
Core_0_L1I_pq_to_cache 0
Core_0_L1I_pq_full 0

Core_0_L1I_acc_epochs 2611512
Core_0_L1I_acc_level_0 2611512
Core_0_L1I_acc_level_1 0
Core_0_L1I_acc_level_2 0
Core_0_L1I_acc_level_3 0
Core_0_L1I_acc_level_4 0
Core_0_L1I_acc_level_5 0
Core_0_L1I_acc_level_6 0
Core_0_L1I_acc_level_7 0
Core_0_L1I_acc_level_8 0
Core_0_L1I_acc_level_9 0

Core_0_L2C_total_access 42998560
Core_0_L2C_total_hit 20201162
Core_0_L2C_total_miss 22797398
Core_0_L2C_loads 5386317
Core_0_L2C_load_hit 1353365
Core_0_L2C_load_miss 4032952
Core_0_L2C_RFOs 17586564
Core_0_L2C_RFO_hit 10631
Core_0_L2C_RFO_miss 17575933
Core_0_L2C_prefetches 1408560
Core_0_L2C_prefetch_hit 220213
Core_0_L2C_prefetch_miss 1188347
Core_0_L2C_writebacks 18617119
Core_0_L2C_writeback_hit 18616953
Core_0_L2C_writeback_miss 166
Core_0_L2C_prefetch_requested 13351321
Core_0_L2C_prefetch_dropped 0
Core_0_L2C_prefetch_issued 13351321
Core_0_L2C_prefetch_filled 1188471
Core_0_L2C_prefetch_useful 1182351
Core_0_L2C_prefetch_useless 6116
Core_0_L2C_prefetch_late 150900
Core_0_L2C_average_miss_latency 471.88318

Core_0_L2C_rq_access 22972883
Core_0_L2C_rq_forward 0
Core_0_L2C_rq_merged 0
Core_0_L2C_rq_to_cache 22972882
Core_0_L2C_rq_full 0

Core_0_L2C_wq_access 18617119
Core_0_L2C_wq_forward 3
Core_0_L2C_wq_merged 0
Core_0_L2C_wq_to_cache 18617119
Core_0_L2C_wq_full 0

Core_0_L2C_pq_access 13351321
Core_0_L2C_pq_forward 0
Core_0_L2C_pq_merged 290252
Core_0_L2C_pq_to_cache 13061067
Core_0_L2C_pq_full 0

Core_0_L2C_acc_epochs 2611512
Core_0_L2C_acc_level_0 1918116
Core_0_L2C_acc_level_1 169643
Core_0_L2C_acc_level_2 130919
Core_0_L2C_acc_level_3 67957
Core_0_L2C_acc_level_4 44821
Core_0_L2C_acc_level_5 120901
Core_0_L2C_acc_level_6 43198
Core_0_L2C_acc_level_7 40308
Core_0_L2C_acc_level_8 25913
Core_0_L2C_acc_level_9 49736

Core_0_LLC_total_access 49655646
Core_0_LLC_total_hit 39962208
Core_0_LLC_total_miss 9693438
Core_0_LLC_loads 3883819
Core_0_LLC_load_hit 1320473
Core_0_LLC_load_miss 2563346
Core_0_LLC_RFOs 17574166
Core_0_LLC_RFO_hit 15307730
Core_0_LLC_RFO_miss 2266436
Core_0_LLC_prefetches 9591701
Core_0_LLC_prefetch_hit 6879450
Core_0_LLC_prefetch_miss 2712251
Core_0_LLC_writebacks 18605960
Core_0_LLC_writeback_hit 16454555
Core_0_LLC_writeback_miss 2151405
Core_0_LLC_prefetch_requested 0
Core_0_LLC_prefetch_dropped 0
Core_0_LLC_prefetch_issued 0
Core_0_LLC_prefetch_filled 2716933
Core_0_LLC_prefetch_useful 1071615
Core_0_LLC_prefetch_useless 1626705
Core_0_LLC_prefetch_late 319314
Core_0_LLC_average_miss_latency 1665.90313

Core_0_LLC_rq_access 21457986
Core_0_LLC_rq_forward 0
Core_0_LLC_rq_merged 0
Core_0_LLC_rq_to_cache 21457986
Core_0_LLC_rq_full 0

Core_0_LLC_wq_access 18605961
Core_0_LLC_wq_forward 0
Core_0_LLC_wq_merged 0
Core_0_LLC_wq_to_cache 18605961
Core_0_LLC_wq_full 0

Core_0_LLC_pq_access 12732041
Core_0_LLC_pq_forward 0
Core_0_LLC_pq_merged 300808
Core_0_LLC_pq_to_cache 12431233
Core_0_LLC_pq_full 0

Core_0_LLC_acc_epochs 2635392
Core_0_LLC_acc_level_0 1758978
Core_0_LLC_acc_level_1 221047
Core_0_LLC_acc_level_2 170783
Core_0_LLC_acc_level_3 87702
Core_0_LLC_acc_level_4 36612
Core_0_LLC_acc_level_5 140681
Core_0_LLC_acc_level_6 47018
Core_0_LLC_acc_level_7 40661
Core_0_LLC_acc_level_8 23919
Core_0_LLC_acc_level_9 107991

Core_0_major_page_fault 0
Core_0_minor_page_fault 13167

spp.pref.total 13351321
spp.pref.at_L2 1382321
spp.pref.at_LLC 11969000

spp.depth.max 10
spp.depth.min 0
spp.depth.avg 2

spp.breadth.max 2
spp.breadth.min 0
spp.breadth.avg 0

delta_1 11945628
delta_-1 437078
delta_2 394577
delta_5 256162
delta_6 164183
delta_4 114623
delta_3 112845
delta_-2 23375
delta_-3 10761
delta_8 10194
delta_-6 9332
delta_7 9113
delta_12 8495
delta_-4 7320
delta_10 6197
delta_-5 5955
delta_-12 5906
delta_-8 4334
delta_-11 3715
delta_-7 3418
delta_11 3324
delta_16 2966
delta_18 2755
delta_30 2728
delta_-10 2608
delta_-9 2593
delta_-16 2283
delta_-28 2281
delta_-39 2280
delta_39 1935
delta_22 1923
delta_24 1837
delta_-20 1795
delta_-14 1731
delta_9 1559
delta_15 973
delta_-35 908
delta_25 850
delta_14 710
delta_-34 699
delta_19 557
delta_29 503
delta_26 477
delta_21 452
delta_-22 433
delta_-15 426
delta_20 422
delta_-18 349
delta_17 327
delta_36 314
delta_-44 259
delta_28 213
delta_34 209
delta_-19 172
delta_-31 170
delta_-29 143
delta_-24 139
delta_23 135
delta_38 98
delta_-30 97
delta_-23 66
delta_27 56
delta_-13 50
delta_-27 43
delta_13 42
delta_-42 42
delta_-36 40
delta_32 39
delta_-21 36
delta_35 33
delta_31 32
delta_-25 31
delta_-33 26
delta_33 26
delta_-54 23
delta_54 20
delta_-26 20
delta_-55 19
delta_57 19
delta_-37 18
delta_56 16
delta_-52 11
delta_44 10
delta_-56 9
delta_-49 9
delta_53 8
delta_-40 8
delta_-43 6
delta_42 6
delta_51 6
delta_-17 5
delta_-48 5
delta_-51 5
delta_50 4
delta_-46 4
delta_45 2

depth_1_delta_1 2147038
depth_1_delta_-1 386213
depth_1_delta_2 324275
depth_1_delta_5 151414
depth_1_delta_6 105236
depth_1_delta_4 104360
depth_1_delta_3 101039
depth_1_delta_-2 21776
depth_1_delta_-3 10362
depth_1_delta_8 8753
depth_1_delta_-6 8667
depth_1_delta_7 8178
depth_1_delta_12 7927
depth_1_delta_-4 6664
depth_1_delta_-12 5643
depth_1_delta_-5 5538
depth_1_delta_10 5206
depth_1_delta_-8 3834
depth_1_delta_-11 3695
depth_1_delta_11 3244
depth_1_delta_16 2953
depth_1_delta_-7 2925
depth_1_delta_30 2710
depth_1_delta_18 2686
depth_1_delta_-9 2528
depth_1_delta_-10 2486
depth_1_delta_-16 2215
depth_1_delta_-28 1944
depth_1_delta_-20 1778
depth_1_delta_24 1770
depth_1_delta_22 1767
depth_1_delta_-14 1731
depth_1_delta_-39 1562
depth_1_delta_9 1509
depth_1_delta_39 1183
depth_1_delta_-35 906
depth_1_delta_15 844
depth_1_delta_25 837
depth_1_delta_-34 698
depth_1_delta_14 628
depth_1_delta_19 557
depth_1_delta_29 493
depth_1_delta_26 456
depth_1_delta_-15 426
depth_1_delta_20 422
depth_1_delta_-22 417
depth_1_delta_21 387
depth_1_delta_-18 334
depth_1_delta_36 313
depth_1_delta_17 297
depth_1_delta_-44 259
depth_1_delta_34 209
depth_1_delta_28 207
depth_1_delta_-31 170
depth_1_delta_-19 169
depth_1_delta_-29 143
depth_1_delta_-24 124
depth_1_delta_23 124
depth_1_delta_38 98
depth_1_delta_-30 87
depth_1_delta_-23 66
depth_1_delta_-13 49
depth_1_delta_27 43
depth_1_delta_-42 42
depth_1_delta_13 42
depth_1_delta_-36 40
depth_1_delta_-21 36
depth_1_delta_-27 35
depth_1_delta_35 33
depth_1_delta_31 32
depth_1_delta_32 32
depth_1_delta_-25 31
depth_1_delta_33 26
depth_1_delta_-33 26
depth_1_delta_-26 20
depth_1_delta_-55 19
depth_1_delta_57 19
depth_1_delta_-54 19
depth_1_delta_-37 18
depth_1_delta_56 16
depth_1_delta_54 14
depth_1_delta_-52 11
depth_1_delta_44 10
depth_1_delta_-56 9
depth_1_delta_-49 9
depth_1_delta_53 8
depth_1_delta_-40 8
depth_1_delta_-43 6
depth_1_delta_42 6
depth_1_delta_51 6
depth_1_delta_-48 5
depth_1_delta_-51 5
depth_1_delta_-17 5
depth_1_delta_-46 4
depth_1_delta_50 4
depth_1_delta_45 2
depth_2_delta_1 1886909
depth_2_delta_5 75939
depth_2_delta_2 63016
depth_2_delta_-1 49366
depth_2_delta_6 43455
depth_2_delta_3 11725
depth_2_delta_4 9273
depth_2_delta_-2 1592
depth_2_delta_8 1439
depth_2_delta_10 961
depth_2_delta_7 933
depth_2_delta_39 731
depth_2_delta_-39 704
depth_2_delta_-4 619
depth_2_delta_-6 618
depth_2_delta_12 545
depth_2_delta_-8 499
depth_2_delta_-7 493
depth_2_delta_-5 412
depth_2_delta_-3 399
depth_2_delta_-28 337
depth_2_delta_-12 263
depth_2_delta_22 156
depth_2_delta_15 129
depth_2_delta_-10 122
depth_2_delta_14 82
depth_2_delta_11 76
depth_2_delta_18 69
depth_2_delta_-16 68
depth_2_delta_24 67
depth_2_delta_21 65
depth_2_delta_-9 65
depth_2_delta_9 50
depth_2_delta_17 30
depth_2_delta_26 21
depth_2_delta_-11 20
depth_2_delta_30 18
depth_2_delta_-20 17
depth_2_delta_-22 16
depth_2_delta_-18 15
depth_2_delta_-24 15
depth_2_delta_25 13
depth_2_delta_27 13
depth_2_delta_16 13
depth_2_delta_23 11
depth_2_delta_29 10
depth_2_delta_-30 10
depth_2_delta_-27 8
depth_2_delta_32 7
depth_2_delta_54 6
depth_2_delta_28 6
depth_2_delta_-54 4
depth_2_delta_-19 3
depth_2_delta_-35 2
depth_2_delta_-34 1
depth_2_delta_-13 1
depth_2_delta_36 1
depth_3_delta_1 1785921
depth_3_delta_5 25361
depth_3_delta_6 14830
depth_3_delta_2 7109
depth_3_delta_-1 1398
depth_3_delta_4 988
depth_3_delta_3 81
depth_3_delta_-6 47
depth_3_delta_-4 37
depth_3_delta_10 30
depth_3_delta_12 23
depth_3_delta_39 21
depth_3_delta_-39 14
depth_3_delta_-2 7
depth_3_delta_-5 5
depth_3_delta_11 4
depth_3_delta_7 2
depth_3_delta_8 2
depth_3_delta_-8 1
depth_4_delta_1 1707958
depth_4_delta_5 3438
depth_4_delta_6 651
depth_4_delta_2 177
depth_4_delta_-1 101
depth_4_delta_4 2
depth_5_delta_1 1615767
depth_5_delta_6 11
depth_5_delta_5 10
depth_6_delta_1 1337410
depth_7_delta_1 860079
depth_8_delta_1 443319
depth_9_delta_1 158826
depth_10_delta_1 2401

Channel_0_RQ_row_buffer_hit 1742165
Channel_0_RQ_row_buffer_miss 5799787
Channel_0_WQ_row_buffer_hit 859848
Channel_0_WQ_row_buffer_miss 2442000
Channel_0_WQ_full 2722
Channel_0_dbus_congested 11122305

avg_congested_cycle 185

DRAM_bw_pochs 10541567
DRAM_bw_level_0 5734730
DRAM_bw_level_1 0
DRAM_bw_level_2 0
DRAM_bw_level_3 4806837
