*************************************************
   ChampSim Multicore Out-of-Order Simulator
   Last compiled: Dec 11 2024 17:59:53
*************************************************
parsing config file: /home/functionmain/桌面/Pythia/config/spp_dev2.ini

trace_0 /home/functionmain/桌面/Pythia/traces/403.gcc-16B.champsimtrace.xz
adding L2C_PREFETCHER: SPP_dev2
Initialize SIGNATURE TABLE
ST_SET: 1
ST_WAY: 256
ST_TAG_BIT: 16
ST_TAG_MASK: ffff

Initialize PATTERN TABLE
PT_SET: 512
PT_WAY: 4
SIG_DELTA_BIT: 7
C_SIG_BIT: 4
C_DELTA_BIT: 4

Initialize PREFETCH FILTER
FILTER_SET: 1024
fill_threshold: 90
pf_threshold: 40

Initialize SHIP state
warmup_instructions 100000000
simulation_instructions 500000000
champsim_seed 169
measure_ipc 0
measure_ipc_epoch 1000
measure_dram_bw 1
measure_dram_bw_epoch 256
measure_cache_acc 1
measure_cache_acc_epoch 1024
l1d_perfect 0
l2c_perfect 0
llc_perfect 0
l1d_semi_perfect 0
l2c_semi_perfect 0
llc_semi_perfect 0
semi_perfect_cache_page_buffer_size 64

num_cpus 1
cpu_freq 4000
dram_io_freq 9600
page_size 4096
block_size 64
max_read_per_cycle 8
max_fill_per_cycle 1
dram_channels 1
log2_dram_channels 0
dram_ranks 1
dram_banks 8
dram_rows 65536
dram_columns 128
dram_row_size 8
dram_size 4096
dram_pages 1048576

fetch_width 6
decode_width 6
exec_width 4
lq_width 2
sq_width 2
retire_width 4
scheduler_size 128
branch_mispredict_penalty 20
rob_size 256
lq_size 72
sq_size 56
num_instr_destinations_sparc 4
num_instr_destinations 2
num_instr_sources 4

itlb_set 16
itlb_way 8
itlb_rq_size 16
itlb_wq_size 16
itlb_pq_size 0
itlb_mshr_size 8
itlb_latency 1

dtlb_set 16
dtlb_way 4
dtlb_rq_size 16
dtlb_wq_size 16
dtlb_pq_size 0
dtlb_mshr_size 8
dtlb_latency 1

stlb_set 128
stlb_way 12
stlb_rq_size 32
stlb_wq_size 32
stlb_pq_size 0
stlb_mshr_size 16
stlb_latency 8

l1i_size 32
l1i_set 64
l1i_way 8
l1i_rq_size 64
l1i_wq_size 64
l1i_pq_size 8
l1i_mshr_size 8
l1i_latency 1

l1d_size 32
l1d_set 64
l1d_way 8
l1d_rq_size 64
l1d_wq_size 64
l1d_pq_size 8
l1d_mshr_size 16
l1d_latency 4

l2c_size 256
l2c_set 512
l2c_way 8
l2c_rq_size 32
l2c_wq_size 32
l2c_pq_size 32
l2c_mshr_size 32
l2c_latency 10

llc_size 2048
llc_set 2048
llc_way 16
llc_rq_size 32
llc_wq_size 32
llc_pq_size 32
llc_mshr_size 64
llc_latency 20

dram_channel_width 8
dram_wq_size 64
dram_rq_size 64
tRP 15
tRCD 15
tCAS 12.5
dram_dbus_turn_around_time 30
dram_write_high_wm 56
dram_write_low_wm 48
min_dram_writes_per_switch 16
dram_mtps 9600
dram_dbus_return_time 3


Heartbeat CPU  0 instructions:    1000000 cycles:     453077 heartbeat IPC: 2.20713 cumulative IPC: 2.20713 (Simulation time: 0 hr 0 min 2 sec) 
Heartbeat CPU  0 instructions:    2000000 cycles:     861359 heartbeat IPC: 2.44929 cumulative IPC: 2.32191 (Simulation time: 0 hr 0 min 3 sec) 
Heartbeat CPU  0 instructions:    3000003 cycles:    1299549 heartbeat IPC: 2.28212 cumulative IPC: 2.30850 (Simulation time: 0 hr 0 min 5 sec) 
Heartbeat CPU  0 instructions:    4000000 cycles:    1765800 heartbeat IPC: 2.14476 cumulative IPC: 2.26526 (Simulation time: 0 hr 0 min 6 sec) 
Heartbeat CPU  0 instructions:    5000000 cycles:    2181292 heartbeat IPC: 2.40679 cumulative IPC: 2.29222 (Simulation time: 0 hr 0 min 8 sec) 
Heartbeat CPU  0 instructions:    6000000 cycles:    2658649 heartbeat IPC: 2.09487 cumulative IPC: 2.25679 (Simulation time: 0 hr 0 min 9 sec) 
Heartbeat CPU  0 instructions:    7000002 cycles:    3082296 heartbeat IPC: 2.36046 cumulative IPC: 2.27103 (Simulation time: 0 hr 0 min 11 sec) 
Heartbeat CPU  0 instructions:    8000000 cycles:    3488503 heartbeat IPC: 2.46179 cumulative IPC: 2.29325 (Simulation time: 0 hr 0 min 12 sec) 
Heartbeat CPU  0 instructions:    9000003 cycles:    3937173 heartbeat IPC: 2.22882 cumulative IPC: 2.28590 (Simulation time: 0 hr 0 min 14 sec) 
Heartbeat CPU  0 instructions:   10000001 cycles:    4377848 heartbeat IPC: 2.26924 cumulative IPC: 2.28423 (Simulation time: 0 hr 0 min 15 sec) 
Heartbeat CPU  0 instructions:   11000000 cycles:    4782061 heartbeat IPC: 2.47394 cumulative IPC: 2.30026 (Simulation time: 0 hr 0 min 17 sec) 
Heartbeat CPU  0 instructions:   12000000 cycles:    5196292 heartbeat IPC: 2.41411 cumulative IPC: 2.30934 (Simulation time: 0 hr 0 min 18 sec) 
Heartbeat CPU  0 instructions:   13000001 cycles:    5649430 heartbeat IPC: 2.20684 cumulative IPC: 2.30112 (Simulation time: 0 hr 0 min 20 sec) 
Heartbeat CPU  0 instructions:   14000003 cycles:    6084744 heartbeat IPC: 2.29720 cumulative IPC: 2.30084 (Simulation time: 0 hr 0 min 21 sec) 
Heartbeat CPU  0 instructions:   15000000 cycles:    6489858 heartbeat IPC: 2.46843 cumulative IPC: 2.31130 (Simulation time: 0 hr 0 min 23 sec) 
Heartbeat CPU  0 instructions:   16000000 cycles:    6910079 heartbeat IPC: 2.37970 cumulative IPC: 2.31546 (Simulation time: 0 hr 0 min 24 sec) 
Heartbeat CPU  0 instructions:   17000001 cycles:    7353041 heartbeat IPC: 2.25753 cumulative IPC: 2.31197 (Simulation time: 0 hr 0 min 26 sec) 
Heartbeat CPU  0 instructions:   18000000 cycles:    7788351 heartbeat IPC: 2.29721 cumulative IPC: 2.31114 (Simulation time: 0 hr 0 min 27 sec) 
Heartbeat CPU  0 instructions:   19000001 cycles:    8188945 heartbeat IPC: 2.49630 cumulative IPC: 2.32020 (Simulation time: 0 hr 0 min 29 sec) 
Heartbeat CPU  0 instructions:   20000000 cycles:    8635696 heartbeat IPC: 2.23838 cumulative IPC: 2.31597 (Simulation time: 0 hr 0 min 30 sec) 
Heartbeat CPU  0 instructions:   21000001 cycles:    9080899 heartbeat IPC: 2.24617 cumulative IPC: 2.31255 (Simulation time: 0 hr 0 min 32 sec) 
Heartbeat CPU  0 instructions:   22000000 cycles:    9481624 heartbeat IPC: 2.49547 cumulative IPC: 2.32028 (Simulation time: 0 hr 0 min 33 sec) 
Heartbeat CPU  0 instructions:   23000003 cycles:    9895914 heartbeat IPC: 2.41378 cumulative IPC: 2.32419 (Simulation time: 0 hr 0 min 35 sec) 
Heartbeat CPU  0 instructions:   24000000 cycles:   10338175 heartbeat IPC: 2.26110 cumulative IPC: 2.32149 (Simulation time: 0 hr 0 min 36 sec) 
Heartbeat CPU  0 instructions:   25000000 cycles:   10787162 heartbeat IPC: 2.22724 cumulative IPC: 2.31757 (Simulation time: 0 hr 0 min 38 sec) 
Heartbeat CPU  0 instructions:   26000000 cycles:   11183469 heartbeat IPC: 2.52330 cumulative IPC: 2.32486 (Simulation time: 0 hr 0 min 39 sec) 
Heartbeat CPU  0 instructions:   27000001 cycles:   11598299 heartbeat IPC: 2.41063 cumulative IPC: 2.32793 (Simulation time: 0 hr 0 min 41 sec) 
Heartbeat CPU  0 instructions:   28000000 cycles:   12046057 heartbeat IPC: 2.23335 cumulative IPC: 2.32441 (Simulation time: 0 hr 0 min 42 sec) 
Heartbeat CPU  0 instructions:   29000000 cycles:   12478937 heartbeat IPC: 2.31011 cumulative IPC: 2.32392 (Simulation time: 0 hr 0 min 44 sec) 
Heartbeat CPU  0 instructions:   30000003 cycles:   12886750 heartbeat IPC: 2.45211 cumulative IPC: 2.32797 (Simulation time: 0 hr 0 min 45 sec) 
Heartbeat CPU  0 instructions:   31000003 cycles:   13377015 heartbeat IPC: 2.03971 cumulative IPC: 2.31741 (Simulation time: 0 hr 0 min 47 sec) 
Heartbeat CPU  0 instructions:   32000000 cycles:   13779741 heartbeat IPC: 2.48307 cumulative IPC: 2.32225 (Simulation time: 0 hr 0 min 48 sec) 
Heartbeat CPU  0 instructions:   33000001 cycles:   14203744 heartbeat IPC: 2.35848 cumulative IPC: 2.32333 (Simulation time: 0 hr 0 min 50 sec) 
Heartbeat CPU  0 instructions:   34000003 cycles:   14655903 heartbeat IPC: 2.21162 cumulative IPC: 2.31988 (Simulation time: 0 hr 0 min 51 sec) 
Heartbeat CPU  0 instructions:   35000002 cycles:   15077346 heartbeat IPC: 2.37280 cumulative IPC: 2.32136 (Simulation time: 0 hr 0 min 53 sec) 
Heartbeat CPU  0 instructions:   36000000 cycles:   15474581 heartbeat IPC: 2.51740 cumulative IPC: 2.32640 (Simulation time: 0 hr 0 min 54 sec) 
Heartbeat CPU  0 instructions:   37000001 cycles:   15910024 heartbeat IPC: 2.29651 cumulative IPC: 2.32558 (Simulation time: 0 hr 0 min 56 sec) 
Heartbeat CPU  0 instructions:   38000000 cycles:   16358253 heartbeat IPC: 2.23100 cumulative IPC: 2.32299 (Simulation time: 0 hr 0 min 57 sec) 
Heartbeat CPU  0 instructions:   39000000 cycles:   16774566 heartbeat IPC: 2.40204 cumulative IPC: 2.32495 (Simulation time: 0 hr 0 min 59 sec) 
Heartbeat CPU  0 instructions:   40000000 cycles:   17173069 heartbeat IPC: 2.50939 cumulative IPC: 2.32923 (Simulation time: 0 hr 1 min 0 sec) 
Heartbeat CPU  0 instructions:   41000003 cycles:   17615181 heartbeat IPC: 2.26188 cumulative IPC: 2.32754 (Simulation time: 0 hr 1 min 2 sec) 
Heartbeat CPU  0 instructions:   42000003 cycles:   18057454 heartbeat IPC: 2.26105 cumulative IPC: 2.32591 (Simulation time: 0 hr 1 min 3 sec) 
Heartbeat CPU  0 instructions:   43000002 cycles:   18463657 heartbeat IPC: 2.46182 cumulative IPC: 2.32890 (Simulation time: 0 hr 1 min 5 sec) 
Heartbeat CPU  0 instructions:   44000000 cycles:   18914073 heartbeat IPC: 2.22017 cumulative IPC: 2.32631 (Simulation time: 0 hr 1 min 6 sec) 
Heartbeat CPU  0 instructions:   45000000 cycles:   19361887 heartbeat IPC: 2.23307 cumulative IPC: 2.32415 (Simulation time: 0 hr 1 min 8 sec) 
Heartbeat CPU  0 instructions:   46000003 cycles:   19775250 heartbeat IPC: 2.41919 cumulative IPC: 2.32614 (Simulation time: 0 hr 1 min 9 sec) 
Heartbeat CPU  0 instructions:   47000003 cycles:   20228669 heartbeat IPC: 2.20547 cumulative IPC: 2.32344 (Simulation time: 0 hr 1 min 11 sec) 
Heartbeat CPU  0 instructions:   48000000 cycles:   20652403 heartbeat IPC: 2.35996 cumulative IPC: 2.32418 (Simulation time: 0 hr 1 min 12 sec) 
Heartbeat CPU  0 instructions:   49000003 cycles:   21061143 heartbeat IPC: 2.44655 cumulative IPC: 2.32656 (Simulation time: 0 hr 1 min 14 sec) 
Heartbeat CPU  0 instructions:   50000000 cycles:   21501457 heartbeat IPC: 2.27110 cumulative IPC: 2.32542 (Simulation time: 0 hr 1 min 15 sec) 
Heartbeat CPU  0 instructions:   51000003 cycles:   21938490 heartbeat IPC: 2.28816 cumulative IPC: 2.32468 (Simulation time: 0 hr 1 min 17 sec) 
Heartbeat CPU  0 instructions:   52000000 cycles:   22345835 heartbeat IPC: 2.45491 cumulative IPC: 2.32706 (Simulation time: 0 hr 1 min 18 sec) 
Heartbeat CPU  0 instructions:   53000000 cycles:   22761289 heartbeat IPC: 2.40701 cumulative IPC: 2.32851 (Simulation time: 0 hr 1 min 20 sec) 
Heartbeat CPU  0 instructions:   54000001 cycles:   23201173 heartbeat IPC: 2.27333 cumulative IPC: 2.32747 (Simulation time: 0 hr 1 min 21 sec) 
Heartbeat CPU  0 instructions:   55000001 cycles:   23636139 heartbeat IPC: 2.29903 cumulative IPC: 2.32695 (Simulation time: 0 hr 1 min 23 sec) 
Heartbeat CPU  0 instructions:   56000000 cycles:   24043459 heartbeat IPC: 2.45507 cumulative IPC: 2.32912 (Simulation time: 0 hr 1 min 24 sec) 
Heartbeat CPU  0 instructions:   57000003 cycles:   24459210 heartbeat IPC: 2.40529 cumulative IPC: 2.33041 (Simulation time: 0 hr 1 min 26 sec) 
Heartbeat CPU  0 instructions:   58000001 cycles:   24906420 heartbeat IPC: 2.23608 cumulative IPC: 2.32872 (Simulation time: 0 hr 1 min 27 sec) 
Heartbeat CPU  0 instructions:   59000000 cycles:   25337099 heartbeat IPC: 2.32191 cumulative IPC: 2.32860 (Simulation time: 0 hr 1 min 29 sec) 
Heartbeat CPU  0 instructions:   60000000 cycles:   25732816 heartbeat IPC: 2.52706 cumulative IPC: 2.33165 (Simulation time: 0 hr 1 min 30 sec) 
Heartbeat CPU  0 instructions:   61000001 cycles:   26184516 heartbeat IPC: 2.21386 cumulative IPC: 2.32962 (Simulation time: 0 hr 1 min 32 sec) 
Heartbeat CPU  0 instructions:   62000001 cycles:   26622588 heartbeat IPC: 2.28273 cumulative IPC: 2.32885 (Simulation time: 0 hr 1 min 33 sec) 
Heartbeat CPU  0 instructions:   63000000 cycles:   27026611 heartbeat IPC: 2.47510 cumulative IPC: 2.33104 (Simulation time: 0 hr 1 min 35 sec) 
Heartbeat CPU  0 instructions:   64000000 cycles:   27436250 heartbeat IPC: 2.44117 cumulative IPC: 2.33268 (Simulation time: 0 hr 1 min 36 sec) 
Heartbeat CPU  0 instructions:   65000001 cycles:   27884226 heartbeat IPC: 2.23226 cumulative IPC: 2.33107 (Simulation time: 0 hr 1 min 38 sec) 
Heartbeat CPU  0 instructions:   66000003 cycles:   28322666 heartbeat IPC: 2.28082 cumulative IPC: 2.33029 (Simulation time: 0 hr 1 min 39 sec) 
Heartbeat CPU  0 instructions:   67000000 cycles:   28721998 heartbeat IPC: 2.50417 cumulative IPC: 2.33271 (Simulation time: 0 hr 1 min 41 sec) 
Heartbeat CPU  0 instructions:   68000000 cycles:   29138173 heartbeat IPC: 2.40284 cumulative IPC: 2.33371 (Simulation time: 0 hr 1 min 42 sec) 
Heartbeat CPU  0 instructions:   69000001 cycles:   29579556 heartbeat IPC: 2.26561 cumulative IPC: 2.33269 (Simulation time: 0 hr 1 min 44 sec) 
Heartbeat CPU  0 instructions:   70000001 cycles:   30013068 heartbeat IPC: 2.30674 cumulative IPC: 2.33232 (Simulation time: 0 hr 1 min 45 sec) 
Heartbeat CPU  0 instructions:   71000003 cycles:   30438442 heartbeat IPC: 2.35088 cumulative IPC: 2.33258 (Simulation time: 0 hr 1 min 47 sec) 
Heartbeat CPU  0 instructions:   72000000 cycles:   30914124 heartbeat IPC: 2.10224 cumulative IPC: 2.32903 (Simulation time: 0 hr 1 min 48 sec) 
Heartbeat CPU  0 instructions:   73000001 cycles:   31310569 heartbeat IPC: 2.52242 cumulative IPC: 2.33148 (Simulation time: 0 hr 1 min 50 sec) 
Heartbeat CPU  0 instructions:   74000000 cycles:   31750402 heartbeat IPC: 2.27359 cumulative IPC: 2.33068 (Simulation time: 0 hr 1 min 51 sec) 
Heartbeat CPU  0 instructions:   75000003 cycles:   32201616 heartbeat IPC: 2.21625 cumulative IPC: 2.32908 (Simulation time: 0 hr 1 min 53 sec) 
Heartbeat CPU  0 instructions:   76000000 cycles:   32602587 heartbeat IPC: 2.49394 cumulative IPC: 2.33110 (Simulation time: 0 hr 1 min 54 sec) 
Heartbeat CPU  0 instructions:   77000001 cycles:   33019478 heartbeat IPC: 2.39871 cumulative IPC: 2.33196 (Simulation time: 0 hr 1 min 56 sec) 
Heartbeat CPU  0 instructions:   78000001 cycles:   33454632 heartbeat IPC: 2.29804 cumulative IPC: 2.33152 (Simulation time: 0 hr 1 min 57 sec) 
Heartbeat CPU  0 instructions:   79000000 cycles:   33901101 heartbeat IPC: 2.23979 cumulative IPC: 2.33031 (Simulation time: 0 hr 1 min 59 sec) 
Heartbeat CPU  0 instructions:   80000000 cycles:   34297183 heartbeat IPC: 2.52473 cumulative IPC: 2.33255 (Simulation time: 0 hr 2 min 0 sec) 
Heartbeat CPU  0 instructions:   81000003 cycles:   34715051 heartbeat IPC: 2.39311 cumulative IPC: 2.33328 (Simulation time: 0 hr 2 min 1 sec) 
Heartbeat CPU  0 instructions:   82000003 cycles:   35156385 heartbeat IPC: 2.26586 cumulative IPC: 2.33244 (Simulation time: 0 hr 2 min 3 sec) 
Heartbeat CPU  0 instructions:   83000000 cycles:   35591515 heartbeat IPC: 2.29816 cumulative IPC: 2.33202 (Simulation time: 0 hr 2 min 4 sec) 
Heartbeat CPU  0 instructions:   84000000 cycles:   35984940 heartbeat IPC: 2.54178 cumulative IPC: 2.33431 (Simulation time: 0 hr 2 min 6 sec) 
Heartbeat CPU  0 instructions:   85000000 cycles:   36425452 heartbeat IPC: 2.27009 cumulative IPC: 2.33353 (Simulation time: 0 hr 2 min 7 sec) 
Heartbeat CPU  0 instructions:   86000001 cycles:   36866251 heartbeat IPC: 2.26861 cumulative IPC: 2.33276 (Simulation time: 0 hr 2 min 9 sec) 
Heartbeat CPU  0 instructions:   87000002 cycles:   37277624 heartbeat IPC: 2.43089 cumulative IPC: 2.33384 (Simulation time: 0 hr 2 min 10 sec) 
Heartbeat CPU  0 instructions:   88000000 cycles:   37693627 heartbeat IPC: 2.40382 cumulative IPC: 2.33461 (Simulation time: 0 hr 2 min 12 sec) 
Heartbeat CPU  0 instructions:   89000001 cycles:   38129927 heartbeat IPC: 2.29200 cumulative IPC: 2.33412 (Simulation time: 0 hr 2 min 13 sec) 
Heartbeat CPU  0 instructions:   90000000 cycles:   38564580 heartbeat IPC: 2.30068 cumulative IPC: 2.33375 (Simulation time: 0 hr 2 min 15 sec) 
Heartbeat CPU  0 instructions:   91000000 cycles:   38970622 heartbeat IPC: 2.46280 cumulative IPC: 2.33509 (Simulation time: 0 hr 2 min 16 sec) 
Heartbeat CPU  0 instructions:   92000000 cycles:   39389103 heartbeat IPC: 2.38959 cumulative IPC: 2.33567 (Simulation time: 0 hr 2 min 18 sec) 
Heartbeat CPU  0 instructions:   93000000 cycles:   39822638 heartbeat IPC: 2.30662 cumulative IPC: 2.33536 (Simulation time: 0 hr 2 min 19 sec) 
Heartbeat CPU  0 instructions:   94000002 cycles:   40262800 heartbeat IPC: 2.27190 cumulative IPC: 2.33466 (Simulation time: 0 hr 2 min 21 sec) 
Heartbeat CPU  0 instructions:   95000000 cycles:   40654840 heartbeat IPC: 2.55076 cumulative IPC: 2.33675 (Simulation time: 0 hr 2 min 22 sec) 
Heartbeat CPU  0 instructions:   96000000 cycles:   41088773 heartbeat IPC: 2.30450 cumulative IPC: 2.33640 (Simulation time: 0 hr 2 min 24 sec) 
Heartbeat CPU  0 instructions:   97000001 cycles:   41551378 heartbeat IPC: 2.16167 cumulative IPC: 2.33446 (Simulation time: 0 hr 2 min 25 sec) 
Heartbeat CPU  0 instructions:   98000003 cycles:   41970530 heartbeat IPC: 2.38577 cumulative IPC: 2.33497 (Simulation time: 0 hr 2 min 27 sec) 
Heartbeat CPU  0 instructions:   99000001 cycles:   42412898 heartbeat IPC: 2.26056 cumulative IPC: 2.33420 (Simulation time: 0 hr 2 min 28 sec) 
Heartbeat CPU  0 instructions:  100000000 cycles:   42844099 heartbeat IPC: 2.31910 cumulative IPC: 2.33404 (Simulation time: 0 hr 2 min 30 sec) 

Warmup complete CPU  0 instructions:  100000001 cycles:   42844100 (Simulation time: 0 hr 2 min 30 sec) 

Heartbeat CPU  0 instructions:  101000001 cycles:   43521325 heartbeat IPC: 1.47661 cumulative IPC: 1.47661 (Simulation time: 0 hr 2 min 32 sec) 
Heartbeat CPU  0 instructions:  102000003 cycles:   44208863 heartbeat IPC: 1.45447 cumulative IPC: 1.46546 (Simulation time: 0 hr 2 min 33 sec) 
Heartbeat CPU  0 instructions:  103000003 cycles:   44891971 heartbeat IPC: 1.46390 cumulative IPC: 1.46494 (Simulation time: 0 hr 2 min 35 sec) 
Heartbeat CPU  0 instructions:  104000000 cycles:   45577027 heartbeat IPC: 1.45973 cumulative IPC: 1.46363 (Simulation time: 0 hr 2 min 37 sec) 
Heartbeat CPU  0 instructions:  105000001 cycles:   46266255 heartbeat IPC: 1.45090 cumulative IPC: 1.46107 (Simulation time: 0 hr 2 min 38 sec) 
Heartbeat CPU  0 instructions:  106000000 cycles:   46948370 heartbeat IPC: 1.46603 cumulative IPC: 1.46189 (Simulation time: 0 hr 2 min 40 sec) 
Heartbeat CPU  0 instructions:  107000001 cycles:   47631703 heartbeat IPC: 1.46342 cumulative IPC: 1.46211 (Simulation time: 0 hr 2 min 42 sec) 
Heartbeat CPU  0 instructions:  108000000 cycles:   48354740 heartbeat IPC: 1.38305 cumulative IPC: 1.45174 (Simulation time: 0 hr 2 min 44 sec) 
Heartbeat CPU  0 instructions:  109000001 cycles:   49037821 heartbeat IPC: 1.46396 cumulative IPC: 1.45308 (Simulation time: 0 hr 2 min 45 sec) 
Heartbeat CPU  0 instructions:  110000003 cycles:   49829263 heartbeat IPC: 1.26352 cumulative IPC: 1.43161 (Simulation time: 0 hr 2 min 47 sec) 
Heartbeat CPU  0 instructions:  111000000 cycles:   50687677 heartbeat IPC: 1.16494 cumulative IPC: 1.40242 (Simulation time: 0 hr 2 min 49 sec) 
Heartbeat CPU  0 instructions:  112000000 cycles:   51505039 heartbeat IPC: 1.22345 cumulative IPC: 1.38553 (Simulation time: 0 hr 2 min 51 sec) 
Heartbeat CPU  0 instructions:  113000003 cycles:   52211170 heartbeat IPC: 1.41617 cumulative IPC: 1.38784 (Simulation time: 0 hr 2 min 52 sec) 
Heartbeat CPU  0 instructions:  114000001 cycles:   52914047 heartbeat IPC: 1.42272 cumulative IPC: 1.39028 (Simulation time: 0 hr 2 min 54 sec) 
Heartbeat CPU  0 instructions:  115000002 cycles:   53633796 heartbeat IPC: 1.38937 cumulative IPC: 1.39022 (Simulation time: 0 hr 2 min 56 sec) 
Heartbeat CPU  0 instructions:  116000000 cycles:   54321835 heartbeat IPC: 1.45340 cumulative IPC: 1.39400 (Simulation time: 0 hr 2 min 58 sec) 
Heartbeat CPU  0 instructions:  117000000 cycles:   54991155 heartbeat IPC: 1.49405 cumulative IPC: 1.39952 (Simulation time: 0 hr 2 min 59 sec) 
Heartbeat CPU  0 instructions:  118000000 cycles:   55642098 heartbeat IPC: 1.53623 cumulative IPC: 1.40647 (Simulation time: 0 hr 3 min 1 sec) 
Heartbeat CPU  0 instructions:  119000002 cycles:   56368839 heartbeat IPC: 1.37601 cumulative IPC: 1.40483 (Simulation time: 0 hr 3 min 3 sec) 
Heartbeat CPU  0 instructions:  120000000 cycles:   57048879 heartbeat IPC: 1.47050 cumulative IPC: 1.40798 (Simulation time: 0 hr 3 min 4 sec) 
Heartbeat CPU  0 instructions:  121000002 cycles:   57719910 heartbeat IPC: 1.49025 cumulative IPC: 1.41169 (Simulation time: 0 hr 3 min 6 sec) 
Heartbeat CPU  0 instructions:  122000000 cycles:   58399199 heartbeat IPC: 1.47212 cumulative IPC: 1.41433 (Simulation time: 0 hr 3 min 8 sec) 
Heartbeat CPU  0 instructions:  123000002 cycles:   59134144 heartbeat IPC: 1.36065 cumulative IPC: 1.41191 (Simulation time: 0 hr 3 min 10 sec) 
Heartbeat CPU  0 instructions:  124000000 cycles:   59884388 heartbeat IPC: 1.33290 cumulative IPC: 1.40843 (Simulation time: 0 hr 3 min 11 sec) 
Heartbeat CPU  0 instructions:  125000000 cycles:   60561637 heartbeat IPC: 1.47656 cumulative IPC: 1.41103 (Simulation time: 0 hr 3 min 13 sec) 
Heartbeat CPU  0 instructions:  126000000 cycles:   61275835 heartbeat IPC: 1.40017 cumulative IPC: 1.41061 (Simulation time: 0 hr 3 min 15 sec) 
Heartbeat CPU  0 instructions:  127000003 cycles:   61999605 heartbeat IPC: 1.38166 cumulative IPC: 1.40952 (Simulation time: 0 hr 3 min 17 sec) 
Heartbeat CPU  0 instructions:  128000000 cycles:   62673366 heartbeat IPC: 1.48420 cumulative IPC: 1.41205 (Simulation time: 0 hr 3 min 18 sec) 
Heartbeat CPU  0 instructions:  129000001 cycles:   63320180 heartbeat IPC: 1.54604 cumulative IPC: 1.41629 (Simulation time: 0 hr 3 min 20 sec) 
Heartbeat CPU  0 instructions:  130000001 cycles:   64011165 heartbeat IPC: 1.44721 cumulative IPC: 1.41730 (Simulation time: 0 hr 3 min 22 sec) 
Heartbeat CPU  0 instructions:  131000002 cycles:   64730883 heartbeat IPC: 1.38943 cumulative IPC: 1.41638 (Simulation time: 0 hr 3 min 23 sec) 
Heartbeat CPU  0 instructions:  132000000 cycles:   65394339 heartbeat IPC: 1.50726 cumulative IPC: 1.41905 (Simulation time: 0 hr 3 min 25 sec) 
Heartbeat CPU  0 instructions:  133000003 cycles:   66048286 heartbeat IPC: 1.52918 cumulative IPC: 1.42216 (Simulation time: 0 hr 3 min 27 sec) 
Heartbeat CPU  0 instructions:  134000001 cycles:   66786267 heartbeat IPC: 1.35505 cumulative IPC: 1.42009 (Simulation time: 0 hr 3 min 29 sec) 
Heartbeat CPU  0 instructions:  135000001 cycles:   67501127 heartbeat IPC: 1.39888 cumulative IPC: 1.41947 (Simulation time: 0 hr 3 min 30 sec) 
Heartbeat CPU  0 instructions:  136000000 cycles:   68260857 heartbeat IPC: 1.31626 cumulative IPC: 1.41639 (Simulation time: 0 hr 3 min 32 sec) 
Heartbeat CPU  0 instructions:  137000003 cycles:   69164410 heartbeat IPC: 1.10675 cumulative IPC: 1.40576 (Simulation time: 0 hr 3 min 34 sec) 
Heartbeat CPU  0 instructions:  138000002 cycles:   69881061 heartbeat IPC: 1.39538 cumulative IPC: 1.40548 (Simulation time: 0 hr 3 min 36 sec) 
Heartbeat CPU  0 instructions:  139000002 cycles:   70544161 heartbeat IPC: 1.50807 cumulative IPC: 1.40794 (Simulation time: 0 hr 3 min 37 sec) 
Heartbeat CPU  0 instructions:  140000000 cycles:   71307118 heartbeat IPC: 1.31069 cumulative IPC: 1.40533 (Simulation time: 0 hr 3 min 39 sec) 
Heartbeat CPU  0 instructions:  141000001 cycles:   71998732 heartbeat IPC: 1.44589 cumulative IPC: 1.40629 (Simulation time: 0 hr 3 min 41 sec) 
Heartbeat CPU  0 instructions:  142000001 cycles:   72661234 heartbeat IPC: 1.50943 cumulative IPC: 1.40859 (Simulation time: 0 hr 3 min 42 sec) 
Heartbeat CPU  0 instructions:  143000002 cycles:   73321433 heartbeat IPC: 1.51470 cumulative IPC: 1.41088 (Simulation time: 0 hr 3 min 44 sec) 
Heartbeat CPU  0 instructions:  144000000 cycles:   74037712 heartbeat IPC: 1.39610 cumulative IPC: 1.41055 (Simulation time: 0 hr 3 min 46 sec) 
Heartbeat CPU  0 instructions:  145000003 cycles:   74728894 heartbeat IPC: 1.44680 cumulative IPC: 1.41133 (Simulation time: 0 hr 3 min 48 sec) 
Heartbeat CPU  0 instructions:  146000000 cycles:   75385557 heartbeat IPC: 1.52285 cumulative IPC: 1.41358 (Simulation time: 0 hr 3 min 49 sec) 
Heartbeat CPU  0 instructions:  147000003 cycles:   76077871 heartbeat IPC: 1.44444 cumulative IPC: 1.41422 (Simulation time: 0 hr 3 min 51 sec) 
Heartbeat CPU  0 instructions:  148000000 cycles:   76792751 heartbeat IPC: 1.39883 cumulative IPC: 1.41390 (Simulation time: 0 hr 3 min 53 sec) 
Heartbeat CPU  0 instructions:  149000001 cycles:   77541878 heartbeat IPC: 1.33489 cumulative IPC: 1.41219 (Simulation time: 0 hr 3 min 54 sec) 
Heartbeat CPU  0 instructions:  150000003 cycles:   78371147 heartbeat IPC: 1.20588 cumulative IPC: 1.40738 (Simulation time: 0 hr 3 min 56 sec) 
Heartbeat CPU  0 instructions:  151000000 cycles:   79190246 heartbeat IPC: 1.22085 cumulative IPC: 1.40317 (Simulation time: 0 hr 3 min 58 sec) 
Heartbeat CPU  0 instructions:  152000000 cycles:   79934526 heartbeat IPC: 1.34358 cumulative IPC: 1.40198 (Simulation time: 0 hr 4 min 0 sec) 
Heartbeat CPU  0 instructions:  153000001 cycles:   80705218 heartbeat IPC: 1.29754 cumulative IPC: 1.39985 (Simulation time: 0 hr 4 min 1 sec) 
Heartbeat CPU  0 instructions:  154000000 cycles:   81477499 heartbeat IPC: 1.29486 cumulative IPC: 1.39775 (Simulation time: 0 hr 4 min 3 sec) 
Heartbeat CPU  0 instructions:  155000000 cycles:   82259139 heartbeat IPC: 1.27936 cumulative IPC: 1.39541 (Simulation time: 0 hr 4 min 5 sec) 
Heartbeat CPU  0 instructions:  156000000 cycles:   83183210 heartbeat IPC: 1.08217 cumulative IPC: 1.38823 (Simulation time: 0 hr 4 min 7 sec) 
Heartbeat CPU  0 instructions:  157000002 cycles:   83912896 heartbeat IPC: 1.37046 cumulative IPC: 1.38792 (Simulation time: 0 hr 4 min 8 sec) 
Heartbeat CPU  0 instructions:  158000001 cycles:   84790883 heartbeat IPC: 1.13897 cumulative IPC: 1.38270 (Simulation time: 0 hr 4 min 10 sec) 
Heartbeat CPU  0 instructions:  159000001 cycles:   85537937 heartbeat IPC: 1.33859 cumulative IPC: 1.38193 (Simulation time: 0 hr 4 min 12 sec) 
Heartbeat CPU  0 instructions:  160000000 cycles:   86233240 heartbeat IPC: 1.43822 cumulative IPC: 1.38283 (Simulation time: 0 hr 4 min 14 sec) 
Heartbeat CPU  0 instructions:  161000001 cycles:   86951128 heartbeat IPC: 1.39298 cumulative IPC: 1.38300 (Simulation time: 0 hr 4 min 15 sec) 
Heartbeat CPU  0 instructions:  162000003 cycles:   87681288 heartbeat IPC: 1.36957 cumulative IPC: 1.38278 (Simulation time: 0 hr 4 min 17 sec) 
Heartbeat CPU  0 instructions:  163000000 cycles:   88350091 heartbeat IPC: 1.49520 cumulative IPC: 1.38443 (Simulation time: 0 hr 4 min 19 sec) 
Heartbeat CPU  0 instructions:  164000000 cycles:   89062669 heartbeat IPC: 1.40336 cumulative IPC: 1.38472 (Simulation time: 0 hr 4 min 21 sec) 
Heartbeat CPU  0 instructions:  165000001 cycles:   89754677 heartbeat IPC: 1.44507 cumulative IPC: 1.38561 (Simulation time: 0 hr 4 min 22 sec) 
Heartbeat CPU  0 instructions:  166000001 cycles:   90430135 heartbeat IPC: 1.48048 cumulative IPC: 1.38696 (Simulation time: 0 hr 4 min 24 sec) 
Heartbeat CPU  0 instructions:  167000002 cycles:   91152759 heartbeat IPC: 1.38385 cumulative IPC: 1.38691 (Simulation time: 0 hr 4 min 26 sec) 
Heartbeat CPU  0 instructions:  168000000 cycles:   91902751 heartbeat IPC: 1.33334 cumulative IPC: 1.38610 (Simulation time: 0 hr 4 min 28 sec) 
Heartbeat CPU  0 instructions:  169000000 cycles:   92630393 heartbeat IPC: 1.37430 cumulative IPC: 1.38592 (Simulation time: 0 hr 4 min 29 sec) 
Heartbeat CPU  0 instructions:  170000001 cycles:   93302659 heartbeat IPC: 1.48751 cumulative IPC: 1.38728 (Simulation time: 0 hr 4 min 31 sec) 
Heartbeat CPU  0 instructions:  171000000 cycles:   94054360 heartbeat IPC: 1.33031 cumulative IPC: 1.38644 (Simulation time: 0 hr 4 min 33 sec) 
Heartbeat CPU  0 instructions:  172000000 cycles:   94795564 heartbeat IPC: 1.34916 cumulative IPC: 1.38591 (Simulation time: 0 hr 4 min 34 sec) 
Heartbeat CPU  0 instructions:  173000001 cycles:   95484964 heartbeat IPC: 1.45054 cumulative IPC: 1.38676 (Simulation time: 0 hr 4 min 36 sec) 
Heartbeat CPU  0 instructions:  174000000 cycles:   96220799 heartbeat IPC: 1.35900 cumulative IPC: 1.38637 (Simulation time: 0 hr 4 min 38 sec) 
Heartbeat CPU  0 instructions:  175000000 cycles:   96925243 heartbeat IPC: 1.41956 cumulative IPC: 1.38680 (Simulation time: 0 hr 4 min 40 sec) 
Heartbeat CPU  0 instructions:  176000000 cycles:   97649123 heartbeat IPC: 1.38144 cumulative IPC: 1.38673 (Simulation time: 0 hr 4 min 41 sec) 
Heartbeat CPU  0 instructions:  177000002 cycles:   98429679 heartbeat IPC: 1.28114 cumulative IPC: 1.38525 (Simulation time: 0 hr 4 min 43 sec) 
Heartbeat CPU  0 instructions:  178000001 cycles:   99235437 heartbeat IPC: 1.24107 cumulative IPC: 1.38319 (Simulation time: 0 hr 4 min 45 sec) 
Heartbeat CPU  0 instructions:  179000003 cycles:   99981384 heartbeat IPC: 1.34058 cumulative IPC: 1.38263 (Simulation time: 0 hr 4 min 47 sec) 
Heartbeat CPU  0 instructions:  180000000 cycles:  100756708 heartbeat IPC: 1.28978 cumulative IPC: 1.38139 (Simulation time: 0 hr 4 min 48 sec) 
Heartbeat CPU  0 instructions:  181000000 cycles:  101528547 heartbeat IPC: 1.29561 cumulative IPC: 1.38026 (Simulation time: 0 hr 4 min 50 sec) 
Heartbeat CPU  0 instructions:  182000003 cycles:  102301764 heartbeat IPC: 1.29330 cumulative IPC: 1.37913 (Simulation time: 0 hr 4 min 52 sec) 
Heartbeat CPU  0 instructions:  183000002 cycles:  103099649 heartbeat IPC: 1.25331 cumulative IPC: 1.37747 (Simulation time: 0 hr 4 min 54 sec) 
Heartbeat CPU  0 instructions:  184000000 cycles:  103800529 heartbeat IPC: 1.42677 cumulative IPC: 1.37803 (Simulation time: 0 hr 4 min 55 sec) 
Heartbeat CPU  0 instructions:  185000002 cycles:  104536511 heartbeat IPC: 1.35873 cumulative IPC: 1.37780 (Simulation time: 0 hr 4 min 57 sec) 
Heartbeat CPU  0 instructions:  186000000 cycles:  105236498 heartbeat IPC: 1.42860 cumulative IPC: 1.37837 (Simulation time: 0 hr 4 min 59 sec) 
Heartbeat CPU  0 instructions:  187000001 cycles:  105928252 heartbeat IPC: 1.44560 cumulative IPC: 1.37911 (Simulation time: 0 hr 5 min 1 sec) 
Heartbeat CPU  0 instructions:  188000000 cycles:  106740284 heartbeat IPC: 1.23148 cumulative IPC: 1.37723 (Simulation time: 0 hr 5 min 2 sec) 
Heartbeat CPU  0 instructions:  189000000 cycles:  107539129 heartbeat IPC: 1.25181 cumulative IPC: 1.37569 (Simulation time: 0 hr 5 min 4 sec) 
Heartbeat CPU  0 instructions:  190000000 cycles:  108289414 heartbeat IPC: 1.33283 cumulative IPC: 1.37519 (Simulation time: 0 hr 5 min 6 sec) 
Heartbeat CPU  0 instructions:  191000003 cycles:  109064530 heartbeat IPC: 1.29013 cumulative IPC: 1.37420 (Simulation time: 0 hr 5 min 8 sec) 
Heartbeat CPU  0 instructions:  192000000 cycles:  109804533 heartbeat IPC: 1.35134 cumulative IPC: 1.37395 (Simulation time: 0 hr 5 min 9 sec) 
Heartbeat CPU  0 instructions:  193000000 cycles:  110606209 heartbeat IPC: 1.24739 cumulative IPC: 1.37245 (Simulation time: 0 hr 5 min 11 sec) 
Heartbeat CPU  0 instructions:  194000001 cycles:  111416548 heartbeat IPC: 1.23405 cumulative IPC: 1.37081 (Simulation time: 0 hr 5 min 13 sec) 
Heartbeat CPU  0 instructions:  195000001 cycles:  112120146 heartbeat IPC: 1.42127 cumulative IPC: 1.37133 (Simulation time: 0 hr 5 min 15 sec) 
Heartbeat CPU  0 instructions:  196000000 cycles:  112934841 heartbeat IPC: 1.22745 cumulative IPC: 1.36965 (Simulation time: 0 hr 5 min 16 sec) 
Heartbeat CPU  0 instructions:  197000001 cycles:  113702836 heartbeat IPC: 1.30209 cumulative IPC: 1.36892 (Simulation time: 0 hr 5 min 18 sec) 
Heartbeat CPU  0 instructions:  198000002 cycles:  114515720 heartbeat IPC: 1.23019 cumulative IPC: 1.36735 (Simulation time: 0 hr 5 min 20 sec) 
Heartbeat CPU  0 instructions:  199000002 cycles:  115390961 heartbeat IPC: 1.14254 cumulative IPC: 1.36464 (Simulation time: 0 hr 5 min 22 sec) 
Heartbeat CPU  0 instructions:  200000000 cycles:  116182557 heartbeat IPC: 1.26327 cumulative IPC: 1.36354 (Simulation time: 0 hr 5 min 24 sec) 
Heartbeat CPU  0 instructions:  201000000 cycles:  117038189 heartbeat IPC: 1.16873 cumulative IPC: 1.36129 (Simulation time: 0 hr 5 min 25 sec) 
Heartbeat CPU  0 instructions:  202000000 cycles:  117819473 heartbeat IPC: 1.27994 cumulative IPC: 1.36045 (Simulation time: 0 hr 5 min 27 sec) 
Heartbeat CPU  0 instructions:  203000000 cycles:  118718577 heartbeat IPC: 1.11222 cumulative IPC: 1.35751 (Simulation time: 0 hr 5 min 29 sec) 
Heartbeat CPU  0 instructions:  204000000 cycles:  119513228 heartbeat IPC: 1.25841 cumulative IPC: 1.35648 (Simulation time: 0 hr 5 min 31 sec) 
Heartbeat CPU  0 instructions:  205000001 cycles:  120378373 heartbeat IPC: 1.15588 cumulative IPC: 1.35424 (Simulation time: 0 hr 5 min 32 sec) 
Heartbeat CPU  0 instructions:  206000003 cycles:  121154930 heartbeat IPC: 1.28774 cumulative IPC: 1.35358 (Simulation time: 0 hr 5 min 34 sec) 
Heartbeat CPU  0 instructions:  207000003 cycles:  121904371 heartbeat IPC: 1.33433 cumulative IPC: 1.35340 (Simulation time: 0 hr 5 min 36 sec) 
Heartbeat CPU  0 instructions:  208000000 cycles:  122654034 heartbeat IPC: 1.33393 cumulative IPC: 1.35321 (Simulation time: 0 hr 5 min 38 sec) 
Heartbeat CPU  0 instructions:  209000001 cycles:  123441787 heartbeat IPC: 1.26943 cumulative IPC: 1.35240 (Simulation time: 0 hr 5 min 39 sec) 
Heartbeat CPU  0 instructions:  210000003 cycles:  124311204 heartbeat IPC: 1.15020 cumulative IPC: 1.35024 (Simulation time: 0 hr 5 min 41 sec) 
Heartbeat CPU  0 instructions:  211000001 cycles:  125058483 heartbeat IPC: 1.33819 cumulative IPC: 1.35013 (Simulation time: 0 hr 5 min 43 sec) 
Heartbeat CPU  0 instructions:  212000000 cycles:  125774007 heartbeat IPC: 1.39758 cumulative IPC: 1.35054 (Simulation time: 0 hr 5 min 45 sec) 
Heartbeat CPU  0 instructions:  213000000 cycles:  126590376 heartbeat IPC: 1.22494 cumulative IPC: 1.34931 (Simulation time: 0 hr 5 min 46 sec) 
Heartbeat CPU  0 instructions:  214000000 cycles:  127371236 heartbeat IPC: 1.28064 cumulative IPC: 1.34868 (Simulation time: 0 hr 5 min 48 sec) 
Heartbeat CPU  0 instructions:  215000001 cycles:  128220435 heartbeat IPC: 1.17758 cumulative IPC: 1.34698 (Simulation time: 0 hr 5 min 50 sec) 
Heartbeat CPU  0 instructions:  216000000 cycles:  129020699 heartbeat IPC: 1.24959 cumulative IPC: 1.34607 (Simulation time: 0 hr 5 min 52 sec) 
Heartbeat CPU  0 instructions:  217000003 cycles:  129909059 heartbeat IPC: 1.12567 cumulative IPC: 1.34382 (Simulation time: 0 hr 5 min 54 sec) 
Heartbeat CPU  0 instructions:  218000002 cycles:  130681916 heartbeat IPC: 1.29390 cumulative IPC: 1.34338 (Simulation time: 0 hr 5 min 55 sec) 
Heartbeat CPU  0 instructions:  219000001 cycles:  131400215 heartbeat IPC: 1.39218 cumulative IPC: 1.34378 (Simulation time: 0 hr 5 min 57 sec) 
Heartbeat CPU  0 instructions:  220000000 cycles:  132108175 heartbeat IPC: 1.41251 cumulative IPC: 1.34433 (Simulation time: 0 hr 5 min 59 sec) 
Heartbeat CPU  0 instructions:  221000000 cycles:  132778944 heartbeat IPC: 1.49083 cumulative IPC: 1.34542 (Simulation time: 0 hr 6 min 1 sec) 
Heartbeat CPU  0 instructions:  222000003 cycles:  133607554 heartbeat IPC: 1.20684 cumulative IPC: 1.34415 (Simulation time: 0 hr 6 min 2 sec) 
Heartbeat CPU  0 instructions:  223000002 cycles:  134315914 heartbeat IPC: 1.41171 cumulative IPC: 1.34468 (Simulation time: 0 hr 6 min 4 sec) 
Heartbeat CPU  0 instructions:  224000000 cycles:  134997121 heartbeat IPC: 1.46798 cumulative IPC: 1.34559 (Simulation time: 0 hr 6 min 6 sec) 
Heartbeat CPU  0 instructions:  225000000 cycles:  135706917 heartbeat IPC: 1.40886 cumulative IPC: 1.34607 (Simulation time: 0 hr 6 min 7 sec) 
Heartbeat CPU  0 instructions:  226000001 cycles:  136518790 heartbeat IPC: 1.23172 cumulative IPC: 1.34508 (Simulation time: 0 hr 6 min 9 sec) 
Heartbeat CPU  0 instructions:  227000002 cycles:  137197971 heartbeat IPC: 1.47236 cumulative IPC: 1.34600 (Simulation time: 0 hr 6 min 11 sec) 
Heartbeat CPU  0 instructions:  228000000 cycles:  137921983 heartbeat IPC: 1.38119 cumulative IPC: 1.34626 (Simulation time: 0 hr 6 min 13 sec) 
Heartbeat CPU  0 instructions:  229000000 cycles:  138625299 heartbeat IPC: 1.42184 cumulative IPC: 1.34682 (Simulation time: 0 hr 6 min 14 sec) 
Heartbeat CPU  0 instructions:  230000002 cycles:  139337095 heartbeat IPC: 1.40490 cumulative IPC: 1.34725 (Simulation time: 0 hr 6 min 16 sec) 
Heartbeat CPU  0 instructions:  231000000 cycles:  140116724 heartbeat IPC: 1.28266 cumulative IPC: 1.34673 (Simulation time: 0 hr 6 min 18 sec) 
Heartbeat CPU  0 instructions:  232000000 cycles:  140834978 heartbeat IPC: 1.39227 cumulative IPC: 1.34706 (Simulation time: 0 hr 6 min 20 sec) 
Heartbeat CPU  0 instructions:  233000001 cycles:  141521804 heartbeat IPC: 1.45597 cumulative IPC: 1.34782 (Simulation time: 0 hr 6 min 21 sec) 
Heartbeat CPU  0 instructions:  234000003 cycles:  142257756 heartbeat IPC: 1.35879 cumulative IPC: 1.34790 (Simulation time: 0 hr 6 min 23 sec) 
Heartbeat CPU  0 instructions:  235000002 cycles:  143035278 heartbeat IPC: 1.28614 cumulative IPC: 1.34742 (Simulation time: 0 hr 6 min 25 sec) 
Heartbeat CPU  0 instructions:  236000000 cycles:  143734467 heartbeat IPC: 1.43023 cumulative IPC: 1.34800 (Simulation time: 0 hr 6 min 26 sec) 
Heartbeat CPU  0 instructions:  237000002 cycles:  144416851 heartbeat IPC: 1.46545 cumulative IPC: 1.34879 (Simulation time: 0 hr 6 min 28 sec) 
Heartbeat CPU  0 instructions:  238000000 cycles:  145173103 heartbeat IPC: 1.32231 cumulative IPC: 1.34859 (Simulation time: 0 hr 6 min 30 sec) 
Heartbeat CPU  0 instructions:  239000000 cycles:  145925149 heartbeat IPC: 1.32971 cumulative IPC: 1.34845 (Simulation time: 0 hr 6 min 32 sec) 
Heartbeat CPU  0 instructions:  240000000 cycles:  146614869 heartbeat IPC: 1.44986 cumulative IPC: 1.34913 (Simulation time: 0 hr 6 min 33 sec) 
Heartbeat CPU  0 instructions:  241000002 cycles:  147328347 heartbeat IPC: 1.40159 cumulative IPC: 1.34949 (Simulation time: 0 hr 6 min 35 sec) 
Heartbeat CPU  0 instructions:  242000002 cycles:  148070359 heartbeat IPC: 1.34769 cumulative IPC: 1.34947 (Simulation time: 0 hr 6 min 37 sec) 
Heartbeat CPU  0 instructions:  243000002 cycles:  148814162 heartbeat IPC: 1.34444 cumulative IPC: 1.34944 (Simulation time: 0 hr 6 min 39 sec) 
Heartbeat CPU  0 instructions:  244000000 cycles:  149535297 heartbeat IPC: 1.38670 cumulative IPC: 1.34969 (Simulation time: 0 hr 6 min 40 sec) 
Heartbeat CPU  0 instructions:  245000000 cycles:  150236689 heartbeat IPC: 1.42574 cumulative IPC: 1.35019 (Simulation time: 0 hr 6 min 42 sec) 
Heartbeat CPU  0 instructions:  246000000 cycles:  150905487 heartbeat IPC: 1.49522 cumulative IPC: 1.35108 (Simulation time: 0 hr 6 min 44 sec) 
Heartbeat CPU  0 instructions:  247000001 cycles:  151651679 heartbeat IPC: 1.34014 cumulative IPC: 1.35101 (Simulation time: 0 hr 6 min 46 sec) 
Heartbeat CPU  0 instructions:  248000000 cycles:  152474342 heartbeat IPC: 1.21556 cumulative IPC: 1.34999 (Simulation time: 0 hr 6 min 47 sec) 
Heartbeat CPU  0 instructions:  249000000 cycles:  153154191 heartbeat IPC: 1.47091 cumulative IPC: 1.35074 (Simulation time: 0 hr 6 min 49 sec) 
Heartbeat CPU  0 instructions:  250000001 cycles:  153875003 heartbeat IPC: 1.38733 cumulative IPC: 1.35098 (Simulation time: 0 hr 6 min 51 sec) 
Heartbeat CPU  0 instructions:  251000000 cycles:  154573608 heartbeat IPC: 1.43142 cumulative IPC: 1.35148 (Simulation time: 0 hr 6 min 53 sec) 
Heartbeat CPU  0 instructions:  252000000 cycles:  155264371 heartbeat IPC: 1.44767 cumulative IPC: 1.35207 (Simulation time: 0 hr 6 min 54 sec) 
Heartbeat CPU  0 instructions:  253000002 cycles:  156113749 heartbeat IPC: 1.17733 cumulative IPC: 1.35076 (Simulation time: 0 hr 6 min 56 sec) 
Heartbeat CPU  0 instructions:  254000002 cycles:  156818663 heartbeat IPC: 1.41861 cumulative IPC: 1.35118 (Simulation time: 0 hr 6 min 58 sec) 
Heartbeat CPU  0 instructions:  255000000 cycles:  157493681 heartbeat IPC: 1.48144 cumulative IPC: 1.35195 (Simulation time: 0 hr 6 min 59 sec) 
Heartbeat CPU  0 instructions:  256000000 cycles:  158309189 heartbeat IPC: 1.22623 cumulative IPC: 1.35106 (Simulation time: 0 hr 7 min 1 sec) 
Heartbeat CPU  0 instructions:  257000000 cycles:  159014027 heartbeat IPC: 1.41877 cumulative IPC: 1.35147 (Simulation time: 0 hr 7 min 3 sec) 
Heartbeat CPU  0 instructions:  258000002 cycles:  159688518 heartbeat IPC: 1.48260 cumulative IPC: 1.35223 (Simulation time: 0 hr 7 min 5 sec) 
Heartbeat CPU  0 instructions:  259000000 cycles:  160506693 heartbeat IPC: 1.22223 cumulative IPC: 1.35132 (Simulation time: 0 hr 7 min 7 sec) 
Heartbeat CPU  0 instructions:  260000000 cycles:  161213113 heartbeat IPC: 1.41559 cumulative IPC: 1.35171 (Simulation time: 0 hr 7 min 8 sec) 
Heartbeat CPU  0 instructions:  261000002 cycles:  161889688 heartbeat IPC: 1.47804 cumulative IPC: 1.35242 (Simulation time: 0 hr 7 min 10 sec) 
Heartbeat CPU  0 instructions:  262000000 cycles:  162703443 heartbeat IPC: 1.22887 cumulative IPC: 1.35158 (Simulation time: 0 hr 7 min 12 sec) 
Heartbeat CPU  0 instructions:  263000002 cycles:  163408041 heartbeat IPC: 1.41925 cumulative IPC: 1.35198 (Simulation time: 0 hr 7 min 14 sec) 
Heartbeat CPU  0 instructions:  264000000 cycles:  164082721 heartbeat IPC: 1.48218 cumulative IPC: 1.35270 (Simulation time: 0 hr 7 min 15 sec) 
Heartbeat CPU  0 instructions:  265000000 cycles:  164899818 heartbeat IPC: 1.22384 cumulative IPC: 1.35184 (Simulation time: 0 hr 7 min 17 sec) 
Heartbeat CPU  0 instructions:  266000000 cycles:  165603714 heartbeat IPC: 1.42066 cumulative IPC: 1.35224 (Simulation time: 0 hr 7 min 19 sec) 
Heartbeat CPU  0 instructions:  267000002 cycles:  166278060 heartbeat IPC: 1.48292 cumulative IPC: 1.35295 (Simulation time: 0 hr 7 min 20 sec) 
Heartbeat CPU  0 instructions:  268000000 cycles:  167092659 heartbeat IPC: 1.22760 cumulative IPC: 1.35213 (Simulation time: 0 hr 7 min 22 sec) 
Heartbeat CPU  0 instructions:  269000002 cycles:  167797998 heartbeat IPC: 1.41776 cumulative IPC: 1.35250 (Simulation time: 0 hr 7 min 24 sec) 
Heartbeat CPU  0 instructions:  270000002 cycles:  168472390 heartbeat IPC: 1.48282 cumulative IPC: 1.35320 (Simulation time: 0 hr 7 min 26 sec) 
Heartbeat CPU  0 instructions:  271000000 cycles:  169289935 heartbeat IPC: 1.22317 cumulative IPC: 1.35236 (Simulation time: 0 hr 7 min 27 sec) 
Heartbeat CPU  0 instructions:  272000000 cycles:  169994269 heartbeat IPC: 1.41978 cumulative IPC: 1.35273 (Simulation time: 0 hr 7 min 29 sec) 
Heartbeat CPU  0 instructions:  273000002 cycles:  170668469 heartbeat IPC: 1.48324 cumulative IPC: 1.35342 (Simulation time: 0 hr 7 min 31 sec) 
Heartbeat CPU  0 instructions:  274000002 cycles:  171484207 heartbeat IPC: 1.22588 cumulative IPC: 1.35261 (Simulation time: 0 hr 7 min 33 sec) 
Heartbeat CPU  0 instructions:  275000000 cycles:  172189471 heartbeat IPC: 1.41791 cumulative IPC: 1.35297 (Simulation time: 0 hr 7 min 34 sec) 
Heartbeat CPU  0 instructions:  276000000 cycles:  172863945 heartbeat IPC: 1.48264 cumulative IPC: 1.35364 (Simulation time: 0 hr 7 min 36 sec) 
Heartbeat CPU  0 instructions:  277000003 cycles:  173684447 heartbeat IPC: 1.21877 cumulative IPC: 1.35279 (Simulation time: 0 hr 7 min 38 sec) 
Heartbeat CPU  0 instructions:  278000002 cycles:  174393917 heartbeat IPC: 1.40950 cumulative IPC: 1.35310 (Simulation time: 0 hr 7 min 40 sec) 
Heartbeat CPU  0 instructions:  279000001 cycles:  175065698 heartbeat IPC: 1.48858 cumulative IPC: 1.35379 (Simulation time: 0 hr 7 min 41 sec) 
Heartbeat CPU  0 instructions:  280000000 cycles:  175883128 heartbeat IPC: 1.22335 cumulative IPC: 1.35299 (Simulation time: 0 hr 7 min 43 sec) 
Heartbeat CPU  0 instructions:  281000000 cycles:  176588960 heartbeat IPC: 1.41677 cumulative IPC: 1.35332 (Simulation time: 0 hr 7 min 45 sec) 
Heartbeat CPU  0 instructions:  282000002 cycles:  177263045 heartbeat IPC: 1.48350 cumulative IPC: 1.35398 (Simulation time: 0 hr 7 min 46 sec) 
Heartbeat CPU  0 instructions:  283000002 cycles:  178077151 heartbeat IPC: 1.22834 cumulative IPC: 1.35322 (Simulation time: 0 hr 7 min 48 sec) 
Heartbeat CPU  0 instructions:  284000000 cycles:  178782657 heartbeat IPC: 1.41742 cumulative IPC: 1.35355 (Simulation time: 0 hr 7 min 50 sec) 
Heartbeat CPU  0 instructions:  285000000 cycles:  179457319 heartbeat IPC: 1.48222 cumulative IPC: 1.35419 (Simulation time: 0 hr 7 min 52 sec) 
Heartbeat CPU  0 instructions:  286000000 cycles:  180268855 heartbeat IPC: 1.23223 cumulative IPC: 1.35347 (Simulation time: 0 hr 7 min 53 sec) 
Heartbeat CPU  0 instructions:  287000000 cycles:  180977445 heartbeat IPC: 1.41125 cumulative IPC: 1.35376 (Simulation time: 0 hr 7 min 55 sec) 
Heartbeat CPU  0 instructions:  288000000 cycles:  181650361 heartbeat IPC: 1.48607 cumulative IPC: 1.35441 (Simulation time: 0 hr 7 min 57 sec) 
Heartbeat CPU  0 instructions:  289000003 cycles:  182470182 heartbeat IPC: 1.21978 cumulative IPC: 1.35362 (Simulation time: 0 hr 7 min 59 sec) 
Heartbeat CPU  0 instructions:  290000002 cycles:  183179658 heartbeat IPC: 1.40949 cumulative IPC: 1.35390 (Simulation time: 0 hr 8 min 0 sec) 
Heartbeat CPU  0 instructions:  291000001 cycles:  183847098 heartbeat IPC: 1.49826 cumulative IPC: 1.35458 (Simulation time: 0 hr 8 min 2 sec) 
Heartbeat CPU  0 instructions:  292000000 cycles:  184601755 heartbeat IPC: 1.32510 cumulative IPC: 1.35442 (Simulation time: 0 hr 8 min 4 sec) 
Heartbeat CPU  0 instructions:  293000001 cycles:  185318482 heartbeat IPC: 1.39523 cumulative IPC: 1.35463 (Simulation time: 0 hr 8 min 6 sec) 
Heartbeat CPU  0 instructions:  294000001 cycles:  185999279 heartbeat IPC: 1.46887 cumulative IPC: 1.35517 (Simulation time: 0 hr 8 min 7 sec) 
Heartbeat CPU  0 instructions:  295000002 cycles:  186724191 heartbeat IPC: 1.37948 cumulative IPC: 1.35530 (Simulation time: 0 hr 8 min 9 sec) 
Heartbeat CPU  0 instructions:  296000000 cycles:  187442828 heartbeat IPC: 1.39152 cumulative IPC: 1.35548 (Simulation time: 0 hr 8 min 11 sec) 
Heartbeat CPU  0 instructions:  297000001 cycles:  188134085 heartbeat IPC: 1.44664 cumulative IPC: 1.35591 (Simulation time: 0 hr 8 min 12 sec) 
Heartbeat CPU  0 instructions:  298000000 cycles:  188858198 heartbeat IPC: 1.38100 cumulative IPC: 1.35603 (Simulation time: 0 hr 8 min 14 sec) 
Heartbeat CPU  0 instructions:  299000000 cycles:  189581414 heartbeat IPC: 1.38271 cumulative IPC: 1.35616 (Simulation time: 0 hr 8 min 16 sec) 
Heartbeat CPU  0 instructions:  300000000 cycles:  190278582 heartbeat IPC: 1.43437 cumulative IPC: 1.35653 (Simulation time: 0 hr 8 min 18 sec) 
Heartbeat CPU  0 instructions:  301000003 cycles:  190988050 heartbeat IPC: 1.40951 cumulative IPC: 1.35679 (Simulation time: 0 hr 8 min 19 sec) 
Heartbeat CPU  0 instructions:  302000003 cycles:  191708714 heartbeat IPC: 1.38761 cumulative IPC: 1.35694 (Simulation time: 0 hr 8 min 21 sec) 
Heartbeat CPU  0 instructions:  303000002 cycles:  192412911 heartbeat IPC: 1.42006 cumulative IPC: 1.35723 (Simulation time: 0 hr 8 min 23 sec) 
Heartbeat CPU  0 instructions:  304000000 cycles:  193140052 heartbeat IPC: 1.37525 cumulative IPC: 1.35732 (Simulation time: 0 hr 8 min 24 sec) 
Heartbeat CPU  0 instructions:  305000001 cycles:  193831508 heartbeat IPC: 1.44623 cumulative IPC: 1.35773 (Simulation time: 0 hr 8 min 26 sec) 
Heartbeat CPU  0 instructions:  306000003 cycles:  194537523 heartbeat IPC: 1.41640 cumulative IPC: 1.35800 (Simulation time: 0 hr 8 min 28 sec) 
Heartbeat CPU  0 instructions:  307000000 cycles:  195274656 heartbeat IPC: 1.35660 cumulative IPC: 1.35800 (Simulation time: 0 hr 8 min 30 sec) 
Heartbeat CPU  0 instructions:  308000000 cycles:  195956603 heartbeat IPC: 1.46639 cumulative IPC: 1.35848 (Simulation time: 0 hr 8 min 31 sec) 
Heartbeat CPU  0 instructions:  309000002 cycles:  196676522 heartbeat IPC: 1.38905 cumulative IPC: 1.35862 (Simulation time: 0 hr 8 min 33 sec) 
Heartbeat CPU  0 instructions:  310000000 cycles:  197471497 heartbeat IPC: 1.25790 cumulative IPC: 1.35810 (Simulation time: 0 hr 8 min 35 sec) 
Heartbeat CPU  0 instructions:  311000001 cycles:  198151679 heartbeat IPC: 1.47020 cumulative IPC: 1.35859 (Simulation time: 0 hr 8 min 37 sec) 
Heartbeat CPU  0 instructions:  312000000 cycles:  198872320 heartbeat IPC: 1.38765 cumulative IPC: 1.35873 (Simulation time: 0 hr 8 min 38 sec) 
Heartbeat CPU  0 instructions:  313000002 cycles:  199729062 heartbeat IPC: 1.16721 cumulative IPC: 1.35768 (Simulation time: 0 hr 8 min 40 sec) 
Heartbeat CPU  0 instructions:  314000001 cycles:  200474630 heartbeat IPC: 1.34126 cumulative IPC: 1.35760 (Simulation time: 0 hr 8 min 42 sec) 
Heartbeat CPU  0 instructions:  315000000 cycles:  201194992 heartbeat IPC: 1.38819 cumulative IPC: 1.35774 (Simulation time: 0 hr 8 min 44 sec) 
Heartbeat CPU  0 instructions:  316000000 cycles:  201931459 heartbeat IPC: 1.35783 cumulative IPC: 1.35774 (Simulation time: 0 hr 8 min 45 sec) 
Heartbeat CPU  0 instructions:  317000001 cycles:  202731925 heartbeat IPC: 1.24927 cumulative IPC: 1.35720 (Simulation time: 0 hr 8 min 47 sec) 
Heartbeat CPU  0 instructions:  318000001 cycles:  203592679 heartbeat IPC: 1.16177 cumulative IPC: 1.35616 (Simulation time: 0 hr 8 min 49 sec) 
Heartbeat CPU  0 instructions:  319000003 cycles:  204285101 heartbeat IPC: 1.44421 cumulative IPC: 1.35653 (Simulation time: 0 hr 8 min 51 sec) 
Heartbeat CPU  0 instructions:  320000000 cycles:  204992625 heartbeat IPC: 1.41338 cumulative IPC: 1.35678 (Simulation time: 0 hr 8 min 52 sec) 
Heartbeat CPU  0 instructions:  321000001 cycles:  205790950 heartbeat IPC: 1.25262 cumulative IPC: 1.35627 (Simulation time: 0 hr 8 min 54 sec) 
Heartbeat CPU  0 instructions:  322000003 cycles:  206581245 heartbeat IPC: 1.26535 cumulative IPC: 1.35583 (Simulation time: 0 hr 8 min 56 sec) 
Heartbeat CPU  0 instructions:  323000001 cycles:  207366314 heartbeat IPC: 1.27377 cumulative IPC: 1.35544 (Simulation time: 0 hr 8 min 58 sec) 
Heartbeat CPU  0 instructions:  324000000 cycles:  208084450 heartbeat IPC: 1.39249 cumulative IPC: 1.35560 (Simulation time: 0 hr 8 min 59 sec) 
Heartbeat CPU  0 instructions:  325000000 cycles:  208819108 heartbeat IPC: 1.36118 cumulative IPC: 1.35563 (Simulation time: 0 hr 9 min 1 sec) 
Heartbeat CPU  0 instructions:  326000003 cycles:  209624372 heartbeat IPC: 1.24183 cumulative IPC: 1.35508 (Simulation time: 0 hr 9 min 3 sec) 
Heartbeat CPU  0 instructions:  327000000 cycles:  210366729 heartbeat IPC: 1.34706 cumulative IPC: 1.35504 (Simulation time: 0 hr 9 min 5 sec) 
Heartbeat CPU  0 instructions:  328000000 cycles:  211150820 heartbeat IPC: 1.27536 cumulative IPC: 1.35467 (Simulation time: 0 hr 9 min 6 sec) 
Heartbeat CPU  0 instructions:  329000001 cycles:  211947823 heartbeat IPC: 1.25470 cumulative IPC: 1.35420 (Simulation time: 0 hr 9 min 8 sec) 
Heartbeat CPU  0 instructions:  330000001 cycles:  212612451 heartbeat IPC: 1.50460 cumulative IPC: 1.35479 (Simulation time: 0 hr 9 min 10 sec) 
Heartbeat CPU  0 instructions:  331000000 cycles:  213313569 heartbeat IPC: 1.42629 cumulative IPC: 1.35508 (Simulation time: 0 hr 9 min 11 sec) 
Heartbeat CPU  0 instructions:  332000000 cycles:  214035287 heartbeat IPC: 1.38558 cumulative IPC: 1.35521 (Simulation time: 0 hr 9 min 13 sec) 
Heartbeat CPU  0 instructions:  333000001 cycles:  214812451 heartbeat IPC: 1.28673 cumulative IPC: 1.35490 (Simulation time: 0 hr 9 min 15 sec) 
Heartbeat CPU  0 instructions:  334000002 cycles:  215583611 heartbeat IPC: 1.29675 cumulative IPC: 1.35464 (Simulation time: 0 hr 9 min 17 sec) 
Heartbeat CPU  0 instructions:  335000000 cycles:  216404436 heartbeat IPC: 1.21828 cumulative IPC: 1.35400 (Simulation time: 0 hr 9 min 18 sec) 
Heartbeat CPU  0 instructions:  336000000 cycles:  217124226 heartbeat IPC: 1.38929 cumulative IPC: 1.35414 (Simulation time: 0 hr 9 min 20 sec) 
Heartbeat CPU  0 instructions:  337000002 cycles:  217839441 heartbeat IPC: 1.39818 cumulative IPC: 1.35432 (Simulation time: 0 hr 9 min 22 sec) 
Heartbeat CPU  0 instructions:  338000003 cycles:  218632028 heartbeat IPC: 1.26169 cumulative IPC: 1.35390 (Simulation time: 0 hr 9 min 24 sec) 
Heartbeat CPU  0 instructions:  339000002 cycles:  219375001 heartbeat IPC: 1.34594 cumulative IPC: 1.35387 (Simulation time: 0 hr 9 min 25 sec) 
Heartbeat CPU  0 instructions:  340000000 cycles:  220146995 heartbeat IPC: 1.29534 cumulative IPC: 1.35362 (Simulation time: 0 hr 9 min 27 sec) 
Heartbeat CPU  0 instructions:  341000001 cycles:  220946403 heartbeat IPC: 1.25093 cumulative IPC: 1.35315 (Simulation time: 0 hr 9 min 29 sec) 
Heartbeat CPU  0 instructions:  342000003 cycles:  221623842 heartbeat IPC: 1.47615 cumulative IPC: 1.35362 (Simulation time: 0 hr 9 min 31 sec) 
Heartbeat CPU  0 instructions:  343000003 cycles:  222389034 heartbeat IPC: 1.30686 cumulative IPC: 1.35342 (Simulation time: 0 hr 9 min 32 sec) 
Heartbeat CPU  0 instructions:  344000000 cycles:  223118249 heartbeat IPC: 1.37133 cumulative IPC: 1.35349 (Simulation time: 0 hr 9 min 34 sec) 
Heartbeat CPU  0 instructions:  345000003 cycles:  223788633 heartbeat IPC: 1.49169 cumulative IPC: 1.35401 (Simulation time: 0 hr 9 min 36 sec) 
Heartbeat CPU  0 instructions:  346000000 cycles:  224506033 heartbeat IPC: 1.39392 cumulative IPC: 1.35416 (Simulation time: 0 hr 9 min 37 sec) 
Heartbeat CPU  0 instructions:  347000001 cycles:  225238791 heartbeat IPC: 1.36471 cumulative IPC: 1.35421 (Simulation time: 0 hr 9 min 39 sec) 
Heartbeat CPU  0 instructions:  348000000 cycles:  225969868 heartbeat IPC: 1.36784 cumulative IPC: 1.35426 (Simulation time: 0 hr 9 min 41 sec) 
Heartbeat CPU  0 instructions:  349000003 cycles:  226702077 heartbeat IPC: 1.36573 cumulative IPC: 1.35431 (Simulation time: 0 hr 9 min 43 sec) 
Heartbeat CPU  0 instructions:  350000003 cycles:  227419887 heartbeat IPC: 1.39313 cumulative IPC: 1.35446 (Simulation time: 0 hr 9 min 44 sec) 
Heartbeat CPU  0 instructions:  351000002 cycles:  228206378 heartbeat IPC: 1.27147 cumulative IPC: 1.35411 (Simulation time: 0 hr 9 min 46 sec) 
Heartbeat CPU  0 instructions:  352000000 cycles:  228898781 heartbeat IPC: 1.44424 cumulative IPC: 1.35444 (Simulation time: 0 hr 9 min 48 sec) 
Heartbeat CPU  0 instructions:  353000003 cycles:  229643413 heartbeat IPC: 1.34295 cumulative IPC: 1.35439 (Simulation time: 0 hr 9 min 50 sec) 
Heartbeat CPU  0 instructions:  354000002 cycles:  230333985 heartbeat IPC: 1.44807 cumulative IPC: 1.35474 (Simulation time: 0 hr 9 min 51 sec) 
Heartbeat CPU  0 instructions:  355000002 cycles:  231048976 heartbeat IPC: 1.39862 cumulative IPC: 1.35491 (Simulation time: 0 hr 9 min 53 sec) 
Heartbeat CPU  0 instructions:  356000000 cycles:  231815075 heartbeat IPC: 1.30531 cumulative IPC: 1.35471 (Simulation time: 0 hr 9 min 55 sec) 
Heartbeat CPU  0 instructions:  357000002 cycles:  232583466 heartbeat IPC: 1.30142 cumulative IPC: 1.35449 (Simulation time: 0 hr 9 min 56 sec) 
Heartbeat CPU  0 instructions:  358000002 cycles:  233280548 heartbeat IPC: 1.43455 cumulative IPC: 1.35478 (Simulation time: 0 hr 9 min 58 sec) 
Heartbeat CPU  0 instructions:  359000002 cycles:  233995032 heartbeat IPC: 1.39961 cumulative IPC: 1.35495 (Simulation time: 0 hr 10 min 0 sec) 
Heartbeat CPU  0 instructions:  360000000 cycles:  234688434 heartbeat IPC: 1.44216 cumulative IPC: 1.35527 (Simulation time: 0 hr 10 min 2 sec) 
Heartbeat CPU  0 instructions:  361000000 cycles:  235378675 heartbeat IPC: 1.44877 cumulative IPC: 1.35560 (Simulation time: 0 hr 10 min 3 sec) 
Heartbeat CPU  0 instructions:  362000003 cycles:  236114268 heartbeat IPC: 1.35945 cumulative IPC: 1.35562 (Simulation time: 0 hr 10 min 5 sec) 
Heartbeat CPU  0 instructions:  363000000 cycles:  236835741 heartbeat IPC: 1.38605 cumulative IPC: 1.35573 (Simulation time: 0 hr 10 min 7 sec) 
Heartbeat CPU  0 instructions:  364000000 cycles:  237551262 heartbeat IPC: 1.39758 cumulative IPC: 1.35588 (Simulation time: 0 hr 10 min 8 sec) 
Heartbeat CPU  0 instructions:  365000001 cycles:  238281232 heartbeat IPC: 1.36992 cumulative IPC: 1.35593 (Simulation time: 0 hr 10 min 10 sec) 
Heartbeat CPU  0 instructions:  366000003 cycles:  239080927 heartbeat IPC: 1.25048 cumulative IPC: 1.35550 (Simulation time: 0 hr 10 min 12 sec) 
Heartbeat CPU  0 instructions:  367000001 cycles:  239829150 heartbeat IPC: 1.33650 cumulative IPC: 1.35543 (Simulation time: 0 hr 10 min 14 sec) 
Heartbeat CPU  0 instructions:  368000000 cycles:  240636187 heartbeat IPC: 1.23910 cumulative IPC: 1.35496 (Simulation time: 0 hr 10 min 15 sec) 
Heartbeat CPU  0 instructions:  369000000 cycles:  241370647 heartbeat IPC: 1.36154 cumulative IPC: 1.35498 (Simulation time: 0 hr 10 min 17 sec) 
Heartbeat CPU  0 instructions:  370000001 cycles:  242042693 heartbeat IPC: 1.48799 cumulative IPC: 1.35543 (Simulation time: 0 hr 10 min 19 sec) 
Heartbeat CPU  0 instructions:  371000001 cycles:  242777215 heartbeat IPC: 1.36143 cumulative IPC: 1.35545 (Simulation time: 0 hr 10 min 20 sec) 
Heartbeat CPU  0 instructions:  372000000 cycles:  243545717 heartbeat IPC: 1.30123 cumulative IPC: 1.35525 (Simulation time: 0 hr 10 min 22 sec) 
Heartbeat CPU  0 instructions:  373000000 cycles:  244273767 heartbeat IPC: 1.37353 cumulative IPC: 1.35531 (Simulation time: 0 hr 10 min 24 sec) 
Heartbeat CPU  0 instructions:  374000002 cycles:  245035291 heartbeat IPC: 1.31316 cumulative IPC: 1.35515 (Simulation time: 0 hr 10 min 26 sec) 
Heartbeat CPU  0 instructions:  375000000 cycles:  245762771 heartbeat IPC: 1.37461 cumulative IPC: 1.35522 (Simulation time: 0 hr 10 min 27 sec) 
Heartbeat CPU  0 instructions:  376000000 cycles:  246501488 heartbeat IPC: 1.35370 cumulative IPC: 1.35522 (Simulation time: 0 hr 10 min 29 sec) 
Heartbeat CPU  0 instructions:  377000001 cycles:  247214936 heartbeat IPC: 1.40165 cumulative IPC: 1.35538 (Simulation time: 0 hr 10 min 31 sec) 
Heartbeat CPU  0 instructions:  378000003 cycles:  248007201 heartbeat IPC: 1.26221 cumulative IPC: 1.35502 (Simulation time: 0 hr 10 min 33 sec) 
Heartbeat CPU  0 instructions:  379000002 cycles:  248706651 heartbeat IPC: 1.42969 cumulative IPC: 1.35527 (Simulation time: 0 hr 10 min 34 sec) 
Heartbeat CPU  0 instructions:  380000000 cycles:  249438089 heartbeat IPC: 1.36717 cumulative IPC: 1.35532 (Simulation time: 0 hr 10 min 36 sec) 
Heartbeat CPU  0 instructions:  381000000 cycles:  250214113 heartbeat IPC: 1.28862 cumulative IPC: 1.35507 (Simulation time: 0 hr 10 min 38 sec) 
Heartbeat CPU  0 instructions:  382000001 cycles:  250904028 heartbeat IPC: 1.44946 cumulative IPC: 1.35538 (Simulation time: 0 hr 10 min 39 sec) 
Heartbeat CPU  0 instructions:  383000002 cycles:  251612950 heartbeat IPC: 1.41059 cumulative IPC: 1.35557 (Simulation time: 0 hr 10 min 41 sec) 
Heartbeat CPU  0 instructions:  384000000 cycles:  252318640 heartbeat IPC: 1.41705 cumulative IPC: 1.35577 (Simulation time: 0 hr 10 min 43 sec) 
Heartbeat CPU  0 instructions:  385000001 cycles:  253098803 heartbeat IPC: 1.28178 cumulative IPC: 1.35550 (Simulation time: 0 hr 10 min 45 sec) 
Heartbeat CPU  0 instructions:  386000003 cycles:  253851755 heartbeat IPC: 1.32811 cumulative IPC: 1.35540 (Simulation time: 0 hr 10 min 46 sec) 
Heartbeat CPU  0 instructions:  387000002 cycles:  254571167 heartbeat IPC: 1.39002 cumulative IPC: 1.35552 (Simulation time: 0 hr 10 min 48 sec) 
Heartbeat CPU  0 instructions:  388000000 cycles:  255296383 heartbeat IPC: 1.37890 cumulative IPC: 1.35560 (Simulation time: 0 hr 10 min 50 sec) 
Heartbeat CPU  0 instructions:  389000000 cycles:  255957985 heartbeat IPC: 1.51148 cumulative IPC: 1.35608 (Simulation time: 0 hr 10 min 52 sec) 
Heartbeat CPU  0 instructions:  390000003 cycles:  256656930 heartbeat IPC: 1.43073 cumulative IPC: 1.35633 (Simulation time: 0 hr 10 min 53 sec) 
Heartbeat CPU  0 instructions:  391000000 cycles:  257392468 heartbeat IPC: 1.35954 cumulative IPC: 1.35634 (Simulation time: 0 hr 10 min 55 sec) 
Heartbeat CPU  0 instructions:  392000000 cycles:  258115317 heartbeat IPC: 1.38341 cumulative IPC: 1.35643 (Simulation time: 0 hr 10 min 57 sec) 
Heartbeat CPU  0 instructions:  393000000 cycles:  258797961 heartbeat IPC: 1.46489 cumulative IPC: 1.35677 (Simulation time: 0 hr 10 min 58 sec) 
Heartbeat CPU  0 instructions:  394000000 cycles:  259534179 heartbeat IPC: 1.35829 cumulative IPC: 1.35678 (Simulation time: 0 hr 11 min 0 sec) 
Heartbeat CPU  0 instructions:  395000000 cycles:  260307552 heartbeat IPC: 1.29304 cumulative IPC: 1.35655 (Simulation time: 0 hr 11 min 2 sec) 
Heartbeat CPU  0 instructions:  396000000 cycles:  261045859 heartbeat IPC: 1.35445 cumulative IPC: 1.35654 (Simulation time: 0 hr 11 min 4 sec) 
Heartbeat CPU  0 instructions:  397000000 cycles:  261891046 heartbeat IPC: 1.18317 cumulative IPC: 1.35587 (Simulation time: 0 hr 11 min 5 sec) 
Heartbeat CPU  0 instructions:  398000000 cycles:  262594384 heartbeat IPC: 1.42179 cumulative IPC: 1.35608 (Simulation time: 0 hr 11 min 7 sec) 
Heartbeat CPU  0 instructions:  399000003 cycles:  263340597 heartbeat IPC: 1.34010 cumulative IPC: 1.35603 (Simulation time: 0 hr 11 min 9 sec) 
Heartbeat CPU  0 instructions:  400000000 cycles:  264056357 heartbeat IPC: 1.39711 cumulative IPC: 1.35616 (Simulation time: 0 hr 11 min 11 sec) 
Heartbeat CPU  0 instructions:  401000001 cycles:  264783522 heartbeat IPC: 1.37521 cumulative IPC: 1.35623 (Simulation time: 0 hr 11 min 12 sec) 
Heartbeat CPU  0 instructions:  402000003 cycles:  265500169 heartbeat IPC: 1.39539 cumulative IPC: 1.35635 (Simulation time: 0 hr 11 min 14 sec) 
Heartbeat CPU  0 instructions:  403000002 cycles:  266256215 heartbeat IPC: 1.32267 cumulative IPC: 1.35624 (Simulation time: 0 hr 11 min 16 sec) 
Heartbeat CPU  0 instructions:  404000000 cycles:  267028802 heartbeat IPC: 1.29435 cumulative IPC: 1.35602 (Simulation time: 0 hr 11 min 17 sec) 
Heartbeat CPU  0 instructions:  405000002 cycles:  267719182 heartbeat IPC: 1.44848 cumulative IPC: 1.35631 (Simulation time: 0 hr 11 min 19 sec) 
Heartbeat CPU  0 instructions:  406000000 cycles:  268468189 heartbeat IPC: 1.33510 cumulative IPC: 1.35624 (Simulation time: 0 hr 11 min 21 sec) 
Heartbeat CPU  0 instructions:  407000000 cycles:  269196926 heartbeat IPC: 1.37224 cumulative IPC: 1.35629 (Simulation time: 0 hr 11 min 23 sec) 
Heartbeat CPU  0 instructions:  408000000 cycles:  269896918 heartbeat IPC: 1.42859 cumulative IPC: 1.35651 (Simulation time: 0 hr 11 min 24 sec) 
Heartbeat CPU  0 instructions:  409000003 cycles:  270688447 heartbeat IPC: 1.26338 cumulative IPC: 1.35619 (Simulation time: 0 hr 11 min 26 sec) 
Heartbeat CPU  0 instructions:  410000000 cycles:  271404450 heartbeat IPC: 1.39664 cumulative IPC: 1.35632 (Simulation time: 0 hr 11 min 28 sec) 
Heartbeat CPU  0 instructions:  411000003 cycles:  272121818 heartbeat IPC: 1.39399 cumulative IPC: 1.35643 (Simulation time: 0 hr 11 min 29 sec) 
Heartbeat CPU  0 instructions:  412000000 cycles:  273000131 heartbeat IPC: 1.13854 cumulative IPC: 1.35560 (Simulation time: 0 hr 11 min 31 sec) 
Heartbeat CPU  0 instructions:  413000000 cycles:  273816704 heartbeat IPC: 1.22463 cumulative IPC: 1.35514 (Simulation time: 0 hr 11 min 33 sec) 
Heartbeat CPU  0 instructions:  414000001 cycles:  278754655 heartbeat IPC: 0.20251 cumulative IPC: 1.33101 (Simulation time: 0 hr 11 min 37 sec) 
Heartbeat CPU  0 instructions:  415000002 cycles:  282805416 heartbeat IPC: 0.24687 cumulative IPC: 1.31271 (Simulation time: 0 hr 11 min 39 sec) 
Heartbeat CPU  0 instructions:  416000000 cycles:  286496485 heartbeat IPC: 0.27092 cumulative IPC: 1.29693 (Simulation time: 0 hr 11 min 42 sec) 
Heartbeat CPU  0 instructions:  417000001 cycles:  289787177 heartbeat IPC: 0.30389 cumulative IPC: 1.28370 (Simulation time: 0 hr 11 min 45 sec) 
Heartbeat CPU  0 instructions:  418000001 cycles:  291794666 heartbeat IPC: 0.49813 cumulative IPC: 1.27736 (Simulation time: 0 hr 11 min 48 sec) 
Heartbeat CPU  0 instructions:  419000001 cycles:  298933217 heartbeat IPC: 0.14008 cumulative IPC: 1.24566 (Simulation time: 0 hr 11 min 52 sec) 
Heartbeat CPU  0 instructions:  420000000 cycles:  306869054 heartbeat IPC: 0.12601 cumulative IPC: 1.21201 (Simulation time: 0 hr 11 min 55 sec) 
Heartbeat CPU  0 instructions:  421000003 cycles:  313982097 heartbeat IPC: 0.14059 cumulative IPC: 1.18390 (Simulation time: 0 hr 11 min 58 sec) 
Heartbeat CPU  0 instructions:  422000001 cycles:  320306760 heartbeat IPC: 0.15811 cumulative IPC: 1.16052 (Simulation time: 0 hr 12 min 2 sec) 
Heartbeat CPU  0 instructions:  423000000 cycles:  326147901 heartbeat IPC: 0.17120 cumulative IPC: 1.14012 (Simulation time: 0 hr 12 min 5 sec) 
Heartbeat CPU  0 instructions:  424000000 cycles:  328206045 heartbeat IPC: 0.48587 cumulative IPC: 1.13540 (Simulation time: 0 hr 12 min 8 sec) 
Heartbeat CPU  0 instructions:  425000002 cycles:  330574620 heartbeat IPC: 0.42220 cumulative IPC: 1.12953 (Simulation time: 0 hr 12 min 10 sec) 
Heartbeat CPU  0 instructions:  426000002 cycles:  332834761 heartbeat IPC: 0.44245 cumulative IPC: 1.12417 (Simulation time: 0 hr 12 min 13 sec) 
Heartbeat CPU  0 instructions:  427000000 cycles:  335087792 heartbeat IPC: 0.44385 cumulative IPC: 1.11893 (Simulation time: 0 hr 12 min 16 sec) 
Heartbeat CPU  0 instructions:  428000000 cycles:  337326310 heartbeat IPC: 0.44672 cumulative IPC: 1.11382 (Simulation time: 0 hr 12 min 18 sec) 
Heartbeat CPU  0 instructions:  429000000 cycles:  339558069 heartbeat IPC: 0.44808 cumulative IPC: 1.10881 (Simulation time: 0 hr 12 min 21 sec) 
Heartbeat CPU  0 instructions:  430000000 cycles:  341797855 heartbeat IPC: 0.44647 cumulative IPC: 1.10385 (Simulation time: 0 hr 12 min 23 sec) 
Heartbeat CPU  0 instructions:  431000000 cycles:  347990493 heartbeat IPC: 0.16148 cumulative IPC: 1.08473 (Simulation time: 0 hr 12 min 27 sec) 
Heartbeat CPU  0 instructions:  432000000 cycles:  350630070 heartbeat IPC: 0.37885 cumulative IPC: 1.07867 (Simulation time: 0 hr 12 min 30 sec) 
Heartbeat CPU  0 instructions:  433000000 cycles:  355683724 heartbeat IPC: 0.19788 cumulative IPC: 1.06444 (Simulation time: 0 hr 12 min 33 sec) 
Heartbeat CPU  0 instructions:  434000001 cycles:  364152765 heartbeat IPC: 0.11808 cumulative IPC: 1.03950 (Simulation time: 0 hr 12 min 37 sec) 
Heartbeat CPU  0 instructions:  435000003 cycles:  371506368 heartbeat IPC: 0.13599 cumulative IPC: 1.01928 (Simulation time: 0 hr 12 min 40 sec) 
Heartbeat CPU  0 instructions:  436000000 cycles:  378208406 heartbeat IPC: 0.14921 cumulative IPC: 1.00190 (Simulation time: 0 hr 12 min 44 sec) 
Heartbeat CPU  0 instructions:  437000002 cycles:  383513714 heartbeat IPC: 0.18849 cumulative IPC: 0.98923 (Simulation time: 0 hr 12 min 47 sec) 
Heartbeat CPU  0 instructions:  438000002 cycles:  386821859 heartbeat IPC: 0.30228 cumulative IPC: 0.98262 (Simulation time: 0 hr 12 min 49 sec) 
Heartbeat CPU  0 instructions:  439000000 cycles:  389337177 heartbeat IPC: 0.39756 cumulative IPC: 0.97837 (Simulation time: 0 hr 12 min 52 sec) 
Heartbeat CPU  0 instructions:  440000000 cycles:  391644694 heartbeat IPC: 0.43337 cumulative IPC: 0.97477 (Simulation time: 0 hr 12 min 55 sec) 
Heartbeat CPU  0 instructions:  441000000 cycles:  393897202 heartbeat IPC: 0.44395 cumulative IPC: 0.97136 (Simulation time: 0 hr 12 min 58 sec) 
Heartbeat CPU  0 instructions:  442000002 cycles:  396131128 heartbeat IPC: 0.44764 cumulative IPC: 0.96805 (Simulation time: 0 hr 13 min 0 sec) 
Heartbeat CPU  0 instructions:  443000001 cycles:  398363067 heartbeat IPC: 0.44804 cumulative IPC: 0.96479 (Simulation time: 0 hr 13 min 3 sec) 
Heartbeat CPU  0 instructions:  444000000 cycles:  400599724 heartbeat IPC: 0.44710 cumulative IPC: 0.96155 (Simulation time: 0 hr 13 min 5 sec) 
Heartbeat CPU  0 instructions:  445000002 cycles:  403191379 heartbeat IPC: 0.38585 cumulative IPC: 0.95741 (Simulation time: 0 hr 13 min 8 sec) 
Heartbeat CPU  0 instructions:  446000003 cycles:  409323419 heartbeat IPC: 0.16308 cumulative IPC: 0.94412 (Simulation time: 0 hr 13 min 11 sec) 
Heartbeat CPU  0 instructions:  447000000 cycles:  412138800 heartbeat IPC: 0.35519 cumulative IPC: 0.93963 (Simulation time: 0 hr 13 min 15 sec) 
Heartbeat CPU  0 instructions:  448000000 cycles:  421466942 heartbeat IPC: 0.10720 cumulative IPC: 0.91912 (Simulation time: 0 hr 13 min 19 sec) 
Heartbeat CPU  0 instructions:  449000001 cycles:  428985209 heartbeat IPC: 0.13301 cumulative IPC: 0.90381 (Simulation time: 0 hr 13 min 22 sec) 
Heartbeat CPU  0 instructions:  450000000 cycles:  435943158 heartbeat IPC: 0.14372 cumulative IPC: 0.89036 (Simulation time: 0 hr 13 min 25 sec) 
Heartbeat CPU  0 instructions:  451000000 cycles:  441544920 heartbeat IPC: 0.17852 cumulative IPC: 0.88036 (Simulation time: 0 hr 13 min 28 sec) 
Heartbeat CPU  0 instructions:  452000000 cycles:  445728109 heartbeat IPC: 0.23905 cumulative IPC: 0.87370 (Simulation time: 0 hr 13 min 31 sec) 
Heartbeat CPU  0 instructions:  453000001 cycles:  448101769 heartbeat IPC: 0.42129 cumulative IPC: 0.87105 (Simulation time: 0 hr 13 min 34 sec) 
Heartbeat CPU  0 instructions:  454000000 cycles:  450469113 heartbeat IPC: 0.42241 cumulative IPC: 0.86845 (Simulation time: 0 hr 13 min 37 sec) 
Heartbeat CPU  0 instructions:  455000001 cycles:  452712331 heartbeat IPC: 0.44579 cumulative IPC: 0.86613 (Simulation time: 0 hr 13 min 40 sec) 
Heartbeat CPU  0 instructions:  456000000 cycles:  454963739 heartbeat IPC: 0.44417 cumulative IPC: 0.86383 (Simulation time: 0 hr 13 min 42 sec) 
Heartbeat CPU  0 instructions:  457000002 cycles:  457202367 heartbeat IPC: 0.44670 cumulative IPC: 0.86157 (Simulation time: 0 hr 13 min 45 sec) 
Heartbeat CPU  0 instructions:  458000000 cycles:  459435448 heartbeat IPC: 0.44781 cumulative IPC: 0.85936 (Simulation time: 0 hr 13 min 47 sec) 
Heartbeat CPU  0 instructions:  459000001 cycles:  461798458 heartbeat IPC: 0.42319 cumulative IPC: 0.85690 (Simulation time: 0 hr 13 min 50 sec) 
Heartbeat CPU  0 instructions:  460000000 cycles:  468084637 heartbeat IPC: 0.15908 cumulative IPC: 0.84658 (Simulation time: 0 hr 13 min 53 sec) 
Heartbeat CPU  0 instructions:  461000001 cycles:  470509007 heartbeat IPC: 0.41248 cumulative IPC: 0.84412 (Simulation time: 0 hr 13 min 56 sec) 
Heartbeat CPU  0 instructions:  462000000 cycles:  478824882 heartbeat IPC: 0.12025 cumulative IPC: 0.83031 (Simulation time: 0 hr 14 min 0 sec) 
Heartbeat CPU  0 instructions:  463000000 cycles:  486514325 heartbeat IPC: 0.13005 cumulative IPC: 0.81818 (Simulation time: 0 hr 14 min 4 sec) 
Heartbeat CPU  0 instructions:  464000000 cycles:  493538772 heartbeat IPC: 0.14236 cumulative IPC: 0.80764 (Simulation time: 0 hr 14 min 7 sec) 
Heartbeat CPU  0 instructions:  465000000 cycles:  499572598 heartbeat IPC: 0.16573 cumulative IPC: 0.79916 (Simulation time: 0 hr 14 min 10 sec) 
Heartbeat CPU  0 instructions:  466000000 cycles:  504702043 heartbeat IPC: 0.19495 cumulative IPC: 0.79245 (Simulation time: 0 hr 14 min 13 sec) 
Heartbeat CPU  0 instructions:  467000000 cycles:  506865616 heartbeat IPC: 0.46220 cumulative IPC: 0.79091 (Simulation time: 0 hr 14 min 16 sec) 
Heartbeat CPU  0 instructions:  468000000 cycles:  509215442 heartbeat IPC: 0.42556 cumulative IPC: 0.78907 (Simulation time: 0 hr 14 min 19 sec) 
Heartbeat CPU  0 instructions:  469000000 cycles:  511467741 heartbeat IPC: 0.44399 cumulative IPC: 0.78741 (Simulation time: 0 hr 14 min 22 sec) 
Heartbeat CPU  0 instructions:  470000002 cycles:  513719872 heartbeat IPC: 0.44402 cumulative IPC: 0.78577 (Simulation time: 0 hr 14 min 24 sec) 
Heartbeat CPU  0 instructions:  471000000 cycles:  515949464 heartbeat IPC: 0.44851 cumulative IPC: 0.78418 (Simulation time: 0 hr 14 min 27 sec) 
Heartbeat CPU  0 instructions:  472000000 cycles:  518179121 heartbeat IPC: 0.44850 cumulative IPC: 0.78261 (Simulation time: 0 hr 14 min 29 sec) 
Heartbeat CPU  0 instructions:  473000002 cycles:  520526064 heartbeat IPC: 0.42609 cumulative IPC: 0.78085 (Simulation time: 0 hr 14 min 32 sec) 
Heartbeat CPU  0 instructions:  474000000 cycles:  526901039 heartbeat IPC: 0.15686 cumulative IPC: 0.77264 (Simulation time: 0 hr 14 min 35 sec) 
Heartbeat CPU  0 instructions:  475000002 cycles:  529209609 heartbeat IPC: 0.43317 cumulative IPC: 0.77103 (Simulation time: 0 hr 14 min 38 sec) 
Heartbeat CPU  0 instructions:  476000000 cycles:  535946923 heartbeat IPC: 0.14843 cumulative IPC: 0.76252 (Simulation time: 0 hr 14 min 42 sec) 
Heartbeat CPU  0 instructions:  477000000 cycles:  543837507 heartbeat IPC: 0.12673 cumulative IPC: 0.75250 (Simulation time: 0 hr 14 min 46 sec) 
Heartbeat CPU  0 instructions:  478000002 cycles:  551051888 heartbeat IPC: 0.13861 cumulative IPC: 0.74379 (Simulation time: 0 hr 14 min 49 sec) 
Heartbeat CPU  0 instructions:  479000000 cycles:  557575756 heartbeat IPC: 0.15328 cumulative IPC: 0.73631 (Simulation time: 0 hr 14 min 52 sec) 
Heartbeat CPU  0 instructions:  480000000 cycles:  563175496 heartbeat IPC: 0.17858 cumulative IPC: 0.73030 (Simulation time: 0 hr 14 min 55 sec) 
Heartbeat CPU  0 instructions:  481000000 cycles:  565630353 heartbeat IPC: 0.40736 cumulative IPC: 0.72879 (Simulation time: 0 hr 14 min 58 sec) 
Heartbeat CPU  0 instructions:  482000000 cycles:  567989768 heartbeat IPC: 0.42383 cumulative IPC: 0.72742 (Simulation time: 0 hr 15 min 1 sec) 
Heartbeat CPU  0 instructions:  483000000 cycles:  570259975 heartbeat IPC: 0.44049 cumulative IPC: 0.72618 (Simulation time: 0 hr 15 min 4 sec) 
Heartbeat CPU  0 instructions:  484000000 cycles:  572505325 heartbeat IPC: 0.44536 cumulative IPC: 0.72499 (Simulation time: 0 hr 15 min 6 sec) 
Heartbeat CPU  0 instructions:  485000002 cycles:  574744490 heartbeat IPC: 0.44660 cumulative IPC: 0.72382 (Simulation time: 0 hr 15 min 9 sec) 
Heartbeat CPU  0 instructions:  486000003 cycles:  576979035 heartbeat IPC: 0.44752 cumulative IPC: 0.72266 (Simulation time: 0 hr 15 min 11 sec) 
Heartbeat CPU  0 instructions:  487000000 cycles:  579207318 heartbeat IPC: 0.44877 cumulative IPC: 0.72153 (Simulation time: 0 hr 15 min 14 sec) 
Heartbeat CPU  0 instructions:  488000000 cycles:  584236777 heartbeat IPC: 0.19883 cumulative IPC: 0.71667 (Simulation time: 0 hr 15 min 17 sec) 
Heartbeat CPU  0 instructions:  489000000 cycles:  587936313 heartbeat IPC: 0.27030 cumulative IPC: 0.71364 (Simulation time: 0 hr 15 min 20 sec) 
Heartbeat CPU  0 instructions:  490000003 cycles:  592468443 heartbeat IPC: 0.22065 cumulative IPC: 0.70958 (Simulation time: 0 hr 15 min 24 sec) 
Heartbeat CPU  0 instructions:  491000003 cycles:  601236099 heartbeat IPC: 0.11406 cumulative IPC: 0.70022 (Simulation time: 0 hr 15 min 28 sec) 
Heartbeat CPU  0 instructions:  492000000 cycles:  608575033 heartbeat IPC: 0.13626 cumulative IPC: 0.69291 (Simulation time: 0 hr 15 min 31 sec) 
Heartbeat CPU  0 instructions:  493000002 cycles:  615365726 heartbeat IPC: 0.14726 cumulative IPC: 0.68644 (Simulation time: 0 hr 15 min 34 sec) 
Heartbeat CPU  0 instructions:  494000001 cycles:  620705084 heartbeat IPC: 0.18729 cumulative IPC: 0.68182 (Simulation time: 0 hr 15 min 37 sec) 
Heartbeat CPU  0 instructions:  495000002 cycles:  624224489 heartbeat IPC: 0.28414 cumulative IPC: 0.67942 (Simulation time: 0 hr 15 min 40 sec) 
Heartbeat CPU  0 instructions:  496000000 cycles:  626700157 heartbeat IPC: 0.40393 cumulative IPC: 0.67825 (Simulation time: 0 hr 15 min 43 sec) 
Heartbeat CPU  0 instructions:  497000001 cycles:  629034449 heartbeat IPC: 0.42840 cumulative IPC: 0.67725 (Simulation time: 0 hr 15 min 46 sec) 
Heartbeat CPU  0 instructions:  498000001 cycles:  631277824 heartbeat IPC: 0.44576 cumulative IPC: 0.67637 (Simulation time: 0 hr 15 min 48 sec) 
Heartbeat CPU  0 instructions:  499000000 cycles:  633523992 heartbeat IPC: 0.44520 cumulative IPC: 0.67549 (Simulation time: 0 hr 15 min 51 sec) 
Heartbeat CPU  0 instructions:  500000000 cycles:  635755218 heartbeat IPC: 0.44818 cumulative IPC: 0.67464 (Simulation time: 0 hr 15 min 54 sec) 
Heartbeat CPU  0 instructions:  501000000 cycles:  637999118 heartbeat IPC: 0.44565 cumulative IPC: 0.67377 (Simulation time: 0 hr 15 min 56 sec) 
Heartbeat CPU  0 instructions:  502000002 cycles:  640503886 heartbeat IPC: 0.39924 cumulative IPC: 0.67262 (Simulation time: 0 hr 15 min 59 sec) 
Heartbeat CPU  0 instructions:  503000003 cycles:  646630130 heartbeat IPC: 0.16323 cumulative IPC: 0.66746 (Simulation time: 0 hr 16 min 2 sec) 
Heartbeat CPU  0 instructions:  504000000 cycles:  649103406 heartbeat IPC: 0.40432 cumulative IPC: 0.66638 (Simulation time: 0 hr 16 min 5 sec) 
Heartbeat CPU  0 instructions:  505000000 cycles:  658575192 heartbeat IPC: 0.10558 cumulative IPC: 0.65775 (Simulation time: 0 hr 16 min 9 sec) 
Heartbeat CPU  0 instructions:  506000001 cycles:  666084901 heartbeat IPC: 0.13316 cumulative IPC: 0.65143 (Simulation time: 0 hr 16 min 13 sec) 
Heartbeat CPU  0 instructions:  507000000 cycles:  673073851 heartbeat IPC: 0.14308 cumulative IPC: 0.64580 (Simulation time: 0 hr 16 min 16 sec) 
Heartbeat CPU  0 instructions:  508000000 cycles:  678785373 heartbeat IPC: 0.17508 cumulative IPC: 0.64157 (Simulation time: 0 hr 16 min 19 sec) 
Heartbeat CPU  0 instructions:  509000002 cycles:  683187190 heartbeat IPC: 0.22718 cumulative IPC: 0.63872 (Simulation time: 0 hr 16 min 22 sec) 
Heartbeat CPU  0 instructions:  510000001 cycles:  685517593 heartbeat IPC: 0.42911 cumulative IPC: 0.63796 (Simulation time: 0 hr 16 min 25 sec) 
Heartbeat CPU  0 instructions:  511000001 cycles:  687892367 heartbeat IPC: 0.42109 cumulative IPC: 0.63716 (Simulation time: 0 hr 16 min 28 sec) 
Heartbeat CPU  0 instructions:  512000000 cycles:  690131370 heartbeat IPC: 0.44663 cumulative IPC: 0.63650 (Simulation time: 0 hr 16 min 31 sec) 
Heartbeat CPU  0 instructions:  513000003 cycles:  692389900 heartbeat IPC: 0.44277 cumulative IPC: 0.63583 (Simulation time: 0 hr 16 min 33 sec) 
Heartbeat CPU  0 instructions:  514000002 cycles:  694625129 heartbeat IPC: 0.44738 cumulative IPC: 0.63518 (Simulation time: 0 hr 16 min 36 sec) 
Heartbeat CPU  0 instructions:  515000001 cycles:  696860542 heartbeat IPC: 0.44734 cumulative IPC: 0.63454 (Simulation time: 0 hr 16 min 38 sec) 
Heartbeat CPU  0 instructions:  516000000 cycles:  699226806 heartbeat IPC: 0.42261 cumulative IPC: 0.63378 (Simulation time: 0 hr 16 min 41 sec) 
Heartbeat CPU  0 instructions:  517000000 cycles:  705539747 heartbeat IPC: 0.15840 cumulative IPC: 0.62925 (Simulation time: 0 hr 16 min 45 sec) 
Heartbeat CPU  0 instructions:  518000002 cycles:  707921195 heartbeat IPC: 0.41991 cumulative IPC: 0.62850 (Simulation time: 0 hr 16 min 48 sec) 
Heartbeat CPU  0 instructions:  519000001 cycles:  715857674 heartbeat IPC: 0.12600 cumulative IPC: 0.62257 (Simulation time: 0 hr 16 min 51 sec) 
Heartbeat CPU  0 instructions:  520000000 cycles:  723679808 heartbeat IPC: 0.12784 cumulative IPC: 0.61689 (Simulation time: 0 hr 16 min 55 sec) 
Heartbeat CPU  0 instructions:  521000001 cycles:  730692317 heartbeat IPC: 0.14260 cumulative IPC: 0.61205 (Simulation time: 0 hr 16 min 58 sec) 
Heartbeat CPU  0 instructions:  522000001 cycles:  736846933 heartbeat IPC: 0.16248 cumulative IPC: 0.60807 (Simulation time: 0 hr 17 min 1 sec) 
Heartbeat CPU  0 instructions:  523000001 cycles:  742267320 heartbeat IPC: 0.18449 cumulative IPC: 0.60478 (Simulation time: 0 hr 17 min 5 sec) 
Heartbeat CPU  0 instructions:  524000000 cycles:  744363978 heartbeat IPC: 0.47695 cumulative IPC: 0.60440 (Simulation time: 0 hr 17 min 7 sec) 
Heartbeat CPU  0 instructions:  525000000 cycles:  746716600 heartbeat IPC: 0.42506 cumulative IPC: 0.60380 (Simulation time: 0 hr 17 min 10 sec) 
Heartbeat CPU  0 instructions:  526000000 cycles:  748985574 heartbeat IPC: 0.44073 cumulative IPC: 0.60328 (Simulation time: 0 hr 17 min 13 sec) 
Heartbeat CPU  0 instructions:  527000000 cycles:  751242172 heartbeat IPC: 0.44314 cumulative IPC: 0.60277 (Simulation time: 0 hr 17 min 15 sec) 
Heartbeat CPU  0 instructions:  528000000 cycles:  753483749 heartbeat IPC: 0.44611 cumulative IPC: 0.60227 (Simulation time: 0 hr 17 min 18 sec) 
Heartbeat CPU  0 instructions:  529000001 cycles:  755707124 heartbeat IPC: 0.44977 cumulative IPC: 0.60180 (Simulation time: 0 hr 17 min 21 sec) 
[...]
Heartbeat CPU  0 instructions:  546000000 cycles:  825453175 heartbeat IPC: 0.19468 cumulative IPC: 0.56989 (Simulation time: 0 hr 18 min 12 sec) 
Heartbeat CPU  0 instructions:  547000000 cycles:  829583862 heartbeat IPC: 0.24209 cumulative IPC: 0.56817 (Simulation time: 0 hr 18 min 17 sec) 
Heartbeat CPU  0 instructions:  548000000 cycles:  838617251 heartbeat IPC: 0.11070 cumulative IPC: 0.56297 (Simulation time: 0 hr 18 min 20 sec) 
Heartbeat CPU  0 instructions:  549000000 cycles:  845972571 heartbeat IPC: 0.13596 cumulative IPC: 0.55906 (Simulation time: 0 hr 18 min 24 sec) 
Heartbeat CPU  0 instructions:  550000001 cycles:  852836252 heartbeat IPC: 0.14569 cumulative IPC: 0.55556 (Simulation time: 0 hr 18 min 27 sec) 
Heartbeat CPU  0 instructions:  551000000 cycles:  858208353 heartbeat IPC: 0.18615 cumulative IPC: 0.55313 (Simulation time: 0 hr 18 min 30 sec) 
Heartbeat CPU  0 instructions:  552000000 cycles:  861827519 heartbeat IPC: 0.27631 cumulative IPC: 0.55190 (Simulation time: 0 hr 18 min 33 sec) 
Heartbeat CPU  0 instructions:  553000000 cycles:  864280641 heartbeat IPC: 0.40764 cumulative IPC: 0.55147 (Simulation time: 0 hr 18 min 36 sec) 
Heartbeat CPU  0 instructions:  554000001 cycles:  866622727 heartbeat IPC: 0.42697 cumulative IPC: 0.55112 (Simulation time: 0 hr 18 min 39 sec) 
Heartbeat CPU  0 instructions:  555000002 cycles:  868870017 heartbeat IPC: 0.44498 cumulative IPC: 0.55083 (Simulation time: 0 hr 18 min 42 sec) 
Heartbeat CPU  0 instructions:  556000000 cycles:  871106013 heartbeat IPC: 0.44723 cumulative IPC: 0.55055 (Simulation time: 0 hr 18 min 44 sec) 
Heartbeat CPU  0 instructions:  557000000 cycles:  873338680 heartbeat IPC: 0.44789 cumulative IPC: 0.55027 (Simulation time: 0 hr 18 min 47 sec) 
Heartbeat CPU  0 instructions:  558000003 cycles:  875578425 heartbeat IPC: 0.44648 cumulative IPC: 0.55000 (Simulation time: 0 hr 18 min 49 sec) 
Heartbeat CPU  0 instructions:  559000003 cycles:  877927091 heartbeat IPC: 0.42577 cumulative IPC: 0.54965 (Simulation time: 0 hr 18 min 52 sec) 
Heartbeat CPU  0 instructions:  560000000 cycles:  884186526 heartbeat IPC: 0.15976 cumulative IPC: 0.54675 (Simulation time: 0 hr 18 min 55 sec) 
Heartbeat CPU  0 instructions:  561000001 cycles:  886661933 heartbeat IPC: 0.40397 cumulative IPC: 0.54633 (Simulation time: 0 hr 18 min 59 sec) 
Heartbeat CPU  0 instructions:  562000002 cycles:  895981500 heartbeat IPC: 0.10730 cumulative IPC: 0.54153 (Simulation time: 0 hr 19 min 3 sec) 
Heartbeat CPU  0 instructions:  563000003 cycles:  903641164 heartbeat IPC: 0.13055 cumulative IPC: 0.53787 (Simulation time: 0 hr 19 min 6 sec) 
Heartbeat CPU  0 instructions:  564000000 cycles:  910542168 heartbeat IPC: 0.14491 cumulative IPC: 0.53475 (Simulation time: 0 hr 19 min 10 sec) 
Heartbeat CPU  0 instructions:  565000003 cycles:  916299042 heartbeat IPC: 0.17371 cumulative IPC: 0.53237 (Simulation time: 0 hr 19 min 13 sec) 
Heartbeat CPU  0 instructions:  566000003 cycles:  920756767 heartbeat IPC: 0.22433 cumulative IPC: 0.53080 (Simulation time: 0 hr 19 min 16 sec) 
Heartbeat CPU  0 instructions:  567000000 cycles:  923080541 heartbeat IPC: 0.43033 cumulative IPC: 0.53054 (Simulation time: 0 hr 19 min 19 sec) 
Heartbeat CPU  0 instructions:  568000000 cycles:  925449037 heartbeat IPC: 0.42221 cumulative IPC: 0.53025 (Simulation time: 0 hr 19 min 21 sec) 
Heartbeat CPU  0 instructions:  569000000 cycles:  927687794 heartbeat IPC: 0.44668 cumulative IPC: 0.53004 (Simulation time: 0 hr 19 min 24 sec) 
Heartbeat CPU  0 instructions:  570000000 cycles:  929940728 heartbeat IPC: 0.44387 cumulative IPC: 0.52982 (Simulation time: 0 hr 19 min 26 sec) 
Heartbeat CPU  0 instructions:  571000001 cycles:  932169034 heartbeat IPC: 0.44877 cumulative IPC: 0.52962 (Simulation time: 0 hr 19 min 29 sec) 
Heartbeat CPU  0 instructions:  572000000 cycles:  934399355 heartbeat IPC: 0.44837 cumulative IPC: 0.52941 (Simulation time: 0 hr 19 min 32 sec) 
Heartbeat CPU  0 instructions:  573000002 cycles:  936757878 heartbeat IPC: 0.42400 cumulative IPC: 0.52913 (Simulation time: 0 hr 19 min 34 sec) 
Heartbeat CPU  0 instructions:  574000000 cycles:  943054525 heartbeat IPC: 0.15881 cumulative IPC: 0.52654 (Simulation time: 0 hr 19 min 38 sec) 
Heartbeat CPU  0 instructions:  575000001 cycles:  945417795 heartbeat IPC: 0.42314 cumulative IPC: 0.52627 (Simulation time: 0 hr 19 min 41 sec) 
Heartbeat CPU  0 instructions:  576000000 cycles:  953244056 heartbeat IPC: 0.12777 cumulative IPC: 0.52285 (Simulation time: 0 hr 19 min 45 sec) 
Heartbeat CPU  0 instructions:  577000003 cycles:  961194080 heartbeat IPC: 0.12579 cumulative IPC: 0.51941 (Simulation time: 0 hr 19 min 48 sec) 
Heartbeat CPU  0 instructions:  578000000 cycles:  968221124 heartbeat IPC: 0.14231 cumulative IPC: 0.51655 (Simulation time: 0 hr 19 min 52 sec) 
Heartbeat CPU  0 instructions:  579000001 cycles:  974399598 heartbeat IPC: 0.16185 cumulative IPC: 0.51419 (Simulation time: 0 hr 19 min 55 sec) 
Heartbeat CPU  0 instructions:  580000000 cycles:  979846747 heartbeat IPC: 0.18358 cumulative IPC: 0.51227 (Simulation time: 0 hr 19 min 58 sec) 
Heartbeat CPU  0 instructions:  581000003 cycles:  981933245 heartbeat IPC: 0.47927 cumulative IPC: 0.51220 (Simulation time: 0 hr 20 min 1 sec) 
Heartbeat CPU  0 instructions:  582000003 cycles:  984285466 heartbeat IPC: 0.42513 cumulative IPC: 0.51198 (Simulation time: 0 hr 20 min 3 sec) 
Heartbeat CPU  0 instructions:  583000002 cycles:  986553437 heartbeat IPC: 0.44092 cumulative IPC: 0.51181 (Simulation time: 0 hr 20 min 6 sec) 
Heartbeat CPU  0 instructions:  584000000 cycles:  988810277 heartbeat IPC: 0.44310 cumulative IPC: 0.51165 (Simulation time: 0 hr 20 min 9 sec) 
Heartbeat CPU  0 instructions:  585000002 cycles:  991052951 heartbeat IPC: 0.44590 cumulative IPC: 0.51149 (Simulation time: 0 hr 20 min 11 sec) 
Heartbeat CPU  0 instructions:  586000002 cycles:  993279527 heartbeat IPC: 0.44912 cumulative IPC: 0.51134 (Simulation time: 0 hr 20 min 14 sec) 
Heartbeat CPU  0 instructions:  587000000 cycles:  995523896 heartbeat IPC: 0.44556 cumulative IPC: 0.51119 (Simulation time: 0 hr 20 min 16 sec) 
Heartbeat CPU  0 instructions:  588000000 cycles: 1001883733 heartbeat IPC: 0.15724 cumulative IPC: 0.50884 (Simulation time: 0 hr 20 min 20 sec) 
Heartbeat CPU  0 instructions:  589000002 cycles: 1004297582 heartbeat IPC: 0.41428 cumulative IPC: 0.50860 (Simulation time: 0 hr 20 min 23 sec) 
Heartbeat CPU  0 instructions:  590000002 cycles: 1010428934 heartbeat IPC: 0.16310 cumulative IPC: 0.50642 (Simulation time: 0 hr 20 min 26 sec) 
Heartbeat CPU  0 instructions:  591000000 cycles: 1018711456 heartbeat IPC: 0.12074 cumulative IPC: 0.50314 (Simulation time: 0 hr 20 min 30 sec) 
Heartbeat CPU  0 instructions:  592000000 cycles: 1025987042 heartbeat IPC: 0.13745 cumulative IPC: 0.50044 (Simulation time: 0 hr 20 min 33 sec) 
Heartbeat CPU  0 instructions:  593000003 cycles: 1032555695 heartbeat IPC: 0.15224 cumulative IPC: 0.49812 (Simulation time: 0 hr 20 min 37 sec) 
Heartbeat CPU  0 instructions:  594000000 cycles: 1037981635 heartbeat IPC: 0.18430 cumulative IPC: 0.49641 (Simulation time: 0 hr 20 min 40 sec) 
Heartbeat CPU  0 instructions:  595000001 cycles: 1040701839 heartbeat IPC: 0.36762 cumulative IPC: 0.49606 (Simulation time: 0 hr 20 min 43 sec) 
Heartbeat CPU  0 instructions:  596000000 cycles: 1043154374 heartbeat IPC: 0.40774 cumulative IPC: 0.49585 (Simulation time: 0 hr 20 min 46 sec) 
Heartbeat CPU  0 instructions:  597000003 cycles: 1045434840 heartbeat IPC: 0.43851 cumulative IPC: 0.49572 (Simulation time: 0 hr 20 min 48 sec) 
Heartbeat CPU  0 instructions:  598000002 cycles: 1047696715 heartbeat IPC: 0.44211 cumulative IPC: 0.49560 (Simulation time: 0 hr 20 min 51 sec) 
Heartbeat CPU  0 instructions:  599000001 cycles: 1049930916 heartbeat IPC: 0.44759 cumulative IPC: 0.49549 (Simulation time: 0 hr 20 min 53 sec) 
Heartbeat CPU  0 instructions:  600000000 cycles: 1052170950 heartbeat IPC: 0.44642 cumulative IPC: 0.49538 (Simulation time: 0 hr 20 min 56 sec) 
Finished CPU 0 instructions: 500000000 cycles: 1009326858 cumulative IPC: 0.49538 (Simulation time: 0 hr 20 min 56 sec) 

ChampSim completed all CPUs

[ROI Statistics]
Core_0_instructions 500000000
Core_0_cycles 1009326858
Core_0_IPC 0.49538

Core_0_branch_prediction_accuracy 99.11262
Core_0_branch_MPKI 1.69223
Core_0_average_ROB_occupancy_at_mispredict 138.77894

Core_0_L1D_total_access 70556231
Core_0_L1D_total_hit 47602485
Core_0_L1D_total_miss 22953746
Core_0_L1D_loads 33886989
Core_0_L1D_load_hit 28500290
Core_0_L1D_load_miss 5386699
Core_0_L1D_RFOs 36669242
Core_0_L1D_RFO_hit 19102195
Core_0_L1D_RFO_miss 17567047
Core_0_L1D_prefetches 0
Core_0_L1D_prefetch_hit 0
Core_0_L1D_prefetch_miss 0
Core_0_L1D_writebacks 0
Core_0_L1D_writeback_hit 0
Core_0_L1D_writeback_miss 0
Core_0_L1D_prefetch_requested 0
Core_0_L1D_prefetch_dropped 0
Core_0_L1D_prefetch_issued 0
Core_0_L1D_prefetch_filled 0
Core_0_L1D_prefetch_useful 0
Core_0_L1D_prefetch_useless 0
Core_0_L1D_prefetch_late 0
Core_0_L1D_average_miss_latency 91.91234

Core_0_L1D_rq_access 60965070
Core_0_L1D_rq_forward 0
Core_0_L1D_rq_merged 24818339
Core_0_L1D_rq_to_cache 36104155
Core_0_L1D_rq_full 0

Core_0_L1D_wq_access 156857733
Core_0_L1D_wq_forward 42576
Core_0_L1D_wq_merged 46951
Core_0_L1D_wq_to_cache 156810782
Core_0_L1D_wq_full 1453481

Core_0_L1D_pq_access 0
Core_0_L1D_pq_forward 0
Core_0_L1D_pq_merged 0
Core_0_L1D_pq_to_cache 0
Core_0_L1D_pq_full 0

Core_0_L1D_acc_epochs 1003631
Core_0_L1D_acc_level_0 1003631
Core_0_L1D_acc_level_1 0
Core_0_L1D_acc_level_2 0
Core_0_L1D_acc_level_3 0
Core_0_L1D_acc_level_4 0
Core_0_L1D_acc_level_5 0
Core_0_L1D_acc_level_6 0
Core_0_L1D_acc_level_7 0
Core_0_L1D_acc_level_8 0
Core_0_L1D_acc_level_9 0

Core_0_L1I_total_access 122939117
Core_0_L1I_total_hit 122919975
Core_0_L1I_total_miss 19142
Core_0_L1I_loads 122939117
Core_0_L1I_load_hit 122919975
Core_0_L1I_load_miss 19142
Core_0_L1I_RFOs 0
Core_0_L1I_RFO_hit 0
Core_0_L1I_RFO_miss 0
Core_0_L1I_prefetches 0
Core_0_L1I_prefetch_hit 0
Core_0_L1I_prefetch_miss 0
Core_0_L1I_writebacks 0
Core_0_L1I_writeback_hit 0
Core_0_L1I_writeback_miss 0
Core_0_L1I_prefetch_requested 0
Core_0_L1I_prefetch_dropped 0
Core_0_L1I_prefetch_issued 0
Core_0_L1I_prefetch_filled 0
Core_0_L1I_prefetch_useful 0
Core_0_L1I_prefetch_useless 0
Core_0_L1I_prefetch_late 0
Core_0_L1I_average_miss_latency 43.78994

Core_0_L1I_rq_access 500000003
Core_0_L1I_rq_forward 0
Core_0_L1I_rq_merged 377036174
Core_0_L1I_rq_to_cache 122963829
Core_0_L1I_rq_full 0

Core_0_L1I_wq_access 0
Core_0_L1I_wq_forward 0
Core_0_L1I_wq_merged 0
Core_0_L1I_wq_to_cache 0
Core_0_L1I_wq_full 0

Core_0_L1I_pq_access 0
Core_0_L1I_pq_forward 0
Core_0_L1I_pq_merged 0
Core_0_L1I_pq_to_cache 0
Core_0_L1I_pq_full 0

Core_0_L1I_acc_epochs 1003631
Core_0_L1I_acc_level_0 1003631
Core_0_L1I_acc_level_1 0
Core_0_L1I_acc_level_2 0
Core_0_L1I_acc_level_3 0
Core_0_L1I_acc_level_4 0
Core_0_L1I_acc_level_5 0
Core_0_L1I_acc_level_6 0
Core_0_L1I_acc_level_7 0
Core_0_L1I_acc_level_8 0
Core_0_L1I_acc_level_9 0

Core_0_L2C_total_access 43000913
Core_0_L2C_total_hit 20203450
Core_0_L2C_total_miss 22797463
Core_0_L2C_loads 5405841
Core_0_L2C_load_hit 1357606
Core_0_L2C_load_miss 4048235
Core_0_L2C_RFOs 17567046
Core_0_L2C_RFO_hit 11494
Core_0_L2C_RFO_miss 17555552
Core_0_L2C_prefetches 1413588
Core_0_L2C_prefetch_hit 220075
Core_0_L2C_prefetch_miss 1193513
Core_0_L2C_writebacks 18614438
Core_0_L2C_writeback_hit 18614275
Core_0_L2C_writeback_miss 163
Core_0_L2C_prefetch_requested 13533907
Core_0_L2C_prefetch_dropped 0
Core_0_L2C_prefetch_issued 13533907
Core_0_L2C_prefetch_filled 1193637
Core_0_L2C_prefetch_useful 1187442
Core_0_L2C_prefetch_useless 6190
Core_0_L2C_prefetch_late 169702
Core_0_L2C_average_miss_latency 80.55472

Core_0_L2C_rq_access 22972888
Core_0_L2C_rq_forward 0
Core_0_L2C_rq_merged 0
Core_0_L2C_rq_to_cache 22972887
Core_0_L2C_rq_full 0

Core_0_L2C_wq_access 18614438
Core_0_L2C_wq_forward 3
Core_0_L2C_wq_merged 0
Core_0_L2C_wq_to_cache 18614438
Core_0_L2C_wq_full 0

Core_0_L2C_pq_access 13533907
Core_0_L2C_pq_forward 0
Core_0_L2C_pq_merged 400657
Core_0_L2C_pq_to_cache 13133248
Core_0_L2C_pq_full 0

Core_0_L2C_acc_epochs 1003631
Core_0_L2C_acc_level_0 692442
Core_0_L2C_acc_level_1 21572
Core_0_L2C_acc_level_2 21300
Core_0_L2C_acc_level_3 14799
Core_0_L2C_acc_level_4 18294
Core_0_L2C_acc_level_5 30372
Core_0_L2C_acc_level_6 18883
Core_0_L2C_acc_level_7 28404
Core_0_L2C_acc_level_8 33899
Core_0_L2C_acc_level_9 123666

Core_0_LLC_total_access 51021254
Core_0_LLC_total_hit 41400930
Core_0_LLC_total_miss 9620324
Core_0_LLC_loads 3878966
Core_0_LLC_load_hit 1488335
Core_0_LLC_load_miss 2390631
Core_0_LLC_RFOs 17555119
Core_0_LLC_RFO_hit 15321293
Core_0_LLC_RFO_miss 2233826
Core_0_LLC_prefetches 10983890
Core_0_LLC_prefetch_hit 8065309
Core_0_LLC_prefetch_miss 2918581
Core_0_LLC_writebacks 18603279
Core_0_LLC_writeback_hit 16525993
Core_0_LLC_writeback_miss 2077286
Core_0_LLC_prefetch_requested 0
Core_0_LLC_prefetch_dropped 0
Core_0_LLC_prefetch_issued 0
Core_0_LLC_prefetch_filled 2923263
Core_0_LLC_prefetch_useful 1254207
Core_0_LLC_prefetch_useless 1650614
Core_0_LLC_prefetch_late 148056
Core_0_LLC_average_miss_latency 183.35824

Core_0_LLC_rq_access 21434085
Core_0_LLC_rq_forward 0
Core_0_LLC_rq_merged 0
Core_0_LLC_rq_to_cache 21434085
Core_0_LLC_rq_full 0

Core_0_LLC_wq_access 18603281
Core_0_LLC_wq_forward 0
Core_0_LLC_wq_merged 0
Core_0_LLC_wq_to_cache 18603281
Core_0_LLC_wq_full 0

Core_0_LLC_pq_access 12776320
Core_0_LLC_pq_forward 0
Core_0_LLC_pq_merged 348324
Core_0_LLC_pq_to_cache 12427996
Core_0_LLC_pq_full 0

Core_0_LLC_acc_epochs 1027511
Core_0_LLC_acc_level_0 375387
Core_0_LLC_acc_level_1 80895
Core_0_LLC_acc_level_2 101092
Core_0_LLC_acc_level_3 96247
Core_0_LLC_acc_level_4 73043
Core_0_LLC_acc_level_5 79797
Core_0_LLC_acc_level_6 63199
Core_0_LLC_acc_level_7 46578
Core_0_LLC_acc_level_8 34275
Core_0_LLC_acc_level_9 76998

Core_0_major_page_fault 0
Core_0_minor_page_fault 13167

spp.pref.total 13533907
spp.pref.at_L2 1426817
spp.pref.at_LLC 12107090

spp.depth.max 10
spp.depth.min 0
spp.depth.avg 2

spp.breadth.max 2
spp.breadth.min 0
spp.breadth.avg 0

delta_1 11998481
delta_-1 442979
delta_2 390464
delta_5 322726
delta_6 229266
delta_4 114073
delta_3 113176
delta_-2 23446
delta_-3 10760
delta_8 10347
delta_-6 9353
delta_7 9110
delta_12 8660
delta_-4 7260
delta_-5 5984
delta_-12 5873
delta_10 5166
delta_-8 4388
delta_-11 3739
delta_-7 3420
delta_16 2971
delta_18 2728
delta_30 2686
delta_-9 2647
delta_-10 2543
delta_11 2462
delta_-28 2301
delta_-39 2288
delta_-16 2260
delta_22 1944
delta_39 1943
delta_-14 1867
delta_24 1844
delta_-20 1791
delta_9 1586
delta_15 985
delta_-35 900
delta_25 856
delta_14 804
delta_-34 681
delta_19 526
delta_29 499
delta_26 486
delta_21 457
delta_-22 435
delta_20 423
delta_-15 410
delta_-18 401
delta_17 329
delta_36 304
delta_-44 261
delta_34 208
delta_28 200
delta_-31 170
delta_-19 164
delta_-29 147
delta_-24 137
delta_23 132
delta_38 98
delta_-30 96
delta_-23 66
delta_27 61
delta_-13 53
delta_13 52
delta_-27 43
delta_-42 41
delta_32 39
delta_-36 37
delta_-21 36
delta_35 33
delta_31 32
delta_-25 31
delta_33 26
delta_-33 26
delta_-54 26
delta_54 20
delta_-26 20
delta_-55 19
delta_57 19
delta_-37 18
delta_56 16
delta_-56 14
delta_-52 11
delta_44 10
delta_-49 9
delta_53 8
delta_-40 8
delta_51 6
delta_-43 6
delta_42 6
delta_-48 5
delta_-51 5
delta_-46 4
delta_50 4
delta_-17 3
delta_43 3
delta_45 2

depth_1_delta_1 2147406
depth_1_delta_-1 390276
depth_1_delta_2 321444
depth_1_delta_5 170456
depth_1_delta_6 123855
depth_1_delta_4 103539
depth_1_delta_3 101187
depth_1_delta_-2 21854
depth_1_delta_-3 10361
depth_1_delta_8 8954
depth_1_delta_-6 8700
depth_1_delta_7 8190
depth_1_delta_12 8076
depth_1_delta_-4 6611
depth_1_delta_-12 5576
depth_1_delta_-5 5530
depth_1_delta_10 4409
depth_1_delta_-8 3908
depth_1_delta_-11 3721
depth_1_delta_16 2961
depth_1_delta_-7 2894
depth_1_delta_30 2661
depth_1_delta_18 2659
depth_1_delta_-9 2584
depth_1_delta_-10 2434
depth_1_delta_11 2341
depth_1_delta_-16 2177
depth_1_delta_-28 1908
depth_1_delta_-14 1867
depth_1_delta_22 1780
depth_1_delta_-20 1772
depth_1_delta_24 1764
depth_1_delta_-39 1566
depth_1_delta_9 1539
depth_1_delta_39 1183
depth_1_delta_-35 898
depth_1_delta_15 856
depth_1_delta_25 844
depth_1_delta_14 724
depth_1_delta_-34 680
depth_1_delta_19 526
depth_1_delta_29 485
depth_1_delta_26 462
depth_1_delta_20 423
depth_1_delta_-22 419
depth_1_delta_-15 410
depth_1_delta_21 392
depth_1_delta_-18 386
depth_1_delta_36 302
depth_1_delta_17 299
depth_1_delta_-44 261
depth_1_delta_34 208
depth_1_delta_28 195
depth_1_delta_-31 170
depth_1_delta_-19 161
depth_1_delta_-29 147
depth_1_delta_-24 123
depth_1_delta_23 121
depth_1_delta_38 98
depth_1_delta_-30 85
depth_1_delta_-23 66
depth_1_delta_13 52
depth_1_delta_-13 52
depth_1_delta_27 46
depth_1_delta_-42 41
depth_1_delta_-36 37
depth_1_delta_-21 36
depth_1_delta_-27 35
depth_1_delta_35 33
depth_1_delta_32 32
depth_1_delta_31 32
depth_1_delta_-25 31
depth_1_delta_-33 26
depth_1_delta_33 26
depth_1_delta_-26 20
depth_1_delta_-55 19
depth_1_delta_57 19
depth_1_delta_-54 19
depth_1_delta_-37 18
depth_1_delta_56 16
depth_1_delta_54 14
depth_1_delta_-56 14
depth_1_delta_-52 11
depth_1_delta_44 10
depth_1_delta_-49 9
depth_1_delta_-40 8
depth_1_delta_53 8
depth_1_delta_51 6
depth_1_delta_-43 6
depth_1_delta_42 6
depth_1_delta_-51 5
depth_1_delta_-48 5
depth_1_delta_-46 4
depth_1_delta_50 4
depth_1_delta_-17 3
depth_1_delta_43 3
depth_1_delta_45 2
depth_2_delta_1 1887721
depth_2_delta_5 95615
depth_2_delta_6 65125
depth_2_delta_2 62283
depth_2_delta_-1 50871
depth_2_delta_3 11940
depth_2_delta_4 9494
depth_2_delta_-2 1591
depth_2_delta_8 1380
depth_2_delta_7 915
depth_2_delta_39 737
depth_2_delta_10 729
depth_2_delta_-39 707
depth_2_delta_-4 608
depth_2_delta_-6 603
depth_2_delta_12 551
depth_2_delta_-7 523
depth_2_delta_-8 480
depth_2_delta_-5 451
depth_2_delta_-3 399
depth_2_delta_-28 393
depth_2_delta_-12 297
depth_2_delta_22 164
depth_2_delta_15 129
depth_2_delta_-10 109
depth_2_delta_11 92
depth_2_delta_-16 83
depth_2_delta_24 80
depth_2_delta_14 80
depth_2_delta_18 69
depth_2_delta_21 65
depth_2_delta_-9 63
depth_2_delta_9 47
depth_2_delta_17 30
depth_2_delta_30 25
depth_2_delta_26 24
depth_2_delta_-20 19
depth_2_delta_-11 18
depth_2_delta_-22 16
depth_2_delta_27 15
depth_2_delta_-18 15
depth_2_delta_29 14
depth_2_delta_-24 14
depth_2_delta_25 12
depth_2_delta_23 11
depth_2_delta_-30 11
depth_2_delta_16 10
depth_2_delta_-27 8
depth_2_delta_-54 7
depth_2_delta_32 7
depth_2_delta_54 6
depth_2_delta_28 5
depth_2_delta_-19 3
depth_2_delta_36 2
depth_2_delta_-35 2
depth_2_delta_-34 1
depth_2_delta_-13 1
depth_3_delta_1 1786625
depth_3_delta_5 37635
depth_3_delta_6 34037
depth_3_delta_2 6622
depth_3_delta_-1 1716
depth_3_delta_4 1038
depth_3_delta_-6 50
depth_3_delta_3 49
depth_3_delta_-4 41
depth_3_delta_12 33
depth_3_delta_10 28
depth_3_delta_11 25
depth_3_delta_39 23
depth_3_delta_-39 15
depth_3_delta_8 13
depth_3_delta_7 5
depth_3_delta_-5 3
depth_3_delta_-7 3
depth_3_delta_-2 1
depth_4_delta_1 1709314
depth_4_delta_5 17063
depth_4_delta_6 5625
depth_4_delta_-1 116
depth_4_delta_2 115
depth_4_delta_11 4
depth_4_delta_4 2
depth_5_delta_1 1623980
depth_5_delta_5 1854
depth_5_delta_6 614
depth_6_delta_1 1351504
depth_6_delta_5 103
depth_6_delta_6 10
depth_7_delta_1 870185
depth_8_delta_1 450330
depth_9_delta_1 169502
depth_10_delta_1 1914

Channel_0_RQ_row_buffer_hit 2121936
Channel_0_RQ_row_buffer_miss 5421023
Channel_0_WQ_row_buffer_hit 1087797
Channel_0_WQ_row_buffer_miss 2211837
Channel_0_WQ_full 104684
Channel_0_dbus_congested 3443440

avg_congested_cycle 1

DRAM_bw_pochs 4110043
DRAM_bw_level_0 4087561
DRAM_bw_level_1 22482
DRAM_bw_level_2 0
DRAM_bw_level_3 0
