*************************************************
   ChampSim Multicore Out-of-Order Simulator
   Last compiled: Dec 11 2024 17:59:53
*************************************************
parsing config file: /home/functionmain/桌面/Pythia/config/spp_dev2.ini

trace_0 /home/functionmain/桌面/Pythia/traces/403.gcc-16B.champsimtrace.xz
adding L2C_PREFETCHER: SPP_dev2
Initialize SIGNATURE TABLE
ST_SET: 1
ST_WAY: 256
ST_TAG_BIT: 16
ST_TAG_MASK: ffff

Initialize PATTERN TABLE
PT_SET: 512
PT_WAY: 4
SIG_DELTA_BIT: 7
C_SIG_BIT: 4
C_DELTA_BIT: 4

Initialize PREFETCH FILTER
FILTER_SET: 1024
fill_threshold: 90
pf_threshold: 40

Initialize SHIP state
warmup_instructions 100000000
simulation_instructions 500000000
champsim_seed 169
measure_ipc 0
measure_ipc_epoch 1000
measure_dram_bw 1
measure_dram_bw_epoch 256
measure_cache_acc 1
measure_cache_acc_epoch 1024
l1d_perfect 0
l2c_perfect 0
llc_perfect 0
l1d_semi_perfect 0
l2c_semi_perfect 0
llc_semi_perfect 0
semi_perfect_cache_page_buffer_size 64

num_cpus 1
cpu_freq 4000
dram_io_freq 1200
page_size 4096
block_size 64
max_read_per_cycle 8
max_fill_per_cycle 1
dram_channels 1
log2_dram_channels 0
dram_ranks 1
dram_banks 8
dram_rows 65536
dram_columns 128
dram_row_size 8
dram_size 4096
dram_pages 1048576

fetch_width 6
decode_width 6
exec_width 4
lq_width 2
sq_width 2
retire_width 4
scheduler_size 128
branch_mispredict_penalty 20
rob_size 256
lq_size 72
sq_size 56
num_instr_destinations_sparc 4
num_instr_destinations 2
num_instr_sources 4

itlb_set 16
itlb_way 8
itlb_rq_size 16
itlb_wq_size 16
itlb_pq_size 0
itlb_mshr_size 8
itlb_latency 1

dtlb_set 16
dtlb_way 4
dtlb_rq_size 16
dtlb_wq_size 16
dtlb_pq_size 0
dtlb_mshr_size 8
dtlb_latency 1

stlb_set 128
stlb_way 12
stlb_rq_size 32
stlb_wq_size 32
stlb_pq_size 0
stlb_mshr_size 16
stlb_latency 8

l1i_size 32
l1i_set 64
l1i_way 8
l1i_rq_size 64
l1i_wq_size 64
l1i_pq_size 8
l1i_mshr_size 8
l1i_latency 1

l1d_size 32
l1d_set 64
l1d_way 8
l1d_rq_size 64
l1d_wq_size 64
l1d_pq_size 8
l1d_mshr_size 16
l1d_latency 4

l2c_size 256
l2c_set 512
l2c_way 8
l2c_rq_size 32
l2c_wq_size 32
l2c_pq_size 32
l2c_mshr_size 32
l2c_latency 10

llc_size 2048
llc_set 2048
llc_way 16
llc_rq_size 32
llc_wq_size 32
llc_pq_size 32
llc_mshr_size 64
llc_latency 20

dram_channel_width 8
dram_wq_size 64
dram_rq_size 64
tRP 15
tRCD 15
tCAS 12.5
dram_dbus_turn_around_time 30
dram_write_high_wm 56
dram_write_low_wm 48
min_dram_writes_per_switch 16
dram_mtps 1200
dram_dbus_return_time 26


Heartbeat CPU  0 instructions:    1000000 cycles:     453077 heartbeat IPC: 2.20713 cumulative IPC: 2.20713 (Simulation time: 0 hr 0 min 1 sec) 
Heartbeat CPU  0 instructions:    2000000 cycles:     861359 heartbeat IPC: 2.44929 cumulative IPC: 2.32191 (Simulation time: 0 hr 0 min 3 sec) 
Heartbeat CPU  0 instructions:    3000003 cycles:    1299549 heartbeat IPC: 2.28212 cumulative IPC: 2.30850 (Simulation time: 0 hr 0 min 4 sec) 
Heartbeat CPU  0 instructions:    4000000 cycles:    1765800 heartbeat IPC: 2.14476 cumulative IPC: 2.26526 (Simulation time: 0 hr 0 min 6 sec) 
Heartbeat CPU  0 instructions:    5000000 cycles:    2181292 heartbeat IPC: 2.40679 cumulative IPC: 2.29222 (Simulation time: 0 hr 0 min 7 sec) 
Heartbeat CPU  0 instructions:    6000000 cycles:    2658649 heartbeat IPC: 2.09487 cumulative IPC: 2.25679 (Simulation time: 0 hr 0 min 9 sec) 
Heartbeat CPU  0 instructions:    7000002 cycles:    3082296 heartbeat IPC: 2.36046 cumulative IPC: 2.27103 (Simulation time: 0 hr 0 min 10 sec) 
Heartbeat CPU  0 instructions:    8000000 cycles:    3488503 heartbeat IPC: 2.46179 cumulative IPC: 2.29325 (Simulation time: 0 hr 0 min 12 sec) 
Heartbeat CPU  0 instructions:    9000003 cycles:    3937173 heartbeat IPC: 2.22882 cumulative IPC: 2.28590 (Simulation time: 0 hr 0 min 13 sec) 
Heartbeat CPU  0 instructions:   10000001 cycles:    4377848 heartbeat IPC: 2.26924 cumulative IPC: 2.28423 (Simulation time: 0 hr 0 min 15 sec) 
Heartbeat CPU  0 instructions:   11000000 cycles:    4782061 heartbeat IPC: 2.47394 cumulative IPC: 2.30026 (Simulation time: 0 hr 0 min 16 sec) 
Heartbeat CPU  0 instructions:   12000000 cycles:    5196292 heartbeat IPC: 2.41411 cumulative IPC: 2.30934 (Simulation time: 0 hr 0 min 18 sec) 
Heartbeat CPU  0 instructions:   13000001 cycles:    5649430 heartbeat IPC: 2.20684 cumulative IPC: 2.30112 (Simulation time: 0 hr 0 min 19 sec) 
Heartbeat CPU  0 instructions:   14000003 cycles:    6084744 heartbeat IPC: 2.29720 cumulative IPC: 2.30084 (Simulation time: 0 hr 0 min 21 sec) 
Heartbeat CPU  0 instructions:   15000000 cycles:    6489858 heartbeat IPC: 2.46843 cumulative IPC: 2.31130 (Simulation time: 0 hr 0 min 22 sec) 
Heartbeat CPU  0 instructions:   16000000 cycles:    6910079 heartbeat IPC: 2.37970 cumulative IPC: 2.31546 (Simulation time: 0 hr 0 min 24 sec) 
Heartbeat CPU  0 instructions:   17000001 cycles:    7353041 heartbeat IPC: 2.25753 cumulative IPC: 2.31197 (Simulation time: 0 hr 0 min 25 sec) 
Heartbeat CPU  0 instructions:   18000000 cycles:    7788351 heartbeat IPC: 2.29721 cumulative IPC: 2.31114 (Simulation time: 0 hr 0 min 27 sec) 
Heartbeat CPU  0 instructions:   19000001 cycles:    8188945 heartbeat IPC: 2.49630 cumulative IPC: 2.32020 (Simulation time: 0 hr 0 min 28 sec) 
Heartbeat CPU  0 instructions:   20000000 cycles:    8635696 heartbeat IPC: 2.23838 cumulative IPC: 2.31597 (Simulation time: 0 hr 0 min 30 sec) 
Heartbeat CPU  0 instructions:   21000001 cycles:    9080899 heartbeat IPC: 2.24617 cumulative IPC: 2.31255 (Simulation time: 0 hr 0 min 31 sec) 
Heartbeat CPU  0 instructions:   22000000 cycles:    9481624 heartbeat IPC: 2.49547 cumulative IPC: 2.32028 (Simulation time: 0 hr 0 min 33 sec) 
Heartbeat CPU  0 instructions:   23000003 cycles:    9895914 heartbeat IPC: 2.41378 cumulative IPC: 2.32419 (Simulation time: 0 hr 0 min 34 sec) 
Heartbeat CPU  0 instructions:   24000000 cycles:   10338175 heartbeat IPC: 2.26110 cumulative IPC: 2.32149 (Simulation time: 0 hr 0 min 36 sec) 
Heartbeat CPU  0 instructions:   25000000 cycles:   10787162 heartbeat IPC: 2.22724 cumulative IPC: 2.31757 (Simulation time: 0 hr 0 min 38 sec) 
Heartbeat CPU  0 instructions:   26000000 cycles:   11183469 heartbeat IPC: 2.52330 cumulative IPC: 2.32486 (Simulation time: 0 hr 0 min 39 sec) 
Heartbeat CPU  0 instructions:   27000001 cycles:   11598299 heartbeat IPC: 2.41063 cumulative IPC: 2.32793 (Simulation time: 0 hr 0 min 41 sec) 
Heartbeat CPU  0 instructions:   28000000 cycles:   12046057 heartbeat IPC: 2.23335 cumulative IPC: 2.32441 (Simulation time: 0 hr 0 min 42 sec) 
Heartbeat CPU  0 instructions:   29000000 cycles:   12478937 heartbeat IPC: 2.31011 cumulative IPC: 2.32392 (Simulation time: 0 hr 0 min 44 sec) 
Heartbeat CPU  0 instructions:   30000003 cycles:   12886750 heartbeat IPC: 2.45211 cumulative IPC: 2.32797 (Simulation time: 0 hr 0 min 45 sec) 
Heartbeat CPU  0 instructions:   31000003 cycles:   13377015 heartbeat IPC: 2.03971 cumulative IPC: 2.31741 (Simulation time: 0 hr 0 min 47 sec) 
Heartbeat CPU  0 instructions:   32000000 cycles:   13779741 heartbeat IPC: 2.48307 cumulative IPC: 2.32225 (Simulation time: 0 hr 0 min 48 sec) 
Heartbeat CPU  0 instructions:   33000001 cycles:   14203744 heartbeat IPC: 2.35848 cumulative IPC: 2.32333 (Simulation time: 0 hr 0 min 50 sec) 
Heartbeat CPU  0 instructions:   34000003 cycles:   14655903 heartbeat IPC: 2.21162 cumulative IPC: 2.31988 (Simulation time: 0 hr 0 min 51 sec) 
Heartbeat CPU  0 instructions:   35000002 cycles:   15077346 heartbeat IPC: 2.37280 cumulative IPC: 2.32136 (Simulation time: 0 hr 0 min 53 sec) 
Heartbeat CPU  0 instructions:   36000000 cycles:   15474581 heartbeat IPC: 2.51740 cumulative IPC: 2.32640 (Simulation time: 0 hr 0 min 54 sec) 
Heartbeat CPU  0 instructions:   37000001 cycles:   15910024 heartbeat IPC: 2.29651 cumulative IPC: 2.32558 (Simulation time: 0 hr 0 min 56 sec) 
Heartbeat CPU  0 instructions:   38000000 cycles:   16358253 heartbeat IPC: 2.23100 cumulative IPC: 2.32299 (Simulation time: 0 hr 0 min 57 sec) 
Heartbeat CPU  0 instructions:   39000000 cycles:   16774566 heartbeat IPC: 2.40204 cumulative IPC: 2.32495 (Simulation time: 0 hr 0 min 59 sec) 
Heartbeat CPU  0 instructions:   40000000 cycles:   17173069 heartbeat IPC: 2.50939 cumulative IPC: 2.32923 (Simulation time: 0 hr 1 min 0 sec) 
Heartbeat CPU  0 instructions:   41000003 cycles:   17615181 heartbeat IPC: 2.26188 cumulative IPC: 2.32754 (Simulation time: 0 hr 1 min 2 sec) 
Heartbeat CPU  0 instructions:   42000003 cycles:   18057454 heartbeat IPC: 2.26105 cumulative IPC: 2.32591 (Simulation time: 0 hr 1 min 3 sec) 
Heartbeat CPU  0 instructions:   43000002 cycles:   18463657 heartbeat IPC: 2.46182 cumulative IPC: 2.32890 (Simulation time: 0 hr 1 min 5 sec) 
Heartbeat CPU  0 instructions:   44000000 cycles:   18914073 heartbeat IPC: 2.22017 cumulative IPC: 2.32631 (Simulation time: 0 hr 1 min 6 sec) 
Heartbeat CPU  0 instructions:   45000000 cycles:   19361887 heartbeat IPC: 2.23307 cumulative IPC: 2.32415 (Simulation time: 0 hr 1 min 8 sec) 
Heartbeat CPU  0 instructions:   46000003 cycles:   19775250 heartbeat IPC: 2.41919 cumulative IPC: 2.32614 (Simulation time: 0 hr 1 min 9 sec) 
Heartbeat CPU  0 instructions:   47000003 cycles:   20228669 heartbeat IPC: 2.20547 cumulative IPC: 2.32344 (Simulation time: 0 hr 1 min 11 sec) 
Heartbeat CPU  0 instructions:   48000000 cycles:   20652403 heartbeat IPC: 2.35996 cumulative IPC: 2.32418 (Simulation time: 0 hr 1 min 12 sec) 
Heartbeat CPU  0 instructions:   49000003 cycles:   21061143 heartbeat IPC: 2.44655 cumulative IPC: 2.32656 (Simulation time: 0 hr 1 min 14 sec) 
Heartbeat CPU  0 instructions:   50000000 cycles:   21501457 heartbeat IPC: 2.27110 cumulative IPC: 2.32542 (Simulation time: 0 hr 1 min 15 sec) 
Heartbeat CPU  0 instructions:   51000003 cycles:   21938490 heartbeat IPC: 2.28816 cumulative IPC: 2.32468 (Simulation time: 0 hr 1 min 17 sec) 
Heartbeat CPU  0 instructions:   52000000 cycles:   22345835 heartbeat IPC: 2.45491 cumulative IPC: 2.32706 (Simulation time: 0 hr 1 min 18 sec) 
Heartbeat CPU  0 instructions:   53000000 cycles:   22761289 heartbeat IPC: 2.40701 cumulative IPC: 2.32851 (Simulation time: 0 hr 1 min 20 sec) 
Heartbeat CPU  0 instructions:   54000001 cycles:   23201173 heartbeat IPC: 2.27333 cumulative IPC: 2.32747 (Simulation time: 0 hr 1 min 21 sec) 
Heartbeat CPU  0 instructions:   55000001 cycles:   23636139 heartbeat IPC: 2.29903 cumulative IPC: 2.32695 (Simulation time: 0 hr 1 min 23 sec) 
Heartbeat CPU  0 instructions:   56000000 cycles:   24043459 heartbeat IPC: 2.45507 cumulative IPC: 2.32912 (Simulation time: 0 hr 1 min 24 sec) 
Heartbeat CPU  0 instructions:   57000003 cycles:   24459210 heartbeat IPC: 2.40529 cumulative IPC: 2.33041 (Simulation time: 0 hr 1 min 26 sec) 
Heartbeat CPU  0 instructions:   58000001 cycles:   24906420 heartbeat IPC: 2.23608 cumulative IPC: 2.32872 (Simulation time: 0 hr 1 min 28 sec) 
Heartbeat CPU  0 instructions:   59000000 cycles:   25337099 heartbeat IPC: 2.32191 cumulative IPC: 2.32860 (Simulation time: 0 hr 1 min 29 sec) 
Heartbeat CPU  0 instructions:   60000000 cycles:   25732816 heartbeat IPC: 2.52706 cumulative IPC: 2.33165 (Simulation time: 0 hr 1 min 31 sec) 
Heartbeat CPU  0 instructions:   61000001 cycles:   26184516 heartbeat IPC: 2.21386 cumulative IPC: 2.32962 (Simulation time: 0 hr 1 min 32 sec) 
Heartbeat CPU  0 instructions:   62000001 cycles:   26622588 heartbeat IPC: 2.28273 cumulative IPC: 2.32885 (Simulation time: 0 hr 1 min 34 sec) 
Heartbeat CPU  0 instructions:   63000000 cycles:   27026611 heartbeat IPC: 2.47510 cumulative IPC: 2.33104 (Simulation time: 0 hr 1 min 35 sec) 
Heartbeat CPU  0 instructions:   64000000 cycles:   27436250 heartbeat IPC: 2.44117 cumulative IPC: 2.33268 (Simulation time: 0 hr 1 min 37 sec) 
Heartbeat CPU  0 instructions:   65000001 cycles:   27884226 heartbeat IPC: 2.23226 cumulative IPC: 2.33107 (Simulation time: 0 hr 1 min 38 sec) 
Heartbeat CPU  0 instructions:   66000003 cycles:   28322666 heartbeat IPC: 2.28082 cumulative IPC: 2.33029 (Simulation time: 0 hr 1 min 40 sec) 
Heartbeat CPU  0 instructions:   67000000 cycles:   28721998 heartbeat IPC: 2.50417 cumulative IPC: 2.33271 (Simulation time: 0 hr 1 min 41 sec) 
Heartbeat CPU  0 instructions:   68000000 cycles:   29138173 heartbeat IPC: 2.40284 cumulative IPC: 2.33371 (Simulation time: 0 hr 1 min 43 sec) 
Heartbeat CPU  0 instructions:   69000001 cycles:   29579556 heartbeat IPC: 2.26561 cumulative IPC: 2.33269 (Simulation time: 0 hr 1 min 44 sec) 
Heartbeat CPU  0 instructions:   70000001 cycles:   30013068 heartbeat IPC: 2.30674 cumulative IPC: 2.33232 (Simulation time: 0 hr 1 min 46 sec) 
Heartbeat CPU  0 instructions:   71000003 cycles:   30438442 heartbeat IPC: 2.35088 cumulative IPC: 2.33258 (Simulation time: 0 hr 1 min 47 sec) 
Heartbeat CPU  0 instructions:   72000000 cycles:   30914124 heartbeat IPC: 2.10224 cumulative IPC: 2.32903 (Simulation time: 0 hr 1 min 49 sec) 
Heartbeat CPU  0 instructions:   73000001 cycles:   31310569 heartbeat IPC: 2.52242 cumulative IPC: 2.33148 (Simulation time: 0 hr 1 min 50 sec) 
Heartbeat CPU  0 instructions:   74000000 cycles:   31750402 heartbeat IPC: 2.27359 cumulative IPC: 2.33068 (Simulation time: 0 hr 1 min 52 sec) 
Heartbeat CPU  0 instructions:   75000003 cycles:   32201616 heartbeat IPC: 2.21625 cumulative IPC: 2.32908 (Simulation time: 0 hr 1 min 53 sec) 
Heartbeat CPU  0 instructions:   76000000 cycles:   32602587 heartbeat IPC: 2.49394 cumulative IPC: 2.33110 (Simulation time: 0 hr 1 min 55 sec) 
Heartbeat CPU  0 instructions:   77000001 cycles:   33019478 heartbeat IPC: 2.39871 cumulative IPC: 2.33196 (Simulation time: 0 hr 1 min 56 sec) 
Heartbeat CPU  0 instructions:   78000001 cycles:   33454632 heartbeat IPC: 2.29804 cumulative IPC: 2.33152 (Simulation time: 0 hr 1 min 58 sec) 
Heartbeat CPU  0 instructions:   79000000 cycles:   33901101 heartbeat IPC: 2.23979 cumulative IPC: 2.33031 (Simulation time: 0 hr 1 min 59 sec) 
Heartbeat CPU  0 instructions:   80000000 cycles:   34297183 heartbeat IPC: 2.52473 cumulative IPC: 2.33255 (Simulation time: 0 hr 2 min 1 sec) 
Heartbeat CPU  0 instructions:   81000003 cycles:   34715051 heartbeat IPC: 2.39311 cumulative IPC: 2.33328 (Simulation time: 0 hr 2 min 2 sec) 
Heartbeat CPU  0 instructions:   82000003 cycles:   35156385 heartbeat IPC: 2.26586 cumulative IPC: 2.33244 (Simulation time: 0 hr 2 min 4 sec) 
Heartbeat CPU  0 instructions:   83000000 cycles:   35591515 heartbeat IPC: 2.29816 cumulative IPC: 2.33202 (Simulation time: 0 hr 2 min 5 sec) 
Heartbeat CPU  0 instructions:   84000000 cycles:   35984940 heartbeat IPC: 2.54178 cumulative IPC: 2.33431 (Simulation time: 0 hr 2 min 7 sec) 
Heartbeat CPU  0 instructions:   85000000 cycles:   36425452 heartbeat IPC: 2.27009 cumulative IPC: 2.33353 (Simulation time: 0 hr 2 min 8 sec) 
Heartbeat CPU  0 instructions:   86000001 cycles:   36866251 heartbeat IPC: 2.26861 cumulative IPC: 2.33276 (Simulation time: 0 hr 2 min 10 sec) 
Heartbeat CPU  0 instructions:   87000002 cycles:   37277624 heartbeat IPC: 2.43089 cumulative IPC: 2.33384 (Simulation time: 0 hr 2 min 11 sec) 
Heartbeat CPU  0 instructions:   88000000 cycles:   37693627 heartbeat IPC: 2.40382 cumulative IPC: 2.33461 (Simulation time: 0 hr 2 min 13 sec) 
Heartbeat CPU  0 instructions:   89000001 cycles:   38129927 heartbeat IPC: 2.29200 cumulative IPC: 2.33412 (Simulation time: 0 hr 2 min 14 sec) 
Heartbeat CPU  0 instructions:   90000000 cycles:   38564580 heartbeat IPC: 2.30068 cumulative IPC: 2.33375 (Simulation time: 0 hr 2 min 16 sec) 
Heartbeat CPU  0 instructions:   91000000 cycles:   38970622 heartbeat IPC: 2.46280 cumulative IPC: 2.33509 (Simulation time: 0 hr 2 min 17 sec) 
Heartbeat CPU  0 instructions:   92000000 cycles:   39389103 heartbeat IPC: 2.38959 cumulative IPC: 2.33567 (Simulation time: 0 hr 2 min 19 sec) 
Heartbeat CPU  0 instructions:   93000000 cycles:   39822638 heartbeat IPC: 2.30662 cumulative IPC: 2.33536 (Simulation time: 0 hr 2 min 21 sec) 
Heartbeat CPU  0 instructions:   94000002 cycles:   40262800 heartbeat IPC: 2.27190 cumulative IPC: 2.33466 (Simulation time: 0 hr 2 min 22 sec) 
Heartbeat CPU  0 instructions:   95000000 cycles:   40654840 heartbeat IPC: 2.55076 cumulative IPC: 2.33675 (Simulation time: 0 hr 2 min 24 sec) 
Heartbeat CPU  0 instructions:   96000000 cycles:   41088773 heartbeat IPC: 2.30450 cumulative IPC: 2.33640 (Simulation time: 0 hr 2 min 25 sec) 
Heartbeat CPU  0 instructions:   97000001 cycles:   41551378 heartbeat IPC: 2.16167 cumulative IPC: 2.33446 (Simulation time: 0 hr 2 min 27 sec) 
Heartbeat CPU  0 instructions:   98000003 cycles:   41970530 heartbeat IPC: 2.38577 cumulative IPC: 2.33497 (Simulation time: 0 hr 2 min 28 sec) 
Heartbeat CPU  0 instructions:   99000001 cycles:   42412898 heartbeat IPC: 2.26056 cumulative IPC: 2.33420 (Simulation time: 0 hr 2 min 30 sec) 
Heartbeat CPU  0 instructions:  100000000 cycles:   42844099 heartbeat IPC: 2.31910 cumulative IPC: 2.33404 (Simulation time: 0 hr 2 min 31 sec) 

Warmup complete CPU  0 instructions:  100000001 cycles:   42844100 (Simulation time: 0 hr 2 min 31 sec) 

Heartbeat CPU  0 instructions:  101000001 cycles:   43521381 heartbeat IPC: 1.47649 cumulative IPC: 1.47649 (Simulation time: 0 hr 2 min 33 sec) 
Heartbeat CPU  0 instructions:  102000003 cycles:   44208981 heartbeat IPC: 1.45434 cumulative IPC: 1.46533 (Simulation time: 0 hr 2 min 35 sec) 
Heartbeat CPU  0 instructions:  103000003 cycles:   44892107 heartbeat IPC: 1.46386 cumulative IPC: 1.46484 (Simulation time: 0 hr 2 min 36 sec) 
Heartbeat CPU  0 instructions:  104000000 cycles:   45577200 heartbeat IPC: 1.45965 cumulative IPC: 1.46354 (Simulation time: 0 hr 2 min 38 sec) 
Heartbeat CPU  0 instructions:  105000001 cycles:   46266474 heartbeat IPC: 1.45080 cumulative IPC: 1.46097 (Simulation time: 0 hr 2 min 40 sec) 
Heartbeat CPU  0 instructions:  106000000 cycles:   46948741 heartbeat IPC: 1.46570 cumulative IPC: 1.46176 (Simulation time: 0 hr 2 min 41 sec) 
Heartbeat CPU  0 instructions:  107000001 cycles:   47632124 heartbeat IPC: 1.46331 cumulative IPC: 1.46198 (Simulation time: 0 hr 2 min 43 sec) 
Heartbeat CPU  0 instructions:  108000000 cycles:   48355309 heartbeat IPC: 1.38277 cumulative IPC: 1.45159 (Simulation time: 0 hr 2 min 45 sec) 
Heartbeat CPU  0 instructions:  109000001 cycles:   49038469 heartbeat IPC: 1.46379 cumulative IPC: 1.45293 (Simulation time: 0 hr 2 min 47 sec) 
Heartbeat CPU  0 instructions:  110000003 cycles:   49830048 heartbeat IPC: 1.26330 cumulative IPC: 1.43145 (Simulation time: 0 hr 2 min 48 sec) 
Heartbeat CPU  0 instructions:  111000000 cycles:   50688515 heartbeat IPC: 1.16486 cumulative IPC: 1.40227 (Simulation time: 0 hr 2 min 50 sec) 
Heartbeat CPU  0 instructions:  112000000 cycles:   51506037 heartbeat IPC: 1.22321 cumulative IPC: 1.38537 (Simulation time: 0 hr 2 min 52 sec) 
Heartbeat CPU  0 instructions:  113000003 cycles:   52212269 heartbeat IPC: 1.41597 cumulative IPC: 1.38768 (Simulation time: 0 hr 2 min 54 sec) 
Heartbeat CPU  0 instructions:  114000001 cycles:   52915205 heartbeat IPC: 1.42260 cumulative IPC: 1.39012 (Simulation time: 0 hr 2 min 55 sec) 
Heartbeat CPU  0 instructions:  115000002 cycles:   53635025 heartbeat IPC: 1.38924 cumulative IPC: 1.39006 (Simulation time: 0 hr 2 min 57 sec) 
Heartbeat CPU  0 instructions:  116000000 cycles:   54323064 heartbeat IPC: 1.45340 cumulative IPC: 1.39385 (Simulation time: 0 hr 2 min 59 sec) 
Heartbeat CPU  0 instructions:  117000000 cycles:   54992430 heartbeat IPC: 1.49395 cumulative IPC: 1.39937 (Simulation time: 0 hr 3 min 1 sec) 
Heartbeat CPU  0 instructions:  118000000 cycles:   55643452 heartbeat IPC: 1.53605 cumulative IPC: 1.40632 (Simulation time: 0 hr 3 min 2 sec) 
Heartbeat CPU  0 instructions:  119000002 cycles:   56370272 heartbeat IPC: 1.37586 cumulative IPC: 1.40468 (Simulation time: 0 hr 3 min 4 sec) 
Heartbeat CPU  0 instructions:  120000000 cycles:   57050193 heartbeat IPC: 1.47076 cumulative IPC: 1.40785 (Simulation time: 0 hr 3 min 6 sec) 
Heartbeat CPU  0 instructions:  121000002 cycles:   57721247 heartbeat IPC: 1.49020 cumulative IPC: 1.41156 (Simulation time: 0 hr 3 min 8 sec) 
Heartbeat CPU  0 instructions:  122000000 cycles:   58400629 heartbeat IPC: 1.47192 cumulative IPC: 1.41420 (Simulation time: 0 hr 3 min 9 sec) 
Heartbeat CPU  0 instructions:  123000002 cycles:   59135711 heartbeat IPC: 1.36040 cumulative IPC: 1.41177 (Simulation time: 0 hr 3 min 11 sec) 
Heartbeat CPU  0 instructions:  124000000 cycles:   59886094 heartbeat IPC: 1.33265 cumulative IPC: 1.40829 (Simulation time: 0 hr 3 min 13 sec) 
Heartbeat CPU  0 instructions:  125000000 cycles:   60563382 heartbeat IPC: 1.47648 cumulative IPC: 1.41089 (Simulation time: 0 hr 3 min 15 sec) 
Heartbeat CPU  0 instructions:  126000000 cycles:   61277646 heartbeat IPC: 1.40004 cumulative IPC: 1.41047 (Simulation time: 0 hr 3 min 16 sec) 
Heartbeat CPU  0 instructions:  127000003 cycles:   62001416 heartbeat IPC: 1.38166 cumulative IPC: 1.40938 (Simulation time: 0 hr 3 min 18 sec) 
Heartbeat CPU  0 instructions:  128000000 cycles:   62675183 heartbeat IPC: 1.48419 cumulative IPC: 1.41192 (Simulation time: 0 hr 3 min 20 sec) 
Heartbeat CPU  0 instructions:  129000001 cycles:   63322020 heartbeat IPC: 1.54599 cumulative IPC: 1.41616 (Simulation time: 0 hr 3 min 22 sec) 
Heartbeat CPU  0 instructions:  130000001 cycles:   64013043 heartbeat IPC: 1.44713 cumulative IPC: 1.41717 (Simulation time: 0 hr 3 min 23 sec) 
Heartbeat CPU  0 instructions:  131000002 cycles:   64732876 heartbeat IPC: 1.38921 cumulative IPC: 1.41625 (Simulation time: 0 hr 3 min 25 sec) 
Heartbeat CPU  0 instructions:  132000000 cycles:   65396397 heartbeat IPC: 1.50711 cumulative IPC: 1.41892 (Simulation time: 0 hr 3 min 27 sec) 
Heartbeat CPU  0 instructions:  133000003 cycles:   66050349 heartbeat IPC: 1.52917 cumulative IPC: 1.42203 (Simulation time: 0 hr 3 min 28 sec) 
Heartbeat CPU  0 instructions:  134000001 cycles:   66788479 heartbeat IPC: 1.35477 cumulative IPC: 1.41996 (Simulation time: 0 hr 3 min 30 sec) 
Heartbeat CPU  0 instructions:  135000001 cycles:   67503462 heartbeat IPC: 1.39863 cumulative IPC: 1.41934 (Simulation time: 0 hr 3 min 32 sec) 
Heartbeat CPU  0 instructions:  136000000 cycles:   68263437 heartbeat IPC: 1.31583 cumulative IPC: 1.41624 (Simulation time: 0 hr 3 min 34 sec) 
Heartbeat CPU  0 instructions:  137000003 cycles:   69167264 heartbeat IPC: 1.10641 cumulative IPC: 1.40561 (Simulation time: 0 hr 3 min 36 sec) 
Heartbeat CPU  0 instructions:  138000002 cycles:   69883969 heartbeat IPC: 1.39527 cumulative IPC: 1.40533 (Simulation time: 0 hr 3 min 37 sec) 
Heartbeat CPU  0 instructions:  139000002 cycles:   70547076 heartbeat IPC: 1.50805 cumulative IPC: 1.40779 (Simulation time: 0 hr 3 min 39 sec) 
Heartbeat CPU  0 instructions:  140000000 cycles:   71310079 heartbeat IPC: 1.31061 cumulative IPC: 1.40519 (Simulation time: 0 hr 3 min 41 sec) 
Heartbeat CPU  0 instructions:  141000001 cycles:   72001716 heartbeat IPC: 1.44585 cumulative IPC: 1.40615 (Simulation time: 0 hr 3 min 42 sec) 
Heartbeat CPU  0 instructions:  142000001 cycles:   72664264 heartbeat IPC: 1.50932 cumulative IPC: 1.40844 (Simulation time: 0 hr 3 min 44 sec) 
Heartbeat CPU  0 instructions:  143000002 cycles:   73324463 heartbeat IPC: 1.51470 cumulative IPC: 1.41074 (Simulation time: 0 hr 3 min 46 sec) 
Heartbeat CPU  0 instructions:  144000000 cycles:   74040753 heartbeat IPC: 1.39608 cumulative IPC: 1.41041 (Simulation time: 0 hr 3 min 48 sec) 
Heartbeat CPU  0 instructions:  145000003 cycles:   74732025 heartbeat IPC: 1.44661 cumulative IPC: 1.41119 (Simulation time: 0 hr 3 min 49 sec) 
Heartbeat CPU  0 instructions:  146000000 cycles:   75388732 heartbeat IPC: 1.52274 cumulative IPC: 1.41344 (Simulation time: 0 hr 3 min 51 sec) 
Heartbeat CPU  0 instructions:  147000003 cycles:   76081109 heartbeat IPC: 1.44430 cumulative IPC: 1.41409 (Simulation time: 0 hr 3 min 53 sec) 
Heartbeat CPU  0 instructions:  148000000 cycles:   76796071 heartbeat IPC: 1.39867 cumulative IPC: 1.41376 (Simulation time: 0 hr 3 min 55 sec) 
Heartbeat CPU  0 instructions:  149000001 cycles:   77545389 heartbeat IPC: 1.33455 cumulative IPC: 1.41205 (Simulation time: 0 hr 3 min 56 sec) 
Heartbeat CPU  0 instructions:  150000003 cycles:   78374797 heartbeat IPC: 1.20568 cumulative IPC: 1.40723 (Simulation time: 0 hr 3 min 58 sec) 
Heartbeat CPU  0 instructions:  151000000 cycles:   79194276 heartbeat IPC: 1.22028 cumulative IPC: 1.40302 (Simulation time: 0 hr 4 min 0 sec) 
Heartbeat CPU  0 instructions:  152000000 cycles:   79938786 heartbeat IPC: 1.34317 cumulative IPC: 1.40182 (Simulation time: 0 hr 4 min 2 sec) 
Heartbeat CPU  0 instructions:  153000001 cycles:   80709622 heartbeat IPC: 1.29729 cumulative IPC: 1.39969 (Simulation time: 0 hr 4 min 3 sec) 
Heartbeat CPU  0 instructions:  154000000 cycles:   81482035 heartbeat IPC: 1.29464 cumulative IPC: 1.39759 (Simulation time: 0 hr 4 min 5 sec) 
Heartbeat CPU  0 instructions:  155000000 cycles:   82263763 heartbeat IPC: 1.27922 cumulative IPC: 1.39524 (Simulation time: 0 hr 4 min 7 sec) 
Heartbeat CPU  0 instructions:  156000000 cycles:   83188395 heartbeat IPC: 1.08151 cumulative IPC: 1.38805 (Simulation time: 0 hr 4 min 9 sec) 
Heartbeat CPU  0 instructions:  157000002 cycles:   83918344 heartbeat IPC: 1.36996 cumulative IPC: 1.38773 (Simulation time: 0 hr 4 min 11 sec) 
Heartbeat CPU  0 instructions:  158000001 cycles:   84796454 heartbeat IPC: 1.13881 cumulative IPC: 1.38252 (Simulation time: 0 hr 4 min 12 sec) 
Heartbeat CPU  0 instructions:  159000001 cycles:   85543756 heartbeat IPC: 1.33815 cumulative IPC: 1.38174 (Simulation time: 0 hr 4 min 14 sec) 
Heartbeat CPU  0 instructions:  160000000 cycles:   86239172 heartbeat IPC: 1.43799 cumulative IPC: 1.38265 (Simulation time: 0 hr 4 min 16 sec) 
Heartbeat CPU  0 instructions:  161000001 cycles:   86957294 heartbeat IPC: 1.39252 cumulative IPC: 1.38281 (Simulation time: 0 hr 4 min 18 sec) 
Heartbeat CPU  0 instructions:  162000003 cycles:   87687645 heartbeat IPC: 1.36921 cumulative IPC: 1.38258 (Simulation time: 0 hr 4 min 19 sec) 
Heartbeat CPU  0 instructions:  163000000 cycles:   88356471 heartbeat IPC: 1.49515 cumulative IPC: 1.38424 (Simulation time: 0 hr 4 min 21 sec) 
Heartbeat CPU  0 instructions:  164000000 cycles:   89069134 heartbeat IPC: 1.40319 cumulative IPC: 1.38453 (Simulation time: 0 hr 4 min 23 sec) 
Heartbeat CPU  0 instructions:  165000001 cycles:   89761279 heartbeat IPC: 1.44479 cumulative IPC: 1.38542 (Simulation time: 0 hr 4 min 25 sec) 
Heartbeat CPU  0 instructions:  166000001 cycles:   90436799 heartbeat IPC: 1.48034 cumulative IPC: 1.38677 (Simulation time: 0 hr 4 min 26 sec) 
Heartbeat CPU  0 instructions:  167000002 cycles:   91159523 heartbeat IPC: 1.38366 cumulative IPC: 1.38672 (Simulation time: 0 hr 4 min 28 sec) 
Heartbeat CPU  0 instructions:  168000000 cycles:   91909614 heartbeat IPC: 1.33317 cumulative IPC: 1.38590 (Simulation time: 0 hr 4 min 30 sec) 
Heartbeat CPU  0 instructions:  169000000 cycles:   92637361 heartbeat IPC: 1.37410 cumulative IPC: 1.38573 (Simulation time: 0 hr 4 min 32 sec) 
Heartbeat CPU  0 instructions:  170000001 cycles:   93309611 heartbeat IPC: 1.48754 cumulative IPC: 1.38709 (Simulation time: 0 hr 4 min 33 sec) 
Heartbeat CPU  0 instructions:  171000000 cycles:   94061894 heartbeat IPC: 1.32929 cumulative IPC: 1.38624 (Simulation time: 0 hr 4 min 35 sec) 
Heartbeat CPU  0 instructions:  172000000 cycles:   94803374 heartbeat IPC: 1.34865 cumulative IPC: 1.38570 (Simulation time: 0 hr 4 min 37 sec) 
Heartbeat CPU  0 instructions:  173000001 cycles:   95492828 heartbeat IPC: 1.45042 cumulative IPC: 1.38655 (Simulation time: 0 hr 4 min 39 sec) 
Heartbeat CPU  0 instructions:  174000000 cycles:   96228677 heartbeat IPC: 1.35897 cumulative IPC: 1.38617 (Simulation time: 0 hr 4 min 40 sec) 
Heartbeat CPU  0 instructions:  175000000 cycles:   96933121 heartbeat IPC: 1.41956 cumulative IPC: 1.38660 (Simulation time: 0 hr 4 min 42 sec) 
Heartbeat CPU  0 instructions:  176000000 cycles:   97657012 heartbeat IPC: 1.38142 cumulative IPC: 1.38653 (Simulation time: 0 hr 4 min 44 sec) 
Heartbeat CPU  0 instructions:  177000002 cycles:   98437625 heartbeat IPC: 1.28105 cumulative IPC: 1.38505 (Simulation time: 0 hr 4 min 46 sec) 
Heartbeat CPU  0 instructions:  178000001 cycles:   99243528 heartbeat IPC: 1.24084 cumulative IPC: 1.38299 (Simulation time: 0 hr 4 min 47 sec) 
Heartbeat CPU  0 instructions:  179000003 cycles:   99989622 heartbeat IPC: 1.34032 cumulative IPC: 1.38244 (Simulation time: 0 hr 4 min 49 sec) 
Heartbeat CPU  0 instructions:  180000000 cycles:  100764994 heartbeat IPC: 1.28970 cumulative IPC: 1.38119 (Simulation time: 0 hr 4 min 51 sec) 
Heartbeat CPU  0 instructions:  181000000 cycles:  101536878 heartbeat IPC: 1.29553 cumulative IPC: 1.38007 (Simulation time: 0 hr 4 min 53 sec) 
Heartbeat CPU  0 instructions:  182000003 cycles:  102310272 heartbeat IPC: 1.29301 cumulative IPC: 1.37894 (Simulation time: 0 hr 4 min 54 sec) 
Heartbeat CPU  0 instructions:  183000002 cycles:  103108143 heartbeat IPC: 1.25333 cumulative IPC: 1.37727 (Simulation time: 0 hr 4 min 56 sec) 
Heartbeat CPU  0 instructions:  184000000 cycles:  103809046 heartbeat IPC: 1.42673 cumulative IPC: 1.37784 (Simulation time: 0 hr 4 min 58 sec) 
Heartbeat CPU  0 instructions:  185000002 cycles:  104545028 heartbeat IPC: 1.35873 cumulative IPC: 1.37761 (Simulation time: 0 hr 5 min 0 sec) 
Heartbeat CPU  0 instructions:  186000000 cycles:  105245032 heartbeat IPC: 1.42856 cumulative IPC: 1.37818 (Simulation time: 0 hr 5 min 1 sec) 
Heartbeat CPU  0 instructions:  187000001 cycles:  105936874 heartbeat IPC: 1.44542 cumulative IPC: 1.37892 (Simulation time: 0 hr 5 min 3 sec) 
Heartbeat CPU  0 instructions:  188000000 cycles:  106748965 heartbeat IPC: 1.23139 cumulative IPC: 1.37705 (Simulation time: 0 hr 5 min 5 sec) 
Heartbeat CPU  0 instructions:  189000000 cycles:  107547776 heartbeat IPC: 1.25186 cumulative IPC: 1.37550 (Simulation time: 0 hr 5 min 7 sec) 
Heartbeat CPU  0 instructions:  190000000 cycles:  108298039 heartbeat IPC: 1.33287 cumulative IPC: 1.37501 (Simulation time: 0 hr 5 min 9 sec) 
Heartbeat CPU  0 instructions:  191000003 cycles:  109073362 heartbeat IPC: 1.28979 cumulative IPC: 1.37402 (Simulation time: 0 hr 5 min 10 sec) 
Heartbeat CPU  0 instructions:  192000000 cycles:  109813365 heartbeat IPC: 1.35134 cumulative IPC: 1.37376 (Simulation time: 0 hr 5 min 12 sec) 
Heartbeat CPU  0 instructions:  193000000 cycles:  110615172 heartbeat IPC: 1.24718 cumulative IPC: 1.37227 (Simulation time: 0 hr 5 min 14 sec) 
Heartbeat CPU  0 instructions:  194000001 cycles:  111425667 heartbeat IPC: 1.23382 cumulative IPC: 1.37063 (Simulation time: 0 hr 5 min 16 sec) 
Heartbeat CPU  0 instructions:  195000001 cycles:  112129353 heartbeat IPC: 1.42109 cumulative IPC: 1.37114 (Simulation time: 0 hr 5 min 17 sec) 
Heartbeat CPU  0 instructions:  196000000 cycles:  112944220 heartbeat IPC: 1.22719 cumulative IPC: 1.36947 (Simulation time: 0 hr 5 min 19 sec) 
Heartbeat CPU  0 instructions:  197000001 cycles:  113712650 heartbeat IPC: 1.30136 cumulative IPC: 1.36873 (Simulation time: 0 hr 5 min 21 sec) 
Heartbeat CPU  0 instructions:  198000002 cycles:  114525783 heartbeat IPC: 1.22981 cumulative IPC: 1.36716 (Simulation time: 0 hr 5 min 23 sec) 
Heartbeat CPU  0 instructions:  199000002 cycles:  115401310 heartbeat IPC: 1.14217 cumulative IPC: 1.36444 (Simulation time: 0 hr 5 min 25 sec) 
Heartbeat CPU  0 instructions:  200000000 cycles:  116193110 heartbeat IPC: 1.26294 cumulative IPC: 1.36334 (Simulation time: 0 hr 5 min 26 sec) 
Heartbeat CPU  0 instructions:  201000000 cycles:  117049280 heartbeat IPC: 1.16799 cumulative IPC: 1.36109 (Simulation time: 0 hr 5 min 28 sec) 
Heartbeat CPU  0 instructions:  202000000 cycles:  117830744 heartbeat IPC: 1.27965 cumulative IPC: 1.36024 (Simulation time: 0 hr 5 min 30 sec) 
Heartbeat CPU  0 instructions:  203000000 cycles:  118730157 heartbeat IPC: 1.11184 cumulative IPC: 1.35730 (Simulation time: 0 hr 5 min 32 sec) 
Heartbeat CPU  0 instructions:  204000000 cycles:  119524999 heartbeat IPC: 1.25811 cumulative IPC: 1.35627 (Simulation time: 0 hr 5 min 34 sec) 
Heartbeat CPU  0 instructions:  205000001 cycles:  120390315 heartbeat IPC: 1.15565 cumulative IPC: 1.35403 (Simulation time: 0 hr 5 min 35 sec) 
Heartbeat CPU  0 instructions:  206000003 cycles:  121167195 heartbeat IPC: 1.28720 cumulative IPC: 1.35337 (Simulation time: 0 hr 5 min 37 sec) 
Heartbeat CPU  0 instructions:  207000003 cycles:  121916718 heartbeat IPC: 1.33418 cumulative IPC: 1.35319 (Simulation time: 0 hr 5 min 39 sec) 
Heartbeat CPU  0 instructions:  208000000 cycles:  122666503 heartbeat IPC: 1.33371 cumulative IPC: 1.35300 (Simulation time: 0 hr 5 min 41 sec) 
Heartbeat CPU  0 instructions:  209000001 cycles:  123454246 heartbeat IPC: 1.26945 cumulative IPC: 1.35219 (Simulation time: 0 hr 5 min 42 sec) 
Heartbeat CPU  0 instructions:  210000003 cycles:  124324444 heartbeat IPC: 1.14917 cumulative IPC: 1.35002 (Simulation time: 0 hr 5 min 44 sec) 
Heartbeat CPU  0 instructions:  211000001 cycles:  125071824 heartbeat IPC: 1.33800 cumulative IPC: 1.34991 (Simulation time: 0 hr 5 min 46 sec) 
Heartbeat CPU  0 instructions:  212000000 cycles:  125787348 heartbeat IPC: 1.39758 cumulative IPC: 1.35032 (Simulation time: 0 hr 5 min 48 sec) 
Heartbeat CPU  0 instructions:  213000000 cycles:  126603774 heartbeat IPC: 1.22485 cumulative IPC: 1.34910 (Simulation time: 0 hr 5 min 50 sec) 
Heartbeat CPU  0 instructions:  214000000 cycles:  127384804 heartbeat IPC: 1.28036 cumulative IPC: 1.34846 (Simulation time: 0 hr 5 min 51 sec) 
Heartbeat CPU  0 instructions:  215000001 cycles:  128234224 heartbeat IPC: 1.17728 cumulative IPC: 1.34676 (Simulation time: 0 hr 5 min 53 sec) 
Heartbeat CPU  0 instructions:  216000000 cycles:  129034641 heartbeat IPC: 1.24935 cumulative IPC: 1.34586 (Simulation time: 0 hr 5 min 55 sec) 
Heartbeat CPU  0 instructions:  217000003 cycles:  129923317 heartbeat IPC: 1.12527 cumulative IPC: 1.34360 (Simulation time: 0 hr 5 min 57 sec) 
Heartbeat CPU  0 instructions:  218000002 cycles:  130696367 heartbeat IPC: 1.29358 cumulative IPC: 1.34316 (Simulation time: 0 hr 5 min 59 sec) 
Heartbeat CPU  0 instructions:  219000001 cycles:  131414685 heartbeat IPC: 1.39214 cumulative IPC: 1.34356 (Simulation time: 0 hr 6 min 0 sec) 
Heartbeat CPU  0 instructions:  220000000 cycles:  132122703 heartbeat IPC: 1.41239 cumulative IPC: 1.34411 (Simulation time: 0 hr 6 min 2 sec) 
Heartbeat CPU  0 instructions:  221000000 cycles:  132793518 heartbeat IPC: 1.49072 cumulative IPC: 1.34520 (Simulation time: 0 hr 6 min 4 sec) 
Heartbeat CPU  0 instructions:  222000003 cycles:  133622391 heartbeat IPC: 1.20646 cumulative IPC: 1.34393 (Simulation time: 0 hr 6 min 6 sec) 
Heartbeat CPU  0 instructions:  223000002 cycles:  134330774 heartbeat IPC: 1.41166 cumulative IPC: 1.34446 (Simulation time: 0 hr 6 min 7 sec) 
Heartbeat CPU  0 instructions:  224000000 cycles:  135011981 heartbeat IPC: 1.46798 cumulative IPC: 1.34537 (Simulation time: 0 hr 6 min 9 sec) 
Heartbeat CPU  0 instructions:  225000000 cycles:  135721777 heartbeat IPC: 1.40886 cumulative IPC: 1.34586 (Simulation time: 0 hr 6 min 11 sec) 
Heartbeat CPU  0 instructions:  226000001 cycles:  136533960 heartbeat IPC: 1.23125 cumulative IPC: 1.34486 (Simulation time: 0 hr 6 min 13 sec) 
Heartbeat CPU  0 instructions:  227000002 cycles:  137213170 heartbeat IPC: 1.47230 cumulative IPC: 1.34578 (Simulation time: 0 hr 6 min 14 sec) 
Heartbeat CPU  0 instructions:  228000000 cycles:  137937348 heartbeat IPC: 1.38087 cumulative IPC: 1.34605 (Simulation time: 0 hr 6 min 16 sec) 
Heartbeat CPU  0 instructions:  229000000 cycles:  138640687 heartbeat IPC: 1.42179 cumulative IPC: 1.34660 (Simulation time: 0 hr 6 min 18 sec) 
Heartbeat CPU  0 instructions:  230000002 cycles:  139352586 heartbeat IPC: 1.40470 cumulative IPC: 1.34703 (Simulation time: 0 hr 6 min 20 sec) 
Heartbeat CPU  0 instructions:  231000000 cycles:  140132361 heartbeat IPC: 1.28242 cumulative IPC: 1.34651 (Simulation time: 0 hr 6 min 21 sec) 
Heartbeat CPU  0 instructions:  232000000 cycles:  140850671 heartbeat IPC: 1.39216 cumulative IPC: 1.34685 (Simulation time: 0 hr 6 min 23 sec) 
Heartbeat CPU  0 instructions:  233000001 cycles:  141537402 heartbeat IPC: 1.45618 cumulative IPC: 1.34761 (Simulation time: 0 hr 6 min 25 sec) 
Heartbeat CPU  0 instructions:  234000003 cycles:  142273475 heartbeat IPC: 1.35856 cumulative IPC: 1.34769 (Simulation time: 0 hr 6 min 27 sec) 
Heartbeat CPU  0 instructions:  235000002 cycles:  143051129 heartbeat IPC: 1.28592 cumulative IPC: 1.34721 (Simulation time: 0 hr 6 min 29 sec) 
Heartbeat CPU  0 instructions:  236000000 cycles:  143750387 heartbeat IPC: 1.43008 cumulative IPC: 1.34779 (Simulation time: 0 hr 6 min 30 sec) 
Heartbeat CPU  0 instructions:  237000002 cycles:  144432777 heartbeat IPC: 1.46544 cumulative IPC: 1.34858 (Simulation time: 0 hr 6 min 32 sec) 
Heartbeat CPU  0 instructions:  238000000 cycles:  145189335 heartbeat IPC: 1.32177 cumulative IPC: 1.34838 (Simulation time: 0 hr 6 min 34 sec) 
Heartbeat CPU  0 instructions:  239000000 cycles:  145941879 heartbeat IPC: 1.32883 cumulative IPC: 1.34823 (Simulation time: 0 hr 6 min 35 sec) 
Heartbeat CPU  0 instructions:  240000000 cycles:  146631619 heartbeat IPC: 1.44982 cumulative IPC: 1.34891 (Simulation time: 0 hr 6 min 37 sec) 
Heartbeat CPU  0 instructions:  241000002 cycles:  147345099 heartbeat IPC: 1.40158 cumulative IPC: 1.34927 (Simulation time: 0 hr 6 min 39 sec) 
Heartbeat CPU  0 instructions:  242000002 cycles:  148087173 heartbeat IPC: 1.34757 cumulative IPC: 1.34926 (Simulation time: 0 hr 6 min 41 sec) 
Heartbeat CPU  0 instructions:  243000002 cycles:  148831356 heartbeat IPC: 1.34376 cumulative IPC: 1.34922 (Simulation time: 0 hr 6 min 42 sec) 
Heartbeat CPU  0 instructions:  244000000 cycles:  149552491 heartbeat IPC: 1.38670 cumulative IPC: 1.34947 (Simulation time: 0 hr 6 min 44 sec) 
Heartbeat CPU  0 instructions:  245000000 cycles:  150253906 heartbeat IPC: 1.42569 cumulative IPC: 1.34997 (Simulation time: 0 hr 6 min 46 sec) 
Heartbeat CPU  0 instructions:  246000000 cycles:  150922740 heartbeat IPC: 1.49514 cumulative IPC: 1.35087 (Simulation time: 0 hr 6 min 48 sec) 
Heartbeat CPU  0 instructions:  247000001 cycles:  151669021 heartbeat IPC: 1.33998 cumulative IPC: 1.35079 (Simulation time: 0 hr 6 min 49 sec) 
Heartbeat CPU  0 instructions:  248000000 cycles:  152492263 heartbeat IPC: 1.21471 cumulative IPC: 1.34977 (Simulation time: 0 hr 6 min 51 sec) 
Heartbeat CPU  0 instructions:  249000000 cycles:  153172112 heartbeat IPC: 1.47091 cumulative IPC: 1.35052 (Simulation time: 0 hr 6 min 53 sec) 
Heartbeat CPU  0 instructions:  250000001 cycles:  153892957 heartbeat IPC: 1.38726 cumulative IPC: 1.35076 (Simulation time: 0 hr 6 min 55 sec) 
Heartbeat CPU  0 instructions:  251000000 cycles:  154591508 heartbeat IPC: 1.43153 cumulative IPC: 1.35126 (Simulation time: 0 hr 6 min 57 sec) 
Heartbeat CPU  0 instructions:  252000000 cycles:  155282300 heartbeat IPC: 1.44761 cumulative IPC: 1.35185 (Simulation time: 0 hr 6 min 58 sec) 
Heartbeat CPU  0 instructions:  253000002 cycles:  156131996 heartbeat IPC: 1.17689 cumulative IPC: 1.35054 (Simulation time: 0 hr 7 min 0 sec) 
Heartbeat CPU  0 instructions:  254000002 cycles:  156836933 heartbeat IPC: 1.41857 cumulative IPC: 1.35096 (Simulation time: 0 hr 7 min 2 sec) 
Heartbeat CPU  0 instructions:  255000000 cycles:  157511974 heartbeat IPC: 1.48139 cumulative IPC: 1.35173 (Simulation time: 0 hr 7 min 4 sec) 
Heartbeat CPU  0 instructions:  256000000 cycles:  158327668 heartbeat IPC: 1.22595 cumulative IPC: 1.35084 (Simulation time: 0 hr 7 min 5 sec) 
Heartbeat CPU  0 instructions:  257000000 cycles:  159032506 heartbeat IPC: 1.41877 cumulative IPC: 1.35125 (Simulation time: 0 hr 7 min 7 sec) 
Heartbeat CPU  0 instructions:  258000002 cycles:  159707140 heartbeat IPC: 1.48229 cumulative IPC: 1.35201 (Simulation time: 0 hr 7 min 9 sec) 
Heartbeat CPU  0 instructions:  259000000 cycles:  160525481 heartbeat IPC: 1.22198 cumulative IPC: 1.35111 (Simulation time: 0 hr 7 min 11 sec) 
Heartbeat CPU  0 instructions:  260000000 cycles:  161231924 heartbeat IPC: 1.41554 cumulative IPC: 1.35149 (Simulation time: 0 hr 7 min 12 sec) 
Heartbeat CPU  0 instructions:  261000002 cycles:  161908521 heartbeat IPC: 1.47799 cumulative IPC: 1.35221 (Simulation time: 0 hr 7 min 14 sec) 
Heartbeat CPU  0 instructions:  262000000 cycles:  162722744 heartbeat IPC: 1.22816 cumulative IPC: 1.35137 (Simulation time: 0 hr 7 min 16 sec) 
Heartbeat CPU  0 instructions:  263000002 cycles:  163427366 heartbeat IPC: 1.41920 cumulative IPC: 1.35176 (Simulation time: 0 hr 7 min 18 sec) 
Heartbeat CPU  0 instructions:  264000000 cycles:  164102046 heartbeat IPC: 1.48218 cumulative IPC: 1.35249 (Simulation time: 0 hr 7 min 19 sec) 
Heartbeat CPU  0 instructions:  265000000 cycles:  164919524 heartbeat IPC: 1.22327 cumulative IPC: 1.35162 (Simulation time: 0 hr 7 min 21 sec) 
Heartbeat CPU  0 instructions:  266000000 cycles:  165623472 heartbeat IPC: 1.42056 cumulative IPC: 1.35202 (Simulation time: 0 hr 7 min 23 sec) 
Heartbeat CPU  0 instructions:  267000002 cycles:  166297818 heartbeat IPC: 1.48292 cumulative IPC: 1.35273 (Simulation time: 0 hr 7 min 25 sec) 
Heartbeat CPU  0 instructions:  268000000 cycles:  167112670 heartbeat IPC: 1.22721 cumulative IPC: 1.35191 (Simulation time: 0 hr 7 min 26 sec) 
Heartbeat CPU  0 instructions:  269000002 cycles:  167818152 heartbeat IPC: 1.41747 cumulative IPC: 1.35228 (Simulation time: 0 hr 7 min 28 sec) 
Heartbeat CPU  0 instructions:  270000002 cycles:  168492590 heartbeat IPC: 1.48272 cumulative IPC: 1.35298 (Simulation time: 0 hr 7 min 30 sec) 
Heartbeat CPU  0 instructions:  271000000 cycles:  169310288 heartbeat IPC: 1.22294 cumulative IPC: 1.35214 (Simulation time: 0 hr 7 min 32 sec) 
Heartbeat CPU  0 instructions:  272000000 cycles:  170014622 heartbeat IPC: 1.41978 cumulative IPC: 1.35251 (Simulation time: 0 hr 7 min 33 sec) 
Heartbeat CPU  0 instructions:  273000002 cycles:  170688845 heartbeat IPC: 1.48319 cumulative IPC: 1.35320 (Simulation time: 0 hr 7 min 35 sec) 
Heartbeat CPU  0 instructions:  274000002 cycles:  171504910 heartbeat IPC: 1.22539 cumulative IPC: 1.35239 (Simulation time: 0 hr 7 min 37 sec) 
Heartbeat CPU  0 instructions:  275000000 cycles:  172210197 heartbeat IPC: 1.41786 cumulative IPC: 1.35275 (Simulation time: 0 hr 7 min 39 sec) 
Heartbeat CPU  0 instructions:  276000000 cycles:  172884694 heartbeat IPC: 1.48259 cumulative IPC: 1.35342 (Simulation time: 0 hr 7 min 40 sec) 
Heartbeat CPU  0 instructions:  277000003 cycles:  173705432 heartbeat IPC: 1.21842 cumulative IPC: 1.35258 (Simulation time: 0 hr 7 min 42 sec) 
Heartbeat CPU  0 instructions:  278000002 cycles:  174414948 heartbeat IPC: 1.40941 cumulative IPC: 1.35288 (Simulation time: 0 hr 7 min 44 sec) 
Heartbeat CPU  0 instructions:  279000001 cycles:  175086762 heartbeat IPC: 1.48851 cumulative IPC: 1.35357 (Simulation time: 0 hr 7 min 46 sec) 
Heartbeat CPU  0 instructions:  280000000 cycles:  175904260 heartbeat IPC: 1.22324 cumulative IPC: 1.35277 (Simulation time: 0 hr 7 min 47 sec) 
Heartbeat CPU  0 instructions:  281000000 cycles:  176610119 heartbeat IPC: 1.41671 cumulative IPC: 1.35311 (Simulation time: 0 hr 7 min 49 sec) 
Heartbeat CPU  0 instructions:  282000002 cycles:  177284214 heartbeat IPC: 1.48347 cumulative IPC: 1.35376 (Simulation time: 0 hr 7 min 51 sec) 
Heartbeat CPU  0 instructions:  283000002 cycles:  178098665 heartbeat IPC: 1.22782 cumulative IPC: 1.35300 (Simulation time: 0 hr 7 min 53 sec) 
Heartbeat CPU  0 instructions:  284000000 cycles:  178804198 heartbeat IPC: 1.41737 cumulative IPC: 1.35334 (Simulation time: 0 hr 7 min 54 sec) 
Heartbeat CPU  0 instructions:  285000000 cycles:  179478870 heartbeat IPC: 1.48220 cumulative IPC: 1.35397 (Simulation time: 0 hr 7 min 56 sec) 
Heartbeat CPU  0 instructions:  286000000 cycles:  180290588 heartbeat IPC: 1.23195 cumulative IPC: 1.35325 (Simulation time: 0 hr 7 min 58 sec) 
Heartbeat CPU  0 instructions:  287000000 cycles:  180999186 heartbeat IPC: 1.41124 cumulative IPC: 1.35355 (Simulation time: 0 hr 8 min 0 sec) 
Heartbeat CPU  0 instructions:  288000000 cycles:  181672148 heartbeat IPC: 1.48597 cumulative IPC: 1.35419 (Simulation time: 0 hr 8 min 1 sec) 
Heartbeat CPU  0 instructions:  289000003 cycles:  182492150 heartbeat IPC: 1.21951 cumulative IPC: 1.35340 (Simulation time: 0 hr 8 min 3 sec) 
Heartbeat CPU  0 instructions:  290000002 cycles:  183201629 heartbeat IPC: 1.40948 cumulative IPC: 1.35369 (Simulation time: 0 hr 8 min 5 sec) 
Heartbeat CPU  0 instructions:  291000001 cycles:  183869076 heartbeat IPC: 1.49824 cumulative IPC: 1.35437 (Simulation time: 0 hr 8 min 7 sec) 
Heartbeat CPU  0 instructions:  292000000 cycles:  184623906 heartbeat IPC: 1.32480 cumulative IPC: 1.35421 (Simulation time: 0 hr 8 min 8 sec) 
Heartbeat CPU  0 instructions:  293000001 cycles:  185340668 heartbeat IPC: 1.39516 cumulative IPC: 1.35442 (Simulation time: 0 hr 8 min 10 sec) 
Heartbeat CPU  0 instructions:  294000001 cycles:  186021542 heartbeat IPC: 1.46870 cumulative IPC: 1.35496 (Simulation time: 0 hr 8 min 12 sec) 
Heartbeat CPU  0 instructions:  295000002 cycles:  186746593 heartbeat IPC: 1.37921 cumulative IPC: 1.35508 (Simulation time: 0 hr 8 min 14 sec) 
Heartbeat CPU  0 instructions:  296000000 cycles:  187465276 heartbeat IPC: 1.39143 cumulative IPC: 1.35526 (Simulation time: 0 hr 8 min 16 sec) 
Heartbeat CPU  0 instructions:  297000001 cycles:  188156616 heartbeat IPC: 1.44647 cumulative IPC: 1.35570 (Simulation time: 0 hr 8 min 17 sec) 
Heartbeat CPU  0 instructions:  298000000 cycles:  188880936 heartbeat IPC: 1.38060 cumulative IPC: 1.35582 (Simulation time: 0 hr 8 min 19 sec) 
Heartbeat CPU  0 instructions:  299000000 cycles:  189604175 heartbeat IPC: 1.38267 cumulative IPC: 1.35595 (Simulation time: 0 hr 8 min 21 sec) 
Heartbeat CPU  0 instructions:  300000000 cycles:  190301369 heartbeat IPC: 1.43432 cumulative IPC: 1.35633 (Simulation time: 0 hr 8 min 23 sec) 
Heartbeat CPU  0 instructions:  301000003 cycles:  191011038 heartbeat IPC: 1.40911 cumulative IPC: 1.35658 (Simulation time: 0 hr 8 min 24 sec) 
Heartbeat CPU  0 instructions:  302000003 cycles:  191731709 heartbeat IPC: 1.38760 cumulative IPC: 1.35673 (Simulation time: 0 hr 8 min 26 sec) 
Heartbeat CPU  0 instructions:  303000002 cycles:  192435961 heartbeat IPC: 1.41994 cumulative IPC: 1.35703 (Simulation time: 0 hr 8 min 28 sec) 
Heartbeat CPU  0 instructions:  304000000 cycles:  193163334 heartbeat IPC: 1.37481 cumulative IPC: 1.35711 (Simulation time: 0 hr 8 min 29 sec) 
Heartbeat CPU  0 instructions:  305000001 cycles:  193854790 heartbeat IPC: 1.44623 cumulative IPC: 1.35752 (Simulation time: 0 hr 8 min 31 sec) 
Heartbeat CPU  0 instructions:  306000003 cycles:  194560829 heartbeat IPC: 1.41636 cumulative IPC: 1.35779 (Simulation time: 0 hr 8 min 33 sec) 
Heartbeat CPU  0 instructions:  307000000 cycles:  195298219 heartbeat IPC: 1.35613 cumulative IPC: 1.35779 (Simulation time: 0 hr 8 min 35 sec) 
Heartbeat CPU  0 instructions:  308000000 cycles:  195980173 heartbeat IPC: 1.46637 cumulative IPC: 1.35827 (Simulation time: 0 hr 8 min 36 sec) 
Heartbeat CPU  0 instructions:  309000002 cycles:  196700092 heartbeat IPC: 1.38905 cumulative IPC: 1.35841 (Simulation time: 0 hr 8 min 38 sec) 
Heartbeat CPU  0 instructions:  310000000 cycles:  197495226 heartbeat IPC: 1.25765 cumulative IPC: 1.35790 (Simulation time: 0 hr 8 min 40 sec) 
Heartbeat CPU  0 instructions:  311000001 cycles:  198175408 heartbeat IPC: 1.47020 cumulative IPC: 1.35839 (Simulation time: 0 hr 8 min 42 sec) 
Heartbeat CPU  0 instructions:  312000000 cycles:  198896072 heartbeat IPC: 1.38761 cumulative IPC: 1.35852 (Simulation time: 0 hr 8 min 43 sec) 
Heartbeat CPU  0 instructions:  313000002 cycles:  199753278 heartbeat IPC: 1.16658 cumulative IPC: 1.35747 (Simulation time: 0 hr 8 min 45 sec) 
Heartbeat CPU  0 instructions:  314000001 cycles:  200499056 heartbeat IPC: 1.34088 cumulative IPC: 1.35739 (Simulation time: 0 hr 8 min 47 sec) 
Heartbeat CPU  0 instructions:  315000000 cycles:  201219470 heartbeat IPC: 1.38809 cumulative IPC: 1.35753 (Simulation time: 0 hr 8 min 49 sec) 
Heartbeat CPU  0 instructions:  316000000 cycles:  201956011 heartbeat IPC: 1.35770 cumulative IPC: 1.35754 (Simulation time: 0 hr 8 min 50 sec) 
Heartbeat CPU  0 instructions:  317000001 cycles:  202756642 heartbeat IPC: 1.24902 cumulative IPC: 1.35699 (Simulation time: 0 hr 8 min 52 sec) 
Heartbeat CPU  0 instructions:  318000001 cycles:  203617774 heartbeat IPC: 1.16126 cumulative IPC: 1.35594 (Simulation time: 0 hr 8 min 54 sec) 
Heartbeat CPU  0 instructions:  319000003 cycles:  204310242 heartbeat IPC: 1.44411 cumulative IPC: 1.35632 (Simulation time: 0 hr 8 min 56 sec) 
Heartbeat CPU  0 instructions:  320000000 cycles:  205017810 heartbeat IPC: 1.41329 cumulative IPC: 1.35657 (Simulation time: 0 hr 8 min 58 sec) 
Heartbeat CPU  0 instructions:  321000001 cycles:  205816288 heartbeat IPC: 1.25238 cumulative IPC: 1.35606 (Simulation time: 0 hr 8 min 59 sec) 
Heartbeat CPU  0 instructions:  322000003 cycles:  206607033 heartbeat IPC: 1.26463 cumulative IPC: 1.35562 (Simulation time: 0 hr 9 min 1 sec) 
Heartbeat CPU  0 instructions:  323000001 cycles:  207392214 heartbeat IPC: 1.27359 cumulative IPC: 1.35523 (Simulation time: 0 hr 9 min 3 sec) 
Heartbeat CPU  0 instructions:  324000000 cycles:  208110447 heartbeat IPC: 1.39230 cumulative IPC: 1.35539 (Simulation time: 0 hr 9 min 5 sec) 
Heartbeat CPU  0 instructions:  325000000 cycles:  208845197 heartbeat IPC: 1.36101 cumulative IPC: 1.35541 (Simulation time: 0 hr 9 min 6 sec) 
Heartbeat CPU  0 instructions:  326000003 cycles:  209650726 heartbeat IPC: 1.24142 cumulative IPC: 1.35486 (Simulation time: 0 hr 9 min 8 sec) 
Heartbeat CPU  0 instructions:  327000000 cycles:  210393152 heartbeat IPC: 1.34693 cumulative IPC: 1.35483 (Simulation time: 0 hr 9 min 10 sec) 
Heartbeat CPU  0 instructions:  328000000 cycles:  211177354 heartbeat IPC: 1.27518 cumulative IPC: 1.35446 (Simulation time: 0 hr 9 min 12 sec) 
Heartbeat CPU  0 instructions:  329000001 cycles:  211974497 heartbeat IPC: 1.25448 cumulative IPC: 1.35398 (Simulation time: 0 hr 9 min 13 sec) 
Heartbeat CPU  0 instructions:  330000001 cycles:  212639166 heartbeat IPC: 1.50451 cumulative IPC: 1.35457 (Simulation time: 0 hr 9 min 15 sec) 
Heartbeat CPU  0 instructions:  331000000 cycles:  213340310 heartbeat IPC: 1.42624 cumulative IPC: 1.35487 (Simulation time: 0 hr 9 min 17 sec) 
Heartbeat CPU  0 instructions:  332000000 cycles:  214062164 heartbeat IPC: 1.38532 cumulative IPC: 1.35500 (Simulation time: 0 hr 9 min 19 sec) 
Heartbeat CPU  0 instructions:  333000001 cycles:  214839351 heartbeat IPC: 1.28669 cumulative IPC: 1.35469 (Simulation time: 0 hr 9 min 20 sec) 
Heartbeat CPU  0 instructions:  334000002 cycles:  215610902 heartbeat IPC: 1.29609 cumulative IPC: 1.35443 (Simulation time: 0 hr 9 min 22 sec) 
Heartbeat CPU  0 instructions:  335000000 cycles:  216431745 heartbeat IPC: 1.21826 cumulative IPC: 1.35378 (Simulation time: 0 hr 9 min 24 sec) 
Heartbeat CPU  0 instructions:  336000000 cycles:  217151639 heartbeat IPC: 1.38909 cumulative IPC: 1.35393 (Simulation time: 0 hr 9 min 26 sec) 
Heartbeat CPU  0 instructions:  337000002 cycles:  217866946 heartbeat IPC: 1.39800 cumulative IPC: 1.35411 (Simulation time: 0 hr 9 min 27 sec) 
Heartbeat CPU  0 instructions:  338000003 cycles:  218659480 heartbeat IPC: 1.26178 cumulative IPC: 1.35369 (Simulation time: 0 hr 9 min 29 sec) 
Heartbeat CPU  0 instructions:  339000002 cycles:  219402499 heartbeat IPC: 1.34586 cumulative IPC: 1.35366 (Simulation time: 0 hr 9 min 31 sec) 
Heartbeat CPU  0 instructions:  340000000 cycles:  220174493 heartbeat IPC: 1.29534 cumulative IPC: 1.35341 (Simulation time: 0 hr 9 min 33 sec) 
Heartbeat CPU  0 instructions:  341000001 cycles:  220973924 heartbeat IPC: 1.25089 cumulative IPC: 1.35295 (Simulation time: 0 hr 9 min 34 sec) 
Heartbeat CPU  0 instructions:  342000003 cycles:  221651363 heartbeat IPC: 1.47615 cumulative IPC: 1.35341 (Simulation time: 0 hr 9 min 36 sec) 
Heartbeat CPU  0 instructions:  343000003 cycles:  222416638 heartbeat IPC: 1.30672 cumulative IPC: 1.35321 (Simulation time: 0 hr 9 min 38 sec) 
Heartbeat CPU  0 instructions:  344000000 cycles:  223145874 heartbeat IPC: 1.37129 cumulative IPC: 1.35329 (Simulation time: 0 hr 9 min 40 sec) 
Heartbeat CPU  0 instructions:  345000003 cycles:  223816281 heartbeat IPC: 1.49164 cumulative IPC: 1.35380 (Simulation time: 0 hr 9 min 41 sec) 
Heartbeat CPU  0 instructions:  346000000 cycles:  224533704 heartbeat IPC: 1.39387 cumulative IPC: 1.35396 (Simulation time: 0 hr 9 min 43 sec) 
Heartbeat CPU  0 instructions:  347000001 cycles:  225266462 heartbeat IPC: 1.36471 cumulative IPC: 1.35400 (Simulation time: 0 hr 9 min 45 sec) 
Heartbeat CPU  0 instructions:  348000000 cycles:  225997690 heartbeat IPC: 1.36756 cumulative IPC: 1.35405 (Simulation time: 0 hr 9 min 47 sec) 
Heartbeat CPU  0 instructions:  349000003 cycles:  226729959 heartbeat IPC: 1.36562 cumulative IPC: 1.35410 (Simulation time: 0 hr 9 min 48 sec) 
Heartbeat CPU  0 instructions:  350000003 cycles:  227447983 heartbeat IPC: 1.39271 cumulative IPC: 1.35425 (Simulation time: 0 hr 9 min 50 sec) 
Heartbeat CPU  0 instructions:  351000002 cycles:  228234577 heartbeat IPC: 1.27130 cumulative IPC: 1.35390 (Simulation time: 0 hr 9 min 52 sec) 
Heartbeat CPU  0 instructions:  352000000 cycles:  228927026 heartbeat IPC: 1.44415 cumulative IPC: 1.35423 (Simulation time: 0 hr 9 min 54 sec) 
Heartbeat CPU  0 instructions:  353000003 cycles:  229671689 heartbeat IPC: 1.34289 cumulative IPC: 1.35419 (Simulation time: 0 hr 9 min 55 sec) 
Heartbeat CPU  0 instructions:  354000002 cycles:  230362279 heartbeat IPC: 1.44804 cumulative IPC: 1.35454 (Simulation time: 0 hr 9 min 57 sec) 
Heartbeat CPU  0 instructions:  355000002 cycles:  231077435 heartbeat IPC: 1.39830 cumulative IPC: 1.35470 (Simulation time: 0 hr 9 min 59 sec) 
Heartbeat CPU  0 instructions:  356000000 cycles:  231843669 heartbeat IPC: 1.30508 cumulative IPC: 1.35450 (Simulation time: 0 hr 10 min 1 sec) 
Heartbeat CPU  0 instructions:  357000002 cycles:  232612203 heartbeat IPC: 1.30118 cumulative IPC: 1.35428 (Simulation time: 0 hr 10 min 2 sec) 
Heartbeat CPU  0 instructions:  358000002 cycles:  233309345 heartbeat IPC: 1.43443 cumulative IPC: 1.35458 (Simulation time: 0 hr 10 min 4 sec) 
Heartbeat CPU  0 instructions:  359000002 cycles:  234023871 heartbeat IPC: 1.39953 cumulative IPC: 1.35475 (Simulation time: 0 hr 10 min 6 sec) 
Heartbeat CPU  0 instructions:  360000000 cycles:  234717273 heartbeat IPC: 1.44216 cumulative IPC: 1.35506 (Simulation time: 0 hr 10 min 8 sec) 
Heartbeat CPU  0 instructions:  361000000 cycles:  235407693 heartbeat IPC: 1.44839 cumulative IPC: 1.35540 (Simulation time: 0 hr 10 min 9 sec) 
Heartbeat CPU  0 instructions:  362000003 cycles:  236143355 heartbeat IPC: 1.35932 cumulative IPC: 1.35541 (Simulation time: 0 hr 10 min 11 sec) 
Heartbeat CPU  0 instructions:  363000000 cycles:  236864973 heartbeat IPC: 1.38577 cumulative IPC: 1.35552 (Simulation time: 0 hr 10 min 13 sec) 
Heartbeat CPU  0 instructions:  364000000 cycles:  237580606 heartbeat IPC: 1.39736 cumulative IPC: 1.35568 (Simulation time: 0 hr 10 min 15 sec) 
Heartbeat CPU  0 instructions:  365000001 cycles:  238310596 heartbeat IPC: 1.36988 cumulative IPC: 1.35573 (Simulation time: 0 hr 10 min 16 sec) 
Heartbeat CPU  0 instructions:  366000003 cycles:  239110345 heartbeat IPC: 1.25039 cumulative IPC: 1.35530 (Simulation time: 0 hr 10 min 18 sec) 
Heartbeat CPU  0 instructions:  367000001 cycles:  239858579 heartbeat IPC: 1.33648 cumulative IPC: 1.35523 (Simulation time: 0 hr 10 min 20 sec) 
Heartbeat CPU  0 instructions:  368000000 cycles:  240665655 heartbeat IPC: 1.23904 cumulative IPC: 1.35476 (Simulation time: 0 hr 10 min 22 sec) 
Heartbeat CPU  0 instructions:  369000000 cycles:  241400024 heartbeat IPC: 1.36171 cumulative IPC: 1.35478 (Simulation time: 0 hr 10 min 23 sec) 
Heartbeat CPU  0 instructions:  370000001 cycles:  242072119 heartbeat IPC: 1.48789 cumulative IPC: 1.35523 (Simulation time: 0 hr 10 min 25 sec) 
Heartbeat CPU  0 instructions:  371000001 cycles:  242806798 heartbeat IPC: 1.36114 cumulative IPC: 1.35525 (Simulation time: 0 hr 10 min 27 sec) 
Heartbeat CPU  0 instructions:  372000000 cycles:  243575403 heartbeat IPC: 1.30106 cumulative IPC: 1.35505 (Simulation time: 0 hr 10 min 29 sec) 
Heartbeat CPU  0 instructions:  373000000 cycles:  244303497 heartbeat IPC: 1.37345 cumulative IPC: 1.35511 (Simulation time: 0 hr 10 min 30 sec) 
Heartbeat CPU  0 instructions:  374000002 cycles:  245065067 heartbeat IPC: 1.31308 cumulative IPC: 1.35495 (Simulation time: 0 hr 10 min 32 sec) 
Heartbeat CPU  0 instructions:  375000000 cycles:  245792647 heartbeat IPC: 1.37442 cumulative IPC: 1.35502 (Simulation time: 0 hr 10 min 34 sec) 
Heartbeat CPU  0 instructions:  376000000 cycles:  246531505 heartbeat IPC: 1.35344 cumulative IPC: 1.35502 (Simulation time: 0 hr 10 min 36 sec) 
Heartbeat CPU  0 instructions:  377000001 cycles:  247245031 heartbeat IPC: 1.40149 cumulative IPC: 1.35518 (Simulation time: 0 hr 10 min 37 sec) 
Heartbeat CPU  0 instructions:  378000003 cycles:  248037375 heartbeat IPC: 1.26208 cumulative IPC: 1.35482 (Simulation time: 0 hr 10 min 39 sec) 
Heartbeat CPU  0 instructions:  379000002 cycles:  248736912 heartbeat IPC: 1.42952 cumulative IPC: 1.35507 (Simulation time: 0 hr 10 min 41 sec) 
Heartbeat CPU  0 instructions:  380000000 cycles:  249468403 heartbeat IPC: 1.36707 cumulative IPC: 1.35512 (Simulation time: 0 hr 10 min 42 sec) 
Heartbeat CPU  0 instructions:  381000000 cycles:  250244492 heartbeat IPC: 1.28851 cumulative IPC: 1.35487 (Simulation time: 0 hr 10 min 44 sec) 
Heartbeat CPU  0 instructions:  382000001 cycles:  250934500 heartbeat IPC: 1.44926 cumulative IPC: 1.35518 (Simulation time: 0 hr 10 min 46 sec) 
Heartbeat CPU  0 instructions:  383000002 cycles:  251643523 heartbeat IPC: 1.41039 cumulative IPC: 1.35537 (Simulation time: 0 hr 10 min 48 sec) 
Heartbeat CPU  0 instructions:  384000000 cycles:  252349274 heartbeat IPC: 1.41693 cumulative IPC: 1.35558 (Simulation time: 0 hr 10 min 49 sec) 
Heartbeat CPU  0 instructions:  385000001 cycles:  253129611 heartbeat IPC: 1.28150 cumulative IPC: 1.35530 (Simulation time: 0 hr 10 min 51 sec) 
Heartbeat CPU  0 instructions:  386000003 cycles:  253882661 heartbeat IPC: 1.32794 cumulative IPC: 1.35520 (Simulation time: 0 hr 10 min 53 sec) 
Heartbeat CPU  0 instructions:  387000002 cycles:  254602217 heartbeat IPC: 1.38974 cumulative IPC: 1.35532 (Simulation time: 0 hr 10 min 55 sec) 
Heartbeat CPU  0 instructions:  388000000 cycles:  255327623 heartbeat IPC: 1.37854 cumulative IPC: 1.35540 (Simulation time: 0 hr 10 min 56 sec) 
Heartbeat CPU  0 instructions:  389000000 cycles:  255989225 heartbeat IPC: 1.51148 cumulative IPC: 1.35588 (Simulation time: 0 hr 10 min 58 sec) 
Heartbeat CPU  0 instructions:  390000003 cycles:  256688210 heartbeat IPC: 1.43065 cumulative IPC: 1.35613 (Simulation time: 0 hr 11 min 0 sec) 
Heartbeat CPU  0 instructions:  391000000 cycles:  257423800 heartbeat IPC: 1.35945 cumulative IPC: 1.35614 (Simulation time: 0 hr 11 min 2 sec) 
Heartbeat CPU  0 instructions:  392000000 cycles:  258146683 heartbeat IPC: 1.38335 cumulative IPC: 1.35623 (Simulation time: 0 hr 11 min 3 sec) 
Heartbeat CPU  0 instructions:  393000000 cycles:  258829350 heartbeat IPC: 1.46484 cumulative IPC: 1.35657 (Simulation time: 0 hr 11 min 5 sec) 
Heartbeat CPU  0 instructions:  394000000 cycles:  259565694 heartbeat IPC: 1.35806 cumulative IPC: 1.35658 (Simulation time: 0 hr 11 min 7 sec) 
Heartbeat CPU  0 instructions:  395000000 cycles:  260339159 heartbeat IPC: 1.29288 cumulative IPC: 1.35635 (Simulation time: 0 hr 11 min 9 sec) 
Heartbeat CPU  0 instructions:  396000000 cycles:  261077466 heartbeat IPC: 1.35445 cumulative IPC: 1.35635 (Simulation time: 0 hr 11 min 10 sec) 
Heartbeat CPU  0 instructions:  397000000 cycles:  261922716 heartbeat IPC: 1.18308 cumulative IPC: 1.35568 (Simulation time: 0 hr 11 min 12 sec) 
Heartbeat CPU  0 instructions:  398000000 cycles:  262626054 heartbeat IPC: 1.42179 cumulative IPC: 1.35589 (Simulation time: 0 hr 11 min 14 sec) 
Heartbeat CPU  0 instructions:  399000003 cycles:  263372300 heartbeat IPC: 1.34004 cumulative IPC: 1.35584 (Simulation time: 0 hr 11 min 16 sec) 
Heartbeat CPU  0 instructions:  400000000 cycles:  264088249 heartbeat IPC: 1.39674 cumulative IPC: 1.35597 (Simulation time: 0 hr 11 min 18 sec) 
Heartbeat CPU  0 instructions:  401000001 cycles:  264815462 heartbeat IPC: 1.37511 cumulative IPC: 1.35603 (Simulation time: 0 hr 11 min 19 sec) 
Heartbeat CPU  0 instructions:  402000003 cycles:  265532383 heartbeat IPC: 1.39486 cumulative IPC: 1.35616 (Simulation time: 0 hr 11 min 21 sec) 
Heartbeat CPU  0 instructions:  403000002 cycles:  266288514 heartbeat IPC: 1.32252 cumulative IPC: 1.35604 (Simulation time: 0 hr 11 min 23 sec) 
Heartbeat CPU  0 instructions:  404000000 cycles:  267061190 heartbeat IPC: 1.29420 cumulative IPC: 1.35583 (Simulation time: 0 hr 11 min 24 sec) 
Heartbeat CPU  0 instructions:  405000002 cycles:  267751700 heartbeat IPC: 1.44821 cumulative IPC: 1.35611 (Simulation time: 0 hr 11 min 26 sec) 
Heartbeat CPU  0 instructions:  406000000 cycles:  268500820 heartbeat IPC: 1.33490 cumulative IPC: 1.35604 (Simulation time: 0 hr 11 min 28 sec) 
Heartbeat CPU  0 instructions:  407000000 cycles:  269229688 heartbeat IPC: 1.37199 cumulative IPC: 1.35609 (Simulation time: 0 hr 11 min 30 sec) 
Heartbeat CPU  0 instructions:  408000000 cycles:  269929858 heartbeat IPC: 1.42822 cumulative IPC: 1.35632 (Simulation time: 0 hr 11 min 31 sec) 
Heartbeat CPU  0 instructions:  409000003 cycles:  270721544 heartbeat IPC: 1.26313 cumulative IPC: 1.35599 (Simulation time: 0 hr 11 min 33 sec) 
Heartbeat CPU  0 instructions:  410000000 cycles:  271437629 heartbeat IPC: 1.39648 cumulative IPC: 1.35612 (Simulation time: 0 hr 11 min 35 sec) 
Heartbeat CPU  0 instructions:  411000003 cycles:  272155122 heartbeat IPC: 1.39375 cumulative IPC: 1.35624 (Simulation time: 0 hr 11 min 37 sec) 
Heartbeat CPU  0 instructions:  412000000 cycles:  273033679 heartbeat IPC: 1.13823 cumulative IPC: 1.35540 (Simulation time: 0 hr 11 min 38 sec) 
Heartbeat CPU  0 instructions:  413000000 cycles:  273899119 heartbeat IPC: 1.15548 cumulative IPC: 1.35466 (Simulation time: 0 hr 11 min 40 sec) 
Heartbeat CPU  0 instructions:  414000001 cycles:  279934932 heartbeat IPC: 0.16568 cumulative IPC: 1.32439 (Simulation time: 0 hr 11 min 44 sec) 
Heartbeat CPU  0 instructions:  415000002 cycles:  283995052 heartbeat IPC: 0.24630 cumulative IPC: 1.30624 (Simulation time: 0 hr 11 min 47 sec) 
Heartbeat CPU  0 instructions:  416000000 cycles:  287705008 heartbeat IPC: 0.26954 cumulative IPC: 1.29053 (Simulation time: 0 hr 11 min 50 sec) 
Heartbeat CPU  0 instructions:  417000001 cycles:  291056201 heartbeat IPC: 0.29840 cumulative IPC: 1.27713 (Simulation time: 0 hr 11 min 53 sec) 
Heartbeat CPU  0 instructions:  418000001 cycles:  294691325 heartbeat IPC: 0.27509 cumulative IPC: 1.26267 (Simulation time: 0 hr 11 min 56 sec) 
Heartbeat CPU  0 instructions:  419000001 cycles:  302770750 heartbeat IPC: 0.12377 cumulative IPC: 1.22727 (Simulation time: 0 hr 12 min 1 sec) 
Heartbeat CPU  0 instructions:  420000000 cycles:  310734347 heartbeat IPC: 0.12557 cumulative IPC: 1.19452 (Simulation time: 0 hr 12 min 4 sec) 
Heartbeat CPU  0 instructions:  421000003 cycles:  317878958 heartbeat IPC: 0.13997 cumulative IPC: 1.16712 (Simulation time: 0 hr 12 min 8 sec) 
Heartbeat CPU  0 instructions:  422000001 cycles:  324229442 heartbeat IPC: 0.15747 cumulative IPC: 1.14434 (Simulation time: 0 hr 12 min 11 sec) 
Heartbeat CPU  0 instructions:  423000000 cycles:  330093581 heartbeat IPC: 0.17053 cumulative IPC: 1.12446 (Simulation time: 0 hr 12 min 14 sec) 
Heartbeat CPU  0 instructions:  424000000 cycles:  333449029 heartbeat IPC: 0.29802 cumulative IPC: 1.11492 (Simulation time: 0 hr 12 min 18 sec) 
Heartbeat CPU  0 instructions:  425000002 cycles:  336264955 heartbeat IPC: 0.35512 cumulative IPC: 1.10762 (Simulation time: 0 hr 12 min 21 sec) 
Heartbeat CPU  0 instructions:  426000002 cycles:  338747693 heartbeat IPC: 0.40278 cumulative IPC: 1.10171 (Simulation time: 0 hr 12 min 23 sec) 
Heartbeat CPU  0 instructions:  427000000 cycles:  341239749 heartbeat IPC: 0.40127 cumulative IPC: 1.09586 (Simulation time: 0 hr 12 min 26 sec) 
Heartbeat CPU  0 instructions:  428000000 cycles:  343685338 heartbeat IPC: 0.40890 cumulative IPC: 1.09028 (Simulation time: 0 hr 12 min 29 sec) 
Heartbeat CPU  0 instructions:  429000001 cycles:  346121883 heartbeat IPC: 0.41042 cumulative IPC: 1.08481 (Simulation time: 0 hr 12 min 31 sec) 
Heartbeat CPU  0 instructions:  430000000 cycles:  348632767 heartbeat IPC: 0.39827 cumulative IPC: 1.07918 (Simulation time: 0 hr 12 min 34 sec) 
Heartbeat CPU  0 instructions:  431000000 cycles:  355098105 heartbeat IPC: 0.15467 cumulative IPC: 1.06003 (Simulation time: 0 hr 12 min 38 sec) 
Heartbeat CPU  0 instructions:  432000000 cycles:  359246672 heartbeat IPC: 0.24105 cumulative IPC: 1.04930 (Simulation time: 0 hr 12 min 41 sec) 
Heartbeat CPU  0 instructions:  433000000 cycles:  365836718 heartbeat IPC: 0.15174 cumulative IPC: 1.03098 (Simulation time: 0 hr 12 min 46 sec) 
Heartbeat CPU  0 instructions:  434000001 cycles:  374354164 heartbeat IPC: 0.11741 cumulative IPC: 1.00751 (Simulation time: 0 hr 12 min 49 sec) 
Heartbeat CPU  0 instructions:  435000003 cycles:  381744555 heartbeat IPC: 0.13531 cumulative IPC: 0.98849 (Simulation time: 0 hr 12 min 53 sec) 
Heartbeat CPU  0 instructions:  436000000 cycles:  388449720 heartbeat IPC: 0.14914 cumulative IPC: 0.97221 (Simulation time: 0 hr 12 min 56 sec) 
Heartbeat CPU  0 instructions:  437000002 cycles:  393749691 heartbeat IPC: 0.18868 cumulative IPC: 0.96037 (Simulation time: 0 hr 12 min 59 sec) 
Heartbeat CPU  0 instructions:  438000002 cycles:  397806226 heartbeat IPC: 0.24652 cumulative IPC: 0.95221 (Simulation time: 0 hr 13 min 2 sec) 
Heartbeat CPU  0 instructions:  439000000 cycles:  401124037 heartbeat IPC: 0.30140 cumulative IPC: 0.94619 (Simulation time: 0 hr 13 min 6 sec) 
Heartbeat CPU  0 instructions:  440000000 cycles:  403749082 heartbeat IPC: 0.38095 cumulative IPC: 0.94208 (Simulation time: 0 hr 13 min 8 sec) 
Heartbeat CPU  0 instructions:  441000000 cycles:  406227909 heartbeat IPC: 0.40342 cumulative IPC: 0.93840 (Simulation time: 0 hr 13 min 11 sec) 
Heartbeat CPU  0 instructions:  442000000 cycles:  408670271 heartbeat IPC: 0.40944 cumulative IPC: 0.93487 (Simulation time: 0 hr 13 min 14 sec) 
Heartbeat CPU  0 instructions:  443000001 cycles:  411110745 heartbeat IPC: 0.40976 cumulative IPC: 0.93139 (Simulation time: 0 hr 13 min 17 sec) 
Heartbeat CPU  0 instructions:  444000000 cycles:  413609835 heartbeat IPC: 0.40015 cumulative IPC: 0.92781 (Simulation time: 0 hr 13 min 19 sec) 
Heartbeat CPU  0 instructions:  445000002 cycles:  416400193 heartbeat IPC: 0.35838 cumulative IPC: 0.92356 (Simulation time: 0 hr 13 min 22 sec) 
Heartbeat CPU  0 instructions:  446000003 cycles:  423549276 heartbeat IPC: 0.13988 cumulative IPC: 0.90884 (Simulation time: 0 hr 13 min 26 sec) 
Heartbeat CPU  0 instructions:  447000000 cycles:  428487252 heartbeat IPC: 0.20251 cumulative IPC: 0.89980 (Simulation time: 0 hr 13 min 30 sec) 
Heartbeat CPU  0 instructions:  448000000 cycles:  437827836 heartbeat IPC: 0.10706 cumulative IPC: 0.88105 (Simulation time: 0 hr 13 min 35 sec) 
Heartbeat CPU  0 instructions:  449000001 cycles:  445362072 heartbeat IPC: 0.13273 cumulative IPC: 0.86704 (Simulation time: 0 hr 13 min 38 sec) 
Heartbeat CPU  0 instructions:  450000000 cycles:  452324220 heartbeat IPC: 0.14363 cumulative IPC: 0.85474 (Simulation time: 0 hr 13 min 41 sec) 
Heartbeat CPU  0 instructions:  451000000 cycles:  457933195 heartbeat IPC: 0.17829 cumulative IPC: 0.84560 (Simulation time: 0 hr 13 min 44 sec) 
Heartbeat CPU  0 instructions:  452000000 cycles:  462422311 heartbeat IPC: 0.22276 cumulative IPC: 0.83894 (Simulation time: 0 hr 13 min 48 sec) 
Heartbeat CPU  0 instructions:  453000001 cycles:  465941267 heartbeat IPC: 0.28418 cumulative IPC: 0.83432 (Simulation time: 0 hr 13 min 51 sec) 
Heartbeat CPU  0 instructions:  454000000 cycles:  468690800 heartbeat IPC: 0.36370 cumulative IPC: 0.83129 (Simulation time: 0 hr 13 min 54 sec) 
Heartbeat CPU  0 instructions:  455000001 cycles:  471140315 heartbeat IPC: 0.40824 cumulative IPC: 0.82887 (Simulation time: 0 hr 13 min 57 sec) 
Heartbeat CPU  0 instructions:  456000000 cycles:  473606381 heartbeat IPC: 0.40550 cumulative IPC: 0.82644 (Simulation time: 0 hr 13 min 59 sec) 
Heartbeat CPU  0 instructions:  457000002 cycles:  476053172 heartbeat IPC: 0.40870 cumulative IPC: 0.82408 (Simulation time: 0 hr 14 min 2 sec) 
Heartbeat CPU  0 instructions:  458000000 cycles:  478505390 heartbeat IPC: 0.40779 cumulative IPC: 0.82174 (Simulation time: 0 hr 14 min 5 sec) 
Heartbeat CPU  0 instructions:  459000001 cycles:  481126072 heartbeat IPC: 0.38158 cumulative IPC: 0.81911 (Simulation time: 0 hr 14 min 8 sec) 
Heartbeat CPU  0 instructions:  460000000 cycles:  488020794 heartbeat IPC: 0.14504 cumulative IPC: 0.80867 (Simulation time: 0 hr 14 min 11 sec) 
Heartbeat CPU  0 instructions:  461000002 cycles:  492565682 heartbeat IPC: 0.22003 cumulative IPC: 0.80272 (Simulation time: 0 hr 14 min 15 sec) 
Heartbeat CPU  0 instructions:  462000000 cycles:  501399737 heartbeat IPC: 0.11320 cumulative IPC: 0.78944 (Simulation time: 0 hr 14 min 20 sec) 
Heartbeat CPU  0 instructions:  463000000 cycles:  509096968 heartbeat IPC: 0.12992 cumulative IPC: 0.77855 (Simulation time: 0 hr 14 min 23 sec) 
Heartbeat CPU  0 instructions:  464000000 cycles:  516109548 heartbeat IPC: 0.14260 cumulative IPC: 0.76912 (Simulation time: 0 hr 14 min 27 sec) 
Heartbeat CPU  0 instructions:  465000000 cycles:  522140140 heartbeat IPC: 0.16582 cumulative IPC: 0.76153 (Simulation time: 0 hr 14 min 30 sec) 
Heartbeat CPU  0 instructions:  466000000 cycles:  527349379 heartbeat IPC: 0.19197 cumulative IPC: 0.75541 (Simulation time: 0 hr 14 min 33 sec) 
Heartbeat CPU  0 instructions:  467000000 cycles:  530750001 heartbeat IPC: 0.29406 cumulative IPC: 0.75219 (Simulation time: 0 hr 14 min 36 sec) 
Heartbeat CPU  0 instructions:  468000000 cycles:  533506360 heartbeat IPC: 0.36280 cumulative IPC: 0.75001 (Simulation time: 0 hr 14 min 39 sec) 
Heartbeat CPU  0 instructions:  469000000 cycles:  535971814 heartbeat IPC: 0.40560 cumulative IPC: 0.74828 (Simulation time: 0 hr 14 min 42 sec) 
Heartbeat CPU  0 instructions:  470000002 cycles:  538465510 heartbeat IPC: 0.40101 cumulative IPC: 0.74654 (Simulation time: 0 hr 14 min 45 sec) 
Heartbeat CPU  0 instructions:  471000000 cycles:  540910270 heartbeat IPC: 0.40904 cumulative IPC: 0.74488 (Simulation time: 0 hr 14 min 47 sec) 
Heartbeat CPU  0 instructions:  472000000 cycles:  543342234 heartbeat IPC: 0.41119 cumulative IPC: 0.74326 (Simulation time: 0 hr 14 min 50 sec) 
Heartbeat CPU  0 instructions:  473000002 cycles:  545967129 heartbeat IPC: 0.38097 cumulative IPC: 0.74137 (Simulation time: 0 hr 14 min 53 sec) 
Heartbeat CPU  0 instructions:  474000000 cycles:  552605594 heartbeat IPC: 0.15064 cumulative IPC: 0.73368 (Simulation time: 0 hr 14 min 57 sec) 
Heartbeat CPU  0 instructions:  475000002 cycles:  556780228 heartbeat IPC: 0.23954 cumulative IPC: 0.72966 (Simulation time: 0 hr 15 min 0 sec) 
Heartbeat CPU  0 instructions:  476000000 cycles:  564640231 heartbeat IPC: 0.12723 cumulative IPC: 0.72059 (Simulation time: 0 hr 15 min 5 sec) 
Heartbeat CPU  0 instructions:  477000000 cycles:  572565455 heartbeat IPC: 0.12618 cumulative IPC: 0.71169 (Simulation time: 0 hr 15 min 8 sec) 
Heartbeat CPU  0 instructions:  478000002 cycles:  579783070 heartbeat IPC: 0.13855 cumulative IPC: 0.70399 (Simulation time: 0 hr 15 min 12 sec) 
Heartbeat CPU  0 instructions:  479000000 cycles:  586292932 heartbeat IPC: 0.15361 cumulative IPC: 0.69740 (Simulation time: 0 hr 15 min 15 sec) 
Heartbeat CPU  0 instructions:  480000000 cycles:  591909058 heartbeat IPC: 0.17806 cumulative IPC: 0.69209 (Simulation time: 0 hr 15 min 18 sec) 
Heartbeat CPU  0 instructions:  481000000 cycles:  595540452 heartbeat IPC: 0.27538 cumulative IPC: 0.68935 (Simulation time: 0 hr 15 min 22 sec) 
Heartbeat CPU  0 instructions:  482000000 cycles:  598344760 heartbeat IPC: 0.35659 cumulative IPC: 0.68767 (Simulation time: 0 hr 15 min 25 sec) 
Heartbeat CPU  0 instructions:  483000000 cycles:  600872576 heartbeat IPC: 0.39560 cumulative IPC: 0.68634 (Simulation time: 0 hr 15 min 27 sec) 
Heartbeat CPU  0 instructions:  484000000 cycles:  603364462 heartbeat IPC: 0.40130 cumulative IPC: 0.68508 (Simulation time: 0 hr 15 min 30 sec) 
Heartbeat CPU  0 instructions:  485000002 cycles:  605800821 heartbeat IPC: 0.41045 cumulative IPC: 0.68389 (Simulation time: 0 hr 15 min 33 sec) 
Heartbeat CPU  0 instructions:  486000003 cycles:  608236335 heartbeat IPC: 0.41059 cumulative IPC: 0.68271 (Simulation time: 0 hr 15 min 35 sec) 
Heartbeat CPU  0 instructions:  487000000 cycles:  610745783 heartbeat IPC: 0.39849 cumulative IPC: 0.68146 (Simulation time: 0 hr 15 min 38 sec) 
Heartbeat CPU  0 instructions:  488000000 cycles:  615939619 heartbeat IPC: 0.19254 cumulative IPC: 0.67703 (Simulation time: 0 hr 15 min 41 sec) 
Heartbeat CPU  0 instructions:  489000000 cycles:  621108564 heartbeat IPC: 0.19346 cumulative IPC: 0.67270 (Simulation time: 0 hr 15 min 45 sec) 
Heartbeat CPU  0 instructions:  490000003 cycles:  627320769 heartbeat IPC: 0.16097 cumulative IPC: 0.66726 (Simulation time: 0 hr 15 min 50 sec) 
Heartbeat CPU  0 instructions:  491000003 cycles:  636156602 heartbeat IPC: 0.11318 cumulative IPC: 0.65901 (Simulation time: 0 hr 15 min 53 sec) 
Heartbeat CPU  0 instructions:  492000000 cycles:  643526410 heartbeat IPC: 0.13569 cumulative IPC: 0.65259 (Simulation time: 0 hr 15 min 57 sec) 
Heartbeat CPU  0 instructions:  493000002 cycles:  650343361 heartbeat IPC: 0.14669 cumulative IPC: 0.64691 (Simulation time: 0 hr 16 min 0 sec) 
Heartbeat CPU  0 instructions:  494000001 cycles:  655698879 heartbeat IPC: 0.18672 cumulative IPC: 0.64289 (Simulation time: 0 hr 16 min 3 sec) 
Heartbeat CPU  0 instructions:  495000002 cycles:  659849871 heartbeat IPC: 0.24091 cumulative IPC: 0.64019 (Simulation time: 0 hr 16 min 6 sec) 
Heartbeat CPU  0 instructions:  496000000 cycles:  663218945 heartbeat IPC: 0.29682 cumulative IPC: 0.63832 (Simulation time: 0 hr 16 min 10 sec) 
Heartbeat CPU  0 instructions:  497000001 cycles:  665865463 heartbeat IPC: 0.37786 cumulative IPC: 0.63722 (Simulation time: 0 hr 16 min 13 sec) 
Heartbeat CPU  0 instructions:  498000001 cycles:  668334915 heartbeat IPC: 0.40495 cumulative IPC: 0.63630 (Simulation time: 0 hr 16 min 15 sec) 
Heartbeat CPU  0 instructions:  499000000 cycles:  670781916 heartbeat IPC: 0.40866 cumulative IPC: 0.63541 (Simulation time: 0 hr 16 min 18 sec) 
Heartbeat CPU  0 instructions:  500000000 cycles:  673219399 heartbeat IPC: 0.41026 cumulative IPC: 0.63454 (Simulation time: 0 hr 16 min 21 sec) 
Heartbeat CPU  0 instructions:  501000000 cycles:  675700554 heartbeat IPC: 0.40304 cumulative IPC: 0.63363 (Simulation time: 0 hr 16 min 24 sec) 
Heartbeat CPU  0 instructions:  502000002 cycles:  678417864 heartbeat IPC: 0.36801 cumulative IPC: 0.63250 (Simulation time: 0 hr 16 min 26 sec) 
Heartbeat CPU  0 instructions:  503000003 cycles:  685450037 heartbeat IPC: 0.14220 cumulative IPC: 0.62713 (Simulation time: 0 hr 16 min 30 sec) 
Heartbeat CPU  0 instructions:  504000000 cycles:  690136235 heartbeat IPC: 0.21339 cumulative IPC: 0.62414 (Simulation time: 0 hr 16 min 34 sec) 
Heartbeat CPU  0 instructions:  505000000 cycles:  699697174 heartbeat IPC: 0.10459 cumulative IPC: 0.61658 (Simulation time: 0 hr 16 min 39 sec) 
Heartbeat CPU  0 instructions:  506000001 cycles:  707212153 heartbeat IPC: 0.13307 cumulative IPC: 0.61111 (Simulation time: 0 hr 16 min 42 sec) 
Heartbeat CPU  0 instructions:  507000000 cycles:  714181977 heartbeat IPC: 0.14348 cumulative IPC: 0.60625 (Simulation time: 0 hr 16 min 45 sec) 
Heartbeat CPU  0 instructions:  508000000 cycles:  719894821 heartbeat IPC: 0.17504 cumulative IPC: 0.60261 (Simulation time: 0 hr 16 min 48 sec) 
Heartbeat CPU  0 instructions:  509000002 cycles:  724508104 heartbeat IPC: 0.21677 cumulative IPC: 0.60000 (Simulation time: 0 hr 16 min 52 sec) 
Heartbeat CPU  0 instructions:  510000001 cycles:  728034712 heartbeat IPC: 0.28356 cumulative IPC: 0.59837 (Simulation time: 0 hr 16 min 55 sec) 
Heartbeat CPU  0 instructions:  511000001 cycles:  730812441 heartbeat IPC: 0.36001 cumulative IPC: 0.59741 (Simulation time: 0 hr 16 min 58 sec) 
Heartbeat CPU  0 instructions:  512000000 cycles:  733248310 heartbeat IPC: 0.41053 cumulative IPC: 0.59675 (Simulation time: 0 hr 17 min 1 sec) 
Heartbeat CPU  0 instructions:  513000003 cycles:  735734819 heartbeat IPC: 0.40217 cumulative IPC: 0.59605 (Simulation time: 0 hr 17 min 3 sec) 
Heartbeat CPU  0 instructions:  514000002 cycles:  738186605 heartbeat IPC: 0.40787 cumulative IPC: 0.59539 (Simulation time: 0 hr 17 min 6 sec) 
Heartbeat CPU  0 instructions:  515000001 cycles:  740634184 heartbeat IPC: 0.40857 cumulative IPC: 0.59473 (Simulation time: 0 hr 17 min 9 sec) 
Heartbeat CPU  0 instructions:  516000000 cycles:  743260705 heartbeat IPC: 0.38073 cumulative IPC: 0.59393 (Simulation time: 0 hr 17 min 12 sec) 
Heartbeat CPU  0 instructions:  517000000 cycles:  750082941 heartbeat IPC: 0.14658 cumulative IPC: 0.58962 (Simulation time: 0 hr 17 min 15 sec) 
Heartbeat CPU  0 instructions:  518000002 cycles:  754515958 heartbeat IPC: 0.22558 cumulative IPC: 0.58735 (Simulation time: 0 hr 17 min 19 sec) 
Heartbeat CPU  0 instructions:  519000001 cycles:  763147213 heartbeat IPC: 0.11586 cumulative IPC: 0.58170 (Simulation time: 0 hr 17 min 24 sec) 
Heartbeat CPU  0 instructions:  520000000 cycles:  770989284 heartbeat IPC: 0.12752 cumulative IPC: 0.57681 (Simulation time: 0 hr 17 min 27 sec) 
Heartbeat CPU  0 instructions:  521000001 cycles:  778001657 heartbeat IPC: 0.14261 cumulative IPC: 0.57267 (Simulation time: 0 hr 17 min 30 sec) 
Heartbeat CPU  0 instructions:  522000001 cycles:  784163223 heartbeat IPC: 0.16230 cumulative IPC: 0.56926 (Simulation time: 0 hr 17 min 34 sec) 
Heartbeat CPU  0 instructions:  523000001 cycles:  789632500 heartbeat IPC: 0.18284 cumulative IPC: 0.56643 (Simulation time: 0 hr 17 min 37 sec) 
Heartbeat CPU  0 instructions:  524000000 cycles:  792974942 heartbeat IPC: 0.29918 cumulative IPC: 0.56523 (Simulation time: 0 hr 17 min 40 sec) 
Heartbeat CPU  0 instructions:  525000000 cycles:  795737329 heartbeat IPC: 0.36201 cumulative IPC: 0.56449 (Simulation time: 0 hr 17 min 43 sec) 
Heartbeat CPU  0 instructions:  526000000 cycles:  798221149 heartbeat IPC: 0.40261 cumulative IPC: 0.56396 (Simulation time: 0 hr 17 min 46 sec) 
Heartbeat CPU  0 instructions:  527000000 cycles:  800717547 heartbeat IPC: 0.40058 cumulative IPC: 0.56342 (Simulation time: 0 hr 17 min 49 sec) 
Heartbeat CPU  0 instructions:  528000000 cycles:  803163385 heartbeat IPC: 0.40886 cumulative IPC: 0.56292 (Simulation time: 0 hr 17 min 51 sec) 
Heartbeat CPU  0 instructions:  529000001 cycles:  805590224 heartbeat IPC: 0.41206 cumulative IPC: 0.56244 (Simulation time: 0 hr 17 min 54 sec) 
[...]
Heartbeat CPU  0 instructions:  545000000 cycles:  876855358 heartbeat IPC: 0.26816 cumulative IPC: 0.53357 (Simulation time: 0 hr 18 min 45 sec) 
Heartbeat CPU  0 instructions:  546000000 cycles:  883358592 heartbeat IPC: 0.15377 cumulative IPC: 0.53063 (Simulation time: 0 hr 18 min 49 sec) 
Heartbeat CPU  0 instructions:  547000000 cycles:  889284700 heartbeat IPC: 0.16874 cumulative IPC: 0.52809 (Simulation time: 0 hr 18 min 53 sec) 
Heartbeat CPU  0 instructions:  548000000 cycles:  898370936 heartbeat IPC: 0.11006 cumulative IPC: 0.52365 (Simulation time: 0 hr 18 min 57 sec) 
Heartbeat CPU  0 instructions:  549000000 cycles:  905749039 heartbeat IPC: 0.13554 cumulative IPC: 0.52034 (Simulation time: 0 hr 19 min 1 sec) 
Heartbeat CPU  0 instructions:  550000001 cycles:  912605650 heartbeat IPC: 0.14584 cumulative IPC: 0.51738 (Simulation time: 0 hr 19 min 4 sec) 
Heartbeat CPU  0 instructions:  551000000 cycles:  917981814 heartbeat IPC: 0.18601 cumulative IPC: 0.51535 (Simulation time: 0 hr 19 min 7 sec) 
Heartbeat CPU  0 instructions:  552000000 cycles:  922172788 heartbeat IPC: 0.23861 cumulative IPC: 0.51403 (Simulation time: 0 hr 19 min 10 sec) 
Heartbeat CPU  0 instructions:  553000000 cycles:  925562887 heartbeat IPC: 0.29498 cumulative IPC: 0.51319 (Simulation time: 0 hr 19 min 14 sec) 
Heartbeat CPU  0 instructions:  554000001 cycles:  928232299 heartbeat IPC: 0.37461 cumulative IPC: 0.51277 (Simulation time: 0 hr 19 min 17 sec) 
Heartbeat CPU  0 instructions:  555000002 cycles:  930705444 heartbeat IPC: 0.40434 cumulative IPC: 0.51247 (Simulation time: 0 hr 19 min 19 sec) 
Heartbeat CPU  0 instructions:  556000000 cycles:  933143201 heartbeat IPC: 0.41021 cumulative IPC: 0.51219 (Simulation time: 0 hr 19 min 22 sec) 
Heartbeat CPU  0 instructions:  557000000 cycles:  935588451 heartbeat IPC: 0.40896 cumulative IPC: 0.51190 (Simulation time: 0 hr 19 min 25 sec) 
Heartbeat CPU  0 instructions:  558000003 cycles:  938073721 heartbeat IPC: 0.40237 cumulative IPC: 0.51160 (Simulation time: 0 hr 19 min 28 sec) 
Heartbeat CPU  0 instructions:  559000003 cycles:  940630796 heartbeat IPC: 0.39107 cumulative IPC: 0.51126 (Simulation time: 0 hr 19 min 30 sec) 
Heartbeat CPU  0 instructions:  560000000 cycles:  947774177 heartbeat IPC: 0.13999 cumulative IPC: 0.50833 (Simulation time: 0 hr 19 min 34 sec) 
Heartbeat CPU  0 instructions:  561000001 cycles:  952452596 heartbeat IPC: 0.21375 cumulative IPC: 0.50681 (Simulation time: 0 hr 19 min 38 sec) 
Heartbeat CPU  0 instructions:  562000002 cycles:  961912648 heartbeat IPC: 0.10571 cumulative IPC: 0.50268 (Simulation time: 0 hr 19 min 43 sec) 
Heartbeat CPU  0 instructions:  563000003 cycles:  969585436 heartbeat IPC: 0.13033 cumulative IPC: 0.49960 (Simulation time: 0 hr 19 min 46 sec) 
Heartbeat CPU  0 instructions:  564000000 cycles:  976491544 heartbeat IPC: 0.14480 cumulative IPC: 0.49698 (Simulation time: 0 hr 19 min 49 sec) 
Heartbeat CPU  0 instructions:  565000003 cycles:  982267481 heartbeat IPC: 0.17313 cumulative IPC: 0.49498 (Simulation time: 0 hr 19 min 53 sec) 
Heartbeat CPU  0 instructions:  566000000 cycles:  986939510 heartbeat IPC: 0.21404 cumulative IPC: 0.49359 (Simulation time: 0 hr 19 min 56 sec) 
Heartbeat CPU  0 instructions:  567000000 cycles:  990459368 heartbeat IPC: 0.28410 cumulative IPC: 0.49282 (Simulation time: 0 hr 19 min 59 sec) 
Heartbeat CPU  0 instructions:  568000000 cycles:  993225005 heartbeat IPC: 0.36158 cumulative IPC: 0.49243 (Simulation time: 0 hr 20 min 2 sec) 
Heartbeat CPU  0 instructions:  569000000 cycles:  995655490 heartbeat IPC: 0.41144 cumulative IPC: 0.49223 (Simulation time: 0 hr 20 min 5 sec) 
Heartbeat CPU  0 instructions:  570000000 cycles:  998133145 heartbeat IPC: 0.40361 cumulative IPC: 0.49200 (Simulation time: 0 hr 20 min 7 sec) 
Heartbeat CPU  0 instructions:  571000001 cycles: 1000582961 heartbeat IPC: 0.40819 cumulative IPC: 0.49178 (Simulation time: 0 hr 20 min 10 sec) 
Heartbeat CPU  0 instructions:  572000000 cycles: 1003020026 heartbeat IPC: 0.41033 cumulative IPC: 0.49158 (Simulation time: 0 hr 20 min 13 sec) 
Heartbeat CPU  0 instructions:  573000002 cycles: 1005648999 heartbeat IPC: 0.38038 cumulative IPC: 0.49127 (Simulation time: 0 hr 20 min 16 sec) 
Heartbeat CPU  0 instructions:  574000000 cycles: 1012451970 heartbeat IPC: 0.14699 cumulative IPC: 0.48886 (Simulation time: 0 hr 20 min 19 sec) 
Heartbeat CPU  0 instructions:  575000002 cycles: 1016842547 heartbeat IPC: 0.22776 cumulative IPC: 0.48768 (Simulation time: 0 hr 20 min 23 sec) 
Heartbeat CPU  0 instructions:  576000000 cycles: 1025461184 heartbeat IPC: 0.11603 cumulative IPC: 0.48442 (Simulation time: 0 hr 20 min 28 sec) 
Heartbeat CPU  0 instructions:  577000003 cycles: 1033362373 heartbeat IPC: 0.12656 cumulative IPC: 0.48157 (Simulation time: 0 hr 20 min 31 sec) 
Heartbeat CPU  0 instructions:  578000000 cycles: 1040383293 heartbeat IPC: 0.14243 cumulative IPC: 0.47918 (Simulation time: 0 hr 20 min 35 sec) 
Heartbeat CPU  0 instructions:  579000001 cycles: 1046551969 heartbeat IPC: 0.16211 cumulative IPC: 0.47723 (Simulation time: 0 hr 20 min 38 sec) 
Heartbeat CPU  0 instructions:  580000000 cycles: 1052078005 heartbeat IPC: 0.18096 cumulative IPC: 0.47561 (Simulation time: 0 hr 20 min 41 sec) 
Heartbeat CPU  0 instructions:  581000003 cycles: 1055409912 heartbeat IPC: 0.30013 cumulative IPC: 0.47503 (Simulation time: 0 hr 20 min 44 sec) 
Heartbeat CPU  0 instructions:  582000003 cycles: 1058171387 heartbeat IPC: 0.36213 cumulative IPC: 0.47472 (Simulation time: 0 hr 20 min 47 sec) 
Heartbeat CPU  0 instructions:  583000002 cycles: 1060658544 heartbeat IPC: 0.40207 cumulative IPC: 0.47455 (Simulation time: 0 hr 20 min 50 sec) 
Heartbeat CPU  0 instructions:  584000000 cycles: 1063161976 heartbeat IPC: 0.39945 cumulative IPC: 0.47436 (Simulation time: 0 hr 20 min 53 sec) 
Heartbeat CPU  0 instructions:  585000002 cycles: 1065598741 heartbeat IPC: 0.41038 cumulative IPC: 0.47421 (Simulation time: 0 hr 20 min 55 sec) 
Heartbeat CPU  0 instructions:  586000002 cycles: 1068025413 heartbeat IPC: 0.41209 cumulative IPC: 0.47406 (Simulation time: 0 hr 20 min 58 sec) 
Heartbeat CPU  0 instructions:  587000000 cycles: 1070556203 heartbeat IPC: 0.39513 cumulative IPC: 0.47387 (Simulation time: 0 hr 21 min 1 sec) 
Heartbeat CPU  0 instructions:  588000000 cycles: 1077207692 heartbeat IPC: 0.15034 cumulative IPC: 0.47179 (Simulation time: 0 hr 21 min 5 sec) 
Heartbeat CPU  0 instructions:  589000002 cycles: 1081310331 heartbeat IPC: 0.24375 cumulative IPC: 0.47089 (Simulation time: 0 hr 21 min 8 sec) 
Heartbeat CPU  0 instructions:  590000002 cycles: 1088706836 heartbeat IPC: 0.13520 cumulative IPC: 0.46851 (Simulation time: 0 hr 21 min 13 sec) 
Heartbeat CPU  0 instructions:  591000000 cycles: 1097022660 heartbeat IPC: 0.12025 cumulative IPC: 0.46577 (Simulation time: 0 hr 21 min 16 sec) 
Heartbeat CPU  0 instructions:  592000000 cycles: 1104327892 heartbeat IPC: 0.13689 cumulative IPC: 0.46350 (Simulation time: 0 hr 21 min 20 sec) 
Heartbeat CPU  0 instructions:  593000003 cycles: 1110906871 heartbeat IPC: 0.15200 cumulative IPC: 0.46158 (Simulation time: 0 hr 21 min 23 sec) 
Heartbeat CPU  0 instructions:  594000000 cycles: 1116348580 heartbeat IPC: 0.18377 cumulative IPC: 0.46018 (Simulation time: 0 hr 21 min 26 sec) 
Heartbeat CPU  0 instructions:  595000001 cycles: 1120145750 heartbeat IPC: 0.26335 cumulative IPC: 0.45948 (Simulation time: 0 hr 21 min 30 sec) 
Heartbeat CPU  0 instructions:  596000000 cycles: 1123146141 heartbeat IPC: 0.33329 cumulative IPC: 0.45913 (Simulation time: 0 hr 21 min 33 sec) 
Heartbeat CPU  0 instructions:  597000003 cycles: 1125692460 heartbeat IPC: 0.39272 cumulative IPC: 0.45897 (Simulation time: 0 hr 21 min 35 sec) 
Heartbeat CPU  0 instructions:  598000002 cycles: 1128187390 heartbeat IPC: 0.40081 cumulative IPC: 0.45884 (Simulation time: 0 hr 21 min 38 sec) 
Heartbeat CPU  0 instructions:  599000001 cycles: 1130625742 heartbeat IPC: 0.41011 cumulative IPC: 0.45873 (Simulation time: 0 hr 21 min 41 sec) 
Heartbeat CPU  0 instructions:  600000000 cycles: 1133069207 heartbeat IPC: 0.40925 cumulative IPC: 0.45862 (Simulation time: 0 hr 21 min 43 sec) 
Finished CPU 0 instructions: 500000000 cycles: 1090225115 cumulative IPC: 0.45862 (Simulation time: 0 hr 21 min 43 sec) 

ChampSim completed all CPUs

[ROI Statistics]
Core_0_instructions 500000000
Core_0_cycles 1090225115
Core_0_IPC 0.45862

Core_0_branch_prediction_accuracy 99.11262
Core_0_branch_MPKI 1.69223
Core_0_average_ROB_occupancy_at_mispredict 138.77364

Core_0_L1D_total_access 70375236
Core_0_L1D_total_hit 47421490
Core_0_L1D_total_miss 22953746
Core_0_L1D_loads 33784234
Core_0_L1D_load_hit 28411078
Core_0_L1D_load_miss 5373156
Core_0_L1D_RFOs 36591002
Core_0_L1D_RFO_hit 19010412
Core_0_L1D_RFO_miss 17580590
Core_0_L1D_prefetches 0
Core_0_L1D_prefetch_hit 0
Core_0_L1D_prefetch_miss 0
Core_0_L1D_writebacks 0
Core_0_L1D_writeback_hit 0
Core_0_L1D_writeback_miss 0
Core_0_L1D_prefetch_requested 0
Core_0_L1D_prefetch_dropped 0
Core_0_L1D_prefetch_issued 0
Core_0_L1D_prefetch_filled 0
Core_0_L1D_prefetch_useful 0
Core_0_L1D_prefetch_useless 0
Core_0_L1D_prefetch_late 0
Core_0_L1D_average_miss_latency 121.09627

Core_0_L1D_rq_access 60951529
Core_0_L1D_rq_forward 0
Core_0_L1D_rq_merged 24784487
Core_0_L1D_rq_to_cache 36127959
Core_0_L1D_rq_full 0

Core_0_L1D_wq_access 156857733
Core_0_L1D_wq_forward 39083
Core_0_L1D_wq_merged 46215
Core_0_L1D_wq_to_cache 156811518
Core_0_L1D_wq_full 2542152

Core_0_L1D_pq_access 0
Core_0_L1D_pq_forward 0
Core_0_L1D_pq_merged 0
Core_0_L1D_pq_to_cache 0
Core_0_L1D_pq_full 0

Core_0_L1D_acc_epochs 1082634
Core_0_L1D_acc_level_0 1082634
Core_0_L1D_acc_level_1 0
Core_0_L1D_acc_level_2 0
Core_0_L1D_acc_level_3 0
Core_0_L1D_acc_level_4 0
Core_0_L1D_acc_level_5 0
Core_0_L1D_acc_level_6 0
Core_0_L1D_acc_level_7 0
Core_0_L1D_acc_level_8 0
Core_0_L1D_acc_level_9 0

Core_0_L1I_total_access 122908180
Core_0_L1I_total_hit 122889038
Core_0_L1I_total_miss 19142
Core_0_L1I_loads 122908180
Core_0_L1I_load_hit 122889038
Core_0_L1I_load_miss 19142
Core_0_L1I_RFOs 0
Core_0_L1I_RFO_hit 0
Core_0_L1I_RFO_miss 0
Core_0_L1I_prefetches 0
Core_0_L1I_prefetch_hit 0
Core_0_L1I_prefetch_miss 0
Core_0_L1I_writebacks 0
Core_0_L1I_writeback_hit 0
Core_0_L1I_writeback_miss 0
Core_0_L1I_prefetch_requested 0
Core_0_L1I_prefetch_dropped 0
Core_0_L1I_prefetch_issued 0
Core_0_L1I_prefetch_filled 0
Core_0_L1I_prefetch_useful 0
Core_0_L1I_prefetch_useless 0
Core_0_L1I_prefetch_late 0
Core_0_L1I_average_miss_latency 44.11258

Core_0_L1I_rq_access 500000003
Core_0_L1I_rq_forward 0
Core_0_L1I_rq_merged 377067106
Core_0_L1I_rq_to_cache 122932897
Core_0_L1I_rq_full 0

Core_0_L1I_wq_access 0
Core_0_L1I_wq_forward 0
Core_0_L1I_wq_merged 0
Core_0_L1I_wq_to_cache 0
Core_0_L1I_wq_full 0

Core_0_L1I_pq_access 0
Core_0_L1I_pq_forward 0
Core_0_L1I_pq_merged 0
Core_0_L1I_pq_to_cache 0
Core_0_L1I_pq_full 0

Core_0_L1I_acc_epochs 1082634
Core_0_L1I_acc_level_0 1082634
Core_0_L1I_acc_level_1 0
Core_0_L1I_acc_level_2 0
Core_0_L1I_acc_level_3 0
Core_0_L1I_acc_level_4 0
Core_0_L1I_acc_level_5 0
Core_0_L1I_acc_level_6 0
Core_0_L1I_acc_level_7 0
Core_0_L1I_acc_level_8 0
Core_0_L1I_acc_level_9 0

Core_0_L2C_total_access 42983825
Core_0_L2C_total_hit 20186459
Core_0_L2C_total_miss 22797366
Core_0_L2C_loads 5392298
Core_0_L2C_load_hit 1337302
Core_0_L2C_load_miss 4054996
Core_0_L2C_RFOs 17580589
Core_0_L2C_RFO_hit 11497
Core_0_L2C_RFO_miss 17569092
Core_0_L2C_prefetches 1393584
Core_0_L2C_prefetch_hit 220470
Core_0_L2C_prefetch_miss 1173114
Core_0_L2C_writebacks 18617354
Core_0_L2C_writeback_hit 18617190
Core_0_L2C_writeback_miss 164
Core_0_L2C_prefetch_requested 13435519
Core_0_L2C_prefetch_dropped 0
Core_0_L2C_prefetch_issued 13435519
Core_0_L2C_prefetch_filled 1173238
Core_0_L2C_prefetch_useful 1167142
Core_0_L2C_prefetch_useless 6091
Core_0_L2C_prefetch_late 171306
Core_0_L2C_average_miss_latency 110.13921

Core_0_L2C_rq_access 22972888
Core_0_L2C_rq_forward 0
Core_0_L2C_rq_merged 0
Core_0_L2C_rq_to_cache 22972887
Core_0_L2C_rq_full 0

Core_0_L2C_wq_access 18617354
Core_0_L2C_wq_forward 3
Core_0_L2C_wq_merged 0
Core_0_L2C_wq_to_cache 18617354
Core_0_L2C_wq_full 0

Core_0_L2C_pq_access 13435519
Core_0_L2C_pq_forward 0
Core_0_L2C_pq_merged 357835
Core_0_L2C_pq_to_cache 13077682
Core_0_L2C_pq_full 0

Core_0_L2C_acc_epochs 1082634
Core_0_L2C_acc_level_0 720878
Core_0_L2C_acc_level_1 35459
Core_0_L2C_acc_level_2 35077
Core_0_L2C_acc_level_3 28134
Core_0_L2C_acc_level_4 23862
Core_0_L2C_acc_level_5 44239
Core_0_L2C_acc_level_6 28271
Core_0_L2C_acc_level_7 34558
Core_0_L2C_acc_level_8 35642
Core_0_L2C_acc_level_9 96514

Core_0_LLC_total_access 50811540
Core_0_LLC_total_hit 41146922
Core_0_LLC_total_miss 9664618
Core_0_LLC_loads 3884836
Core_0_LLC_load_hit 1473061
Core_0_LLC_load_miss 2411775
Core_0_LLC_RFOs 17567946
Core_0_LLC_RFO_hit 15313816
Core_0_LLC_RFO_miss 2254130
Core_0_LLC_prefetches 10752560
Core_0_LLC_prefetch_hit 7873476
Core_0_LLC_prefetch_miss 2879084
Core_0_LLC_writebacks 18606198
Core_0_LLC_writeback_hit 16486569
Core_0_LLC_writeback_miss 2119629
Core_0_LLC_prefetch_requested 0
Core_0_LLC_prefetch_dropped 0
Core_0_LLC_prefetch_issued 0
Core_0_LLC_prefetch_filled 2883766
Core_0_LLC_prefetch_useful 1231007
Core_0_LLC_prefetch_useless 1634259
Core_0_LLC_prefetch_late 161581
Core_0_LLC_average_miss_latency 274.51288

Core_0_LLC_rq_access 21452782
Core_0_LLC_rq_forward 0
Core_0_LLC_rq_merged 0
Core_0_LLC_rq_to_cache 21452782
Core_0_LLC_rq_full 0

Core_0_LLC_wq_access 18606200
Core_0_LLC_wq_forward 0
Core_0_LLC_wq_merged 0
Core_0_LLC_wq_to_cache 18606200
Core_0_LLC_wq_full 0

Core_0_LLC_pq_access 12733259
Core_0_LLC_pq_forward 0
Core_0_LLC_pq_merged 344566
Core_0_LLC_pq_to_cache 12388693
Core_0_LLC_pq_full 0

Core_0_LLC_acc_epochs 1106513
Core_0_LLC_acc_level_0 394942
Core_0_LLC_acc_level_1 99220
Core_0_LLC_acc_level_2 112214
Core_0_LLC_acc_level_3 101983
Core_0_LLC_acc_level_4 75521
Core_0_LLC_acc_level_5 84107
Core_0_LLC_acc_level_6 66071
Core_0_LLC_acc_level_7 48583
Core_0_LLC_acc_level_8 37367
Core_0_LLC_acc_level_9 86505

Core_0_major_page_fault 0
Core_0_minor_page_fault 13167

spp.pref.total 13435519
spp.pref.at_L2 1397844
spp.pref.at_LLC 12037675

spp.depth.max 10
spp.depth.min 0
spp.depth.avg 2

spp.breadth.max 2
spp.breadth.min 0
spp.breadth.avg 0

delta_1 11994148
delta_-1 439704
delta_2 394688
delta_5 274984
delta_6 179841
delta_4 114183
delta_3 113205
delta_-2 23405
delta_-3 10736
delta_8 10346
delta_-6 9341
delta_7 9107
delta_12 8585
delta_-4 7154
delta_-5 5971
delta_-12 5898
delta_10 5747
delta_-8 4354
delta_11 3900
delta_-11 3693
delta_-7 3405
delta_16 2983
delta_18 2846
delta_-10 2752
delta_30 2677
delta_-9 2648
delta_-28 2392
delta_-39 2288
delta_-16 2207
delta_22 1947
delta_39 1943
delta_-14 1850
delta_24 1810
delta_-20 1765
delta_9 1553
delta_15 984
delta_-35 900
delta_25 844
delta_14 787
delta_-34 669
delta_19 581
delta_26 473
delta_29 472
delta_21 457
delta_-22 435
delta_20 423
delta_-15 416
delta_-18 346
delta_17 320
delta_36 304
delta_-44 259
delta_28 221
delta_34 208
delta_-31 170
delta_-19 163
delta_-29 150
delta_-24 137
delta_23 132
delta_38 98
delta_-30 94
delta_-23 66
delta_27 61
delta_13 53
delta_-36 50
delta_-13 50
delta_-27 43
delta_-42 41
delta_32 39
delta_-21 36
delta_35 33
delta_31 32
delta_-25 31
delta_-33 26
delta_33 26
delta_-54 26
delta_-26 20
delta_54 20
delta_-55 19
delta_57 19
delta_-37 18
delta_56 16
delta_-56 14
delta_-52 11
delta_44 10
delta_-49 9
delta_-40 8
delta_53 8
delta_51 6
delta_-43 6
delta_42 6
delta_-51 5
delta_-48 5
delta_50 4
delta_-46 4
delta_-17 3
delta_45 2

depth_1_delta_1 2147460
depth_1_delta_-1 388108
depth_1_delta_2 325837
depth_1_delta_5 154182
depth_1_delta_6 109355
depth_1_delta_4 103854
depth_1_delta_3 101446
depth_1_delta_-2 21805
depth_1_delta_-3 10326
depth_1_delta_8 8947
depth_1_delta_-6 8677
depth_1_delta_7 8234
depth_1_delta_12 8007
depth_1_delta_-4 6516
depth_1_delta_-12 5580
depth_1_delta_-5 5558
depth_1_delta_10 4840
depth_1_delta_-8 3859
depth_1_delta_-11 3672
depth_1_delta_11 3658
depth_1_delta_16 2973
depth_1_delta_-7 2908
depth_1_delta_18 2775
depth_1_delta_30 2652
depth_1_delta_-10 2590
depth_1_delta_-9 2585
depth_1_delta_-16 2138
depth_1_delta_-28 2008
depth_1_delta_-14 1849
depth_1_delta_22 1771
depth_1_delta_-20 1748
depth_1_delta_24 1726
depth_1_delta_-39 1566
depth_1_delta_9 1506
depth_1_delta_39 1183
depth_1_delta_-35 898
depth_1_delta_15 855
depth_1_delta_25 831
depth_1_delta_14 702
depth_1_delta_-34 668
depth_1_delta_19 581
depth_1_delta_29 458
depth_1_delta_26 451
depth_1_delta_20 423
depth_1_delta_-22 419
depth_1_delta_-15 416
depth_1_delta_21 392
depth_1_delta_-18 331
depth_1_delta_36 302
depth_1_delta_17 290
depth_1_delta_-44 259
depth_1_delta_28 216
depth_1_delta_34 208
depth_1_delta_-31 170
depth_1_delta_-19 160
depth_1_delta_-29 150
depth_1_delta_-24 123
depth_1_delta_23 121
depth_1_delta_38 98
depth_1_delta_-30 84
depth_1_delta_-23 66
depth_1_delta_13 53
depth_1_delta_-36 50
depth_1_delta_-13 49
depth_1_delta_27 46
depth_1_delta_-42 41
depth_1_delta_-21 36
depth_1_delta_-27 35
depth_1_delta_35 33
depth_1_delta_31 32
depth_1_delta_32 32
depth_1_delta_-25 31
depth_1_delta_33 26
depth_1_delta_-33 26
depth_1_delta_-26 20
depth_1_delta_-55 19
depth_1_delta_57 19
depth_1_delta_-54 19
depth_1_delta_-37 18
depth_1_delta_56 16
depth_1_delta_54 14
depth_1_delta_-56 14
depth_1_delta_-52 11
depth_1_delta_44 10
depth_1_delta_-49 9
depth_1_delta_53 8
depth_1_delta_-40 8
depth_1_delta_-43 6
depth_1_delta_42 6
depth_1_delta_51 6
depth_1_delta_-48 5
depth_1_delta_-51 5
depth_1_delta_-46 4
depth_1_delta_50 4
depth_1_delta_-17 3
depth_1_delta_45 2
depth_2_delta_1 1887521
depth_2_delta_5 81980
depth_2_delta_2 62048
depth_2_delta_-1 49931
depth_2_delta_6 49164
depth_2_delta_3 11712
depth_2_delta_4 9359
depth_2_delta_-2 1592
depth_2_delta_8 1386
depth_2_delta_10 881
depth_2_delta_7 870
depth_2_delta_39 737
depth_2_delta_-39 707
depth_2_delta_-6 609
depth_2_delta_-4 607
depth_2_delta_12 546
depth_2_delta_-7 496
depth_2_delta_-8 495
depth_2_delta_-5 411
depth_2_delta_-3 410
depth_2_delta_-28 384
depth_2_delta_-12 318
depth_2_delta_11 223
depth_2_delta_22 176
depth_2_delta_-10 162
depth_2_delta_15 129
depth_2_delta_14 85
depth_2_delta_24 84
depth_2_delta_18 71
depth_2_delta_-16 69
depth_2_delta_21 65
depth_2_delta_-9 63
depth_2_delta_9 47
depth_2_delta_17 30
depth_2_delta_30 25
depth_2_delta_26 22
depth_2_delta_-11 21
depth_2_delta_-20 17
depth_2_delta_-22 16
depth_2_delta_-18 15
depth_2_delta_27 15
depth_2_delta_29 14
depth_2_delta_-24 14
depth_2_delta_25 13
depth_2_delta_23 11
depth_2_delta_-30 10
depth_2_delta_16 10
depth_2_delta_-27 8
depth_2_delta_32 7
depth_2_delta_-54 7
depth_2_delta_54 6
depth_2_delta_28 5
depth_2_delta_-19 3
depth_2_delta_36 2
depth_2_delta_-35 2
depth_2_delta_-14 1
depth_2_delta_-13 1
depth_2_delta_-34 1
depth_3_delta_1 1786593
depth_3_delta_5 31627
depth_3_delta_6 19631
depth_3_delta_2 6717
depth_3_delta_-1 1554
depth_3_delta_4 968
depth_3_delta_-6 55
depth_3_delta_3 47
depth_3_delta_12 32
depth_3_delta_-4 31
depth_3_delta_10 26
depth_3_delta_39 23
depth_3_delta_11 19
depth_3_delta_-39 15
depth_3_delta_8 13
depth_3_delta_-2 8
depth_3_delta_7 3
depth_3_delta_-5 2
depth_3_delta_-7 1
depth_4_delta_1 1709338
depth_4_delta_5 7116
depth_4_delta_6 1585
depth_4_delta_-1 111
depth_4_delta_2 86
depth_4_delta_4 2
depth_5_delta_1 1617337
depth_5_delta_6 106
depth_5_delta_5 79
depth_6_delta_1 1338009
depth_7_delta_1 869224
depth_8_delta_1 457431
depth_9_delta_1 178808
depth_10_delta_1 2427

Channel_0_RQ_row_buffer_hit 2022687
Channel_0_RQ_row_buffer_miss 5522237
Channel_0_WQ_row_buffer_hit 1073905
Channel_0_WQ_row_buffer_miss 2228252
Channel_0_WQ_full 0
Channel_0_dbus_congested 7245085

avg_congested_cycle 22

DRAM_bw_pochs 4426052
DRAM_bw_level_0 2591268
DRAM_bw_level_1 926466
DRAM_bw_level_2 321538
DRAM_bw_level_3 586780
