*************************************************
   ChampSim Multicore Out-of-Order Simulator
   Last compiled: Dec 11 2024 17:59:53
*************************************************
parsing config file: /home/functionmain/桌面/Pythia/config/bingo.ini

trace_0 /home/functionmain/桌面/Pythia/traces/403.gcc-16B.champsimtrace.xz
adding L2C_PREFETCHER: Bingo
Initialize SHIP state
warmup_instructions 100000000
simulation_instructions 500000000
champsim_seed 169
measure_ipc 0
measure_ipc_epoch 1000
measure_dram_bw 1
measure_dram_bw_epoch 256
measure_cache_acc 1
measure_cache_acc_epoch 1024
l1d_perfect 0
l2c_perfect 0
llc_perfect 0
l1d_semi_perfect 0
l2c_semi_perfect 0
llc_semi_perfect 0
semi_perfect_cache_page_buffer_size 64

num_cpus 1
cpu_freq 4000
dram_io_freq 9600
page_size 4096
block_size 64
max_read_per_cycle 8
max_fill_per_cycle 1
dram_channels 1
log2_dram_channels 0
dram_ranks 1
dram_banks 8
dram_rows 65536
dram_columns 128
dram_row_size 8
dram_size 4096
dram_pages 1048576

fetch_width 6
decode_width 6
exec_width 4
lq_width 2
sq_width 2
retire_width 4
scheduler_size 128
branch_mispredict_penalty 20
rob_size 256
lq_size 72
sq_size 56
num_instr_destinations_sparc 4
num_instr_destinations 2
num_instr_sources 4

itlb_set 16
itlb_way 8
itlb_rq_size 16
itlb_wq_size 16
itlb_pq_size 0
itlb_mshr_size 8
itlb_latency 1

dtlb_set 16
dtlb_way 4
dtlb_rq_size 16
dtlb_wq_size 16
dtlb_pq_size 0
dtlb_mshr_size 8
dtlb_latency 1

stlb_set 128
stlb_way 12
stlb_rq_size 32
stlb_wq_size 32
stlb_pq_size 0
stlb_mshr_size 16
stlb_latency 8

l1i_size 32
l1i_set 64
l1i_way 8
l1i_rq_size 64
l1i_wq_size 64
l1i_pq_size 8
l1i_mshr_size 8
l1i_latency 1

l1d_size 32
l1d_set 64
l1d_way 8
l1d_rq_size 64
l1d_wq_size 64
l1d_pq_size 8
l1d_mshr_size 16
l1d_latency 4

l2c_size 256
l2c_set 512
l2c_way 8
l2c_rq_size 32
l2c_wq_size 32
l2c_pq_size 32
l2c_mshr_size 32
l2c_latency 10

llc_size 2048
llc_set 2048
llc_way 16
llc_rq_size 32
llc_wq_size 32
llc_pq_size 32
llc_mshr_size 64
llc_latency 20

dram_channel_width 8
dram_wq_size 64
dram_rq_size 64
tRP 15
tRCD 15
tCAS 12.5
dram_dbus_turn_around_time 30
dram_write_high_wm 56
dram_write_low_wm 48
min_dram_writes_per_switch 16
dram_mtps 9600
dram_dbus_return_time 3

bingo_region_size 2048
bingo_pattern_len 32
bingo_pc_width 16
bingo_min_addr_width 5
bingo_max_addr_width 16
bingo_ft_size 64
bingo_at_size 128
bingo_pht_size 4096
bingo_pht_ways 16
bingo_pf_streamer_size 128
bingo_debug_level 0
bingo_l1d_thresh 1.01
bingo_l2c_thresh 0.8
bingo_llc_thresh 0.05
bingo_pc_address_fill_level L2


Heartbeat CPU  0 instructions:    1000000 cycles:     453084 heartbeat IPC: 2.20710 cumulative IPC: 2.20710 (Simulation time: 0 hr 0 min 1 sec) 
Heartbeat CPU  0 instructions:    2000000 cycles:     861369 heartbeat IPC: 2.44927 cumulative IPC: 2.32189 (Simulation time: 0 hr 0 min 3 sec) 
Heartbeat CPU  0 instructions:    3000003 cycles:    1299566 heartbeat IPC: 2.28209 cumulative IPC: 2.30847 (Simulation time: 0 hr 0 min 4 sec) 
Heartbeat CPU  0 instructions:    4000000 cycles:    1765828 heartbeat IPC: 2.14471 cumulative IPC: 2.26523 (Simulation time: 0 hr 0 min 6 sec) 
Heartbeat CPU  0 instructions:    5000000 cycles:    2181333 heartbeat IPC: 2.40671 cumulative IPC: 2.29218 (Simulation time: 0 hr 0 min 7 sec) 
Heartbeat CPU  0 instructions:    6000000 cycles:    2658686 heartbeat IPC: 2.09489 cumulative IPC: 2.25675 (Simulation time: 0 hr 0 min 9 sec) 
Heartbeat CPU  0 instructions:    7000002 cycles:    3082332 heartbeat IPC: 2.36047 cumulative IPC: 2.27101 (Simulation time: 0 hr 0 min 10 sec) 
Heartbeat CPU  0 instructions:    8000000 cycles:    3488536 heartbeat IPC: 2.46181 cumulative IPC: 2.29323 (Simulation time: 0 hr 0 min 12 sec) 
Heartbeat CPU  0 instructions:    9000003 cycles:    3937202 heartbeat IPC: 2.22884 cumulative IPC: 2.28589 (Simulation time: 0 hr 0 min 13 sec) 
Heartbeat CPU  0 instructions:   10000001 cycles:    4377880 heartbeat IPC: 2.26923 cumulative IPC: 2.28421 (Simulation time: 0 hr 0 min 15 sec) 
Heartbeat CPU  0 instructions:   11000000 cycles:    4782094 heartbeat IPC: 2.47393 cumulative IPC: 2.30025 (Simulation time: 0 hr 0 min 16 sec) 
Heartbeat CPU  0 instructions:   12000000 cycles:    5196328 heartbeat IPC: 2.41409 cumulative IPC: 2.30932 (Simulation time: 0 hr 0 min 18 sec) 
Heartbeat CPU  0 instructions:   13000001 cycles:    5649470 heartbeat IPC: 2.20682 cumulative IPC: 2.30110 (Simulation time: 0 hr 0 min 19 sec) 
Heartbeat CPU  0 instructions:   14000003 cycles:    6084781 heartbeat IPC: 2.29721 cumulative IPC: 2.30082 (Simulation time: 0 hr 0 min 21 sec) 
Heartbeat CPU  0 instructions:   15000000 cycles:    6489885 heartbeat IPC: 2.46849 cumulative IPC: 2.31129 (Simulation time: 0 hr 0 min 22 sec) 
Heartbeat CPU  0 instructions:   16000000 cycles:    6910111 heartbeat IPC: 2.37967 cumulative IPC: 2.31545 (Simulation time: 0 hr 0 min 24 sec) 
Heartbeat CPU  0 instructions:   17000001 cycles:    7353091 heartbeat IPC: 2.25744 cumulative IPC: 2.31195 (Simulation time: 0 hr 0 min 25 sec) 
Heartbeat CPU  0 instructions:   18000000 cycles:    7788399 heartbeat IPC: 2.29722 cumulative IPC: 2.31113 (Simulation time: 0 hr 0 min 27 sec) 
Heartbeat CPU  0 instructions:   19000001 cycles:    8188992 heartbeat IPC: 2.49630 cumulative IPC: 2.32019 (Simulation time: 0 hr 0 min 28 sec) 
Heartbeat CPU  0 instructions:   20000000 cycles:    8635742 heartbeat IPC: 2.23839 cumulative IPC: 2.31596 (Simulation time: 0 hr 0 min 30 sec) 
Heartbeat CPU  0 instructions:   21000001 cycles:    9080945 heartbeat IPC: 2.24617 cumulative IPC: 2.31253 (Simulation time: 0 hr 0 min 32 sec) 
Heartbeat CPU  0 instructions:   22000000 cycles:    9481672 heartbeat IPC: 2.49546 cumulative IPC: 2.32027 (Simulation time: 0 hr 0 min 33 sec) 
Heartbeat CPU  0 instructions:   23000003 cycles:    9895966 heartbeat IPC: 2.41375 cumulative IPC: 2.32418 (Simulation time: 0 hr 0 min 34 sec) 
Heartbeat CPU  0 instructions:   24000000 cycles:   10338226 heartbeat IPC: 2.26111 cumulative IPC: 2.32148 (Simulation time: 0 hr 0 min 36 sec) 
Heartbeat CPU  0 instructions:   25000000 cycles:   10787222 heartbeat IPC: 2.22719 cumulative IPC: 2.31756 (Simulation time: 0 hr 0 min 38 sec) 
Heartbeat CPU  0 instructions:   26000000 cycles:   11183530 heartbeat IPC: 2.52329 cumulative IPC: 2.32485 (Simulation time: 0 hr 0 min 39 sec) 
Heartbeat CPU  0 instructions:   27000001 cycles:   11598360 heartbeat IPC: 2.41063 cumulative IPC: 2.32792 (Simulation time: 0 hr 0 min 40 sec) 
Heartbeat CPU  0 instructions:   28000000 cycles:   12046133 heartbeat IPC: 2.23327 cumulative IPC: 2.32440 (Simulation time: 0 hr 0 min 42 sec) 
Heartbeat CPU  0 instructions:   29000000 cycles:   12479029 heartbeat IPC: 2.31002 cumulative IPC: 2.32390 (Simulation time: 0 hr 0 min 44 sec) 
Heartbeat CPU  0 instructions:   30000003 cycles:   12886833 heartbeat IPC: 2.45217 cumulative IPC: 2.32796 (Simulation time: 0 hr 0 min 45 sec) 
Heartbeat CPU  0 instructions:   31000003 cycles:   13377106 heartbeat IPC: 2.03968 cumulative IPC: 2.31739 (Simulation time: 0 hr 0 min 47 sec) 
Heartbeat CPU  0 instructions:   32000000 cycles:   13779817 heartbeat IPC: 2.48316 cumulative IPC: 2.32224 (Simulation time: 0 hr 0 min 48 sec) 
Heartbeat CPU  0 instructions:   33000001 cycles:   14203809 heartbeat IPC: 2.35854 cumulative IPC: 2.32332 (Simulation time: 0 hr 0 min 50 sec) 
Heartbeat CPU  0 instructions:   34000003 cycles:   14655958 heartbeat IPC: 2.21166 cumulative IPC: 2.31988 (Simulation time: 0 hr 0 min 51 sec) 
Heartbeat CPU  0 instructions:   35000002 cycles:   15077391 heartbeat IPC: 2.37285 cumulative IPC: 2.32136 (Simulation time: 0 hr 0 min 53 sec) 
Heartbeat CPU  0 instructions:   36000000 cycles:   15474623 heartbeat IPC: 2.51742 cumulative IPC: 2.32639 (Simulation time: 0 hr 0 min 54 sec) 
Heartbeat CPU  0 instructions:   37000001 cycles:   15910068 heartbeat IPC: 2.29650 cumulative IPC: 2.32557 (Simulation time: 0 hr 0 min 56 sec) 
Heartbeat CPU  0 instructions:   38000000 cycles:   16358293 heartbeat IPC: 2.23102 cumulative IPC: 2.32298 (Simulation time: 0 hr 0 min 57 sec) 
Heartbeat CPU  0 instructions:   39000000 cycles:   16774588 heartbeat IPC: 2.40214 cumulative IPC: 2.32495 (Simulation time: 0 hr 0 min 59 sec) 
Heartbeat CPU  0 instructions:   40000000 cycles:   17173089 heartbeat IPC: 2.50940 cumulative IPC: 2.32923 (Simulation time: 0 hr 1 min 0 sec) 
Heartbeat CPU  0 instructions:   41000003 cycles:   17615196 heartbeat IPC: 2.26190 cumulative IPC: 2.32754 (Simulation time: 0 hr 1 min 2 sec) 
Heartbeat CPU  0 instructions:   42000003 cycles:   18057475 heartbeat IPC: 2.26102 cumulative IPC: 2.32591 (Simulation time: 0 hr 1 min 3 sec) 
Heartbeat CPU  0 instructions:   43000002 cycles:   18463688 heartbeat IPC: 2.46176 cumulative IPC: 2.32890 (Simulation time: 0 hr 1 min 5 sec) 
Heartbeat CPU  0 instructions:   44000000 cycles:   18914097 heartbeat IPC: 2.22020 cumulative IPC: 2.32631 (Simulation time: 0 hr 1 min 6 sec) 
Heartbeat CPU  0 instructions:   45000000 cycles:   19361896 heartbeat IPC: 2.23314 cumulative IPC: 2.32415 (Simulation time: 0 hr 1 min 8 sec) 
Heartbeat CPU  0 instructions:   46000003 cycles:   19775249 heartbeat IPC: 2.41925 cumulative IPC: 2.32614 (Simulation time: 0 hr 1 min 9 sec) 
Heartbeat CPU  0 instructions:   47000003 cycles:   20228651 heartbeat IPC: 2.20555 cumulative IPC: 2.32344 (Simulation time: 0 hr 1 min 11 sec) 
Heartbeat CPU  0 instructions:   48000000 cycles:   20652379 heartbeat IPC: 2.36000 cumulative IPC: 2.32419 (Simulation time: 0 hr 1 min 12 sec) 
Heartbeat CPU  0 instructions:   49000003 cycles:   21061111 heartbeat IPC: 2.44660 cumulative IPC: 2.32656 (Simulation time: 0 hr 1 min 14 sec) 
Heartbeat CPU  0 instructions:   50000000 cycles:   21501411 heartbeat IPC: 2.27117 cumulative IPC: 2.32543 (Simulation time: 0 hr 1 min 15 sec) 
Heartbeat CPU  0 instructions:   51000003 cycles:   21938443 heartbeat IPC: 2.28817 cumulative IPC: 2.32469 (Simulation time: 0 hr 1 min 17 sec) 
Heartbeat CPU  0 instructions:   52000000 cycles:   22345793 heartbeat IPC: 2.45488 cumulative IPC: 2.32706 (Simulation time: 0 hr 1 min 18 sec) 
Heartbeat CPU  0 instructions:   53000000 cycles:   22761244 heartbeat IPC: 2.40702 cumulative IPC: 2.32852 (Simulation time: 0 hr 1 min 20 sec) 
Heartbeat CPU  0 instructions:   54000001 cycles:   23201109 heartbeat IPC: 2.27343 cumulative IPC: 2.32748 (Simulation time: 0 hr 1 min 21 sec) 
Heartbeat CPU  0 instructions:   55000001 cycles:   23636075 heartbeat IPC: 2.29903 cumulative IPC: 2.32695 (Simulation time: 0 hr 1 min 23 sec) 
Heartbeat CPU  0 instructions:   56000000 cycles:   24043395 heartbeat IPC: 2.45507 cumulative IPC: 2.32912 (Simulation time: 0 hr 1 min 24 sec) 
Heartbeat CPU  0 instructions:   57000003 cycles:   24459138 heartbeat IPC: 2.40534 cumulative IPC: 2.33042 (Simulation time: 0 hr 1 min 26 sec) 
Heartbeat CPU  0 instructions:   58000001 cycles:   24906336 heartbeat IPC: 2.23614 cumulative IPC: 2.32872 (Simulation time: 0 hr 1 min 27 sec) 
Heartbeat CPU  0 instructions:   59000000 cycles:   25337016 heartbeat IPC: 2.32191 cumulative IPC: 2.32861 (Simulation time: 0 hr 1 min 29 sec) 
Heartbeat CPU  0 instructions:   60000000 cycles:   25732728 heartbeat IPC: 2.52709 cumulative IPC: 2.33166 (Simulation time: 0 hr 1 min 30 sec) 
Heartbeat CPU  0 instructions:   61000001 cycles:   26184427 heartbeat IPC: 2.21387 cumulative IPC: 2.32963 (Simulation time: 0 hr 1 min 32 sec) 
Heartbeat CPU  0 instructions:   62000001 cycles:   26622503 heartbeat IPC: 2.28271 cumulative IPC: 2.32886 (Simulation time: 0 hr 1 min 33 sec) 
Heartbeat CPU  0 instructions:   63000000 cycles:   27026528 heartbeat IPC: 2.47509 cumulative IPC: 2.33104 (Simulation time: 0 hr 1 min 35 sec) 
Heartbeat CPU  0 instructions:   64000000 cycles:   27436167 heartbeat IPC: 2.44117 cumulative IPC: 2.33269 (Simulation time: 0 hr 1 min 36 sec) 
Heartbeat CPU  0 instructions:   65000001 cycles:   27884148 heartbeat IPC: 2.23224 cumulative IPC: 2.33107 (Simulation time: 0 hr 1 min 38 sec) 
Heartbeat CPU  0 instructions:   66000003 cycles:   28322576 heartbeat IPC: 2.28088 cumulative IPC: 2.33030 (Simulation time: 0 hr 1 min 39 sec) 
Heartbeat CPU  0 instructions:   67000000 cycles:   28721905 heartbeat IPC: 2.50419 cumulative IPC: 2.33271 (Simulation time: 0 hr 1 min 41 sec) 
Heartbeat CPU  0 instructions:   68000000 cycles:   29138079 heartbeat IPC: 2.40284 cumulative IPC: 2.33372 (Simulation time: 0 hr 1 min 42 sec) 
Heartbeat CPU  0 instructions:   69000001 cycles:   29579464 heartbeat IPC: 2.26560 cumulative IPC: 2.33270 (Simulation time: 0 hr 1 min 44 sec) 
Heartbeat CPU  0 instructions:   70000001 cycles:   30012952 heartbeat IPC: 2.30687 cumulative IPC: 2.33233 (Simulation time: 0 hr 1 min 45 sec) 
Heartbeat CPU  0 instructions:   71000003 cycles:   30438291 heartbeat IPC: 2.35107 cumulative IPC: 2.33259 (Simulation time: 0 hr 1 min 47 sec) 
Heartbeat CPU  0 instructions:   72000000 cycles:   30913952 heartbeat IPC: 2.10233 cumulative IPC: 2.32905 (Simulation time: 0 hr 1 min 48 sec) 
Heartbeat CPU  0 instructions:   73000001 cycles:   31310388 heartbeat IPC: 2.52248 cumulative IPC: 2.33149 (Simulation time: 0 hr 1 min 50 sec) 
Heartbeat CPU  0 instructions:   74000000 cycles:   31750220 heartbeat IPC: 2.27359 cumulative IPC: 2.33069 (Simulation time: 0 hr 1 min 51 sec) 
Heartbeat CPU  0 instructions:   75000003 cycles:   32201434 heartbeat IPC: 2.21625 cumulative IPC: 2.32909 (Simulation time: 0 hr 1 min 53 sec) 
Heartbeat CPU  0 instructions:   76000000 cycles:   32602401 heartbeat IPC: 2.49396 cumulative IPC: 2.33112 (Simulation time: 0 hr 1 min 54 sec) 
Heartbeat CPU  0 instructions:   77000001 cycles:   33019292 heartbeat IPC: 2.39871 cumulative IPC: 2.33197 (Simulation time: 0 hr 1 min 56 sec) 
Heartbeat CPU  0 instructions:   78000001 cycles:   33454445 heartbeat IPC: 2.29804 cumulative IPC: 2.33153 (Simulation time: 0 hr 1 min 57 sec) 
Heartbeat CPU  0 instructions:   79000000 cycles:   33900915 heartbeat IPC: 2.23979 cumulative IPC: 2.33032 (Simulation time: 0 hr 1 min 59 sec) 
Heartbeat CPU  0 instructions:   80000000 cycles:   34296996 heartbeat IPC: 2.52474 cumulative IPC: 2.33257 (Simulation time: 0 hr 2 min 0 sec) 
Heartbeat CPU  0 instructions:   81000003 cycles:   34714862 heartbeat IPC: 2.39312 cumulative IPC: 2.33329 (Simulation time: 0 hr 2 min 2 sec) 
Heartbeat CPU  0 instructions:   82000003 cycles:   35156175 heartbeat IPC: 2.26597 cumulative IPC: 2.33245 (Simulation time: 0 hr 2 min 3 sec) 
Heartbeat CPU  0 instructions:   83000000 cycles:   35591297 heartbeat IPC: 2.29820 cumulative IPC: 2.33203 (Simulation time: 0 hr 2 min 5 sec) 
Heartbeat CPU  0 instructions:   84000000 cycles:   35984709 heartbeat IPC: 2.54186 cumulative IPC: 2.33432 (Simulation time: 0 hr 2 min 6 sec) 
Heartbeat CPU  0 instructions:   85000000 cycles:   36425197 heartbeat IPC: 2.27021 cumulative IPC: 2.33355 (Simulation time: 0 hr 2 min 8 sec) 
Heartbeat CPU  0 instructions:   86000001 cycles:   36865991 heartbeat IPC: 2.26864 cumulative IPC: 2.33277 (Simulation time: 0 hr 2 min 9 sec) 
Heartbeat CPU  0 instructions:   87000002 cycles:   37277362 heartbeat IPC: 2.43090 cumulative IPC: 2.33386 (Simulation time: 0 hr 2 min 11 sec) 
Heartbeat CPU  0 instructions:   88000000 cycles:   37693357 heartbeat IPC: 2.40387 cumulative IPC: 2.33463 (Simulation time: 0 hr 2 min 12 sec) 
Heartbeat CPU  0 instructions:   89000001 cycles:   38129650 heartbeat IPC: 2.29204 cumulative IPC: 2.33414 (Simulation time: 0 hr 2 min 14 sec) 
Heartbeat CPU  0 instructions:   90000000 cycles:   38564297 heartbeat IPC: 2.30072 cumulative IPC: 2.33376 (Simulation time: 0 hr 2 min 15 sec) 
Heartbeat CPU  0 instructions:   91000000 cycles:   38970332 heartbeat IPC: 2.46284 cumulative IPC: 2.33511 (Simulation time: 0 hr 2 min 17 sec) 
Heartbeat CPU  0 instructions:   92000000 cycles:   39388815 heartbeat IPC: 2.38958 cumulative IPC: 2.33569 (Simulation time: 0 hr 2 min 18 sec) 
Heartbeat CPU  0 instructions:   93000000 cycles:   39822347 heartbeat IPC: 2.30663 cumulative IPC: 2.33537 (Simulation time: 0 hr 2 min 20 sec) 
Heartbeat CPU  0 instructions:   94000002 cycles:   40262493 heartbeat IPC: 2.27198 cumulative IPC: 2.33468 (Simulation time: 0 hr 2 min 21 sec) 
Heartbeat CPU  0 instructions:   95000000 cycles:   40654512 heartbeat IPC: 2.55089 cumulative IPC: 2.33676 (Simulation time: 0 hr 2 min 23 sec) 
Heartbeat CPU  0 instructions:   96000000 cycles:   41088415 heartbeat IPC: 2.30466 cumulative IPC: 2.33643 (Simulation time: 0 hr 2 min 24 sec) 
Heartbeat CPU  0 instructions:   97000001 cycles:   41550970 heartbeat IPC: 2.16191 cumulative IPC: 2.33448 (Simulation time: 0 hr 2 min 26 sec) 
Heartbeat CPU  0 instructions:   98000003 cycles:   41970090 heartbeat IPC: 2.38596 cumulative IPC: 2.33500 (Simulation time: 0 hr 2 min 27 sec) 
Heartbeat CPU  0 instructions:   99000001 cycles:   42412456 heartbeat IPC: 2.26057 cumulative IPC: 2.33422 (Simulation time: 0 hr 2 min 29 sec) 
Heartbeat CPU  0 instructions:  100000000 cycles:   42843644 heartbeat IPC: 2.31917 cumulative IPC: 2.33407 (Simulation time: 0 hr 2 min 30 sec) 

Warmup complete CPU  0 instructions:  100000001 cycles:   42843645 (Simulation time: 0 hr 2 min 30 sec) 

Heartbeat CPU  0 instructions:  101000001 cycles:   43519433 heartbeat IPC: 1.47975 cumulative IPC: 1.47975 (Simulation time: 0 hr 2 min 32 sec) 
Heartbeat CPU  0 instructions:  102000003 cycles:   44204340 heartbeat IPC: 1.46006 cumulative IPC: 1.46984 (Simulation time: 0 hr 2 min 34 sec) 
Heartbeat CPU  0 instructions:  103000003 cycles:   44886584 heartbeat IPC: 1.46575 cumulative IPC: 1.46847 (Simulation time: 0 hr 2 min 36 sec) 
Heartbeat CPU  0 instructions:  104000000 cycles:   45568617 heartbeat IPC: 1.46620 cumulative IPC: 1.46790 (Simulation time: 0 hr 2 min 37 sec) 
Heartbeat CPU  0 instructions:  105000001 cycles:   46256917 heartbeat IPC: 1.45286 cumulative IPC: 1.46487 (Simulation time: 0 hr 2 min 39 sec) 
Heartbeat CPU  0 instructions:  106000000 cycles:   46936697 heartbeat IPC: 1.47106 cumulative IPC: 1.46590 (Simulation time: 0 hr 2 min 41 sec) 
Heartbeat CPU  0 instructions:  107000001 cycles:   47616311 heartbeat IPC: 1.47142 cumulative IPC: 1.46669 (Simulation time: 0 hr 2 min 42 sec) 
Heartbeat CPU  0 instructions:  108000000 cycles:   48330505 heartbeat IPC: 1.40018 cumulative IPC: 1.45803 (Simulation time: 0 hr 2 min 44 sec) 
Heartbeat CPU  0 instructions:  109000001 cycles:   49004878 heartbeat IPC: 1.48286 cumulative IPC: 1.46075 (Simulation time: 0 hr 2 min 46 sec) 
Heartbeat CPU  0 instructions:  110000003 cycles:   49778365 heartbeat IPC: 1.29285 cumulative IPC: 1.44202 (Simulation time: 0 hr 2 min 48 sec) 
Heartbeat CPU  0 instructions:  111000000 cycles:   50624853 heartbeat IPC: 1.18135 cumulative IPC: 1.41366 (Simulation time: 0 hr 2 min 49 sec) 
Heartbeat CPU  0 instructions:  112000000 cycles:   51424081 heartbeat IPC: 1.25121 cumulative IPC: 1.39853 (Simulation time: 0 hr 2 min 51 sec) 
Heartbeat CPU  0 instructions:  113000003 cycles:   52124806 heartbeat IPC: 1.42710 cumulative IPC: 1.40069 (Simulation time: 0 hr 2 min 53 sec) 
Heartbeat CPU  0 instructions:  114000001 cycles:   52823352 heartbeat IPC: 1.43154 cumulative IPC: 1.40285 (Simulation time: 0 hr 2 min 55 sec) 
Heartbeat CPU  0 instructions:  115000002 cycles:   53540321 heartbeat IPC: 1.39476 cumulative IPC: 1.40230 (Simulation time: 0 hr 2 min 56 sec) 
Heartbeat CPU  0 instructions:  116000000 cycles:   54226794 heartbeat IPC: 1.45672 cumulative IPC: 1.40559 (Simulation time: 0 hr 2 min 58 sec) 
Heartbeat CPU  0 instructions:  117000000 cycles:   54894656 heartbeat IPC: 1.49732 cumulative IPC: 1.41067 (Simulation time: 0 hr 3 min 0 sec) 
Heartbeat CPU  0 instructions:  118000000 cycles:   55543471 heartbeat IPC: 1.54127 cumulative IPC: 1.41734 (Simulation time: 0 hr 3 min 1 sec) 
Heartbeat CPU  0 instructions:  119000002 cycles:   56267200 heartbeat IPC: 1.38174 cumulative IPC: 1.41542 (Simulation time: 0 hr 3 min 3 sec) 
Heartbeat CPU  0 instructions:  120000000 cycles:   56941970 heartbeat IPC: 1.48198 cumulative IPC: 1.41861 (Simulation time: 0 hr 3 min 5 sec) 
Heartbeat CPU  0 instructions:  121000002 cycles:   57608094 heartbeat IPC: 1.50122 cumulative IPC: 1.42234 (Simulation time: 0 hr 3 min 7 sec) 
Heartbeat CPU  0 instructions:  122000000 cycles:   58279927 heartbeat IPC: 1.48846 cumulative IPC: 1.42521 (Simulation time: 0 hr 3 min 8 sec) 
Heartbeat CPU  0 instructions:  123000002 cycles:   59002824 heartbeat IPC: 1.38333 cumulative IPC: 1.42334 (Simulation time: 0 hr 3 min 10 sec) 
Heartbeat CPU  0 instructions:  124000000 cycles:   59739864 heartbeat IPC: 1.35678 cumulative IPC: 1.42044 (Simulation time: 0 hr 3 min 12 sec) 
Heartbeat CPU  0 instructions:  125000000 cycles:   60413400 heartbeat IPC: 1.48470 cumulative IPC: 1.42290 (Simulation time: 0 hr 3 min 14 sec) 
Heartbeat CPU  0 instructions:  126000000 cycles:   61121711 heartbeat IPC: 1.41181 cumulative IPC: 1.42247 (Simulation time: 0 hr 3 min 15 sec) 
Heartbeat CPU  0 instructions:  127000003 cycles:   61841654 heartbeat IPC: 1.38900 cumulative IPC: 1.42120 (Simulation time: 0 hr 3 min 17 sec) 
Heartbeat CPU  0 instructions:  128000000 cycles:   62515049 heartbeat IPC: 1.48501 cumulative IPC: 1.42339 (Simulation time: 0 hr 3 min 19 sec) 
Heartbeat CPU  0 instructions:  129000001 cycles:   63160664 heartbeat IPC: 1.54891 cumulative IPC: 1.42737 (Simulation time: 0 hr 3 min 20 sec) 
Heartbeat CPU  0 instructions:  130000001 cycles:   63847923 heartbeat IPC: 1.45506 cumulative IPC: 1.42828 (Simulation time: 0 hr 3 min 22 sec) 
Heartbeat CPU  0 instructions:  131000002 cycles:   64563988 heartbeat IPC: 1.39652 cumulative IPC: 1.42723 (Simulation time: 0 hr 3 min 24 sec) 
Heartbeat CPU  0 instructions:  132000000 cycles:   65224996 heartbeat IPC: 1.51284 cumulative IPC: 1.42976 (Simulation time: 0 hr 3 min 26 sec) 
Heartbeat CPU  0 instructions:  133000003 cycles:   65874999 heartbeat IPC: 1.53846 cumulative IPC: 1.43283 (Simulation time: 0 hr 3 min 27 sec) 
Heartbeat CPU  0 instructions:  134000001 cycles:   66600373 heartbeat IPC: 1.37860 cumulative IPC: 1.43117 (Simulation time: 0 hr 3 min 29 sec) 
Heartbeat CPU  0 instructions:  135000001 cycles:   67306585 heartbeat IPC: 1.41601 cumulative IPC: 1.43074 (Simulation time: 0 hr 3 min 31 sec) 
Heartbeat CPU  0 instructions:  136000000 cycles:   68049048 heartbeat IPC: 1.34687 cumulative IPC: 1.42827 (Simulation time: 0 hr 3 min 32 sec) 
Heartbeat CPU  0 instructions:  137000003 cycles:   68931439 heartbeat IPC: 1.13329 cumulative IPC: 1.41829 (Simulation time: 0 hr 3 min 34 sec) 
Heartbeat CPU  0 instructions:  138000002 cycles:   69643711 heartbeat IPC: 1.40396 cumulative IPC: 1.41791 (Simulation time: 0 hr 3 min 36 sec) 
Heartbeat CPU  0 instructions:  139000002 cycles:   70305227 heartbeat IPC: 1.51168 cumulative IPC: 1.42017 (Simulation time: 0 hr 3 min 38 sec) 
Heartbeat CPU  0 instructions:  140000000 cycles:   71062027 heartbeat IPC: 1.32135 cumulative IPC: 1.41752 (Simulation time: 0 hr 3 min 39 sec) 
Heartbeat CPU  0 instructions:  141000001 cycles:   71749961 heartbeat IPC: 1.45363 cumulative IPC: 1.41838 (Simulation time: 0 hr 3 min 41 sec) 
Heartbeat CPU  0 instructions:  142000001 cycles:   72411853 heartbeat IPC: 1.51082 cumulative IPC: 1.42044 (Simulation time: 0 hr 3 min 43 sec) 
Heartbeat CPU  0 instructions:  143000002 cycles:   73071581 heartbeat IPC: 1.51578 cumulative IPC: 1.42253 (Simulation time: 0 hr 3 min 45 sec) 
Heartbeat CPU  0 instructions:  144000000 cycles:   73783687 heartbeat IPC: 1.40428 cumulative IPC: 1.42211 (Simulation time: 0 hr 3 min 46 sec) 
Heartbeat CPU  0 instructions:  145000003 cycles:   74472332 heartbeat IPC: 1.45213 cumulative IPC: 1.42276 (Simulation time: 0 hr 3 min 48 sec) 
Heartbeat CPU  0 instructions:  146000000 cycles:   75127905 heartbeat IPC: 1.52538 cumulative IPC: 1.42484 (Simulation time: 0 hr 3 min 50 sec) 
Heartbeat CPU  0 instructions:  147000003 cycles:   75815603 heartbeat IPC: 1.45413 cumulative IPC: 1.42545 (Simulation time: 0 hr 3 min 51 sec) 
Heartbeat CPU  0 instructions:  148000000 cycles:   76520940 heartbeat IPC: 1.41776 cumulative IPC: 1.42529 (Simulation time: 0 hr 3 min 53 sec) 
Heartbeat CPU  0 instructions:  149000001 cycles:   77253350 heartbeat IPC: 1.36536 cumulative IPC: 1.42402 (Simulation time: 0 hr 3 min 55 sec) 
Heartbeat CPU  0 instructions:  150000003 cycles:   78056551 heartbeat IPC: 1.24502 cumulative IPC: 1.41993 (Simulation time: 0 hr 3 min 57 sec) 
Heartbeat CPU  0 instructions:  151000000 cycles:   78851186 heartbeat IPC: 1.25844 cumulative IPC: 1.41637 (Simulation time: 0 hr 3 min 59 sec) 
Heartbeat CPU  0 instructions:  152000000 cycles:   79586694 heartbeat IPC: 1.35960 cumulative IPC: 1.41523 (Simulation time: 0 hr 4 min 0 sec) 
Heartbeat CPU  0 instructions:  153000001 cycles:   80341571 heartbeat IPC: 1.32472 cumulative IPC: 1.41341 (Simulation time: 0 hr 4 min 2 sec) 
Heartbeat CPU  0 instructions:  154000000 cycles:   81096436 heartbeat IPC: 1.32474 cumulative IPC: 1.41166 (Simulation time: 0 hr 4 min 4 sec) 
Heartbeat CPU  0 instructions:  155000000 cycles:   81867018 heartbeat IPC: 1.29772 cumulative IPC: 1.40941 (Simulation time: 0 hr 4 min 6 sec) 
Heartbeat CPU  0 instructions:  156000000 cycles:   82758792 heartbeat IPC: 1.12136 cumulative IPC: 1.40298 (Simulation time: 0 hr 4 min 7 sec) 
Heartbeat CPU  0 instructions:  157000002 cycles:   83472296 heartbeat IPC: 1.40154 cumulative IPC: 1.40295 (Simulation time: 0 hr 4 min 9 sec) 
Heartbeat CPU  0 instructions:  158000001 cycles:   84330960 heartbeat IPC: 1.16460 cumulative IPC: 1.39802 (Simulation time: 0 hr 4 min 11 sec) 
Heartbeat CPU  0 instructions:  159000001 cycles:   85070304 heartbeat IPC: 1.35255 cumulative IPC: 1.39722 (Simulation time: 0 hr 4 min 13 sec) 
Heartbeat CPU  0 instructions:  160000000 cycles:   85757948 heartbeat IPC: 1.45424 cumulative IPC: 1.39814 (Simulation time: 0 hr 4 min 14 sec) 
Heartbeat CPU  0 instructions:  161000001 cycles:   86467883 heartbeat IPC: 1.40858 cumulative IPC: 1.39831 (Simulation time: 0 hr 4 min 16 sec) 
Heartbeat CPU  0 instructions:  162000003 cycles:   87184042 heartbeat IPC: 1.39634 cumulative IPC: 1.39827 (Simulation time: 0 hr 4 min 18 sec) 
Heartbeat CPU  0 instructions:  163000000 cycles:   87853061 heartbeat IPC: 1.49472 cumulative IPC: 1.39971 (Simulation time: 0 hr 4 min 19 sec) 
Heartbeat CPU  0 instructions:  164000000 cycles:   88558517 heartbeat IPC: 1.41752 cumulative IPC: 1.39998 (Simulation time: 0 hr 4 min 21 sec) 
Heartbeat CPU  0 instructions:  165000001 cycles:   89247511 heartbeat IPC: 1.45139 cumulative IPC: 1.40075 (Simulation time: 0 hr 4 min 23 sec) 
Heartbeat CPU  0 instructions:  166000001 cycles:   89918457 heartbeat IPC: 1.49043 cumulative IPC: 1.40202 (Simulation time: 0 hr 4 min 25 sec) 
Heartbeat CPU  0 instructions:  167000002 cycles:   90635258 heartbeat IPC: 1.39509 cumulative IPC: 1.40192 (Simulation time: 0 hr 4 min 26 sec) 
Heartbeat CPU  0 instructions:  168000000 cycles:   91378959 heartbeat IPC: 1.34462 cumulative IPC: 1.40104 (Simulation time: 0 hr 4 min 28 sec) 
Heartbeat CPU  0 instructions:  169000000 cycles:   92098965 heartbeat IPC: 1.38888 cumulative IPC: 1.40086 (Simulation time: 0 hr 4 min 30 sec) 
Heartbeat CPU  0 instructions:  170000001 cycles:   92768177 heartbeat IPC: 1.49430 cumulative IPC: 1.40212 (Simulation time: 0 hr 4 min 32 sec) 
Heartbeat CPU  0 instructions:  171000000 cycles:   93506658 heartbeat IPC: 1.35413 cumulative IPC: 1.40142 (Simulation time: 0 hr 4 min 33 sec) 
Heartbeat CPU  0 instructions:  172000000 cycles:   94238648 heartbeat IPC: 1.36614 cumulative IPC: 1.40091 (Simulation time: 0 hr 4 min 35 sec) 
Heartbeat CPU  0 instructions:  173000001 cycles:   94924770 heartbeat IPC: 1.45747 cumulative IPC: 1.40166 (Simulation time: 0 hr 4 min 37 sec) 
Heartbeat CPU  0 instructions:  174000000 cycles:   95658812 heartbeat IPC: 1.36232 cumulative IPC: 1.40111 (Simulation time: 0 hr 4 min 39 sec) 
Heartbeat CPU  0 instructions:  175000000 cycles:   96358364 heartbeat IPC: 1.42949 cumulative IPC: 1.40148 (Simulation time: 0 hr 4 min 40 sec) 
Heartbeat CPU  0 instructions:  176000000 cycles:   97076400 heartbeat IPC: 1.39269 cumulative IPC: 1.40137 (Simulation time: 0 hr 4 min 42 sec) 
Heartbeat CPU  0 instructions:  177000002 cycles:   97849085 heartbeat IPC: 1.29419 cumulative IPC: 1.39986 (Simulation time: 0 hr 4 min 44 sec) 
Heartbeat CPU  0 instructions:  178000001 cycles:   98642829 heartbeat IPC: 1.25985 cumulative IPC: 1.39787 (Simulation time: 0 hr 4 min 46 sec) 
Heartbeat CPU  0 instructions:  179000003 cycles:   99384512 heartbeat IPC: 1.34829 cumulative IPC: 1.39722 (Simulation time: 0 hr 4 min 47 sec) 
Heartbeat CPU  0 instructions:  180000000 cycles:  100153463 heartbeat IPC: 1.30047 cumulative IPC: 1.39592 (Simulation time: 0 hr 4 min 49 sec) 
Heartbeat CPU  0 instructions:  181000000 cycles:  100922011 heartbeat IPC: 1.30115 cumulative IPC: 1.39467 (Simulation time: 0 hr 4 min 51 sec) 
Heartbeat CPU  0 instructions:  182000003 cycles:  101686257 heartbeat IPC: 1.30848 cumulative IPC: 1.39355 (Simulation time: 0 hr 4 min 53 sec) 
Heartbeat CPU  0 instructions:  183000002 cycles:  102476898 heartbeat IPC: 1.26480 cumulative IPC: 1.39184 (Simulation time: 0 hr 4 min 54 sec) 
Heartbeat CPU  0 instructions:  184000000 cycles:  103173048 heartbeat IPC: 1.43647 cumulative IPC: 1.39236 (Simulation time: 0 hr 4 min 56 sec) 
Heartbeat CPU  0 instructions:  185000002 cycles:  103906925 heartbeat IPC: 1.36263 cumulative IPC: 1.39200 (Simulation time: 0 hr 4 min 58 sec) 
Heartbeat CPU  0 instructions:  186000000 cycles:  104603514 heartbeat IPC: 1.43556 cumulative IPC: 1.39249 (Simulation time: 0 hr 5 min 0 sec) 
Heartbeat CPU  0 instructions:  187000001 cycles:  105290142 heartbeat IPC: 1.45639 cumulative IPC: 1.39319 (Simulation time: 0 hr 5 min 1 sec) 
Heartbeat CPU  0 instructions:  188000000 cycles:  106097232 heartbeat IPC: 1.23902 cumulative IPC: 1.39123 (Simulation time: 0 hr 5 min 3 sec) 
Heartbeat CPU  0 instructions:  189000000 cycles:  106886255 heartbeat IPC: 1.26739 cumulative IPC: 1.38970 (Simulation time: 0 hr 5 min 5 sec) 
Heartbeat CPU  0 instructions:  190000000 cycles:  107629996 heartbeat IPC: 1.34455 cumulative IPC: 1.38918 (Simulation time: 0 hr 5 min 7 sec) 
Heartbeat CPU  0 instructions:  191000003 cycles:  108396087 heartbeat IPC: 1.30533 cumulative IPC: 1.38820 (Simulation time: 0 hr 5 min 8 sec) 
Heartbeat CPU  0 instructions:  192000000 cycles:  109131170 heartbeat IPC: 1.36039 cumulative IPC: 1.38789 (Simulation time: 0 hr 5 min 10 sec) 
Heartbeat CPU  0 instructions:  193000000 cycles:  109926083 heartbeat IPC: 1.25800 cumulative IPC: 1.38635 (Simulation time: 0 hr 5 min 12 sec) 
Heartbeat CPU  0 instructions:  194000001 cycles:  110724843 heartbeat IPC: 1.25194 cumulative IPC: 1.38477 (Simulation time: 0 hr 5 min 14 sec) 
Heartbeat CPU  0 instructions:  195000001 cycles:  111418689 heartbeat IPC: 1.44124 cumulative IPC: 1.38534 (Simulation time: 0 hr 5 min 15 sec) 
Heartbeat CPU  0 instructions:  196000000 cycles:  112217691 heartbeat IPC: 1.25156 cumulative IPC: 1.38380 (Simulation time: 0 hr 5 min 17 sec) 
Heartbeat CPU  0 instructions:  197000001 cycles:  112967680 heartbeat IPC: 1.33335 cumulative IPC: 1.38326 (Simulation time: 0 hr 5 min 19 sec) 
Heartbeat CPU  0 instructions:  198000002 cycles:  113765591 heartbeat IPC: 1.25327 cumulative IPC: 1.38180 (Simulation time: 0 hr 5 min 21 sec) 
Heartbeat CPU  0 instructions:  199000002 cycles:  114615488 heartbeat IPC: 1.17661 cumulative IPC: 1.37937 (Simulation time: 0 hr 5 min 23 sec) 
Heartbeat CPU  0 instructions:  200000000 cycles:  115395333 heartbeat IPC: 1.28230 cumulative IPC: 1.37833 (Simulation time: 0 hr 5 min 24 sec) 
Heartbeat CPU  0 instructions:  201000000 cycles:  116231299 heartbeat IPC: 1.19622 cumulative IPC: 1.37625 (Simulation time: 0 hr 5 min 26 sec) 
Heartbeat CPU  0 instructions:  202000000 cycles:  116998807 heartbeat IPC: 1.30292 cumulative IPC: 1.37549 (Simulation time: 0 hr 5 min 28 sec) 
Heartbeat CPU  0 instructions:  203000000 cycles:  117870707 heartbeat IPC: 1.14692 cumulative IPC: 1.37284 (Simulation time: 0 hr 5 min 30 sec) 
Heartbeat CPU  0 instructions:  204000000 cycles:  118645664 heartbeat IPC: 1.29039 cumulative IPC: 1.37200 (Simulation time: 0 hr 5 min 32 sec) 
Heartbeat CPU  0 instructions:  205000001 cycles:  119488733 heartbeat IPC: 1.18614 cumulative IPC: 1.36995 (Simulation time: 0 hr 5 min 33 sec) 
Heartbeat CPU  0 instructions:  206000003 cycles:  120254280 heartbeat IPC: 1.30626 cumulative IPC: 1.36932 (Simulation time: 0 hr 5 min 35 sec) 
Heartbeat CPU  0 instructions:  207000003 cycles:  121000914 heartbeat IPC: 1.33934 cumulative IPC: 1.36903 (Simulation time: 0 hr 5 min 37 sec) 
Heartbeat CPU  0 instructions:  208000000 cycles:  121739583 heartbeat IPC: 1.35378 cumulative IPC: 1.36889 (Simulation time: 0 hr 5 min 39 sec) 
Heartbeat CPU  0 instructions:  209000001 cycles:  122516124 heartbeat IPC: 1.28776 cumulative IPC: 1.36810 (Simulation time: 0 hr 5 min 40 sec) 
Heartbeat CPU  0 instructions:  210000003 cycles:  123363869 heartbeat IPC: 1.17960 cumulative IPC: 1.36612 (Simulation time: 0 hr 5 min 42 sec) 
Heartbeat CPU  0 instructions:  211000001 cycles:  124103381 heartbeat IPC: 1.35224 cumulative IPC: 1.36599 (Simulation time: 0 hr 5 min 44 sec) 
Heartbeat CPU  0 instructions:  212000000 cycles:  124817558 heartbeat IPC: 1.40021 cumulative IPC: 1.36629 (Simulation time: 0 hr 5 min 46 sec) 
Heartbeat CPU  0 instructions:  213000000 cycles:  125612092 heartbeat IPC: 1.25860 cumulative IPC: 1.36525 (Simulation time: 0 hr 5 min 47 sec) 
Heartbeat CPU  0 instructions:  214000000 cycles:  126380443 heartbeat IPC: 1.30149 cumulative IPC: 1.36467 (Simulation time: 0 hr 5 min 49 sec) 
Heartbeat CPU  0 instructions:  215000001 cycles:  127211004 heartbeat IPC: 1.20401 cumulative IPC: 1.36309 (Simulation time: 0 hr 5 min 51 sec) 
Heartbeat CPU  0 instructions:  216000000 cycles:  127993081 heartbeat IPC: 1.27865 cumulative IPC: 1.36231 (Simulation time: 0 hr 5 min 53 sec) 
Heartbeat CPU  0 instructions:  217000003 cycles:  128855245 heartbeat IPC: 1.15988 cumulative IPC: 1.36028 (Simulation time: 0 hr 5 min 55 sec) 
Heartbeat CPU  0 instructions:  218000002 cycles:  129617736 heartbeat IPC: 1.31149 cumulative IPC: 1.35985 (Simulation time: 0 hr 5 min 56 sec) 
Heartbeat CPU  0 instructions:  219000001 cycles:  130333079 heartbeat IPC: 1.39793 cumulative IPC: 1.36016 (Simulation time: 0 hr 5 min 58 sec) 
Heartbeat CPU  0 instructions:  220000000 cycles:  131037071 heartbeat IPC: 1.42047 cumulative IPC: 1.36065 (Simulation time: 0 hr 6 min 0 sec) 
Heartbeat CPU  0 instructions:  221000000 cycles:  131706780 heartbeat IPC: 1.49319 cumulative IPC: 1.36164 (Simulation time: 0 hr 6 min 1 sec) 
Heartbeat CPU  0 instructions:  222000003 cycles:  132517256 heartbeat IPC: 1.23385 cumulative IPC: 1.36049 (Simulation time: 0 hr 6 min 3 sec) 
Heartbeat CPU  0 instructions:  223000002 cycles:  133221837 heartbeat IPC: 1.41928 cumulative IPC: 1.36095 (Simulation time: 0 hr 6 min 5 sec) 
Heartbeat CPU  0 instructions:  224000000 cycles:  133900923 heartbeat IPC: 1.47256 cumulative IPC: 1.36178 (Simulation time: 0 hr 6 min 7 sec) 
Heartbeat CPU  0 instructions:  225000000 cycles:  134608508 heartbeat IPC: 1.41326 cumulative IPC: 1.36218 (Simulation time: 0 hr 6 min 8 sec) 
Heartbeat CPU  0 instructions:  226000001 cycles:  135402599 heartbeat IPC: 1.25930 cumulative IPC: 1.36129 (Simulation time: 0 hr 6 min 10 sec) 
Heartbeat CPU  0 instructions:  227000002 cycles:  136080498 heartbeat IPC: 1.47515 cumulative IPC: 1.36212 (Simulation time: 0 hr 6 min 12 sec) 
Heartbeat CPU  0 instructions:  228000000 cycles:  136801454 heartbeat IPC: 1.38704 cumulative IPC: 1.36231 (Simulation time: 0 hr 6 min 14 sec) 
Heartbeat CPU  0 instructions:  229000000 cycles:  137503445 heartbeat IPC: 1.42452 cumulative IPC: 1.36277 (Simulation time: 0 hr 6 min 15 sec) 
Heartbeat CPU  0 instructions:  230000002 cycles:  138205211 heartbeat IPC: 1.42498 cumulative IPC: 1.36323 (Simulation time: 0 hr 6 min 17 sec) 
Heartbeat CPU  0 instructions:  231000000 cycles:  138977531 heartbeat IPC: 1.29480 cumulative IPC: 1.36268 (Simulation time: 0 hr 6 min 19 sec) 
Heartbeat CPU  0 instructions:  232000000 cycles:  139693296 heartbeat IPC: 1.39711 cumulative IPC: 1.36294 (Simulation time: 0 hr 6 min 21 sec) 
Heartbeat CPU  0 instructions:  233000001 cycles:  140379084 heartbeat IPC: 1.45818 cumulative IPC: 1.36361 (Simulation time: 0 hr 6 min 22 sec) 
Heartbeat CPU  0 instructions:  234000003 cycles:  141102300 heartbeat IPC: 1.38272 cumulative IPC: 1.36375 (Simulation time: 0 hr 6 min 24 sec) 
Heartbeat CPU  0 instructions:  235000002 cycles:  141871310 heartbeat IPC: 1.30037 cumulative IPC: 1.36326 (Simulation time: 0 hr 6 min 26 sec) 
Heartbeat CPU  0 instructions:  236000000 cycles:  142567617 heartbeat IPC: 1.43615 cumulative IPC: 1.36376 (Simulation time: 0 hr 6 min 28 sec) 
Heartbeat CPU  0 instructions:  237000002 cycles:  143248332 heartbeat IPC: 1.46905 cumulative IPC: 1.36448 (Simulation time: 0 hr 6 min 29 sec) 
Heartbeat CPU  0 instructions:  238000000 cycles:  143994443 heartbeat IPC: 1.34028 cumulative IPC: 1.36430 (Simulation time: 0 hr 6 min 31 sec) 
Heartbeat CPU  0 instructions:  239000000 cycles:  144738440 heartbeat IPC: 1.34409 cumulative IPC: 1.36415 (Simulation time: 0 hr 6 min 33 sec) 
Heartbeat CPU  0 instructions:  240000000 cycles:  145425990 heartbeat IPC: 1.45444 cumulative IPC: 1.36476 (Simulation time: 0 hr 6 min 35 sec) 
Heartbeat CPU  0 instructions:  241000002 cycles:  146138118 heartbeat IPC: 1.40424 cumulative IPC: 1.36503 (Simulation time: 0 hr 6 min 36 sec) 
Heartbeat CPU  0 instructions:  242000002 cycles:  146869044 heartbeat IPC: 1.36813 cumulative IPC: 1.36505 (Simulation time: 0 hr 6 min 38 sec) 
Heartbeat CPU  0 instructions:  243000002 cycles:  147604454 heartbeat IPC: 1.35979 cumulative IPC: 1.36501 (Simulation time: 0 hr 6 min 40 sec) 
Heartbeat CPU  0 instructions:  244000000 cycles:  148322830 heartbeat IPC: 1.39203 cumulative IPC: 1.36520 (Simulation time: 0 hr 6 min 42 sec) 
Heartbeat CPU  0 instructions:  245000000 cycles:  149021595 heartbeat IPC: 1.43110 cumulative IPC: 1.36563 (Simulation time: 0 hr 6 min 43 sec) 
Heartbeat CPU  0 instructions:  246000000 cycles:  149687221 heartbeat IPC: 1.50235 cumulative IPC: 1.36648 (Simulation time: 0 hr 6 min 45 sec) 
Heartbeat CPU  0 instructions:  247000001 cycles:  150419466 heartbeat IPC: 1.36566 cumulative IPC: 1.36648 (Simulation time: 0 hr 6 min 47 sec) 
Heartbeat CPU  0 instructions:  248000000 cycles:  151226120 heartbeat IPC: 1.23969 cumulative IPC: 1.36553 (Simulation time: 0 hr 6 min 49 sec) 
Heartbeat CPU  0 instructions:  249000000 cycles:  151904767 heartbeat IPC: 1.47352 cumulative IPC: 1.36621 (Simulation time: 0 hr 6 min 50 sec) 
Heartbeat CPU  0 instructions:  250000001 cycles:  152622848 heartbeat IPC: 1.39260 cumulative IPC: 1.36638 (Simulation time: 0 hr 6 min 52 sec) 
Heartbeat CPU  0 instructions:  251000000 cycles:  153318023 heartbeat IPC: 1.43849 cumulative IPC: 1.36683 (Simulation time: 0 hr 6 min 54 sec) 
Heartbeat CPU  0 instructions:  252000000 cycles:  154006449 heartbeat IPC: 1.45259 cumulative IPC: 1.36736 (Simulation time: 0 hr 6 min 56 sec) 
Heartbeat CPU  0 instructions:  253000002 cycles:  154830069 heartbeat IPC: 1.21415 cumulative IPC: 1.36624 (Simulation time: 0 hr 6 min 57 sec) 
Heartbeat CPU  0 instructions:  254000002 cycles:  155532570 heartbeat IPC: 1.42349 cumulative IPC: 1.36659 (Simulation time: 0 hr 6 min 59 sec) 
Heartbeat CPU  0 instructions:  255000000 cycles:  156207473 heartbeat IPC: 1.48169 cumulative IPC: 1.36728 (Simulation time: 0 hr 7 min 1 sec) 
Heartbeat CPU  0 instructions:  256000000 cycles:  157006454 heartbeat IPC: 1.25159 cumulative IPC: 1.36647 (Simulation time: 0 hr 7 min 3 sec) 
Heartbeat CPU  0 instructions:  257000000 cycles:  157707740 heartbeat IPC: 1.42595 cumulative IPC: 1.36683 (Simulation time: 0 hr 7 min 4 sec) 
Heartbeat CPU  0 instructions:  258000002 cycles:  158380884 heartbeat IPC: 1.48557 cumulative IPC: 1.36752 (Simulation time: 0 hr 7 min 6 sec) 
Heartbeat CPU  0 instructions:  259000000 cycles:  159183682 heartbeat IPC: 1.24564 cumulative IPC: 1.36668 (Simulation time: 0 hr 7 min 8 sec) 
Heartbeat CPU  0 instructions:  260000000 cycles:  159886647 heartbeat IPC: 1.42255 cumulative IPC: 1.36702 (Simulation time: 0 hr 7 min 9 sec) 
Heartbeat CPU  0 instructions:  261000002 cycles:  160562419 heartbeat IPC: 1.47979 cumulative IPC: 1.36767 (Simulation time: 0 hr 7 min 11 sec) 
Heartbeat CPU  0 instructions:  262000000 cycles:  161360034 heartbeat IPC: 1.25374 cumulative IPC: 1.36690 (Simulation time: 0 hr 7 min 13 sec) 
Heartbeat CPU  0 instructions:  263000002 cycles:  162060542 heartbeat IPC: 1.42754 cumulative IPC: 1.36726 (Simulation time: 0 hr 7 min 15 sec) 
Heartbeat CPU  0 instructions:  264000000 cycles:  162733962 heartbeat IPC: 1.48495 cumulative IPC: 1.36792 (Simulation time: 0 hr 7 min 16 sec) 
Heartbeat CPU  0 instructions:  265000000 cycles:  163534224 heartbeat IPC: 1.24959 cumulative IPC: 1.36713 (Simulation time: 0 hr 7 min 18 sec) 
Heartbeat CPU  0 instructions:  266000000 cycles:  164234261 heartbeat IPC: 1.42850 cumulative IPC: 1.36749 (Simulation time: 0 hr 7 min 20 sec) 
Heartbeat CPU  0 instructions:  267000002 cycles:  164907656 heartbeat IPC: 1.48502 cumulative IPC: 1.36813 (Simulation time: 0 hr 7 min 22 sec) 
Heartbeat CPU  0 instructions:  268000000 cycles:  165703990 heartbeat IPC: 1.25575 cumulative IPC: 1.36741 (Simulation time: 0 hr 7 min 23 sec) 
Heartbeat CPU  0 instructions:  269000002 cycles:  166403745 heartbeat IPC: 1.42907 cumulative IPC: 1.36776 (Simulation time: 0 hr 7 min 25 sec) 
Heartbeat CPU  0 instructions:  270000002 cycles:  167077099 heartbeat IPC: 1.48510 cumulative IPC: 1.36839 (Simulation time: 0 hr 7 min 27 sec) 
Heartbeat CPU  0 instructions:  271000000 cycles:  167879647 heartbeat IPC: 1.24603 cumulative IPC: 1.36761 (Simulation time: 0 hr 7 min 29 sec) 
Heartbeat CPU  0 instructions:  272000000 cycles:  168579026 heartbeat IPC: 1.42984 cumulative IPC: 1.36795 (Simulation time: 0 hr 7 min 30 sec) 
Heartbeat CPU  0 instructions:  273000002 cycles:  169252392 heartbeat IPC: 1.48508 cumulative IPC: 1.36858 (Simulation time: 0 hr 7 min 32 sec) 
Heartbeat CPU  0 instructions:  274000002 cycles:  170048770 heartbeat IPC: 1.25569 cumulative IPC: 1.36787 (Simulation time: 0 hr 7 min 34 sec) 
Heartbeat CPU  0 instructions:  275000000 cycles:  170749380 heartbeat IPC: 1.42732 cumulative IPC: 1.36820 (Simulation time: 0 hr 7 min 36 sec) 
Heartbeat CPU  0 instructions:  276000000 cycles:  171421927 heartbeat IPC: 1.48688 cumulative IPC: 1.36882 (Simulation time: 0 hr 7 min 37 sec) 
Heartbeat CPU  0 instructions:  277000003 cycles:  172226214 heartbeat IPC: 1.24334 cumulative IPC: 1.36804 (Simulation time: 0 hr 7 min 39 sec) 
Heartbeat CPU  0 instructions:  278000002 cycles:  172930780 heartbeat IPC: 1.41931 cumulative IPC: 1.36831 (Simulation time: 0 hr 7 min 41 sec) 
Heartbeat CPU  0 instructions:  279000001 cycles:  173601346 heartbeat IPC: 1.49128 cumulative IPC: 1.36894 (Simulation time: 0 hr 7 min 42 sec) 
Heartbeat CPU  0 instructions:  280000000 cycles:  174402240 heartbeat IPC: 1.24860 cumulative IPC: 1.36821 (Simulation time: 0 hr 7 min 44 sec) 
Heartbeat CPU  0 instructions:  281000000 cycles:  175103328 heartbeat IPC: 1.42635 cumulative IPC: 1.36852 (Simulation time: 0 hr 7 min 46 sec) 
Heartbeat CPU  0 instructions:  282000002 cycles:  175776064 heartbeat IPC: 1.48647 cumulative IPC: 1.36912 (Simulation time: 0 hr 7 min 48 sec) 
Heartbeat CPU  0 instructions:  283000002 cycles:  176574072 heartbeat IPC: 1.25312 cumulative IPC: 1.36842 (Simulation time: 0 hr 7 min 50 sec) 
Heartbeat CPU  0 instructions:  284000000 cycles:  177276062 heartbeat IPC: 1.42452 cumulative IPC: 1.36872 (Simulation time: 0 hr 7 min 51 sec) 
Heartbeat CPU  0 instructions:  285000000 cycles:  177950261 heartbeat IPC: 1.48324 cumulative IPC: 1.36929 (Simulation time: 0 hr 7 min 53 sec) 
Heartbeat CPU  0 instructions:  286000000 cycles:  178748364 heartbeat IPC: 1.25297 cumulative IPC: 1.36861 (Simulation time: 0 hr 7 min 55 sec) 
Heartbeat CPU  0 instructions:  287000000 cycles:  179451882 heartbeat IPC: 1.42143 cumulative IPC: 1.36888 (Simulation time: 0 hr 7 min 56 sec) 
Heartbeat CPU  0 instructions:  288000000 cycles:  180124296 heartbeat IPC: 1.48718 cumulative IPC: 1.36946 (Simulation time: 0 hr 7 min 58 sec) 
Heartbeat CPU  0 instructions:  289000003 cycles:  180924478 heartbeat IPC: 1.24972 cumulative IPC: 1.36876 (Simulation time: 0 hr 8 min 0 sec) 
Heartbeat CPU  0 instructions:  290000002 cycles:  181629469 heartbeat IPC: 1.41846 cumulative IPC: 1.36902 (Simulation time: 0 hr 8 min 2 sec) 
Heartbeat CPU  0 instructions:  291000001 cycles:  182295802 heartbeat IPC: 1.50075 cumulative IPC: 1.36965 (Simulation time: 0 hr 8 min 3 sec) 
Heartbeat CPU  0 instructions:  292000000 cycles:  183035712 heartbeat IPC: 1.35151 cumulative IPC: 1.36955 (Simulation time: 0 hr 8 min 5 sec) 
Heartbeat CPU  0 instructions:  293000001 cycles:  183748809 heartbeat IPC: 1.40234 cumulative IPC: 1.36972 (Simulation time: 0 hr 8 min 7 sec) 
Heartbeat CPU  0 instructions:  294000001 cycles:  184427239 heartbeat IPC: 1.47399 cumulative IPC: 1.37022 (Simulation time: 0 hr 8 min 9 sec) 
Heartbeat CPU  0 instructions:  295000002 cycles:  185141936 heartbeat IPC: 1.39920 cumulative IPC: 1.37036 (Simulation time: 0 hr 8 min 10 sec) 
Heartbeat CPU  0 instructions:  296000000 cycles:  185857627 heartbeat IPC: 1.39725 cumulative IPC: 1.37050 (Simulation time: 0 hr 8 min 12 sec) 
Heartbeat CPU  0 instructions:  297000001 cycles:  186544217 heartbeat IPC: 1.45647 cumulative IPC: 1.37091 (Simulation time: 0 hr 8 min 14 sec) 
Heartbeat CPU  0 instructions:  298000000 cycles:  187256905 heartbeat IPC: 1.40314 cumulative IPC: 1.37107 (Simulation time: 0 hr 8 min 16 sec) 
Heartbeat CPU  0 instructions:  299000000 cycles:  187976116 heartbeat IPC: 1.39041 cumulative IPC: 1.37116 (Simulation time: 0 hr 8 min 17 sec) 
Heartbeat CPU  0 instructions:  300000000 cycles:  188669124 heartbeat IPC: 1.44298 cumulative IPC: 1.37150 (Simulation time: 0 hr 8 min 19 sec) 
Heartbeat CPU  0 instructions:  301000003 cycles:  189368384 heartbeat IPC: 1.43009 cumulative IPC: 1.37178 (Simulation time: 0 hr 8 min 21 sec) 
Heartbeat CPU  0 instructions:  302000003 cycles:  190084935 heartbeat IPC: 1.39557 cumulative IPC: 1.37190 (Simulation time: 0 hr 8 min 22 sec) 
Heartbeat CPU  0 instructions:  303000002 cycles:  190785573 heartbeat IPC: 1.42727 cumulative IPC: 1.37216 (Simulation time: 0 hr 8 min 24 sec) 
Heartbeat CPU  0 instructions:  304000000 cycles:  191503503 heartbeat IPC: 1.39289 cumulative IPC: 1.37226 (Simulation time: 0 hr 8 min 26 sec) 
Heartbeat CPU  0 instructions:  305000001 cycles:  192193014 heartbeat IPC: 1.45030 cumulative IPC: 1.37262 (Simulation time: 0 hr 8 min 28 sec) 
Heartbeat CPU  0 instructions:  306000003 cycles:  192895029 heartbeat IPC: 1.42447 cumulative IPC: 1.37286 (Simulation time: 0 hr 8 min 29 sec) 
Heartbeat CPU  0 instructions:  307000000 cycles:  193618822 heartbeat IPC: 1.38161 cumulative IPC: 1.37291 (Simulation time: 0 hr 8 min 31 sec) 
Heartbeat CPU  0 instructions:  308000000 cycles:  194299373 heartbeat IPC: 1.46940 cumulative IPC: 1.37334 (Simulation time: 0 hr 8 min 33 sec) 
Heartbeat CPU  0 instructions:  309000002 cycles:  195014059 heartbeat IPC: 1.39922 cumulative IPC: 1.37346 (Simulation time: 0 hr 8 min 35 sec) 
Heartbeat CPU  0 instructions:  310000000 cycles:  195794532 heartbeat IPC: 1.28127 cumulative IPC: 1.37299 (Simulation time: 0 hr 8 min 36 sec) 
Heartbeat CPU  0 instructions:  311000001 cycles:  196473460 heartbeat IPC: 1.47291 cumulative IPC: 1.37343 (Simulation time: 0 hr 8 min 38 sec) 
Heartbeat CPU  0 instructions:  312000000 cycles:  197186018 heartbeat IPC: 1.40339 cumulative IPC: 1.37357 (Simulation time: 0 hr 8 min 40 sec) 
Heartbeat CPU  0 instructions:  313000002 cycles:  198014874 heartbeat IPC: 1.20648 cumulative IPC: 1.37268 (Simulation time: 0 hr 8 min 42 sec) 
Heartbeat CPU  0 instructions:  314000001 cycles:  198755937 heartbeat IPC: 1.34941 cumulative IPC: 1.37257 (Simulation time: 0 hr 8 min 43 sec) 
Heartbeat CPU  0 instructions:  315000000 cycles:  199473647 heartbeat IPC: 1.39332 cumulative IPC: 1.37266 (Simulation time: 0 hr 8 min 45 sec) 
Heartbeat CPU  0 instructions:  316000000 cycles:  200197116 heartbeat IPC: 1.38223 cumulative IPC: 1.37271 (Simulation time: 0 hr 8 min 47 sec) 
Heartbeat CPU  0 instructions:  317000001 cycles:  200985022 heartbeat IPC: 1.26919 cumulative IPC: 1.37219 (Simulation time: 0 hr 8 min 49 sec) 
Heartbeat CPU  0 instructions:  318000001 cycles:  201824284 heartbeat IPC: 1.19152 cumulative IPC: 1.37124 (Simulation time: 0 hr 8 min 50 sec) 
Heartbeat CPU  0 instructions:  319000003 cycles:  202514149 heartbeat IPC: 1.44956 cumulative IPC: 1.37157 (Simulation time: 0 hr 8 min 52 sec) 
Heartbeat CPU  0 instructions:  320000000 cycles:  203219321 heartbeat IPC: 1.41809 cumulative IPC: 1.37178 (Simulation time: 0 hr 8 min 54 sec) 
Heartbeat CPU  0 instructions:  321000001 cycles:  203996859 heartbeat IPC: 1.28611 cumulative IPC: 1.37137 (Simulation time: 0 hr 8 min 56 sec) 
Heartbeat CPU  0 instructions:  322000003 cycles:  204778544 heartbeat IPC: 1.27929 cumulative IPC: 1.37092 (Simulation time: 0 hr 8 min 57 sec) 
Heartbeat CPU  0 instructions:  323000001 cycles:  205555823 heartbeat IPC: 1.28654 cumulative IPC: 1.37052 (Simulation time: 0 hr 8 min 59 sec) 
Heartbeat CPU  0 instructions:  324000000 cycles:  206266471 heartbeat IPC: 1.40717 cumulative IPC: 1.37068 (Simulation time: 0 hr 9 min 1 sec) 
Heartbeat CPU  0 instructions:  325000000 cycles:  206994031 heartbeat IPC: 1.37446 cumulative IPC: 1.37069 (Simulation time: 0 hr 9 min 3 sec) 
Heartbeat CPU  0 instructions:  326000003 cycles:  207787581 heartbeat IPC: 1.26016 cumulative IPC: 1.37016 (Simulation time: 0 hr 9 min 4 sec) 
Heartbeat CPU  0 instructions:  327000000 cycles:  208525444 heartbeat IPC: 1.35526 cumulative IPC: 1.37010 (Simulation time: 0 hr 9 min 6 sec) 
Heartbeat CPU  0 instructions:  328000000 cycles:  209305584 heartbeat IPC: 1.28182 cumulative IPC: 1.36968 (Simulation time: 0 hr 9 min 8 sec) 
Heartbeat CPU  0 instructions:  329000001 cycles:  210099584 heartbeat IPC: 1.25945 cumulative IPC: 1.36916 (Simulation time: 0 hr 9 min 10 sec) 
Heartbeat CPU  0 instructions:  330000001 cycles:  210761741 heartbeat IPC: 1.51022 cumulative IPC: 1.36972 (Simulation time: 0 hr 9 min 11 sec) 
Heartbeat CPU  0 instructions:  331000000 cycles:  211461692 heartbeat IPC: 1.42867 cumulative IPC: 1.36996 (Simulation time: 0 hr 9 min 13 sec) 
Heartbeat CPU  0 instructions:  332000000 cycles:  212175967 heartbeat IPC: 1.40002 cumulative IPC: 1.37009 (Simulation time: 0 hr 9 min 15 sec) 
Heartbeat CPU  0 instructions:  333000001 cycles:  212950791 heartbeat IPC: 1.29062 cumulative IPC: 1.36972 (Simulation time: 0 hr 9 min 17 sec) 
Heartbeat CPU  0 instructions:  334000002 cycles:  213711005 heartbeat IPC: 1.31542 cumulative IPC: 1.36948 (Simulation time: 0 hr 9 min 18 sec) 
Heartbeat CPU  0 instructions:  335000000 cycles:  214526416 heartbeat IPC: 1.22637 cumulative IPC: 1.36880 (Simulation time: 0 hr 9 min 20 sec) 
Heartbeat CPU  0 instructions:  336000000 cycles:  215241323 heartbeat IPC: 1.39878 cumulative IPC: 1.36893 (Simulation time: 0 hr 9 min 22 sec) 
Heartbeat CPU  0 instructions:  337000002 cycles:  215950345 heartbeat IPC: 1.41040 cumulative IPC: 1.36910 (Simulation time: 0 hr 9 min 24 sec) 
Heartbeat CPU  0 instructions:  338000003 cycles:  216736224 heartbeat IPC: 1.27246 cumulative IPC: 1.36866 (Simulation time: 0 hr 9 min 25 sec) 
Heartbeat CPU  0 instructions:  339000002 cycles:  217477112 heartbeat IPC: 1.34973 cumulative IPC: 1.36858 (Simulation time: 0 hr 9 min 27 sec) 
Heartbeat CPU  0 instructions:  340000000 cycles:  218247857 heartbeat IPC: 1.29744 cumulative IPC: 1.36827 (Simulation time: 0 hr 9 min 29 sec) 
Heartbeat CPU  0 instructions:  341000001 cycles:  219045446 heartbeat IPC: 1.25378 cumulative IPC: 1.36775 (Simulation time: 0 hr 9 min 31 sec) 
Heartbeat CPU  0 instructions:  342000003 cycles:  219722695 heartbeat IPC: 1.47656 cumulative IPC: 1.36817 (Simulation time: 0 hr 9 min 32 sec) 
Heartbeat CPU  0 instructions:  343000003 cycles:  220479026 heartbeat IPC: 1.32217 cumulative IPC: 1.36797 (Simulation time: 0 hr 9 min 34 sec) 
Heartbeat CPU  0 instructions:  344000000 cycles:  221205453 heartbeat IPC: 1.37660 cumulative IPC: 1.36801 (Simulation time: 0 hr 9 min 36 sec) 
Heartbeat CPU  0 instructions:  345000003 cycles:  221874125 heartbeat IPC: 1.49551 cumulative IPC: 1.36848 (Simulation time: 0 hr 9 min 37 sec) 
Heartbeat CPU  0 instructions:  346000000 cycles:  222586855 heartbeat IPC: 1.40305 cumulative IPC: 1.36862 (Simulation time: 0 hr 9 min 39 sec) 
Heartbeat CPU  0 instructions:  347000001 cycles:  223317325 heartbeat IPC: 1.36898 cumulative IPC: 1.36862 (Simulation time: 0 hr 9 min 41 sec) 
Heartbeat CPU  0 instructions:  348000000 cycles:  224041311 heartbeat IPC: 1.38124 cumulative IPC: 1.36867 (Simulation time: 0 hr 9 min 43 sec) 
Heartbeat CPU  0 instructions:  349000003 cycles:  224769230 heartbeat IPC: 1.37378 cumulative IPC: 1.36869 (Simulation time: 0 hr 9 min 44 sec) 
Heartbeat CPU  0 instructions:  350000003 cycles:  225479593 heartbeat IPC: 1.40773 cumulative IPC: 1.36884 (Simulation time: 0 hr 9 min 46 sec) 
Heartbeat CPU  0 instructions:  351000002 cycles:  226259717 heartbeat IPC: 1.28185 cumulative IPC: 1.36847 (Simulation time: 0 hr 9 min 48 sec) 
Heartbeat CPU  0 instructions:  352000000 cycles:  226949796 heartbeat IPC: 1.44911 cumulative IPC: 1.36878 (Simulation time: 0 hr 9 min 50 sec) 
Heartbeat CPU  0 instructions:  353000003 cycles:  227689282 heartbeat IPC: 1.35229 cumulative IPC: 1.36871 (Simulation time: 0 hr 9 min 51 sec) 
Heartbeat CPU  0 instructions:  354000002 cycles:  228377266 heartbeat IPC: 1.45352 cumulative IPC: 1.36902 (Simulation time: 0 hr 9 min 53 sec) 
Heartbeat CPU  0 instructions:  355000002 cycles:  229087622 heartbeat IPC: 1.40774 cumulative IPC: 1.36917 (Simulation time: 0 hr 9 min 55 sec) 
Heartbeat CPU  0 instructions:  356000000 cycles:  229846100 heartbeat IPC: 1.31843 cumulative IPC: 1.36897 (Simulation time: 0 hr 9 min 57 sec) 
Heartbeat CPU  0 instructions:  357000002 cycles:  230612557 heartbeat IPC: 1.30471 cumulative IPC: 1.36870 (Simulation time: 0 hr 9 min 58 sec) 
Heartbeat CPU  0 instructions:  358000002 cycles:  231302786 heartbeat IPC: 1.44879 cumulative IPC: 1.36900 (Simulation time: 0 hr 10 min 0 sec) 
Heartbeat CPU  0 instructions:  359000002 cycles:  232014160 heartbeat IPC: 1.40573 cumulative IPC: 1.36914 (Simulation time: 0 hr 10 min 2 sec) 
Heartbeat CPU  0 instructions:  360000000 cycles:  232703173 heartbeat IPC: 1.45135 cumulative IPC: 1.36943 (Simulation time: 0 hr 10 min 3 sec) 
Heartbeat CPU  0 instructions:  361000000 cycles:  233388938 heartbeat IPC: 1.45823 cumulative IPC: 1.36975 (Simulation time: 0 hr 10 min 5 sec) 
Heartbeat CPU  0 instructions:  362000003 cycles:  234120700 heartbeat IPC: 1.36657 cumulative IPC: 1.36974 (Simulation time: 0 hr 10 min 7 sec) 
Heartbeat CPU  0 instructions:  363000000 cycles:  234836173 heartbeat IPC: 1.39767 cumulative IPC: 1.36984 (Simulation time: 0 hr 10 min 9 sec) 
Heartbeat CPU  0 instructions:  364000000 cycles:  235546907 heartbeat IPC: 1.40700 cumulative IPC: 1.36998 (Simulation time: 0 hr 10 min 10 sec) 
Heartbeat CPU  0 instructions:  365000001 cycles:  236272225 heartbeat IPC: 1.37871 cumulative IPC: 1.37001 (Simulation time: 0 hr 10 min 12 sec) 
Heartbeat CPU  0 instructions:  366000003 cycles:  237065176 heartbeat IPC: 1.26111 cumulative IPC: 1.36957 (Simulation time: 0 hr 10 min 14 sec) 
Heartbeat CPU  0 instructions:  367000001 cycles:  237811547 heartbeat IPC: 1.33981 cumulative IPC: 1.36946 (Simulation time: 0 hr 10 min 16 sec) 
Heartbeat CPU  0 instructions:  368000000 cycles:  238616131 heartbeat IPC: 1.24288 cumulative IPC: 1.36894 (Simulation time: 0 hr 10 min 17 sec) 
Heartbeat CPU  0 instructions:  369000000 cycles:  239348497 heartbeat IPC: 1.36544 cumulative IPC: 1.36892 (Simulation time: 0 hr 10 min 19 sec) 
Heartbeat CPU  0 instructions:  370000001 cycles:  240011964 heartbeat IPC: 1.50724 cumulative IPC: 1.36939 (Simulation time: 0 hr 10 min 21 sec) 
Heartbeat CPU  0 instructions:  371000001 cycles:  240736679 heartbeat IPC: 1.37985 cumulative IPC: 1.36943 (Simulation time: 0 hr 10 min 23 sec) 
Heartbeat CPU  0 instructions:  372000000 cycles:  241493402 heartbeat IPC: 1.32149 cumulative IPC: 1.36924 (Simulation time: 0 hr 10 min 24 sec) 
Heartbeat CPU  0 instructions:  373000000 cycles:  242212228 heartbeat IPC: 1.39116 cumulative IPC: 1.36932 (Simulation time: 0 hr 10 min 26 sec) 
Heartbeat CPU  0 instructions:  374000002 cycles:  242969228 heartbeat IPC: 1.32101 cumulative IPC: 1.36914 (Simulation time: 0 hr 10 min 28 sec) 
Heartbeat CPU  0 instructions:  375000000 cycles:  243686422 heartbeat IPC: 1.39432 cumulative IPC: 1.36923 (Simulation time: 0 hr 10 min 30 sec) 
Heartbeat CPU  0 instructions:  376000000 cycles:  244417266 heartbeat IPC: 1.36828 cumulative IPC: 1.36923 (Simulation time: 0 hr 10 min 31 sec) 
Heartbeat CPU  0 instructions:  377000001 cycles:  245127668 heartbeat IPC: 1.40766 cumulative IPC: 1.36936 (Simulation time: 0 hr 10 min 33 sec) 
Heartbeat CPU  0 instructions:  378000003 cycles:  245912462 heartbeat IPC: 1.27422 cumulative IPC: 1.36899 (Simulation time: 0 hr 10 min 35 sec) 
Heartbeat CPU  0 instructions:  379000002 cycles:  246607409 heartbeat IPC: 1.43896 cumulative IPC: 1.36923 (Simulation time: 0 hr 10 min 36 sec) 
Heartbeat CPU  0 instructions:  380000000 cycles:  247331372 heartbeat IPC: 1.38128 cumulative IPC: 1.36928 (Simulation time: 0 hr 10 min 38 sec) 
Heartbeat CPU  0 instructions:  381000000 cycles:  248103966 heartbeat IPC: 1.29434 cumulative IPC: 1.36899 (Simulation time: 0 hr 10 min 40 sec) 
Heartbeat CPU  0 instructions:  382000001 cycles:  248788221 heartbeat IPC: 1.46144 cumulative IPC: 1.36930 (Simulation time: 0 hr 10 min 42 sec) 
Heartbeat CPU  0 instructions:  383000002 cycles:  249493852 heartbeat IPC: 1.41717 cumulative IPC: 1.36946 (Simulation time: 0 hr 10 min 43 sec) 
Heartbeat CPU  0 instructions:  384000000 cycles:  250195072 heartbeat IPC: 1.42608 cumulative IPC: 1.36966 (Simulation time: 0 hr 10 min 45 sec) 
Heartbeat CPU  0 instructions:  385000001 cycles:  250964913 heartbeat IPC: 1.29897 cumulative IPC: 1.36939 (Simulation time: 0 hr 10 min 47 sec) 
Heartbeat CPU  0 instructions:  386000003 cycles:  251713364 heartbeat IPC: 1.33610 cumulative IPC: 1.36927 (Simulation time: 0 hr 10 min 49 sec) 
Heartbeat CPU  0 instructions:  387000002 cycles:  252428234 heartbeat IPC: 1.39885 cumulative IPC: 1.36938 (Simulation time: 0 hr 10 min 50 sec) 
Heartbeat CPU  0 instructions:  388000000 cycles:  253149028 heartbeat IPC: 1.38736 cumulative IPC: 1.36944 (Simulation time: 0 hr 10 min 52 sec) 
Heartbeat CPU  0 instructions:  389000000 cycles:  253807868 heartbeat IPC: 1.51782 cumulative IPC: 1.36990 (Simulation time: 0 hr 10 min 54 sec) 
Heartbeat CPU  0 instructions:  390000003 cycles:  254501678 heartbeat IPC: 1.44132 cumulative IPC: 1.37013 (Simulation time: 0 hr 10 min 56 sec) 
Heartbeat CPU  0 instructions:  391000000 cycles:  255231144 heartbeat IPC: 1.37086 cumulative IPC: 1.37014 (Simulation time: 0 hr 10 min 57 sec) 
Heartbeat CPU  0 instructions:  392000000 cycles:  255950372 heartbeat IPC: 1.39038 cumulative IPC: 1.37021 (Simulation time: 0 hr 10 min 59 sec) 
Heartbeat CPU  0 instructions:  393000000 cycles:  256627525 heartbeat IPC: 1.47677 cumulative IPC: 1.37054 (Simulation time: 0 hr 11 min 1 sec) 
Heartbeat CPU  0 instructions:  394000000 cycles:  257357607 heartbeat IPC: 1.36971 cumulative IPC: 1.37054 (Simulation time: 0 hr 11 min 3 sec) 
Heartbeat CPU  0 instructions:  395000000 cycles:  258121974 heartbeat IPC: 1.30827 cumulative IPC: 1.37032 (Simulation time: 0 hr 11 min 4 sec) 
Heartbeat CPU  0 instructions:  396000000 cycles:  258855129 heartbeat IPC: 1.36397 cumulative IPC: 1.37030 (Simulation time: 0 hr 11 min 6 sec) 
Heartbeat CPU  0 instructions:  397000000 cycles:  259697006 heartbeat IPC: 1.18782 cumulative IPC: 1.36959 (Simulation time: 0 hr 11 min 8 sec) 
Heartbeat CPU  0 instructions:  398000000 cycles:  260399962 heartbeat IPC: 1.42256 cumulative IPC: 1.36976 (Simulation time: 0 hr 11 min 10 sec) 
Heartbeat CPU  0 instructions:  399000003 cycles:  261144634 heartbeat IPC: 1.34288 cumulative IPC: 1.36967 (Simulation time: 0 hr 11 min 11 sec) 
Heartbeat CPU  0 instructions:  400000000 cycles:  261852414 heartbeat IPC: 1.41286 cumulative IPC: 1.36981 (Simulation time: 0 hr 11 min 13 sec) 
Heartbeat CPU  0 instructions:  401000001 cycles:  262573633 heartbeat IPC: 1.38654 cumulative IPC: 1.36986 (Simulation time: 0 hr 11 min 15 sec) 
Heartbeat CPU  0 instructions:  402000003 cycles:  263281302 heartbeat IPC: 1.41309 cumulative IPC: 1.37000 (Simulation time: 0 hr 11 min 16 sec) 
Heartbeat CPU  0 instructions:  403000002 cycles:  264025586 heartbeat IPC: 1.34357 cumulative IPC: 1.36991 (Simulation time: 0 hr 11 min 18 sec) 
Heartbeat CPU  0 instructions:  404000000 cycles:  264790873 heartbeat IPC: 1.30670 cumulative IPC: 1.36969 (Simulation time: 0 hr 11 min 20 sec) 
Heartbeat CPU  0 instructions:  405000002 cycles:  265473890 heartbeat IPC: 1.46410 cumulative IPC: 1.36998 (Simulation time: 0 hr 11 min 22 sec) 
Heartbeat CPU  0 instructions:  406000000 cycles:  266216737 heartbeat IPC: 1.34617 cumulative IPC: 1.36991 (Simulation time: 0 hr 11 min 23 sec) 
Heartbeat CPU  0 instructions:  407000000 cycles:  266940420 heartbeat IPC: 1.38182 cumulative IPC: 1.36994 (Simulation time: 0 hr 11 min 25 sec) 
Heartbeat CPU  0 instructions:  408000000 cycles:  267636072 heartbeat IPC: 1.43750 cumulative IPC: 1.37015 (Simulation time: 0 hr 11 min 27 sec) 
Heartbeat CPU  0 instructions:  409000003 cycles:  268420117 heartbeat IPC: 1.27544 cumulative IPC: 1.36982 (Simulation time: 0 hr 11 min 29 sec) 
Heartbeat CPU  0 instructions:  410000000 cycles:  269132324 heartbeat IPC: 1.40408 cumulative IPC: 1.36993 (Simulation time: 0 hr 11 min 30 sec) 
Heartbeat CPU  0 instructions:  411000003 cycles:  269841400 heartbeat IPC: 1.41029 cumulative IPC: 1.37006 (Simulation time: 0 hr 11 min 32 sec) 
Heartbeat CPU  0 instructions:  412000000 cycles:  270707608 heartbeat IPC: 1.15445 cumulative IPC: 1.36924 (Simulation time: 0 hr 11 min 34 sec) 
Heartbeat CPU  0 instructions:  413000002 cycles:  271524618 heartbeat IPC: 1.22398 cumulative IPC: 1.36872 (Simulation time: 0 hr 11 min 36 sec) 
Heartbeat CPU  0 instructions:  414000001 cycles:  275952702 heartbeat IPC: 0.22583 cumulative IPC: 1.34701 (Simulation time: 0 hr 11 min 39 sec) 
Heartbeat CPU  0 instructions:  415000002 cycles:  278898513 heartbeat IPC: 0.33947 cumulative IPC: 1.33444 (Simulation time: 0 hr 11 min 42 sec) 
Heartbeat CPU  0 instructions:  416000000 cycles:  281716867 heartbeat IPC: 0.35482 cumulative IPC: 1.32288 (Simulation time: 0 hr 11 min 45 sec) 
Heartbeat CPU  0 instructions:  417000001 cycles:  284360147 heartbeat IPC: 0.37832 cumulative IPC: 1.31254 (Simulation time: 0 hr 11 min 47 sec) 
Heartbeat CPU  0 instructions:  418000001 cycles:  286079794 heartbeat IPC: 0.58151 cumulative IPC: 1.30737 (Simulation time: 0 hr 11 min 50 sec) 
Heartbeat CPU  0 instructions:  419000001 cycles:  291686745 heartbeat IPC: 0.17835 cumulative IPC: 1.28193 (Simulation time: 0 hr 11 min 54 sec) 
Heartbeat CPU  0 instructions:  420000000 cycles:  297057752 heartbeat IPC: 0.18618 cumulative IPC: 1.25878 (Simulation time: 0 hr 11 min 57 sec) 
Heartbeat CPU  0 instructions:  421000003 cycles:  301810215 heartbeat IPC: 0.21042 cumulative IPC: 1.23954 (Simulation time: 0 hr 12 min 0 sec) 
Heartbeat CPU  0 instructions:  422000001 cycles:  306124101 heartbeat IPC: 0.23181 cumulative IPC: 1.22303 (Simulation time: 0 hr 12 min 3 sec) 
Heartbeat CPU  0 instructions:  423000000 cycles:  310259863 heartbeat IPC: 0.24179 cumulative IPC: 1.20785 (Simulation time: 0 hr 12 min 6 sec) 
Heartbeat CPU  0 instructions:  424000000 cycles:  312483079 heartbeat IPC: 0.44980 cumulative IPC: 1.20160 (Simulation time: 0 hr 12 min 9 sec) 
Heartbeat CPU  0 instructions:  425000002 cycles:  314423205 heartbeat IPC: 0.51543 cumulative IPC: 1.19670 (Simulation time: 0 hr 12 min 11 sec) 
Heartbeat CPU  0 instructions:  426000002 cycles:  316160010 heartbeat IPC: 0.57577 cumulative IPC: 1.19276 (Simulation time: 0 hr 12 min 14 sec) 
Heartbeat CPU  0 instructions:  427000000 cycles:  317868975 heartbeat IPC: 0.58515 cumulative IPC: 1.18898 (Simulation time: 0 hr 12 min 16 sec) 
Heartbeat CPU  0 instructions:  428000000 cycles:  319590549 heartbeat IPC: 0.58086 cumulative IPC: 1.18520 (Simulation time: 0 hr 12 min 18 sec) 
Heartbeat CPU  0 instructions:  429000000 cycles:  321272398 heartbeat IPC: 0.59458 cumulative IPC: 1.18163 (Simulation time: 0 hr 12 min 21 sec) 
Heartbeat CPU  0 instructions:  430000001 cycles:  322995307 heartbeat IPC: 0.58041 cumulative IPC: 1.17793 (Simulation time: 0 hr 12 min 23 sec) 
Heartbeat CPU  0 instructions:  431000000 cycles:  328007833 heartbeat IPC: 0.19950 cumulative IPC: 1.16073 (Simulation time: 0 hr 12 min 26 sec) 
Heartbeat CPU  0 instructions:  432000000 cycles:  330522030 heartbeat IPC: 0.39774 cumulative IPC: 1.15407 (Simulation time: 0 hr 12 min 29 sec) 
Heartbeat CPU  0 instructions:  433000000 cycles:  334725874 heartbeat IPC: 0.23788 cumulative IPC: 1.14087 (Simulation time: 0 hr 12 min 32 sec) 
Heartbeat CPU  0 instructions:  434000001 cycles:  340576183 heartbeat IPC: 0.17093 cumulative IPC: 1.12181 (Simulation time: 0 hr 12 min 36 sec) 
Heartbeat CPU  0 instructions:  435000003 cycles:  345477720 heartbeat IPC: 0.20402 cumulative IPC: 1.10695 (Simulation time: 0 hr 12 min 39 sec) 
Heartbeat CPU  0 instructions:  436000000 cycles:  349966354 heartbeat IPC: 0.22278 cumulative IPC: 1.09403 (Simulation time: 0 hr 12 min 42 sec) 
Heartbeat CPU  0 instructions:  437000002 cycles:  353767519 heartbeat IPC: 0.26308 cumulative IPC: 1.08387 (Simulation time: 0 hr 12 min 45 sec) 
Heartbeat CPU  0 instructions:  438000002 cycles:  356246927 heartbeat IPC: 0.40332 cumulative IPC: 1.07848 (Simulation time: 0 hr 12 min 48 sec) 
Heartbeat CPU  0 instructions:  439000000 cycles:  358438641 heartbeat IPC: 0.45626 cumulative IPC: 1.07416 (Simulation time: 0 hr 12 min 50 sec) 
Heartbeat CPU  0 instructions:  440000000 cycles:  360175518 heartbeat IPC: 0.57575 cumulative IPC: 1.07143 (Simulation time: 0 hr 12 min 53 sec) 
Heartbeat CPU  0 instructions:  441000000 cycles:  361900749 heartbeat IPC: 0.57963 cumulative IPC: 1.06877 (Simulation time: 0 hr 12 min 55 sec) 
Heartbeat CPU  0 instructions:  442000000 cycles:  363615510 heartbeat IPC: 0.58317 cumulative IPC: 1.06618 (Simulation time: 0 hr 12 min 57 sec) 
Heartbeat CPU  0 instructions:  443000000 cycles:  365302119 heartbeat IPC: 0.59291 cumulative IPC: 1.06370 (Simulation time: 0 hr 12 min 59 sec) 
Heartbeat CPU  0 instructions:  444000000 cycles:  367016237 heartbeat IPC: 0.58339 cumulative IPC: 1.06116 (Simulation time: 0 hr 13 min 2 sec) 
Heartbeat CPU  0 instructions:  445000002 cycles:  369228474 heartbeat IPC: 0.45203 cumulative IPC: 1.05703 (Simulation time: 0 hr 13 min 4 sec) 
Heartbeat CPU  0 instructions:  446000001 cycles:  374264101 heartbeat IPC: 0.19858 cumulative IPC: 1.04399 (Simulation time: 0 hr 13 min 8 sec) 
Heartbeat CPU  0 instructions:  447000000 cycles:  376904055 heartbeat IPC: 0.37879 cumulative IPC: 1.03873 (Simulation time: 0 hr 13 min 11 sec) 
Heartbeat CPU  0 instructions:  448000000 cycles:  383455584 heartbeat IPC: 0.15264 cumulative IPC: 1.02169 (Simulation time: 0 hr 13 min 14 sec) 
Heartbeat CPU  0 instructions:  449000001 cycles:  388503418 heartbeat IPC: 0.19810 cumulative IPC: 1.00966 (Simulation time: 0 hr 13 min 18 sec) 
Heartbeat CPU  0 instructions:  450000000 cycles:  393163992 heartbeat IPC: 0.21457 cumulative IPC: 0.99909 (Simulation time: 0 hr 13 min 21 sec) 
Heartbeat CPU  0 instructions:  451000000 cycles:  397079679 heartbeat IPC: 0.25538 cumulative IPC: 0.99086 (Simulation time: 0 hr 13 min 23 sec) 
Heartbeat CPU  0 instructions:  452000000 cycles:  400128715 heartbeat IPC: 0.32797 cumulative IPC: 0.98521 (Simulation time: 0 hr 13 min 26 sec) 
Heartbeat CPU  0 instructions:  453000001 cycles:  402235554 heartbeat IPC: 0.47465 cumulative IPC: 0.98221 (Simulation time: 0 hr 13 min 29 sec) 
Heartbeat CPU  0 instructions:  454000000 cycles:  403963912 heartbeat IPC: 0.57858 cumulative IPC: 0.98028 (Simulation time: 0 hr 13 min 31 sec) 
Heartbeat CPU  0 instructions:  455000001 cycles:  405695472 heartbeat IPC: 0.57751 cumulative IPC: 0.97836 (Simulation time: 0 hr 13 min 34 sec) 
Heartbeat CPU  0 instructions:  456000000 cycles:  407422272 heartbeat IPC: 0.57911 cumulative IPC: 0.97647 (Simulation time: 0 hr 13 min 36 sec) 
Heartbeat CPU  0 instructions:  457000002 cycles:  409109322 heartbeat IPC: 0.59275 cumulative IPC: 0.97470 (Simulation time: 0 hr 13 min 38 sec) 
Heartbeat CPU  0 instructions:  458000000 cycles:  410817252 heartbeat IPC: 0.58550 cumulative IPC: 0.97290 (Simulation time: 0 hr 13 min 41 sec) 
Heartbeat CPU  0 instructions:  459000001 cycles:  412719650 heartbeat IPC: 0.52565 cumulative IPC: 0.97060 (Simulation time: 0 hr 13 min 43 sec) 
Heartbeat CPU  0 instructions:  460000000 cycles:  417869497 heartbeat IPC: 0.19418 cumulative IPC: 0.95993 (Simulation time: 0 hr 13 min 46 sec) 
Heartbeat CPU  0 instructions:  461000002 cycles:  420164516 heartbeat IPC: 0.43573 cumulative IPC: 0.95675 (Simulation time: 0 hr 13 min 49 sec) 
Heartbeat CPU  0 instructions:  462000000 cycles:  426296996 heartbeat IPC: 0.16307 cumulative IPC: 0.94405 (Simulation time: 0 hr 13 min 53 sec) 
Heartbeat CPU  0 instructions:  463000000 cycles:  431498610 heartbeat IPC: 0.19225 cumulative IPC: 0.93399 (Simulation time: 0 hr 13 min 56 sec) 
Heartbeat CPU  0 instructions:  464000000 cycles:  436174257 heartbeat IPC: 0.21387 cumulative IPC: 0.92543 (Simulation time: 0 hr 13 min 59 sec) 
Heartbeat CPU  0 instructions:  465000000 cycles:  440320151 heartbeat IPC: 0.24120 cumulative IPC: 0.91829 (Simulation time: 0 hr 14 min 2 sec) 
Heartbeat CPU  0 instructions:  466000000 cycles:  443987934 heartbeat IPC: 0.27264 cumulative IPC: 0.91239 (Simulation time: 0 hr 14 min 5 sec) 
Heartbeat CPU  0 instructions:  467000000 cycles:  445988615 heartbeat IPC: 0.49983 cumulative IPC: 0.91034 (Simulation time: 0 hr 14 min 8 sec) 
Heartbeat CPU  0 instructions:  468000000 cycles:  447712110 heartbeat IPC: 0.58022 cumulative IPC: 0.90894 (Simulation time: 0 hr 14 min 10 sec) 
Heartbeat CPU  0 instructions:  469000000 cycles:  449445676 heartbeat IPC: 0.57685 cumulative IPC: 0.90752 (Simulation time: 0 hr 14 min 13 sec) 
Heartbeat CPU  0 instructions:  470000002 cycles:  451162148 heartbeat IPC: 0.58259 cumulative IPC: 0.90616 (Simulation time: 0 hr 14 min 15 sec) 
Heartbeat CPU  0 instructions:  471000000 cycles:  452873724 heartbeat IPC: 0.58426 cumulative IPC: 0.90481 (Simulation time: 0 hr 14 min 17 sec) 
Heartbeat CPU  0 instructions:  472000000 cycles:  454577602 heartbeat IPC: 0.58690 cumulative IPC: 0.90350 (Simulation time: 0 hr 14 min 19 sec) 
Heartbeat CPU  0 instructions:  473000002 cycles:  456386639 heartbeat IPC: 0.55278 cumulative IPC: 0.90196 (Simulation time: 0 hr 14 min 22 sec) 
Heartbeat CPU  0 instructions:  474000000 cycles:  461529114 heartbeat IPC: 0.19446 cumulative IPC: 0.89327 (Simulation time: 0 hr 14 min 25 sec) 
Heartbeat CPU  0 instructions:  475000002 cycles:  463745269 heartbeat IPC: 0.45123 cumulative IPC: 0.89094 (Simulation time: 0 hr 14 min 28 sec) 
Heartbeat CPU  0 instructions:  476000000 cycles:  469014627 heartbeat IPC: 0.18978 cumulative IPC: 0.88227 (Simulation time: 0 hr 14 min 32 sec) 
Heartbeat CPU  0 instructions:  477000000 cycles:  474396685 heartbeat IPC: 0.18580 cumulative IPC: 0.87359 (Simulation time: 0 hr 14 min 35 sec) 
Heartbeat CPU  0 instructions:  478000002 cycles:  479202892 heartbeat IPC: 0.20806 cumulative IPC: 0.86626 (Simulation time: 0 hr 14 min 38 sec) 
Heartbeat CPU  0 instructions:  479000000 cycles:  483591595 heartbeat IPC: 0.22786 cumulative IPC: 0.85990 (Simulation time: 0 hr 14 min 41 sec) 
Heartbeat CPU  0 instructions:  480000000 cycles:  487577353 heartbeat IPC: 0.25089 cumulative IPC: 0.85444 (Simulation time: 0 hr 14 min 44 sec) 
Heartbeat CPU  0 instructions:  481000000 cycles:  489656179 heartbeat IPC: 0.48104 cumulative IPC: 0.85271 (Simulation time: 0 hr 14 min 47 sec) 
Heartbeat CPU  0 instructions:  482000000 cycles:  491506976 heartbeat IPC: 0.54031 cumulative IPC: 0.85142 (Simulation time: 0 hr 14 min 49 sec) 
Heartbeat CPU  0 instructions:  483000000 cycles:  493240520 heartbeat IPC: 0.57685 cumulative IPC: 0.85036 (Simulation time: 0 hr 14 min 51 sec) 
Heartbeat CPU  0 instructions:  484000000 cycles:  494964441 heartbeat IPC: 0.58007 cumulative IPC: 0.84933 (Simulation time: 0 hr 14 min 54 sec) 
Heartbeat CPU  0 instructions:  485000002 cycles:  496695516 heartbeat IPC: 0.57768 cumulative IPC: 0.84829 (Simulation time: 0 hr 14 min 56 sec) 
Heartbeat CPU  0 instructions:  486000003 cycles:  498382862 heartbeat IPC: 0.59265 cumulative IPC: 0.84735 (Simulation time: 0 hr 14 min 58 sec) 
Heartbeat CPU  0 instructions:  487000000 cycles:  500078087 heartbeat IPC: 0.58989 cumulative IPC: 0.84639 (Simulation time: 0 hr 15 min 1 sec) 
Heartbeat CPU  0 instructions:  488000000 cycles:  504235022 heartbeat IPC: 0.24056 cumulative IPC: 0.84093 (Simulation time: 0 hr 15 min 4 sec) 
Heartbeat CPU  0 instructions:  489000000 cycles:  507424898 heartbeat IPC: 0.31349 cumulative IPC: 0.83731 (Simulation time: 0 hr 15 min 7 sec) 
Heartbeat CPU  0 instructions:  490000003 cycles:  511320367 heartbeat IPC: 0.25671 cumulative IPC: 0.83249 (Simulation time: 0 hr 15 min 10 sec) 
Heartbeat CPU  0 instructions:  491000003 cycles:  517335727 heartbeat IPC: 0.16624 cumulative IPC: 0.82404 (Simulation time: 0 hr 15 min 14 sec) 
Heartbeat CPU  0 instructions:  492000000 cycles:  522250863 heartbeat IPC: 0.20345 cumulative IPC: 0.81768 (Simulation time: 0 hr 15 min 17 sec) 
Heartbeat CPU  0 instructions:  493000002 cycles:  526794594 heartbeat IPC: 0.22008 cumulative IPC: 0.81207 (Simulation time: 0 hr 15 min 20 sec) 
Heartbeat CPU  0 instructions:  494000001 cycles:  530594972 heartbeat IPC: 0.26313 cumulative IPC: 0.80779 (Simulation time: 0 hr 15 min 23 sec) 
Heartbeat CPU  0 instructions:  495000002 cycles:  533209938 heartbeat IPC: 0.38241 cumulative IPC: 0.80552 (Simulation time: 0 hr 15 min 25 sec) 
Heartbeat CPU  0 instructions:  496000000 cycles:  535450711 heartbeat IPC: 0.44627 cumulative IPC: 0.80389 (Simulation time: 0 hr 15 min 28 sec) 
Heartbeat CPU  0 instructions:  497000001 cycles:  537175381 heartbeat IPC: 0.57982 cumulative IPC: 0.80310 (Simulation time: 0 hr 15 min 30 sec) 
Heartbeat CPU  0 instructions:  498000001 cycles:  538901342 heartbeat IPC: 0.57939 cumulative IPC: 0.80233 (Simulation time: 0 hr 15 min 33 sec) 
Heartbeat CPU  0 instructions:  499000000 cycles:  540632435 heartbeat IPC: 0.57767 cumulative IPC: 0.80154 (Simulation time: 0 hr 15 min 35 sec) 
Heartbeat CPU  0 instructions:  500000000 cycles:  542323686 heartbeat IPC: 0.59128 cumulative IPC: 0.80083 (Simulation time: 0 hr 15 min 37 sec) 
Heartbeat CPU  0 instructions:  501000000 cycles:  544041375 heartbeat IPC: 0.58218 cumulative IPC: 0.80008 (Simulation time: 0 hr 15 min 40 sec) 
Heartbeat CPU  0 instructions:  502000002 cycles:  546152172 heartbeat IPC: 0.47376 cumulative IPC: 0.79871 (Simulation time: 0 hr 15 min 42 sec) 
Heartbeat CPU  0 instructions:  503000000 cycles:  551206287 heartbeat IPC: 0.19786 cumulative IPC: 0.79274 (Simulation time: 0 hr 15 min 45 sec) 
Heartbeat CPU  0 instructions:  504000000 cycles:  553531608 heartbeat IPC: 0.43005 cumulative IPC: 0.79109 (Simulation time: 0 hr 15 min 48 sec) 
Heartbeat CPU  0 instructions:  505000000 cycles:  560302983 heartbeat IPC: 0.14768 cumulative IPC: 0.78267 (Simulation time: 0 hr 15 min 52 sec) 
Heartbeat CPU  0 instructions:  506000001 cycles:  565374068 heartbeat IPC: 0.19720 cumulative IPC: 0.77699 (Simulation time: 0 hr 15 min 56 sec) 
Heartbeat CPU  0 instructions:  507000000 cycles:  570044291 heartbeat IPC: 0.21412 cumulative IPC: 0.77200 (Simulation time: 0 hr 15 min 59 sec) 
Heartbeat CPU  0 instructions:  508000000 cycles:  574004683 heartbeat IPC: 0.25250 cumulative IPC: 0.76813 (Simulation time: 0 hr 16 min 2 sec) 
Heartbeat CPU  0 instructions:  509000001 cycles:  577183947 heartbeat IPC: 0.31454 cumulative IPC: 0.76543 (Simulation time: 0 hr 16 min 5 sec) 
Heartbeat CPU  0 instructions:  510000001 cycles:  579286233 heartbeat IPC: 0.47567 cumulative IPC: 0.76429 (Simulation time: 0 hr 16 min 8 sec) 
Heartbeat CPU  0 instructions:  511000001 cycles:  581011332 heartbeat IPC: 0.57968 cumulative IPC: 0.76370 (Simulation time: 0 hr 16 min 10 sec) 
Heartbeat CPU  0 instructions:  512000000 cycles:  582737906 heartbeat IPC: 0.57918 cumulative IPC: 0.76311 (Simulation time: 0 hr 16 min 12 sec) 
Heartbeat CPU  0 instructions:  513000003 cycles:  584476024 heartbeat IPC: 0.57534 cumulative IPC: 0.76251 (Simulation time: 0 hr 16 min 15 sec) 
Heartbeat CPU  0 instructions:  514000002 cycles:  586170363 heartbeat IPC: 0.59020 cumulative IPC: 0.76197 (Simulation time: 0 hr 16 min 17 sec) 
Heartbeat CPU  0 instructions:  515000001 cycles:  587882016 heartbeat IPC: 0.58423 cumulative IPC: 0.76141 (Simulation time: 0 hr 16 min 19 sec) 
Heartbeat CPU  0 instructions:  516000000 cycles:  589775607 heartbeat IPC: 0.52810 cumulative IPC: 0.76061 (Simulation time: 0 hr 16 min 22 sec) 
Heartbeat CPU  0 instructions:  517000000 cycles:  594924313 heartbeat IPC: 0.19422 cumulative IPC: 0.75532 (Simulation time: 0 hr 16 min 25 sec) 
Heartbeat CPU  0 instructions:  518000002 cycles:  597181428 heartbeat IPC: 0.44304 cumulative IPC: 0.75405 (Simulation time: 0 hr 16 min 28 sec) 
Heartbeat CPU  0 instructions:  519000001 cycles:  603137390 heartbeat IPC: 0.16790 cumulative IPC: 0.74782 (Simulation time: 0 hr 16 min 32 sec) 
Heartbeat CPU  0 instructions:  520000000 cycles:  608434678 heartbeat IPC: 0.18878 cumulative IPC: 0.74259 (Simulation time: 0 hr 16 min 35 sec) 
Heartbeat CPU  0 instructions:  521000001 cycles:  613118452 heartbeat IPC: 0.21350 cumulative IPC: 0.73824 (Simulation time: 0 hr 16 min 38 sec) 
Heartbeat CPU  0 instructions:  522000001 cycles:  617323152 heartbeat IPC: 0.23783 cumulative IPC: 0.73458 (Simulation time: 0 hr 16 min 41 sec) 
Heartbeat CPU  0 instructions:  523000001 cycles:  621179532 heartbeat IPC: 0.25931 cumulative IPC: 0.73141 (Simulation time: 0 hr 16 min 44 sec) 
Heartbeat CPU  0 instructions:  524000000 cycles:  623130935 heartbeat IPC: 0.51245 cumulative IPC: 0.73067 (Simulation time: 0 hr 16 min 47 sec) 
Heartbeat CPU  0 instructions:  525000000 cycles:  624858312 heartbeat IPC: 0.57891 cumulative IPC: 0.73022 (Simulation time: 0 hr 16 min 49 sec) 
Heartbeat CPU  0 instructions:  526000000 cycles:  626581786 heartbeat IPC: 0.58022 cumulative IPC: 0.72978 (Simulation time: 0 hr 16 min 51 sec) 
Heartbeat CPU  0 instructions:  527000000 cycles:  628306449 heartbeat IPC: 0.57982 cumulative IPC: 0.72934 (Simulation time: 0 hr 16 min 54 sec) 
Heartbeat CPU  0 instructions:  528000000 cycles:  630031493 heartbeat IPC: 0.57970 cumulative IPC: 0.72890 (Simulation time: 0 hr 16 min 56 sec) 
Heartbeat CPU  0 instructions:  529000001 cycles:  631734400 heartbeat IPC: 0.58723 cumulative IPC: 0.72849 (Simulation time: 0 hr 16 min 58 sec) 
Heartbeat CPU  0 instructions:  530000001 cycles:  633432969 heartbeat IPC: 0.58873 cumulative IPC: 0.72809 (Simulation time: 0 hr 17 min 1 sec) 
Heartbeat CPU  0 instructions:  531000000 cycles:  638593609 heartbeat IPC: 0.19377 cumulative IPC: 0.72346 (Simulation time: 0 hr 17 min 4 sec) 
Heartbeat CPU  0 instructions:  532000000 cycles:  640882534 heartbeat IPC: 0.43689 cumulative IPC: 0.72236 (Simulation time: 0 hr 17 min 7 sec) 
Heartbeat CPU  0 instructions:  533000000 cycles:  645793797 heartbeat IPC: 0.20361 cumulative IPC: 0.71814 (Simulation time: 0 hr 17 min 10 sec) 
Heartbeat CPU  0 instructions:  534000000 cycles:  651440024 heartbeat IPC: 0.17711 cumulative IPC: 0.71312 (Simulation time: 0 hr 17 min 14 sec) 
Heartbeat CPU  0 instructions:  535000001 cycles:  656248114 heartbeat IPC: 0.20798 cumulative IPC: 0.70916 (Simulation time: 0 hr 17 min 17 sec) 
Heartbeat CPU  0 instructions:  536000000 cycles:  660683753 heartbeat IPC: 0.22545 cumulative IPC: 0.70568 (Simulation time: 0 hr 17 min 20 sec) 
Heartbeat CPU  0 instructions:  537000001 cycles:  664562307 heartbeat IPC: 0.25783 cumulative IPC: 0.70289 (Simulation time: 0 hr 17 min 23 sec) 
Heartbeat CPU  0 instructions:  538000001 cycles:  666722083 heartbeat IPC: 0.46301 cumulative IPC: 0.70206 (Simulation time: 0 hr 17 min 26 sec) 
Heartbeat CPU  0 instructions:  539000001 cycles:  668715781 heartbeat IPC: 0.50158 cumulative IPC: 0.70142 (Simulation time: 0 hr 17 min 28 sec) 
Heartbeat CPU  0 instructions:  540000000 cycles:  670452937 heartbeat IPC: 0.57565 cumulative IPC: 0.70107 (Simulation time: 0 hr 17 min 30 sec) 
Heartbeat CPU  0 instructions:  541000001 cycles:  672173004 heartbeat IPC: 0.58137 cumulative IPC: 0.70075 (Simulation time: 0 hr 17 min 33 sec) 
Heartbeat CPU  0 instructions:  542000003 cycles:  673896062 heartbeat IPC: 0.58036 cumulative IPC: 0.70042 (Simulation time: 0 hr 17 min 35 sec) 
Heartbeat CPU  0 instructions:  543000001 cycles:  675578584 heartbeat IPC: 0.59434 cumulative IPC: 0.70014 (Simulation time: 0 hr 17 min 37 sec) 
Heartbeat CPU  0 instructions:  544000000 cycles:  677281482 heartbeat IPC: 0.58723 cumulative IPC: 0.69983 (Simulation time: 0 hr 17 min 40 sec) 
Heartbeat CPU  0 instructions:  545000000 cycles:  680474208 heartbeat IPC: 0.31321 cumulative IPC: 0.69790 (Simulation time: 0 hr 17 min 42 sec) 
Heartbeat CPU  0 instructions:  546000000 cycles:  684567667 heartbeat IPC: 0.24429 cumulative IPC: 0.69500 (Simulation time: 0 hr 17 min 46 sec) 
Heartbeat CPU  0 instructions:  547000000 cycles:  688208677 heartbeat IPC: 0.27465 cumulative IPC: 0.69263 (Simulation time: 0 hr 17 min 49 sec) 
Heartbeat CPU  0 instructions:  548000000 cycles:  694382886 heartbeat IPC: 0.16196 cumulative IPC: 0.68760 (Simulation time: 0 hr 17 min 53 sec) 
Heartbeat CPU  0 instructions:  549000000 cycles:  699327292 heartbeat IPC: 0.20225 cumulative IPC: 0.68395 (Simulation time: 0 hr 17 min 56 sec) 
Heartbeat CPU  0 instructions:  550000001 cycles:  703926079 heartbeat IPC: 0.21745 cumulative IPC: 0.68070 (Simulation time: 0 hr 17 min 59 sec) 
Heartbeat CPU  0 instructions:  551000000 cycles:  707726448 heartbeat IPC: 0.26313 cumulative IPC: 0.67832 (Simulation time: 0 hr 18 min 2 sec) 
Heartbeat CPU  0 instructions:  552000000 cycles:  710413057 heartbeat IPC: 0.37222 cumulative IPC: 0.67708 (Simulation time: 0 hr 18 min 4 sec) 
Heartbeat CPU  0 instructions:  553000000 cycles:  712539214 heartbeat IPC: 0.47033 cumulative IPC: 0.67643 (Simulation time: 0 hr 18 min 7 sec) 
Heartbeat CPU  0 instructions:  554000001 cycles:  714259123 heartbeat IPC: 0.58143 cumulative IPC: 0.67618 (Simulation time: 0 hr 18 min 9 sec) 
Heartbeat CPU  0 instructions:  555000002 cycles:  715982230 heartbeat IPC: 0.58035 cumulative IPC: 0.67594 (Simulation time: 0 hr 18 min 12 sec) 
Heartbeat CPU  0 instructions:  556000000 cycles:  717720565 heartbeat IPC: 0.57526 cumulative IPC: 0.67568 (Simulation time: 0 hr 18 min 14 sec) 
Heartbeat CPU  0 instructions:  557000000 cycles:  719401640 heartbeat IPC: 0.59486 cumulative IPC: 0.67548 (Simulation time: 0 hr 18 min 16 sec) 
Heartbeat CPU  0 instructions:  558000003 cycles:  721124833 heartbeat IPC: 0.58032 cumulative IPC: 0.67524 (Simulation time: 0 hr 18 min 19 sec) 
Heartbeat CPU  0 instructions:  559000003 cycles:  723049149 heartbeat IPC: 0.51967 cumulative IPC: 0.67480 (Simulation time: 0 hr 18 min 21 sec) 
Heartbeat CPU  0 instructions:  560000000 cycles:  728244966 heartbeat IPC: 0.19246 cumulative IPC: 0.67114 (Simulation time: 0 hr 18 min 24 sec) 
Heartbeat CPU  0 instructions:  561000001 cycles:  730571768 heartbeat IPC: 0.42977 cumulative IPC: 0.67032 (Simulation time: 0 hr 18 min 27 sec) 
Heartbeat CPU  0 instructions:  562000002 cycles:  737249168 heartbeat IPC: 0.14976 cumulative IPC: 0.66532 (Simulation time: 0 hr 18 min 31 sec) 
Heartbeat CPU  0 instructions:  563000001 cycles:  742417357 heartbeat IPC: 0.19349 cumulative IPC: 0.66183 (Simulation time: 0 hr 18 min 34 sec) 
Heartbeat CPU  0 instructions:  564000000 cycles:  747045588 heartbeat IPC: 0.21607 cumulative IPC: 0.65890 (Simulation time: 0 hr 18 min 37 sec) 
Heartbeat CPU  0 instructions:  565000003 cycles:  751043108 heartbeat IPC: 0.25016 cumulative IPC: 0.65659 (Simulation time: 0 hr 18 min 40 sec) 
Heartbeat CPU  0 instructions:  566000003 cycles:  754265228 heartbeat IPC: 0.31035 cumulative IPC: 0.65503 (Simulation time: 0 hr 18 min 43 sec) 
Heartbeat CPU  0 instructions:  567000000 cycles:  756330075 heartbeat IPC: 0.48430 cumulative IPC: 0.65453 (Simulation time: 0 hr 18 min 46 sec) 
Heartbeat CPU  0 instructions:  568000000 cycles:  758054985 heartbeat IPC: 0.57974 cumulative IPC: 0.65435 (Simulation time: 0 hr 18 min 48 sec) 
Heartbeat CPU  0 instructions:  569000000 cycles:  759785484 heartbeat IPC: 0.57787 cumulative IPC: 0.65417 (Simulation time: 0 hr 18 min 50 sec) 
Heartbeat CPU  0 instructions:  570000000 cycles:  761518347 heartbeat IPC: 0.57708 cumulative IPC: 0.65398 (Simulation time: 0 hr 18 min 53 sec) 
Heartbeat CPU  0 instructions:  571000001 cycles:  763219929 heartbeat IPC: 0.58769 cumulative IPC: 0.65382 (Simulation time: 0 hr 18 min 55 sec) 
Heartbeat CPU  0 instructions:  572000000 cycles:  764929865 heartbeat IPC: 0.58482 cumulative IPC: 0.65366 (Simulation time: 0 hr 18 min 57 sec) 
Heartbeat CPU  0 instructions:  573000002 cycles:  766801407 heartbeat IPC: 0.53432 cumulative IPC: 0.65335 (Simulation time: 0 hr 19 min 0 sec) 
Heartbeat CPU  0 instructions:  574000000 cycles:  771933419 heartbeat IPC: 0.19485 cumulative IPC: 0.65013 (Simulation time: 0 hr 19 min 3 sec) 
Heartbeat CPU  0 instructions:  575000003 cycles:  774190333 heartbeat IPC: 0.44308 cumulative IPC: 0.64949 (Simulation time: 0 hr 19 min 6 sec) 
Heartbeat CPU  0 instructions:  576000000 cycles:  780099654 heartbeat IPC: 0.16922 cumulative IPC: 0.64564 (Simulation time: 0 hr 19 min 10 sec) 
Heartbeat CPU  0 instructions:  577000003 cycles:  785441176 heartbeat IPC: 0.18721 cumulative IPC: 0.64234 (Simulation time: 0 hr 19 min 13 sec) 
Heartbeat CPU  0 instructions:  578000000 cycles:  790144751 heartbeat IPC: 0.21260 cumulative IPC: 0.63964 (Simulation time: 0 hr 19 min 16 sec) 
Heartbeat CPU  0 instructions:  579000001 cycles:  794357607 heartbeat IPC: 0.23737 cumulative IPC: 0.63738 (Simulation time: 0 hr 19 min 19 sec) 
Heartbeat CPU  0 instructions:  580000000 cycles:  798228936 heartbeat IPC: 0.25831 cumulative IPC: 0.63544 (Simulation time: 0 hr 19 min 22 sec) 
Heartbeat CPU  0 instructions:  581000003 cycles:  800160130 heartbeat IPC: 0.51782 cumulative IPC: 0.63514 (Simulation time: 0 hr 19 min 25 sec) 
Heartbeat CPU  0 instructions:  582000003 cycles:  801888859 heartbeat IPC: 0.57846 cumulative IPC: 0.63501 (Simulation time: 0 hr 19 min 27 sec) 
Heartbeat CPU  0 instructions:  583000002 cycles:  803614252 heartbeat IPC: 0.57958 cumulative IPC: 0.63488 (Simulation time: 0 hr 19 min 29 sec) 
Heartbeat CPU  0 instructions:  584000000 cycles:  805343395 heartbeat IPC: 0.57832 cumulative IPC: 0.63475 (Simulation time: 0 hr 19 min 32 sec) 
Heartbeat CPU  0 instructions:  585000002 cycles:  807062830 heartbeat IPC: 0.58159 cumulative IPC: 0.63463 (Simulation time: 0 hr 19 min 34 sec) 
Heartbeat CPU  0 instructions:  586000002 cycles:  808766042 heartbeat IPC: 0.58713 cumulative IPC: 0.63453 (Simulation time: 0 hr 19 min 36 sec) 
Heartbeat CPU  0 instructions:  587000000 cycles:  810459005 heartbeat IPC: 0.59068 cumulative IPC: 0.63443 (Simulation time: 0 hr 19 min 39 sec) 
Heartbeat CPU  0 instructions:  588000000 cycles:  815576406 heartbeat IPC: 0.19541 cumulative IPC: 0.63152 (Simulation time: 0 hr 19 min 42 sec) 
Heartbeat CPU  0 instructions:  589000001 cycles:  817889055 heartbeat IPC: 0.43240 cumulative IPC: 0.63093 (Simulation time: 0 hr 19 min 45 sec) 
Heartbeat CPU  0 instructions:  590000000 cycles:  822744041 heartbeat IPC: 0.20597 cumulative IPC: 0.62829 (Simulation time: 0 hr 19 min 48 sec) 
Heartbeat CPU  0 instructions:  591000000 cycles:  828416252 heartbeat IPC: 0.17630 cumulative IPC: 0.62502 (Simulation time: 0 hr 19 min 52 sec) 
Heartbeat CPU  0 instructions:  592000000 cycles:  833280388 heartbeat IPC: 0.20559 cumulative IPC: 0.62244 (Simulation time: 0 hr 19 min 55 sec) 
Heartbeat CPU  0 instructions:  593000003 cycles:  837701849 heartbeat IPC: 0.22617 cumulative IPC: 0.62024 (Simulation time: 0 hr 19 min 58 sec) 
Heartbeat CPU  0 instructions:  594000000 cycles:  841582885 heartbeat IPC: 0.25766 cumulative IPC: 0.61847 (Simulation time: 0 hr 20 min 1 sec) 
Heartbeat CPU  0 instructions:  595000001 cycles:  843757308 heartbeat IPC: 0.45989 cumulative IPC: 0.61804 (Simulation time: 0 hr 20 min 3 sec) 
Heartbeat CPU  0 instructions:  596000000 cycles:  845771454 heartbeat IPC: 0.49649 cumulative IPC: 0.61774 (Simulation time: 0 hr 20 min 6 sec) 
Heartbeat CPU  0 instructions:  597000003 cycles:  847510614 heartbeat IPC: 0.57499 cumulative IPC: 0.61765 (Simulation time: 0 hr 20 min 8 sec) 
Heartbeat CPU  0 instructions:  598000002 cycles:  849233347 heartbeat IPC: 0.58047 cumulative IPC: 0.61757 (Simulation time: 0 hr 20 min 11 sec) 
Heartbeat CPU  0 instructions:  599000001 cycles:  850961404 heartbeat IPC: 0.57868 cumulative IPC: 0.61748 (Simulation time: 0 hr 20 min 13 sec) 
Heartbeat CPU  0 instructions:  600000000 cycles:  852647330 heartbeat IPC: 0.59315 cumulative IPC: 0.61743 (Simulation time: 0 hr 20 min 15 sec) 
Finished CPU 0 instructions: 500000000 cycles: 809803693 cumulative IPC: 0.61743 (Simulation time: 0 hr 20 min 15 sec) 

ChampSim completed all CPUs

[ROI Statistics]
Core_0_instructions 500000000
Core_0_cycles 809803693
Core_0_IPC 0.61743

Core_0_branch_prediction_accuracy 99.11262
Core_0_branch_MPKI 1.69223
Core_0_average_ROB_occupancy_at_mispredict 138.53525

Core_0_L1D_total_access 71022609
Core_0_L1D_total_hit 48068874
Core_0_L1D_total_miss 22953735
Core_0_L1D_loads 34331958
Core_0_L1D_load_hit 28947491
Core_0_L1D_load_miss 5384467
Core_0_L1D_RFOs 36690651
Core_0_L1D_RFO_hit 19121383
Core_0_L1D_RFO_miss 17569268
Core_0_L1D_prefetches 0
Core_0_L1D_prefetch_hit 0
Core_0_L1D_prefetch_miss 0
Core_0_L1D_writebacks 0
Core_0_L1D_writeback_hit 0
Core_0_L1D_writeback_miss 0
Core_0_L1D_prefetch_requested 0
Core_0_L1D_prefetch_dropped 0
Core_0_L1D_prefetch_issued 0
Core_0_L1D_prefetch_filled 0
Core_0_L1D_prefetch_useful 0
Core_0_L1D_prefetch_useless 0
Core_0_L1D_prefetch_late 0
Core_0_L1D_average_miss_latency 79.77125

Core_0_L1D_rq_access 60997979
Core_0_L1D_rq_forward 0
Core_0_L1D_rq_merged 24770412
Core_0_L1D_rq_to_cache 36188624
Core_0_L1D_rq_full 0

Core_0_L1D_wq_access 156857733
Core_0_L1D_wq_forward 38943
Core_0_L1D_wq_merged 48287
Core_0_L1D_wq_to_cache 156809446
Core_0_L1D_wq_full 1575057

Core_0_L1D_pq_access 0
Core_0_L1D_pq_forward 0
Core_0_L1D_pq_merged 0
Core_0_L1D_pq_to_cache 0
Core_0_L1D_pq_full 0

Core_0_L1D_acc_epochs 808784
Core_0_L1D_acc_level_0 808784
Core_0_L1D_acc_level_1 0
Core_0_L1D_acc_level_2 0
Core_0_L1D_acc_level_3 0
Core_0_L1D_acc_level_4 0
Core_0_L1D_acc_level_5 0
Core_0_L1D_acc_level_6 0
Core_0_L1D_acc_level_7 0
Core_0_L1D_acc_level_8 0
Core_0_L1D_acc_level_9 0

Core_0_L1I_total_access 122821081
Core_0_L1I_total_hit 122801937
Core_0_L1I_total_miss 19144
Core_0_L1I_loads 122821081
Core_0_L1I_load_hit 122801937
Core_0_L1I_load_miss 19144
Core_0_L1I_RFOs 0
Core_0_L1I_RFO_hit 0
Core_0_L1I_RFO_miss 0
Core_0_L1I_prefetches 0
Core_0_L1I_prefetch_hit 0
Core_0_L1I_prefetch_miss 0
Core_0_L1I_writebacks 0
Core_0_L1I_writeback_hit 0
Core_0_L1I_writeback_miss 0
Core_0_L1I_prefetch_requested 0
Core_0_L1I_prefetch_dropped 0
Core_0_L1I_prefetch_issued 0
Core_0_L1I_prefetch_filled 0
Core_0_L1I_prefetch_useful 0
Core_0_L1I_prefetch_useless 0
Core_0_L1I_prefetch_late 0
Core_0_L1I_average_miss_latency 44.02795

Core_0_L1I_rq_access 500000003
Core_0_L1I_rq_forward 0
Core_0_L1I_rq_merged 377153973
Core_0_L1I_rq_to_cache 122846030
Core_0_L1I_rq_full 0

Core_0_L1I_wq_access 0
Core_0_L1I_wq_forward 0
Core_0_L1I_wq_merged 0
Core_0_L1I_wq_to_cache 0
Core_0_L1I_wq_full 0

Core_0_L1I_pq_access 0
Core_0_L1I_pq_forward 0
Core_0_L1I_pq_merged 0
Core_0_L1I_pq_to_cache 0
Core_0_L1I_pq_full 0

Core_0_L1I_acc_epochs 808784
Core_0_L1I_acc_level_0 808784
Core_0_L1I_acc_level_1 0
Core_0_L1I_acc_level_2 0
Core_0_L1I_acc_level_3 0
Core_0_L1I_acc_level_4 0
Core_0_L1I_acc_level_5 0
Core_0_L1I_acc_level_6 0
Core_0_L1I_acc_level_7 0
Core_0_L1I_acc_level_8 0
Core_0_L1I_acc_level_9 0

Core_0_L2C_total_access 43920370
Core_0_L2C_total_hit 20914473
Core_0_L2C_total_miss 23005897
Core_0_L2C_loads 5403611
Core_0_L2C_load_hit 2234119
Core_0_L2C_load_miss 3169492
Core_0_L2C_RFOs 17569268
Core_0_L2C_RFO_hit 17893
Core_0_L2C_RFO_miss 17551375
Core_0_L2C_prefetches 2325117
Core_0_L2C_prefetch_hit 40296
Core_0_L2C_prefetch_miss 2284821
Core_0_L2C_writebacks 18622374
Core_0_L2C_writeback_hit 18622165
Core_0_L2C_writeback_miss 209
Core_0_L2C_prefetch_requested 9065372
Core_0_L2C_prefetch_dropped 0
Core_0_L2C_prefetch_issued 9065372
Core_0_L2C_prefetch_filled 2289091
Core_0_L2C_prefetch_useful 2072315
Core_0_L2C_prefetch_useless 216656
Core_0_L2C_prefetch_late 42786
Core_0_L2C_average_miss_latency 94.22578

Core_0_L2C_rq_access 22972881
Core_0_L2C_rq_forward 0
Core_0_L2C_rq_merged 0
Core_0_L2C_rq_to_cache 22972880
Core_0_L2C_rq_full 0

Core_0_L2C_wq_access 18622374
Core_0_L2C_wq_forward 1
Core_0_L2C_wq_merged 0
Core_0_L2C_wq_to_cache 18622374
Core_0_L2C_wq_full 0

Core_0_L2C_pq_access 9065372
Core_0_L2C_pq_forward 0
Core_0_L2C_pq_merged 0
Core_0_L2C_pq_to_cache 9065372
Core_0_L2C_pq_full 0

Core_0_L2C_acc_epochs 808784
Core_0_L2C_acc_level_0 521696
Core_0_L2C_acc_level_1 47123
Core_0_L2C_acc_level_2 35241
Core_0_L2C_acc_level_3 21810
Core_0_L2C_acc_level_4 13825
Core_0_L2C_acc_level_5 25403
Core_0_L2C_acc_level_6 11811
Core_0_L2C_acc_level_7 10094
Core_0_L2C_acc_level_8 7939
Core_0_L2C_acc_level_9 113842

Core_0_LLC_total_access 48203497
Core_0_LLC_total_hit 34232447
Core_0_LLC_total_miss 13971050
Core_0_LLC_loads 3127986
Core_0_LLC_load_hit 2142191
Core_0_LLC_load_miss 985795
Core_0_LLC_RFOs 17550104
Core_0_LLC_RFO_hit 15565289
Core_0_LLC_RFO_miss 1984815
Core_0_LLC_prefetches 8914002
Core_0_LLC_prefetch_hit 340826
Core_0_LLC_prefetch_miss 8573176
Core_0_LLC_writebacks 18611405
Core_0_LLC_writeback_hit 16184141
Core_0_LLC_writeback_miss 2427264
Core_0_LLC_prefetch_requested 0
Core_0_LLC_prefetch_dropped 0
Core_0_LLC_prefetch_issued 0
Core_0_LLC_prefetch_filled 8587692
Core_0_LLC_prefetch_useful 2092584
Core_0_LLC_prefetch_useless 6489184
Core_0_LLC_prefetch_late 67319
Core_0_LLC_average_miss_latency 208.09576

Core_0_LLC_rq_access 20678091
Core_0_LLC_rq_forward 0
Core_0_LLC_rq_merged 0
Core_0_LLC_rq_to_cache 20678090
Core_0_LLC_rq_full 0

Core_0_LLC_wq_access 18611405
Core_0_LLC_wq_forward 1
Core_0_LLC_wq_merged 0
Core_0_LLC_wq_to_cache 18611405
Core_0_LLC_wq_full 0

Core_0_LLC_pq_access 8997067
Core_0_LLC_pq_forward 0
Core_0_LLC_pq_merged 0
Core_0_LLC_pq_to_cache 8997067
Core_0_LLC_pq_full 0

Core_0_LLC_acc_epochs 832664
Core_0_LLC_acc_level_0 498451
Core_0_LLC_acc_level_1 107383
Core_0_LLC_acc_level_2 59486
Core_0_LLC_acc_level_3 30395
Core_0_LLC_acc_level_4 17621
Core_0_LLC_acc_level_5 22698
Core_0_LLC_acc_level_6 13930
Core_0_LLC_acc_level_7 15966
Core_0_LLC_acc_level_8 14128
Core_0_LLC_acc_level_9 52606

Core_0_major_page_fault 0
Core_0_minor_page_fault 13167

[Bingo] PHT Access: 506813
[Bingo] PHT Hit PC+Addr: 10430
[Bingo] PHT Hit PC+Offs: 448985
[Bingo] PHT Miss: 47398
[Bingo] Prefetch PC+Addr: 0
[Bingo] Prefetch PC+Offs: 0
[Bingo] Useful PC+Addr: 0
[Bingo] Useful PC+Offs: 0
[Bingo] Useless PC+Addr: 0
[Bingo] Useless PC+Offs: 0
[Bingo] L1 Prefetch per Region: 0.00000
[Bingo] L2 Prefetch per Region: 6.14883
[Bingo] L3 Prefetch per Region: 14.60744
[Bingo] No Prefetch per Region: 11.24373
[Bingo] Number of Voters Mean: 11.04150
[Bingo] Number of Voters SD: 4.91892

Channel_0_RQ_row_buffer_hit 7547355
Channel_0_RQ_row_buffer_miss 3996411
Channel_0_WQ_row_buffer_hit 709783
Channel_0_WQ_row_buffer_miss 2557197
Channel_0_WQ_full 160421
Channel_0_dbus_congested 4345770

avg_congested_cycle 1

DRAM_bw_pochs 3330654
DRAM_bw_level_0 3038706
DRAM_bw_level_1 282572
DRAM_bw_level_2 9248
DRAM_bw_level_3 128
