*************************************************
   ChampSim Multicore Out-of-Order Simulator
   Last compiled: Dec 11 2024 17:59:53
*************************************************
parsing config file: /home/functionmain/桌面/Pythia/config/nopref.ini

trace_0 /home/functionmain/桌面/Pythia/traces/403.gcc-16B.champsimtrace.xz
adding L2C_PREFETCHER: NONE
Initialize SHIP state
warmup_instructions 100000000
simulation_instructions 500000000
champsim_seed 169
measure_ipc 0
measure_ipc_epoch 1000
measure_dram_bw 1
measure_dram_bw_epoch 256
measure_cache_acc 1
measure_cache_acc_epoch 1024
l1d_perfect 0
l2c_perfect 0
llc_perfect 0
l1d_semi_perfect 0
l2c_semi_perfect 0
llc_semi_perfect 0
semi_perfect_cache_page_buffer_size 64

num_cpus 1
cpu_freq 4000
dram_io_freq 300
page_size 4096
block_size 64
max_read_per_cycle 8
max_fill_per_cycle 1
dram_channels 1
log2_dram_channels 0
dram_ranks 1
dram_banks 8
dram_rows 65536
dram_columns 128
dram_row_size 8
dram_size 4096
dram_pages 1048576

fetch_width 6
decode_width 6
exec_width 4
lq_width 2
sq_width 2
retire_width 4
scheduler_size 128
branch_mispredict_penalty 20
rob_size 256
lq_size 72
sq_size 56
num_instr_destinations_sparc 4
num_instr_destinations 2
num_instr_sources 4

itlb_set 16
itlb_way 8
itlb_rq_size 16
itlb_wq_size 16
itlb_pq_size 0
itlb_mshr_size 8
itlb_latency 1

dtlb_set 16
dtlb_way 4
dtlb_rq_size 16
dtlb_wq_size 16
dtlb_pq_size 0
dtlb_mshr_size 8
dtlb_latency 1

stlb_set 128
stlb_way 12
stlb_rq_size 32
stlb_wq_size 32
stlb_pq_size 0
stlb_mshr_size 16
stlb_latency 8

l1i_size 32
l1i_set 64
l1i_way 8
l1i_rq_size 64
l1i_wq_size 64
l1i_pq_size 8
l1i_mshr_size 8
l1i_latency 1

l1d_size 32
l1d_set 64
l1d_way 8
l1d_rq_size 64
l1d_wq_size 64
l1d_pq_size 8
l1d_mshr_size 16
l1d_latency 4

l2c_size 256
l2c_set 512
l2c_way 8
l2c_rq_size 32
l2c_wq_size 32
l2c_pq_size 32
l2c_mshr_size 32
l2c_latency 10

llc_size 2048
llc_set 2048
llc_way 16
llc_rq_size 32
llc_wq_size 32
llc_pq_size 32
llc_mshr_size 64
llc_latency 20

dram_channel_width 8
dram_wq_size 64
dram_rq_size 64
tRP 15
tRCD 15
tCAS 12.5
dram_dbus_turn_around_time 30
dram_write_high_wm 56
dram_write_low_wm 48
min_dram_writes_per_switch 16
dram_mtps 300
dram_dbus_return_time 106


Heartbeat CPU  0 instructions:    1000000 cycles:     453084 heartbeat IPC: 2.20710 cumulative IPC: 2.20710 (Simulation time: 0 hr 0 min 1 sec) 
Heartbeat CPU  0 instructions:    2000000 cycles:     861369 heartbeat IPC: 2.44927 cumulative IPC: 2.32189 (Simulation time: 0 hr 0 min 3 sec) 
Heartbeat CPU  0 instructions:    3000003 cycles:    1299564 heartbeat IPC: 2.28210 cumulative IPC: 2.30847 (Simulation time: 0 hr 0 min 4 sec) 
Heartbeat CPU  0 instructions:    4000000 cycles:    1765825 heartbeat IPC: 2.14472 cumulative IPC: 2.26523 (Simulation time: 0 hr 0 min 6 sec) 
Heartbeat CPU  0 instructions:    5000000 cycles:    2181330 heartbeat IPC: 2.40671 cumulative IPC: 2.29218 (Simulation time: 0 hr 0 min 7 sec) 
Heartbeat CPU  0 instructions:    6000000 cycles:    2658696 heartbeat IPC: 2.09483 cumulative IPC: 2.25675 (Simulation time: 0 hr 0 min 9 sec) 
Heartbeat CPU  0 instructions:    7000002 cycles:    3082342 heartbeat IPC: 2.36047 cumulative IPC: 2.27100 (Simulation time: 0 hr 0 min 10 sec) 
Heartbeat CPU  0 instructions:    8000000 cycles:    3488552 heartbeat IPC: 2.46178 cumulative IPC: 2.29322 (Simulation time: 0 hr 0 min 12 sec) 
Heartbeat CPU  0 instructions:    9000003 cycles:    3937221 heartbeat IPC: 2.22882 cumulative IPC: 2.28588 (Simulation time: 0 hr 0 min 13 sec) 
Heartbeat CPU  0 instructions:   10000001 cycles:    4377897 heartbeat IPC: 2.26924 cumulative IPC: 2.28420 (Simulation time: 0 hr 0 min 15 sec) 
Heartbeat CPU  0 instructions:   11000000 cycles:    4782111 heartbeat IPC: 2.47393 cumulative IPC: 2.30024 (Simulation time: 0 hr 0 min 17 sec) 
Heartbeat CPU  0 instructions:   12000000 cycles:    5196346 heartbeat IPC: 2.41409 cumulative IPC: 2.30931 (Simulation time: 0 hr 0 min 18 sec) 
Heartbeat CPU  0 instructions:   13000001 cycles:    5649489 heartbeat IPC: 2.20681 cumulative IPC: 2.30109 (Simulation time: 0 hr 0 min 20 sec) 
Heartbeat CPU  0 instructions:   14000003 cycles:    6084805 heartbeat IPC: 2.29719 cumulative IPC: 2.30081 (Simulation time: 0 hr 0 min 21 sec) 
Heartbeat CPU  0 instructions:   15000000 cycles:    6489924 heartbeat IPC: 2.46840 cumulative IPC: 2.31128 (Simulation time: 0 hr 0 min 23 sec) 
Heartbeat CPU  0 instructions:   16000000 cycles:    6910149 heartbeat IPC: 2.37968 cumulative IPC: 2.31543 (Simulation time: 0 hr 0 min 24 sec) 
Heartbeat CPU  0 instructions:   17000001 cycles:    7353128 heartbeat IPC: 2.25745 cumulative IPC: 2.31194 (Simulation time: 0 hr 0 min 26 sec) 
Heartbeat CPU  0 instructions:   18000000 cycles:    7788446 heartbeat IPC: 2.29717 cumulative IPC: 2.31112 (Simulation time: 0 hr 0 min 27 sec) 
Heartbeat CPU  0 instructions:   19000001 cycles:    8189043 heartbeat IPC: 2.49628 cumulative IPC: 2.32017 (Simulation time: 0 hr 0 min 29 sec) 
Heartbeat CPU  0 instructions:   20000000 cycles:    8635794 heartbeat IPC: 2.23838 cumulative IPC: 2.31594 (Simulation time: 0 hr 0 min 30 sec) 
Heartbeat CPU  0 instructions:   21000001 cycles:    9080999 heartbeat IPC: 2.24616 cumulative IPC: 2.31252 (Simulation time: 0 hr 0 min 32 sec) 
Heartbeat CPU  0 instructions:   22000000 cycles:    9481726 heartbeat IPC: 2.49546 cumulative IPC: 2.32025 (Simulation time: 0 hr 0 min 33 sec) 
Heartbeat CPU  0 instructions:   23000003 cycles:    9896018 heartbeat IPC: 2.41376 cumulative IPC: 2.32417 (Simulation time: 0 hr 0 min 35 sec) 
Heartbeat CPU  0 instructions:   24000000 cycles:   10338281 heartbeat IPC: 2.26109 cumulative IPC: 2.32147 (Simulation time: 0 hr 0 min 36 sec) 
Heartbeat CPU  0 instructions:   25000000 cycles:   10787280 heartbeat IPC: 2.22718 cumulative IPC: 2.31754 (Simulation time: 0 hr 0 min 38 sec) 
Heartbeat CPU  0 instructions:   26000000 cycles:   11183588 heartbeat IPC: 2.52329 cumulative IPC: 2.32484 (Simulation time: 0 hr 0 min 39 sec) 
Heartbeat CPU  0 instructions:   27000001 cycles:   11598421 heartbeat IPC: 2.41061 cumulative IPC: 2.32790 (Simulation time: 0 hr 0 min 41 sec) 
Heartbeat CPU  0 instructions:   28000000 cycles:   12046192 heartbeat IPC: 2.23328 cumulative IPC: 2.32439 (Simulation time: 0 hr 0 min 43 sec) 
Heartbeat CPU  0 instructions:   29000000 cycles:   12479089 heartbeat IPC: 2.31002 cumulative IPC: 2.32389 (Simulation time: 0 hr 0 min 44 sec) 
Heartbeat CPU  0 instructions:   30000003 cycles:   12886910 heartbeat IPC: 2.45206 cumulative IPC: 2.32794 (Simulation time: 0 hr 0 min 45 sec) 
Heartbeat CPU  0 instructions:   31000003 cycles:   13377203 heartbeat IPC: 2.03960 cumulative IPC: 2.31738 (Simulation time: 0 hr 0 min 47 sec) 
Heartbeat CPU  0 instructions:   32000000 cycles:   13779930 heartbeat IPC: 2.48306 cumulative IPC: 2.32222 (Simulation time: 0 hr 0 min 49 sec) 
Heartbeat CPU  0 instructions:   33000001 cycles:   14203933 heartbeat IPC: 2.35848 cumulative IPC: 2.32330 (Simulation time: 0 hr 0 min 50 sec) 
Heartbeat CPU  0 instructions:   34000003 cycles:   14656100 heartbeat IPC: 2.21158 cumulative IPC: 2.31985 (Simulation time: 0 hr 0 min 52 sec) 
Heartbeat CPU  0 instructions:   35000002 cycles:   15077540 heartbeat IPC: 2.37281 cumulative IPC: 2.32133 (Simulation time: 0 hr 0 min 53 sec) 
Heartbeat CPU  0 instructions:   36000000 cycles:   15474775 heartbeat IPC: 2.51740 cumulative IPC: 2.32637 (Simulation time: 0 hr 0 min 55 sec) 
Heartbeat CPU  0 instructions:   37000001 cycles:   15910221 heartbeat IPC: 2.29650 cumulative IPC: 2.32555 (Simulation time: 0 hr 0 min 56 sec) 
Heartbeat CPU  0 instructions:   38000000 cycles:   16358452 heartbeat IPC: 2.23099 cumulative IPC: 2.32296 (Simulation time: 0 hr 0 min 58 sec) 
Heartbeat CPU  0 instructions:   39000000 cycles:   16774764 heartbeat IPC: 2.40204 cumulative IPC: 2.32492 (Simulation time: 0 hr 0 min 59 sec) 
Heartbeat CPU  0 instructions:   40000000 cycles:   17173267 heartbeat IPC: 2.50939 cumulative IPC: 2.32920 (Simulation time: 0 hr 1 min 1 sec) 
Heartbeat CPU  0 instructions:   41000003 cycles:   17615387 heartbeat IPC: 2.26184 cumulative IPC: 2.32751 (Simulation time: 0 hr 1 min 2 sec) 
Heartbeat CPU  0 instructions:   42000003 cycles:   18057676 heartbeat IPC: 2.26097 cumulative IPC: 2.32588 (Simulation time: 0 hr 1 min 4 sec) 
Heartbeat CPU  0 instructions:   43000002 cycles:   18463882 heartbeat IPC: 2.46180 cumulative IPC: 2.32887 (Simulation time: 0 hr 1 min 5 sec) 
Heartbeat CPU  0 instructions:   44000000 cycles:   18914311 heartbeat IPC: 2.22010 cumulative IPC: 2.32628 (Simulation time: 0 hr 1 min 7 sec) 
Heartbeat CPU  0 instructions:   45000000 cycles:   19362137 heartbeat IPC: 2.23301 cumulative IPC: 2.32412 (Simulation time: 0 hr 1 min 8 sec) 
Heartbeat CPU  0 instructions:   46000003 cycles:   19775504 heartbeat IPC: 2.41917 cumulative IPC: 2.32611 (Simulation time: 0 hr 1 min 10 sec) 
Heartbeat CPU  0 instructions:   47000003 cycles:   20228926 heartbeat IPC: 2.20545 cumulative IPC: 2.32341 (Simulation time: 0 hr 1 min 12 sec) 
Heartbeat CPU  0 instructions:   48000000 cycles:   20652662 heartbeat IPC: 2.35995 cumulative IPC: 2.32416 (Simulation time: 0 hr 1 min 13 sec) 
Heartbeat CPU  0 instructions:   49000003 cycles:   21061400 heartbeat IPC: 2.44656 cumulative IPC: 2.32653 (Simulation time: 0 hr 1 min 15 sec) 
Heartbeat CPU  0 instructions:   50000000 cycles:   21501722 heartbeat IPC: 2.27106 cumulative IPC: 2.32540 (Simulation time: 0 hr 1 min 16 sec) 
Heartbeat CPU  0 instructions:   51000003 cycles:   21938755 heartbeat IPC: 2.28816 cumulative IPC: 2.32465 (Simulation time: 0 hr 1 min 18 sec) 
Heartbeat CPU  0 instructions:   52000000 cycles:   22346105 heartbeat IPC: 2.45488 cumulative IPC: 2.32703 (Simulation time: 0 hr 1 min 19 sec) 
Heartbeat CPU  0 instructions:   53000000 cycles:   22761564 heartbeat IPC: 2.40698 cumulative IPC: 2.32849 (Simulation time: 0 hr 1 min 21 sec) 
Heartbeat CPU  0 instructions:   54000001 cycles:   23201453 heartbeat IPC: 2.27330 cumulative IPC: 2.32744 (Simulation time: 0 hr 1 min 22 sec) 
Heartbeat CPU  0 instructions:   55000001 cycles:   23636419 heartbeat IPC: 2.29903 cumulative IPC: 2.32692 (Simulation time: 0 hr 1 min 24 sec) 
Heartbeat CPU  0 instructions:   56000000 cycles:   24043752 heartbeat IPC: 2.45499 cumulative IPC: 2.32909 (Simulation time: 0 hr 1 min 25 sec) 
Heartbeat CPU  0 instructions:   57000003 cycles:   24459515 heartbeat IPC: 2.40522 cumulative IPC: 2.33038 (Simulation time: 0 hr 1 min 27 sec) 
Heartbeat CPU  0 instructions:   58000001 cycles:   24906738 heartbeat IPC: 2.23602 cumulative IPC: 2.32869 (Simulation time: 0 hr 1 min 28 sec) 
Heartbeat CPU  0 instructions:   59000000 cycles:   25337421 heartbeat IPC: 2.32189 cumulative IPC: 2.32857 (Simulation time: 0 hr 1 min 30 sec) 
Heartbeat CPU  0 instructions:   60000000 cycles:   25733140 heartbeat IPC: 2.52705 cumulative IPC: 2.33162 (Simulation time: 0 hr 1 min 31 sec) 
Heartbeat CPU  0 instructions:   61000001 cycles:   26184850 heartbeat IPC: 2.21381 cumulative IPC: 2.32959 (Simulation time: 0 hr 1 min 33 sec) 
Heartbeat CPU  0 instructions:   62000001 cycles:   26622929 heartbeat IPC: 2.28269 cumulative IPC: 2.32882 (Simulation time: 0 hr 1 min 35 sec) 
Heartbeat CPU  0 instructions:   63000000 cycles:   27026953 heartbeat IPC: 2.47510 cumulative IPC: 2.33101 (Simulation time: 0 hr 1 min 36 sec) 
Heartbeat CPU  0 instructions:   64000000 cycles:   27436593 heartbeat IPC: 2.44117 cumulative IPC: 2.33265 (Simulation time: 0 hr 1 min 38 sec) 
Heartbeat CPU  0 instructions:   65000001 cycles:   27884575 heartbeat IPC: 2.23223 cumulative IPC: 2.33104 (Simulation time: 0 hr 1 min 39 sec) 
Heartbeat CPU  0 instructions:   66000003 cycles:   28323020 heartbeat IPC: 2.28079 cumulative IPC: 2.33026 (Simulation time: 0 hr 1 min 41 sec) 
Heartbeat CPU  0 instructions:   67000000 cycles:   28722352 heartbeat IPC: 2.50417 cumulative IPC: 2.33268 (Simulation time: 0 hr 1 min 42 sec) 
Heartbeat CPU  0 instructions:   68000000 cycles:   29138533 heartbeat IPC: 2.40280 cumulative IPC: 2.33368 (Simulation time: 0 hr 1 min 44 sec) 
Heartbeat CPU  0 instructions:   69000001 cycles:   29579922 heartbeat IPC: 2.26558 cumulative IPC: 2.33266 (Simulation time: 0 hr 1 min 45 sec) 
Heartbeat CPU  0 instructions:   70000001 cycles:   30013438 heartbeat IPC: 2.30672 cumulative IPC: 2.33229 (Simulation time: 0 hr 1 min 47 sec) 
Heartbeat CPU  0 instructions:   71000003 cycles:   30438823 heartbeat IPC: 2.35082 cumulative IPC: 2.33255 (Simulation time: 0 hr 1 min 48 sec) 
Heartbeat CPU  0 instructions:   72000000 cycles:   30914511 heartbeat IPC: 2.10221 cumulative IPC: 2.32900 (Simulation time: 0 hr 1 min 50 sec) 
Heartbeat CPU  0 instructions:   73000001 cycles:   31310959 heartbeat IPC: 2.52240 cumulative IPC: 2.33145 (Simulation time: 0 hr 1 min 51 sec) 
Heartbeat CPU  0 instructions:   74000000 cycles:   31750796 heartbeat IPC: 2.27357 cumulative IPC: 2.33065 (Simulation time: 0 hr 1 min 53 sec) 
Heartbeat CPU  0 instructions:   75000003 cycles:   32202011 heartbeat IPC: 2.21624 cumulative IPC: 2.32905 (Simulation time: 0 hr 1 min 55 sec) 
Heartbeat CPU  0 instructions:   76000000 cycles:   32602980 heartbeat IPC: 2.49395 cumulative IPC: 2.33108 (Simulation time: 0 hr 1 min 56 sec) 
Heartbeat CPU  0 instructions:   77000001 cycles:   33019873 heartbeat IPC: 2.39870 cumulative IPC: 2.33193 (Simulation time: 0 hr 1 min 58 sec) 
Heartbeat CPU  0 instructions:   78000001 cycles:   33455027 heartbeat IPC: 2.29804 cumulative IPC: 2.33149 (Simulation time: 0 hr 1 min 59 sec) 
Heartbeat CPU  0 instructions:   79000000 cycles:   33901500 heartbeat IPC: 2.23977 cumulative IPC: 2.33028 (Simulation time: 0 hr 2 min 1 sec) 
Heartbeat CPU  0 instructions:   80000000 cycles:   34297588 heartbeat IPC: 2.52469 cumulative IPC: 2.33253 (Simulation time: 0 hr 2 min 2 sec) 
Heartbeat CPU  0 instructions:   81000003 cycles:   34715456 heartbeat IPC: 2.39311 cumulative IPC: 2.33325 (Simulation time: 0 hr 2 min 4 sec) 
Heartbeat CPU  0 instructions:   82000003 cycles:   35156795 heartbeat IPC: 2.26583 cumulative IPC: 2.33241 (Simulation time: 0 hr 2 min 5 sec) 
Heartbeat CPU  0 instructions:   83000000 cycles:   35591934 heartbeat IPC: 2.29811 cumulative IPC: 2.33199 (Simulation time: 0 hr 2 min 7 sec) 
Heartbeat CPU  0 instructions:   84000000 cycles:   35985357 heartbeat IPC: 2.54179 cumulative IPC: 2.33428 (Simulation time: 0 hr 2 min 8 sec) 
Heartbeat CPU  0 instructions:   85000000 cycles:   36425868 heartbeat IPC: 2.27009 cumulative IPC: 2.33351 (Simulation time: 0 hr 2 min 10 sec) 
Heartbeat CPU  0 instructions:   86000001 cycles:   36866670 heartbeat IPC: 2.26859 cumulative IPC: 2.33273 (Simulation time: 0 hr 2 min 11 sec) 
Heartbeat CPU  0 instructions:   87000002 cycles:   37278044 heartbeat IPC: 2.43088 cumulative IPC: 2.33381 (Simulation time: 0 hr 2 min 13 sec) 
Heartbeat CPU  0 instructions:   88000000 cycles:   37694046 heartbeat IPC: 2.40383 cumulative IPC: 2.33459 (Simulation time: 0 hr 2 min 14 sec) 
Heartbeat CPU  0 instructions:   89000001 cycles:   38130345 heartbeat IPC: 2.29201 cumulative IPC: 2.33410 (Simulation time: 0 hr 2 min 16 sec) 
Heartbeat CPU  0 instructions:   90000000 cycles:   38564999 heartbeat IPC: 2.30068 cumulative IPC: 2.33372 (Simulation time: 0 hr 2 min 18 sec) 
Heartbeat CPU  0 instructions:   91000000 cycles:   38971046 heartbeat IPC: 2.46277 cumulative IPC: 2.33507 (Simulation time: 0 hr 2 min 19 sec) 
Heartbeat CPU  0 instructions:   92000000 cycles:   39389535 heartbeat IPC: 2.38955 cumulative IPC: 2.33565 (Simulation time: 0 hr 2 min 21 sec) 
Heartbeat CPU  0 instructions:   93000000 cycles:   39823070 heartbeat IPC: 2.30662 cumulative IPC: 2.33533 (Simulation time: 0 hr 2 min 22 sec) 
Heartbeat CPU  0 instructions:   94000002 cycles:   40263252 heartbeat IPC: 2.27179 cumulative IPC: 2.33464 (Simulation time: 0 hr 2 min 24 sec) 
Heartbeat CPU  0 instructions:   95000000 cycles:   40655305 heartbeat IPC: 2.55067 cumulative IPC: 2.33672 (Simulation time: 0 hr 2 min 25 sec) 
Heartbeat CPU  0 instructions:   96000000 cycles:   41089247 heartbeat IPC: 2.30446 cumulative IPC: 2.33638 (Simulation time: 0 hr 2 min 27 sec) 
Heartbeat CPU  0 instructions:   97000001 cycles:   41551861 heartbeat IPC: 2.16163 cumulative IPC: 2.33443 (Simulation time: 0 hr 2 min 28 sec) 
Heartbeat CPU  0 instructions:   98000003 cycles:   41971019 heartbeat IPC: 2.38574 cumulative IPC: 2.33494 (Simulation time: 0 hr 2 min 30 sec) 
Heartbeat CPU  0 instructions:   99000001 cycles:   42413393 heartbeat IPC: 2.26053 cumulative IPC: 2.33417 (Simulation time: 0 hr 2 min 31 sec) 
Heartbeat CPU  0 instructions:  100000000 cycles:   42844600 heartbeat IPC: 2.31907 cumulative IPC: 2.33402 (Simulation time: 0 hr 2 min 33 sec) 

Warmup complete CPU  0 instructions:  100000001 cycles:   42844601 (Simulation time: 0 hr 2 min 33 sec) 

Heartbeat CPU  0 instructions:  101000001 cycles:   43522425 heartbeat IPC: 1.47531 cumulative IPC: 1.47531 (Simulation time: 0 hr 2 min 35 sec) 
Heartbeat CPU  0 instructions:  102000003 cycles:   44210176 heartbeat IPC: 1.45402 cumulative IPC: 1.46459 (Simulation time: 0 hr 2 min 36 sec) 
Heartbeat CPU  0 instructions:  103000003 cycles:   44894140 heartbeat IPC: 1.46207 cumulative IPC: 1.46374 (Simulation time: 0 hr 2 min 38 sec) 
Heartbeat CPU  0 instructions:  104000000 cycles:   45580589 heartbeat IPC: 1.45677 cumulative IPC: 1.46199 (Simulation time: 0 hr 2 min 40 sec) 
Heartbeat CPU  0 instructions:  105000001 cycles:   46270303 heartbeat IPC: 1.44988 cumulative IPC: 1.45955 (Simulation time: 0 hr 2 min 42 sec) 
Heartbeat CPU  0 instructions:  106000000 cycles:   46953989 heartbeat IPC: 1.46266 cumulative IPC: 1.46007 (Simulation time: 0 hr 2 min 43 sec) 
Heartbeat CPU  0 instructions:  107000001 cycles:   47639406 heartbeat IPC: 1.45897 cumulative IPC: 1.45991 (Simulation time: 0 hr 2 min 45 sec) 
Heartbeat CPU  0 instructions:  108000000 cycles:   48366502 heartbeat IPC: 1.37533 cumulative IPC: 1.44878 (Simulation time: 0 hr 2 min 47 sec) 
Heartbeat CPU  0 instructions:  109000001 cycles:   49052755 heartbeat IPC: 1.45719 cumulative IPC: 1.44971 (Simulation time: 0 hr 2 min 49 sec) 
Heartbeat CPU  0 instructions:  110000003 cycles:   49848563 heartbeat IPC: 1.25659 cumulative IPC: 1.42776 (Simulation time: 0 hr 2 min 50 sec) 
Heartbeat CPU  0 instructions:  111000000 cycles:   50712843 heartbeat IPC: 1.15703 cumulative IPC: 1.39803 (Simulation time: 0 hr 2 min 52 sec) 
Heartbeat CPU  0 instructions:  112000000 cycles:   51536492 heartbeat IPC: 1.21411 cumulative IPC: 1.38060 (Simulation time: 0 hr 2 min 54 sec) 
Heartbeat CPU  0 instructions:  113000003 cycles:   52243853 heartbeat IPC: 1.41371 cumulative IPC: 1.38309 (Simulation time: 0 hr 2 min 56 sec) 
Heartbeat CPU  0 instructions:  114000001 cycles:   52948280 heartbeat IPC: 1.41959 cumulative IPC: 1.38563 (Simulation time: 0 hr 2 min 57 sec) 
Heartbeat CPU  0 instructions:  115000002 cycles:   53669076 heartbeat IPC: 1.38736 cumulative IPC: 1.38575 (Simulation time: 0 hr 2 min 59 sec) 
Heartbeat CPU  0 instructions:  116000000 cycles:   54357922 heartbeat IPC: 1.45170 cumulative IPC: 1.38969 (Simulation time: 0 hr 3 min 1 sec) 
Heartbeat CPU  0 instructions:  117000000 cycles:   55028361 heartbeat IPC: 1.49156 cumulative IPC: 1.39530 (Simulation time: 0 hr 3 min 3 sec) 
Heartbeat CPU  0 instructions:  118000000 cycles:   55680118 heartbeat IPC: 1.53431 cumulative IPC: 1.40236 (Simulation time: 0 hr 3 min 5 sec) 
Heartbeat CPU  0 instructions:  119000002 cycles:   56407519 heartbeat IPC: 1.37476 cumulative IPC: 1.40088 (Simulation time: 0 hr 3 min 6 sec) 
Heartbeat CPU  0 instructions:  120000000 cycles:   57088777 heartbeat IPC: 1.46787 cumulative IPC: 1.40408 (Simulation time: 0 hr 3 min 8 sec) 
Heartbeat CPU  0 instructions:  121000002 cycles:   57761298 heartbeat IPC: 1.48695 cumulative IPC: 1.40782 (Simulation time: 0 hr 3 min 10 sec) 
Heartbeat CPU  0 instructions:  122000000 cycles:   58442578 heartbeat IPC: 1.46782 cumulative IPC: 1.41044 (Simulation time: 0 hr 3 min 12 sec) 
Heartbeat CPU  0 instructions:  123000002 cycles:   59180484 heartbeat IPC: 1.35519 cumulative IPC: 1.40794 (Simulation time: 0 hr 3 min 13 sec) 
Heartbeat CPU  0 instructions:  124000000 cycles:   59936902 heartbeat IPC: 1.32202 cumulative IPC: 1.40414 (Simulation time: 0 hr 3 min 15 sec) 
Heartbeat CPU  0 instructions:  125000000 cycles:   60614695 heartbeat IPC: 1.47538 cumulative IPC: 1.40686 (Simulation time: 0 hr 3 min 17 sec) 
Heartbeat CPU  0 instructions:  126000000 cycles:   61330742 heartbeat IPC: 1.39656 cumulative IPC: 1.40646 (Simulation time: 0 hr 3 min 19 sec) 
Heartbeat CPU  0 instructions:  127000003 cycles:   62055999 heartbeat IPC: 1.37883 cumulative IPC: 1.40542 (Simulation time: 0 hr 3 min 20 sec) 
Heartbeat CPU  0 instructions:  128000000 cycles:   62729861 heartbeat IPC: 1.48398 cumulative IPC: 1.40808 (Simulation time: 0 hr 3 min 22 sec) 
Heartbeat CPU  0 instructions:  129000001 cycles:   63377293 heartbeat IPC: 1.54457 cumulative IPC: 1.41238 (Simulation time: 0 hr 3 min 24 sec) 
Heartbeat CPU  0 instructions:  130000001 cycles:   64069060 heartbeat IPC: 1.44557 cumulative IPC: 1.41346 (Simulation time: 0 hr 3 min 26 sec) 
Heartbeat CPU  0 instructions:  131000002 cycles:   64790596 heartbeat IPC: 1.38593 cumulative IPC: 1.41256 (Simulation time: 0 hr 3 min 27 sec) 
Heartbeat CPU  0 instructions:  132000000 cycles:   65454672 heartbeat IPC: 1.50585 cumulative IPC: 1.41530 (Simulation time: 0 hr 3 min 29 sec) 
Heartbeat CPU  0 instructions:  133000003 cycles:   66109171 heartbeat IPC: 1.52789 cumulative IPC: 1.41847 (Simulation time: 0 hr 3 min 31 sec) 
Heartbeat CPU  0 instructions:  134000001 cycles:   66850342 heartbeat IPC: 1.34921 cumulative IPC: 1.41633 (Simulation time: 0 hr 3 min 33 sec) 
Heartbeat CPU  0 instructions:  135000001 cycles:   67570161 heartbeat IPC: 1.38924 cumulative IPC: 1.41554 (Simulation time: 0 hr 3 min 34 sec) 
Heartbeat CPU  0 instructions:  136000000 cycles:   68337258 heartbeat IPC: 1.30361 cumulative IPC: 1.41217 (Simulation time: 0 hr 3 min 36 sec) 
Heartbeat CPU  0 instructions:  137000003 cycles:   69249912 heartbeat IPC: 1.09571 cumulative IPC: 1.40123 (Simulation time: 0 hr 3 min 38 sec) 
Heartbeat CPU  0 instructions:  138000002 cycles:   69969314 heartbeat IPC: 1.39004 cumulative IPC: 1.40094 (Simulation time: 0 hr 3 min 40 sec) 
Heartbeat CPU  0 instructions:  139000002 cycles:   70633147 heartbeat IPC: 1.50640 cumulative IPC: 1.40346 (Simulation time: 0 hr 3 min 41 sec) 
Heartbeat CPU  0 instructions:  140000000 cycles:   71397550 heartbeat IPC: 1.30821 cumulative IPC: 1.40091 (Simulation time: 0 hr 3 min 43 sec) 
Heartbeat CPU  0 instructions:  141000001 cycles:   72089631 heartbeat IPC: 1.44492 cumulative IPC: 1.40195 (Simulation time: 0 hr 3 min 45 sec) 
Heartbeat CPU  0 instructions:  142000001 cycles:   72752342 heartbeat IPC: 1.50895 cumulative IPC: 1.40432 (Simulation time: 0 hr 3 min 47 sec) 
Heartbeat CPU  0 instructions:  143000002 cycles:   73413151 heartbeat IPC: 1.51330 cumulative IPC: 1.40667 (Simulation time: 0 hr 3 min 48 sec) 
Heartbeat CPU  0 instructions:  144000000 cycles:   74130842 heartbeat IPC: 1.39335 cumulative IPC: 1.40637 (Simulation time: 0 hr 3 min 50 sec) 
Heartbeat CPU  0 instructions:  145000003 cycles:   74824435 heartbeat IPC: 1.44177 cumulative IPC: 1.40714 (Simulation time: 0 hr 3 min 52 sec) 
Heartbeat CPU  0 instructions:  146000000 cycles:   75482532 heartbeat IPC: 1.51953 cumulative IPC: 1.40940 (Simulation time: 0 hr 3 min 54 sec) 
Heartbeat CPU  0 instructions:  147000003 cycles:   76177875 heartbeat IPC: 1.43814 cumulative IPC: 1.41000 (Simulation time: 0 hr 3 min 55 sec) 
Heartbeat CPU  0 instructions:  148000000 cycles:   76895393 heartbeat IPC: 1.39369 cumulative IPC: 1.40966 (Simulation time: 0 hr 3 min 57 sec) 
Heartbeat CPU  0 instructions:  149000001 cycles:   77651915 heartbeat IPC: 1.32184 cumulative IPC: 1.40775 (Simulation time: 0 hr 3 min 59 sec) 
Heartbeat CPU  0 instructions:  150000003 cycles:   78487638 heartbeat IPC: 1.19657 cumulative IPC: 1.40280 (Simulation time: 0 hr 4 min 1 sec) 
Heartbeat CPU  0 instructions:  151000000 cycles:   79311226 heartbeat IPC: 1.21420 cumulative IPC: 1.39854 (Simulation time: 0 hr 4 min 3 sec) 
Heartbeat CPU  0 instructions:  152000000 cycles:   80060508 heartbeat IPC: 1.33461 cumulative IPC: 1.39725 (Simulation time: 0 hr 4 min 4 sec) 
Heartbeat CPU  0 instructions:  153000001 cycles:   80834866 heartbeat IPC: 1.29139 cumulative IPC: 1.39509 (Simulation time: 0 hr 4 min 6 sec) 
Heartbeat CPU  0 instructions:  154000000 cycles:   81613678 heartbeat IPC: 1.28401 cumulative IPC: 1.39286 (Simulation time: 0 hr 4 min 8 sec) 
Heartbeat CPU  0 instructions:  155000000 cycles:   82400072 heartbeat IPC: 1.27163 cumulative IPC: 1.39045 (Simulation time: 0 hr 4 min 10 sec) 
Heartbeat CPU  0 instructions:  156000000 cycles:   83341041 heartbeat IPC: 1.06273 cumulative IPC: 1.38284 (Simulation time: 0 hr 4 min 12 sec) 
Heartbeat CPU  0 instructions:  157000002 cycles:   84077144 heartbeat IPC: 1.35851 cumulative IPC: 1.38240 (Simulation time: 0 hr 4 min 13 sec) 
Heartbeat CPU  0 instructions:  158000001 cycles:   84967647 heartbeat IPC: 1.12296 cumulative IPC: 1.37692 (Simulation time: 0 hr 4 min 15 sec) 
Heartbeat CPU  0 instructions:  159000001 cycles:   85721805 heartbeat IPC: 1.32598 cumulative IPC: 1.37602 (Simulation time: 0 hr 4 min 17 sec) 
Heartbeat CPU  0 instructions:  160000000 cycles:   86420386 heartbeat IPC: 1.43147 cumulative IPC: 1.37691 (Simulation time: 0 hr 4 min 19 sec) 
Heartbeat CPU  0 instructions:  161000001 cycles:   87144592 heartbeat IPC: 1.38082 cumulative IPC: 1.37698 (Simulation time: 0 hr 4 min 20 sec) 
Heartbeat CPU  0 instructions:  162000003 cycles:   87879551 heartbeat IPC: 1.36062 cumulative IPC: 1.37671 (Simulation time: 0 hr 4 min 22 sec) 
Heartbeat CPU  0 instructions:  163000000 cycles:   88549703 heartbeat IPC: 1.49219 cumulative IPC: 1.37840 (Simulation time: 0 hr 4 min 24 sec) 
Heartbeat CPU  0 instructions:  164000000 cycles:   89264900 heartbeat IPC: 1.39822 cumulative IPC: 1.37871 (Simulation time: 0 hr 4 min 26 sec) 
Heartbeat CPU  0 instructions:  165000001 cycles:   89957636 heartbeat IPC: 1.44355 cumulative IPC: 1.37966 (Simulation time: 0 hr 4 min 27 sec) 
Heartbeat CPU  0 instructions:  166000001 cycles:   90634787 heartbeat IPC: 1.47678 cumulative IPC: 1.38104 (Simulation time: 0 hr 4 min 29 sec) 
Heartbeat CPU  0 instructions:  167000002 cycles:   91361943 heartbeat IPC: 1.37522 cumulative IPC: 1.38095 (Simulation time: 0 hr 4 min 31 sec) 
Heartbeat CPU  0 instructions:  168000000 cycles:   92114906 heartbeat IPC: 1.32808 cumulative IPC: 1.38014 (Simulation time: 0 hr 4 min 33 sec) 
Heartbeat CPU  0 instructions:  169000000 cycles:   92850162 heartbeat IPC: 1.36007 cumulative IPC: 1.37985 (Simulation time: 0 hr 4 min 34 sec) 
Heartbeat CPU  0 instructions:  170000001 cycles:   93526848 heartbeat IPC: 1.47779 cumulative IPC: 1.38115 (Simulation time: 0 hr 4 min 36 sec) 
Heartbeat CPU  0 instructions:  171000000 cycles:   94286361 heartbeat IPC: 1.31663 cumulative IPC: 1.38020 (Simulation time: 0 hr 4 min 38 sec) 
Heartbeat CPU  0 instructions:  172000000 cycles:   95032243 heartbeat IPC: 1.34069 cumulative IPC: 1.37964 (Simulation time: 0 hr 4 min 40 sec) 
Heartbeat CPU  0 instructions:  173000001 cycles:   95722685 heartbeat IPC: 1.44835 cumulative IPC: 1.38053 (Simulation time: 0 hr 4 min 42 sec) 
Heartbeat CPU  0 instructions:  174000000 cycles:   96459193 heartbeat IPC: 1.35776 cumulative IPC: 1.38022 (Simulation time: 0 hr 4 min 43 sec) 
Heartbeat CPU  0 instructions:  175000000 cycles:   97165694 heartbeat IPC: 1.41543 cumulative IPC: 1.38068 (Simulation time: 0 hr 4 min 45 sec) 
Heartbeat CPU  0 instructions:  176000000 cycles:   97891457 heartbeat IPC: 1.37786 cumulative IPC: 1.38064 (Simulation time: 0 hr 4 min 47 sec) 
Heartbeat CPU  0 instructions:  177000002 cycles:   98675305 heartbeat IPC: 1.27576 cumulative IPC: 1.37917 (Simulation time: 0 hr 4 min 49 sec) 
Heartbeat CPU  0 instructions:  178000001 cycles:   99483666 heartbeat IPC: 1.23707 cumulative IPC: 1.37714 (Simulation time: 0 hr 4 min 50 sec) 
Heartbeat CPU  0 instructions:  179000003 cycles:  100233017 heartbeat IPC: 1.33449 cumulative IPC: 1.37658 (Simulation time: 0 hr 4 min 52 sec) 
Heartbeat CPU  0 instructions:  180000000 cycles:  101011052 heartbeat IPC: 1.28529 cumulative IPC: 1.37536 (Simulation time: 0 hr 4 min 54 sec) 
Heartbeat CPU  0 instructions:  181000000 cycles:  101785577 heartbeat IPC: 1.29111 cumulative IPC: 1.37426 (Simulation time: 0 hr 4 min 56 sec) 
Heartbeat CPU  0 instructions:  182000003 cycles:  102562856 heartbeat IPC: 1.28654 cumulative IPC: 1.37311 (Simulation time: 0 hr 4 min 58 sec) 
Heartbeat CPU  0 instructions:  183000002 cycles:  103364849 heartbeat IPC: 1.24689 cumulative IPC: 1.37144 (Simulation time: 0 hr 4 min 59 sec) 
Heartbeat CPU  0 instructions:  184000000 cycles:  104066787 heartbeat IPC: 1.42462 cumulative IPC: 1.37205 (Simulation time: 0 hr 5 min 1 sec) 
Heartbeat CPU  0 instructions:  185000002 cycles:  104803381 heartbeat IPC: 1.35760 cumulative IPC: 1.37188 (Simulation time: 0 hr 5 min 3 sec) 
Heartbeat CPU  0 instructions:  186000000 cycles:  105505550 heartbeat IPC: 1.42416 cumulative IPC: 1.37247 (Simulation time: 0 hr 5 min 5 sec) 
Heartbeat CPU  0 instructions:  187000001 cycles:  106199666 heartbeat IPC: 1.44068 cumulative IPC: 1.37321 (Simulation time: 0 hr 5 min 6 sec) 
Heartbeat CPU  0 instructions:  188000000 cycles:  107014448 heartbeat IPC: 1.22732 cumulative IPC: 1.37136 (Simulation time: 0 hr 5 min 8 sec) 
Heartbeat CPU  0 instructions:  189000000 cycles:  107820277 heartbeat IPC: 1.24096 cumulative IPC: 1.36974 (Simulation time: 0 hr 5 min 10 sec) 
Heartbeat CPU  0 instructions:  190000000 cycles:  108575011 heartbeat IPC: 1.32497 cumulative IPC: 1.36923 (Simulation time: 0 hr 5 min 12 sec) 
Heartbeat CPU  0 instructions:  191000003 cycles:  109352487 heartbeat IPC: 1.28622 cumulative IPC: 1.36826 (Simulation time: 0 hr 5 min 14 sec) 
Heartbeat CPU  0 instructions:  192000000 cycles:  110095444 heartbeat IPC: 1.34597 cumulative IPC: 1.36801 (Simulation time: 0 hr 5 min 15 sec) 
Heartbeat CPU  0 instructions:  193000000 cycles:  110905335 heartbeat IPC: 1.23473 cumulative IPC: 1.36643 (Simulation time: 0 hr 5 min 17 sec) 
Heartbeat CPU  0 instructions:  194000001 cycles:  111722483 heartbeat IPC: 1.22377 cumulative IPC: 1.36473 (Simulation time: 0 hr 5 min 19 sec) 
Heartbeat CPU  0 instructions:  195000001 cycles:  112432856 heartbeat IPC: 1.40771 cumulative IPC: 1.36517 (Simulation time: 0 hr 5 min 21 sec) 
Heartbeat CPU  0 instructions:  196000000 cycles:  113258955 heartbeat IPC: 1.21051 cumulative IPC: 1.36336 (Simulation time: 0 hr 5 min 23 sec) 
Heartbeat CPU  0 instructions:  197000001 cycles:  114042958 heartbeat IPC: 1.27551 cumulative IPC: 1.36239 (Simulation time: 0 hr 5 min 24 sec) 
Heartbeat CPU  0 instructions:  198000002 cycles:  114865485 heartbeat IPC: 1.21577 cumulative IPC: 1.36072 (Simulation time: 0 hr 5 min 26 sec) 
Heartbeat CPU  0 instructions:  199000002 cycles:  115754883 heartbeat IPC: 1.12436 cumulative IPC: 1.35783 (Simulation time: 0 hr 5 min 28 sec) 
Heartbeat CPU  0 instructions:  200000000 cycles:  116555139 heartbeat IPC: 1.24960 cumulative IPC: 1.35666 (Simulation time: 0 hr 5 min 30 sec) 
Heartbeat CPU  0 instructions:  201000000 cycles:  117425907 heartbeat IPC: 1.14841 cumulative IPC: 1.35423 (Simulation time: 0 hr 5 min 32 sec) 
Heartbeat CPU  0 instructions:  202000000 cycles:  118215521 heartbeat IPC: 1.26644 cumulative IPC: 1.35331 (Simulation time: 0 hr 5 min 33 sec) 
Heartbeat CPU  0 instructions:  203000000 cycles:  119133027 heartbeat IPC: 1.08991 cumulative IPC: 1.35014 (Simulation time: 0 hr 5 min 35 sec) 
Heartbeat CPU  0 instructions:  204000000 cycles:  119939462 heartbeat IPC: 1.24003 cumulative IPC: 1.34899 (Simulation time: 0 hr 5 min 37 sec) 
Heartbeat CPU  0 instructions:  205000001 cycles:  120819000 heartbeat IPC: 1.13696 cumulative IPC: 1.34660 (Simulation time: 0 hr 5 min 39 sec) 
Heartbeat CPU  0 instructions:  206000003 cycles:  121603176 heartbeat IPC: 1.27523 cumulative IPC: 1.34589 (Simulation time: 0 hr 5 min 41 sec) 
Heartbeat CPU  0 instructions:  207000003 cycles:  122354210 heartbeat IPC: 1.33150 cumulative IPC: 1.34575 (Simulation time: 0 hr 5 min 42 sec) 
Heartbeat CPU  0 instructions:  208000000 cycles:  123116119 heartbeat IPC: 1.31249 cumulative IPC: 1.34543 (Simulation time: 0 hr 5 min 44 sec) 
Heartbeat CPU  0 instructions:  209000001 cycles:  123910742 heartbeat IPC: 1.25846 cumulative IPC: 1.34458 (Simulation time: 0 hr 5 min 46 sec) 
Heartbeat CPU  0 instructions:  210000003 cycles:  124793012 heartbeat IPC: 1.13344 cumulative IPC: 1.34231 (Simulation time: 0 hr 5 min 48 sec) 
Heartbeat CPU  0 instructions:  211000001 cycles:  125541984 heartbeat IPC: 1.33516 cumulative IPC: 1.34224 (Simulation time: 0 hr 5 min 50 sec) 
Heartbeat CPU  0 instructions:  212000000 cycles:  126257758 heartbeat IPC: 1.39709 cumulative IPC: 1.34271 (Simulation time: 0 hr 5 min 51 sec) 
Heartbeat CPU  0 instructions:  213000000 cycles:  127086369 heartbeat IPC: 1.20684 cumulative IPC: 1.34138 (Simulation time: 0 hr 5 min 53 sec) 
Heartbeat CPU  0 instructions:  214000000 cycles:  127876130 heartbeat IPC: 1.26621 cumulative IPC: 1.34068 (Simulation time: 0 hr 5 min 55 sec) 
Heartbeat CPU  0 instructions:  215000001 cycles:  128737053 heartbeat IPC: 1.16155 cumulative IPC: 1.33888 (Simulation time: 0 hr 5 min 57 sec) 
Heartbeat CPU  0 instructions:  216000000 cycles:  129547721 heartbeat IPC: 1.23355 cumulative IPC: 1.33790 (Simulation time: 0 hr 5 min 59 sec) 
Heartbeat CPU  0 instructions:  217000003 cycles:  130454931 heartbeat IPC: 1.10228 cumulative IPC: 1.33546 (Simulation time: 0 hr 6 min 0 sec) 
Heartbeat CPU  0 instructions:  218000002 cycles:  131234319 heartbeat IPC: 1.28306 cumulative IPC: 1.33500 (Simulation time: 0 hr 6 min 2 sec) 
Heartbeat CPU  0 instructions:  219000001 cycles:  131955549 heartbeat IPC: 1.38652 cumulative IPC: 1.33541 (Simulation time: 0 hr 6 min 4 sec) 
Heartbeat CPU  0 instructions:  220000000 cycles:  132664796 heartbeat IPC: 1.40994 cumulative IPC: 1.33600 (Simulation time: 0 hr 6 min 6 sec) 
Heartbeat CPU  0 instructions:  221000000 cycles:  133336231 heartbeat IPC: 1.48935 cumulative IPC: 1.33714 (Simulation time: 0 hr 6 min 8 sec) 
Heartbeat CPU  0 instructions:  222000003 cycles:  134179452 heartbeat IPC: 1.18593 cumulative IPC: 1.33574 (Simulation time: 0 hr 6 min 9 sec) 
Heartbeat CPU  0 instructions:  223000002 cycles:  134890286 heartbeat IPC: 1.40680 cumulative IPC: 1.33629 (Simulation time: 0 hr 6 min 11 sec) 
Heartbeat CPU  0 instructions:  224000000 cycles:  135572102 heartbeat IPC: 1.46667 cumulative IPC: 1.33725 (Simulation time: 0 hr 6 min 13 sec) 
Heartbeat CPU  0 instructions:  225000000 cycles:  136283412 heartbeat IPC: 1.40586 cumulative IPC: 1.33777 (Simulation time: 0 hr 6 min 15 sec) 
Heartbeat CPU  0 instructions:  226000001 cycles:  137107939 heartbeat IPC: 1.21282 cumulative IPC: 1.33668 (Simulation time: 0 hr 6 min 16 sec) 
Heartbeat CPU  0 instructions:  227000002 cycles:  137788948 heartbeat IPC: 1.46841 cumulative IPC: 1.33763 (Simulation time: 0 hr 6 min 18 sec) 
Heartbeat CPU  0 instructions:  228000000 cycles:  138514306 heartbeat IPC: 1.37863 cumulative IPC: 1.33794 (Simulation time: 0 hr 6 min 20 sec) 
Heartbeat CPU  0 instructions:  229000000 cycles:  139218762 heartbeat IPC: 1.41954 cumulative IPC: 1.33853 (Simulation time: 0 hr 6 min 22 sec) 
Heartbeat CPU  0 instructions:  230000002 cycles:  139939280 heartbeat IPC: 1.38789 cumulative IPC: 1.33890 (Simulation time: 0 hr 6 min 23 sec) 
Heartbeat CPU  0 instructions:  231000000 cycles:  140725473 heartbeat IPC: 1.27195 cumulative IPC: 1.33836 (Simulation time: 0 hr 6 min 25 sec) 
Heartbeat CPU  0 instructions:  232000000 cycles:  141445930 heartbeat IPC: 1.38801 cumulative IPC: 1.33872 (Simulation time: 0 hr 6 min 27 sec) 
Heartbeat CPU  0 instructions:  233000001 cycles:  142133654 heartbeat IPC: 1.45407 cumulative IPC: 1.33952 (Simulation time: 0 hr 6 min 29 sec) 
Heartbeat CPU  0 instructions:  234000003 cycles:  142878803 heartbeat IPC: 1.34202 cumulative IPC: 1.33954 (Simulation time: 0 hr 6 min 31 sec) 
Heartbeat CPU  0 instructions:  235000002 cycles:  143661844 heartbeat IPC: 1.27707 cumulative IPC: 1.33906 (Simulation time: 0 hr 6 min 32 sec) 
Heartbeat CPU  0 instructions:  236000000 cycles:  144362889 heartbeat IPC: 1.42644 cumulative IPC: 1.33966 (Simulation time: 0 hr 6 min 34 sec) 
Heartbeat CPU  0 instructions:  237000002 cycles:  145046878 heartbeat IPC: 1.46201 cumulative IPC: 1.34048 (Simulation time: 0 hr 6 min 36 sec) 
Heartbeat CPU  0 instructions:  238000000 cycles:  145812975 heartbeat IPC: 1.30532 cumulative IPC: 1.34022 (Simulation time: 0 hr 6 min 38 sec) 
Heartbeat CPU  0 instructions:  239000000 cycles:  146570056 heartbeat IPC: 1.32086 cumulative IPC: 1.34008 (Simulation time: 0 hr 6 min 39 sec) 
Heartbeat CPU  0 instructions:  240000000 cycles:  147261559 heartbeat IPC: 1.44613 cumulative IPC: 1.34078 (Simulation time: 0 hr 6 min 41 sec) 
Heartbeat CPU  0 instructions:  241000002 cycles:  147976955 heartbeat IPC: 1.39783 cumulative IPC: 1.34117 (Simulation time: 0 hr 6 min 43 sec) 
Heartbeat CPU  0 instructions:  242000002 cycles:  148727997 heartbeat IPC: 1.33148 cumulative IPC: 1.34110 (Simulation time: 0 hr 6 min 45 sec) 
Heartbeat CPU  0 instructions:  243000002 cycles:  149477958 heartbeat IPC: 1.33340 cumulative IPC: 1.34104 (Simulation time: 0 hr 6 min 47 sec) 
Heartbeat CPU  0 instructions:  244000000 cycles:  150200736 heartbeat IPC: 1.38355 cumulative IPC: 1.34133 (Simulation time: 0 hr 6 min 48 sec) 
Heartbeat CPU  0 instructions:  245000000 cycles:  150903691 heartbeat IPC: 1.42257 cumulative IPC: 1.34186 (Simulation time: 0 hr 6 min 50 sec) 
Heartbeat CPU  0 instructions:  246000000 cycles:  151575000 heartbeat IPC: 1.48963 cumulative IPC: 1.34277 (Simulation time: 0 hr 6 min 52 sec) 
Heartbeat CPU  0 instructions:  247000001 cycles:  152326584 heartbeat IPC: 1.33052 cumulative IPC: 1.34269 (Simulation time: 0 hr 6 min 54 sec) 
Heartbeat CPU  0 instructions:  248000000 cycles:  153163203 heartbeat IPC: 1.19529 cumulative IPC: 1.34157 (Simulation time: 0 hr 6 min 55 sec) 
Heartbeat CPU  0 instructions:  249000000 cycles:  153844300 heartbeat IPC: 1.46822 cumulative IPC: 1.34235 (Simulation time: 0 hr 6 min 57 sec) 
Heartbeat CPU  0 instructions:  250000001 cycles:  154567208 heartbeat IPC: 1.38330 cumulative IPC: 1.34261 (Simulation time: 0 hr 6 min 59 sec) 
Heartbeat CPU  0 instructions:  251000000 cycles:  155270360 heartbeat IPC: 1.42217 cumulative IPC: 1.34311 (Simulation time: 0 hr 7 min 1 sec) 
Heartbeat CPU  0 instructions:  252000000 cycles:  155963162 heartbeat IPC: 1.44341 cumulative IPC: 1.34372 (Simulation time: 0 hr 7 min 2 sec) 
Heartbeat CPU  0 instructions:  253000002 cycles:  156827970 heartbeat IPC: 1.15633 cumulative IPC: 1.34230 (Simulation time: 0 hr 7 min 4 sec) 
Heartbeat CPU  0 instructions:  254000002 cycles:  157534664 heartbeat IPC: 1.41504 cumulative IPC: 1.34275 (Simulation time: 0 hr 7 min 6 sec) 
Heartbeat CPU  0 instructions:  255000000 cycles:  158210548 heartbeat IPC: 1.47954 cumulative IPC: 1.34355 (Simulation time: 0 hr 7 min 8 sec) 
Heartbeat CPU  0 instructions:  256000000 cycles:  159036713 heartbeat IPC: 1.21041 cumulative IPC: 1.34260 (Simulation time: 0 hr 7 min 10 sec) 
Heartbeat CPU  0 instructions:  257000000 cycles:  159743257 heartbeat IPC: 1.41534 cumulative IPC: 1.34304 (Simulation time: 0 hr 7 min 11 sec) 
Heartbeat CPU  0 instructions:  258000002 cycles:  160418067 heartbeat IPC: 1.48190 cumulative IPC: 1.34384 (Simulation time: 0 hr 7 min 13 sec) 
Heartbeat CPU  0 instructions:  259000000 cycles:  161248747 heartbeat IPC: 1.20383 cumulative IPC: 1.34286 (Simulation time: 0 hr 7 min 15 sec) 
Heartbeat CPU  0 instructions:  260000000 cycles:  161957683 heartbeat IPC: 1.41056 cumulative IPC: 1.34326 (Simulation time: 0 hr 7 min 17 sec) 
Heartbeat CPU  0 instructions:  261000002 cycles:  162635411 heartbeat IPC: 1.47552 cumulative IPC: 1.34401 (Simulation time: 0 hr 7 min 18 sec) 
Heartbeat CPU  0 instructions:  262000000 cycles:  163462054 heartbeat IPC: 1.20971 cumulative IPC: 1.34309 (Simulation time: 0 hr 7 min 20 sec) 
Heartbeat CPU  0 instructions:  263000002 cycles:  164168479 heartbeat IPC: 1.41558 cumulative IPC: 1.34351 (Simulation time: 0 hr 7 min 22 sec) 
Heartbeat CPU  0 instructions:  264000000 cycles:  164843845 heartbeat IPC: 1.48068 cumulative IPC: 1.34427 (Simulation time: 0 hr 7 min 24 sec) 
Heartbeat CPU  0 instructions:  265000000 cycles:  165680288 heartbeat IPC: 1.19554 cumulative IPC: 1.34326 (Simulation time: 0 hr 7 min 26 sec) 
Heartbeat CPU  0 instructions:  266000000 cycles:  166386786 heartbeat IPC: 1.41543 cumulative IPC: 1.34367 (Simulation time: 0 hr 7 min 28 sec) 
Heartbeat CPU  0 instructions:  267000002 cycles:  167061569 heartbeat IPC: 1.48196 cumulative IPC: 1.34442 (Simulation time: 0 hr 7 min 29 sec) 
Heartbeat CPU  0 instructions:  268000000 cycles:  167887265 heartbeat IPC: 1.21110 cumulative IPC: 1.34354 (Simulation time: 0 hr 7 min 31 sec) 
Heartbeat CPU  0 instructions:  269000002 cycles:  168594342 heartbeat IPC: 1.41428 cumulative IPC: 1.34394 (Simulation time: 0 hr 7 min 33 sec) 
Heartbeat CPU  0 instructions:  270000002 cycles:  169269176 heartbeat IPC: 1.48185 cumulative IPC: 1.34468 (Simulation time: 0 hr 7 min 35 sec) 
Heartbeat CPU  0 instructions:  271000000 cycles:  170102162 heartbeat IPC: 1.20050 cumulative IPC: 1.34373 (Simulation time: 0 hr 7 min 36 sec) 
Heartbeat CPU  0 instructions:  272000000 cycles:  170808835 heartbeat IPC: 1.41508 cumulative IPC: 1.34413 (Simulation time: 0 hr 7 min 38 sec) 
Heartbeat CPU  0 instructions:  273000002 cycles:  171483475 heartbeat IPC: 1.48228 cumulative IPC: 1.34485 (Simulation time: 0 hr 7 min 40 sec) 
Heartbeat CPU  0 instructions:  274000002 cycles:  172310054 heartbeat IPC: 1.20981 cumulative IPC: 1.34399 (Simulation time: 0 hr 7 min 42 sec) 
Heartbeat CPU  0 instructions:  275000000 cycles:  173017856 heartbeat IPC: 1.41282 cumulative IPC: 1.34436 (Simulation time: 0 hr 7 min 44 sec) 
Heartbeat CPU  0 instructions:  276000000 cycles:  173692690 heartbeat IPC: 1.48185 cumulative IPC: 1.34507 (Simulation time: 0 hr 7 min 45 sec) 
Heartbeat CPU  0 instructions:  277000003 cycles:  174523186 heartbeat IPC: 1.20410 cumulative IPC: 1.34418 (Simulation time: 0 hr 7 min 47 sec) 
Heartbeat CPU  0 instructions:  278000002 cycles:  175234111 heartbeat IPC: 1.40662 cumulative IPC: 1.34452 (Simulation time: 0 hr 7 min 49 sec) 
Heartbeat CPU  0 instructions:  279000001 cycles:  175906136 heartbeat IPC: 1.48804 cumulative IPC: 1.34524 (Simulation time: 0 hr 7 min 51 sec) 
Heartbeat CPU  0 instructions:  280000000 cycles:  176739463 heartbeat IPC: 1.20001 cumulative IPC: 1.34434 (Simulation time: 0 hr 7 min 52 sec) 
Heartbeat CPU  0 instructions:  281000000 cycles:  177447779 heartbeat IPC: 1.41180 cumulative IPC: 1.34469 (Simulation time: 0 hr 7 min 54 sec) 
Heartbeat CPU  0 instructions:  282000002 cycles:  178122319 heartbeat IPC: 1.48249 cumulative IPC: 1.34538 (Simulation time: 0 hr 7 min 56 sec) 
Heartbeat CPU  0 instructions:  283000002 cycles:  178950972 heartbeat IPC: 1.20678 cumulative IPC: 1.34454 (Simulation time: 0 hr 7 min 58 sec) 
Heartbeat CPU  0 instructions:  284000000 cycles:  179658617 heartbeat IPC: 1.41314 cumulative IPC: 1.34489 (Simulation time: 0 hr 7 min 59 sec) 
Heartbeat CPU  0 instructions:  285000000 cycles:  180333827 heartbeat IPC: 1.48102 cumulative IPC: 1.34556 (Simulation time: 0 hr 8 min 1 sec) 
Heartbeat CPU  0 instructions:  286000000 cycles:  181159792 heartbeat IPC: 1.21071 cumulative IPC: 1.34475 (Simulation time: 0 hr 8 min 3 sec) 
Heartbeat CPU  0 instructions:  287000000 cycles:  181870974 heartbeat IPC: 1.40611 cumulative IPC: 1.34507 (Simulation time: 0 hr 8 min 5 sec) 
Heartbeat CPU  0 instructions:  288000000 cycles:  182544646 heartbeat IPC: 1.48440 cumulative IPC: 1.34574 (Simulation time: 0 hr 8 min 7 sec) 
Heartbeat CPU  0 instructions:  289000003 cycles:  183375949 heartbeat IPC: 1.20293 cumulative IPC: 1.34490 (Simulation time: 0 hr 8 min 8 sec) 
Heartbeat CPU  0 instructions:  290000002 cycles:  184086661 heartbeat IPC: 1.40704 cumulative IPC: 1.34521 (Simulation time: 0 hr 8 min 10 sec) 
Heartbeat CPU  0 instructions:  291000001 cycles:  184754761 heartbeat IPC: 1.49678 cumulative IPC: 1.34592 (Simulation time: 0 hr 8 min 12 sec) 
Heartbeat CPU  0 instructions:  292000000 cycles:  185517864 heartbeat IPC: 1.31044 cumulative IPC: 1.34573 (Simulation time: 0 hr 8 min 14 sec) 
Heartbeat CPU  0 instructions:  293000001 cycles:  186237742 heartbeat IPC: 1.38913 cumulative IPC: 1.34595 (Simulation time: 0 hr 8 min 15 sec) 
Heartbeat CPU  0 instructions:  294000001 cycles:  186922524 heartbeat IPC: 1.46032 cumulative IPC: 1.34649 (Simulation time: 0 hr 8 min 17 sec) 
Heartbeat CPU  0 instructions:  295000002 cycles:  187654673 heartbeat IPC: 1.36584 cumulative IPC: 1.34659 (Simulation time: 0 hr 8 min 19 sec) 
Heartbeat CPU  0 instructions:  296000000 cycles:  188375749 heartbeat IPC: 1.38681 cumulative IPC: 1.34679 (Simulation time: 0 hr 8 min 21 sec) 
Heartbeat CPU  0 instructions:  297000001 cycles:  189071274 heartbeat IPC: 1.43776 cumulative IPC: 1.34722 (Simulation time: 0 hr 8 min 22 sec) 
Heartbeat CPU  0 instructions:  298000000 cycles:  189802233 heartbeat IPC: 1.36806 cumulative IPC: 1.34733 (Simulation time: 0 hr 8 min 24 sec) 
Heartbeat CPU  0 instructions:  299000000 cycles:  190528031 heartbeat IPC: 1.37779 cumulative IPC: 1.34748 (Simulation time: 0 hr 8 min 26 sec) 
Heartbeat CPU  0 instructions:  300000000 cycles:  191229111 heartbeat IPC: 1.42637 cumulative IPC: 1.34785 (Simulation time: 0 hr 8 min 28 sec) 
Heartbeat CPU  0 instructions:  301000003 cycles:  191944453 heartbeat IPC: 1.39794 cumulative IPC: 1.34809 (Simulation time: 0 hr 8 min 29 sec) 
Heartbeat CPU  0 instructions:  302000003 cycles:  192668135 heartbeat IPC: 1.38182 cumulative IPC: 1.34825 (Simulation time: 0 hr 8 min 31 sec) 
Heartbeat CPU  0 instructions:  303000002 cycles:  193377126 heartbeat IPC: 1.41045 cumulative IPC: 1.34855 (Simulation time: 0 hr 8 min 33 sec) 
Heartbeat CPU  0 instructions:  304000000 cycles:  194114855 heartbeat IPC: 1.35551 cumulative IPC: 1.34858 (Simulation time: 0 hr 8 min 35 sec) 
Heartbeat CPU  0 instructions:  305000001 cycles:  194807992 heartbeat IPC: 1.44272 cumulative IPC: 1.34901 (Simulation time: 0 hr 8 min 37 sec) 
Heartbeat CPU  0 instructions:  306000003 cycles:  195517901 heartbeat IPC: 1.40863 cumulative IPC: 1.34929 (Simulation time: 0 hr 8 min 38 sec) 
Heartbeat CPU  0 instructions:  307000000 cycles:  196263312 heartbeat IPC: 1.34154 cumulative IPC: 1.34925 (Simulation time: 0 hr 8 min 40 sec) 
Heartbeat CPU  0 instructions:  308000000 cycles:  196946091 heartbeat IPC: 1.46460 cumulative IPC: 1.34976 (Simulation time: 0 hr 8 min 42 sec) 
Heartbeat CPU  0 instructions:  309000002 cycles:  197671448 heartbeat IPC: 1.37863 cumulative IPC: 1.34990 (Simulation time: 0 hr 8 min 44 sec) 
Heartbeat CPU  0 instructions:  310000000 cycles:  198472612 heartbeat IPC: 1.24818 cumulative IPC: 1.34937 (Simulation time: 0 hr 8 min 45 sec) 
Heartbeat CPU  0 instructions:  311000001 cycles:  199153445 heartbeat IPC: 1.46879 cumulative IPC: 1.34989 (Simulation time: 0 hr 8 min 47 sec) 
Heartbeat CPU  0 instructions:  312000000 cycles:  199881728 heartbeat IPC: 1.37309 cumulative IPC: 1.35000 (Simulation time: 0 hr 8 min 49 sec) 
Heartbeat CPU  0 instructions:  313000002 cycles:  200753730 heartbeat IPC: 1.14679 cumulative IPC: 1.34888 (Simulation time: 0 hr 8 min 51 sec) 
Heartbeat CPU  0 instructions:  314000001 cycles:  201503703 heartbeat IPC: 1.33338 cumulative IPC: 1.34880 (Simulation time: 0 hr 8 min 52 sec) 
Heartbeat CPU  0 instructions:  315000000 cycles:  202225957 heartbeat IPC: 1.38455 cumulative IPC: 1.34897 (Simulation time: 0 hr 8 min 54 sec) 
Heartbeat CPU  0 instructions:  316000000 cycles:  202971927 heartbeat IPC: 1.34054 cumulative IPC: 1.34893 (Simulation time: 0 hr 8 min 56 sec) 
Heartbeat CPU  0 instructions:  317000001 cycles:  203786819 heartbeat IPC: 1.22716 cumulative IPC: 1.34831 (Simulation time: 0 hr 8 min 58 sec) 
Heartbeat CPU  0 instructions:  318000001 cycles:  204659479 heartbeat IPC: 1.14592 cumulative IPC: 1.34722 (Simulation time: 0 hr 9 min 0 sec) 
Heartbeat CPU  0 instructions:  319000003 cycles:  205354140 heartbeat IPC: 1.43955 cumulative IPC: 1.34761 (Simulation time: 0 hr 9 min 1 sec) 
Heartbeat CPU  0 instructions:  320000000 cycles:  206062147 heartbeat IPC: 1.41241 cumulative IPC: 1.34789 (Simulation time: 0 hr 9 min 3 sec) 
Heartbeat CPU  0 instructions:  321000001 cycles:  206877145 heartbeat IPC: 1.22700 cumulative IPC: 1.34729 (Simulation time: 0 hr 9 min 5 sec) 
Heartbeat CPU  0 instructions:  322000003 cycles:  207672732 heartbeat IPC: 1.25694 cumulative IPC: 1.34686 (Simulation time: 0 hr 9 min 7 sec) 
Heartbeat CPU  0 instructions:  323000001 cycles:  208460875 heartbeat IPC: 1.26880 cumulative IPC: 1.34649 (Simulation time: 0 hr 9 min 9 sec) 
Heartbeat CPU  0 instructions:  324000000 cycles:  209181741 heartbeat IPC: 1.38722 cumulative IPC: 1.34666 (Simulation time: 0 hr 9 min 10 sec) 
Heartbeat CPU  0 instructions:  325000000 cycles:  209919986 heartbeat IPC: 1.35456 cumulative IPC: 1.34670 (Simulation time: 0 hr 9 min 12 sec) 
Heartbeat CPU  0 instructions:  326000003 cycles:  210729808 heartbeat IPC: 1.23484 cumulative IPC: 1.34616 (Simulation time: 0 hr 9 min 14 sec) 
Heartbeat CPU  0 instructions:  327000000 cycles:  211473864 heartbeat IPC: 1.34398 cumulative IPC: 1.34615 (Simulation time: 0 hr 9 min 16 sec) 
Heartbeat CPU  0 instructions:  328000000 cycles:  212259679 heartbeat IPC: 1.27256 cumulative IPC: 1.34581 (Simulation time: 0 hr 9 min 17 sec) 
Heartbeat CPU  0 instructions:  329000001 cycles:  213060088 heartbeat IPC: 1.24936 cumulative IPC: 1.34535 (Simulation time: 0 hr 9 min 19 sec) 
Heartbeat CPU  0 instructions:  330000001 cycles:  213725577 heartbeat IPC: 1.50265 cumulative IPC: 1.34597 (Simulation time: 0 hr 9 min 21 sec) 
Heartbeat CPU  0 instructions:  331000000 cycles:  214428517 heartbeat IPC: 1.42260 cumulative IPC: 1.34628 (Simulation time: 0 hr 9 min 23 sec) 
Heartbeat CPU  0 instructions:  332000000 cycles:  215151233 heartbeat IPC: 1.38367 cumulative IPC: 1.34644 (Simulation time: 0 hr 9 min 24 sec) 
Heartbeat CPU  0 instructions:  333000001 cycles:  215931130 heartbeat IPC: 1.28222 cumulative IPC: 1.34615 (Simulation time: 0 hr 9 min 26 sec) 
Heartbeat CPU  0 instructions:  334000002 cycles:  216709035 heartbeat IPC: 1.28551 cumulative IPC: 1.34588 (Simulation time: 0 hr 9 min 28 sec) 
Heartbeat CPU  0 instructions:  335000000 cycles:  217533751 heartbeat IPC: 1.21254 cumulative IPC: 1.34525 (Simulation time: 0 hr 9 min 30 sec) 
Heartbeat CPU  0 instructions:  336000000 cycles:  218256797 heartbeat IPC: 1.38304 cumulative IPC: 1.34540 (Simulation time: 0 hr 9 min 32 sec) 
Heartbeat CPU  0 instructions:  337000002 cycles:  218974684 heartbeat IPC: 1.39298 cumulative IPC: 1.34560 (Simulation time: 0 hr 9 min 33 sec) 
Heartbeat CPU  0 instructions:  338000003 cycles:  219771055 heartbeat IPC: 1.25570 cumulative IPC: 1.34519 (Simulation time: 0 hr 9 min 35 sec) 
Heartbeat CPU  0 instructions:  339000002 cycles:  220515948 heartbeat IPC: 1.34247 cumulative IPC: 1.34518 (Simulation time: 0 hr 9 min 37 sec) 
Heartbeat CPU  0 instructions:  340000000 cycles:  221288092 heartbeat IPC: 1.29509 cumulative IPC: 1.34496 (Simulation time: 0 hr 9 min 39 sec) 
Heartbeat CPU  0 instructions:  341000001 cycles:  222089129 heartbeat IPC: 1.24838 cumulative IPC: 1.34453 (Simulation time: 0 hr 9 min 40 sec) 
Heartbeat CPU  0 instructions:  342000003 cycles:  222766806 heartbeat IPC: 1.47563 cumulative IPC: 1.34503 (Simulation time: 0 hr 9 min 42 sec) 
Heartbeat CPU  0 instructions:  343000003 cycles:  223535699 heartbeat IPC: 1.30057 cumulative IPC: 1.34484 (Simulation time: 0 hr 9 min 44 sec) 
Heartbeat CPU  0 instructions:  344000000 cycles:  224265299 heartbeat IPC: 1.37061 cumulative IPC: 1.34494 (Simulation time: 0 hr 9 min 46 sec) 
Heartbeat CPU  0 instructions:  345000003 cycles:  224936322 heartbeat IPC: 1.49027 cumulative IPC: 1.34548 (Simulation time: 0 hr 9 min 47 sec) 
Heartbeat CPU  0 instructions:  346000000 cycles:  225654710 heartbeat IPC: 1.39200 cumulative IPC: 1.34566 (Simulation time: 0 hr 9 min 49 sec) 
Heartbeat CPU  0 instructions:  347000001 cycles:  226388011 heartbeat IPC: 1.36370 cumulative IPC: 1.34573 (Simulation time: 0 hr 9 min 51 sec) 
Heartbeat CPU  0 instructions:  348000000 cycles:  227121443 heartbeat IPC: 1.36345 cumulative IPC: 1.34580 (Simulation time: 0 hr 9 min 53 sec) 
Heartbeat CPU  0 instructions:  349000003 cycles:  227854721 heartbeat IPC: 1.36374 cumulative IPC: 1.34587 (Simulation time: 0 hr 9 min 54 sec) 
Heartbeat CPU  0 instructions:  350000003 cycles:  228576799 heartbeat IPC: 1.38489 cumulative IPC: 1.34602 (Simulation time: 0 hr 9 min 56 sec) 
Heartbeat CPU  0 instructions:  351000002 cycles:  229365547 heartbeat IPC: 1.26783 cumulative IPC: 1.34569 (Simulation time: 0 hr 9 min 58 sec) 
Heartbeat CPU  0 instructions:  352000000 cycles:  230059024 heartbeat IPC: 1.44201 cumulative IPC: 1.34605 (Simulation time: 0 hr 10 min 0 sec) 
Heartbeat CPU  0 instructions:  353000003 cycles:  230805043 heartbeat IPC: 1.34045 cumulative IPC: 1.34603 (Simulation time: 0 hr 10 min 1 sec) 
Heartbeat CPU  0 instructions:  354000002 cycles:  231496702 heartbeat IPC: 1.44580 cumulative IPC: 1.34639 (Simulation time: 0 hr 10 min 3 sec) 
Heartbeat CPU  0 instructions:  355000002 cycles:  232215240 heartbeat IPC: 1.39171 cumulative IPC: 1.34657 (Simulation time: 0 hr 10 min 5 sec) 
Heartbeat CPU  0 instructions:  356000000 cycles:  232983730 heartbeat IPC: 1.30125 cumulative IPC: 1.34638 (Simulation time: 0 hr 10 min 7 sec) 
Heartbeat CPU  0 instructions:  357000002 cycles:  233754766 heartbeat IPC: 1.29696 cumulative IPC: 1.34618 (Simulation time: 0 hr 10 min 8 sec) 
Heartbeat CPU  0 instructions:  358000002 cycles:  234453403 heartbeat IPC: 1.43136 cumulative IPC: 1.34649 (Simulation time: 0 hr 10 min 10 sec) 
Heartbeat CPU  0 instructions:  359000002 cycles:  235168886 heartbeat IPC: 1.39766 cumulative IPC: 1.34668 (Simulation time: 0 hr 10 min 12 sec) 
Heartbeat CPU  0 instructions:  360000000 cycles:  235863709 heartbeat IPC: 1.43921 cumulative IPC: 1.34702 (Simulation time: 0 hr 10 min 14 sec) 
Heartbeat CPU  0 instructions:  361000000 cycles:  236554375 heartbeat IPC: 1.44788 cumulative IPC: 1.34738 (Simulation time: 0 hr 10 min 15 sec) 
Heartbeat CPU  0 instructions:  362000003 cycles:  237290942 heartbeat IPC: 1.35765 cumulative IPC: 1.34742 (Simulation time: 0 hr 10 min 17 sec) 
Heartbeat CPU  0 instructions:  363000000 cycles:  238014333 heartbeat IPC: 1.38237 cumulative IPC: 1.34755 (Simulation time: 0 hr 10 min 19 sec) 
Heartbeat CPU  0 instructions:  364000000 cycles:  238732658 heartbeat IPC: 1.39213 cumulative IPC: 1.34771 (Simulation time: 0 hr 10 min 21 sec) 
Heartbeat CPU  0 instructions:  365000001 cycles:  239463837 heartbeat IPC: 1.36766 cumulative IPC: 1.34778 (Simulation time: 0 hr 10 min 23 sec) 
Heartbeat CPU  0 instructions:  366000003 cycles:  240266942 heartbeat IPC: 1.24517 cumulative IPC: 1.34737 (Simulation time: 0 hr 10 min 24 sec) 
Heartbeat CPU  0 instructions:  367000001 cycles:  241016063 heartbeat IPC: 1.33490 cumulative IPC: 1.34732 (Simulation time: 0 hr 10 min 26 sec) 
Heartbeat CPU  0 instructions:  368000000 cycles:  241823415 heartbeat IPC: 1.23862 cumulative IPC: 1.34688 (Simulation time: 0 hr 10 min 28 sec) 
Heartbeat CPU  0 instructions:  369000000 cycles:  242558179 heartbeat IPC: 1.36098 cumulative IPC: 1.34693 (Simulation time: 0 hr 10 min 30 sec) 
Heartbeat CPU  0 instructions:  370000001 cycles:  243232698 heartbeat IPC: 1.48254 cumulative IPC: 1.34739 (Simulation time: 0 hr 10 min 31 sec) 
Heartbeat CPU  0 instructions:  371000001 cycles:  243968695 heartbeat IPC: 1.35870 cumulative IPC: 1.34743 (Simulation time: 0 hr 10 min 33 sec) 
Heartbeat CPU  0 instructions:  372000000 cycles:  244741009 heartbeat IPC: 1.29481 cumulative IPC: 1.34723 (Simulation time: 0 hr 10 min 35 sec) 
Heartbeat CPU  0 instructions:  373000000 cycles:  245471542 heartbeat IPC: 1.36886 cumulative IPC: 1.34730 (Simulation time: 0 hr 10 min 37 sec) 
Heartbeat CPU  0 instructions:  374000002 cycles:  246234453 heartbeat IPC: 1.31077 cumulative IPC: 1.34717 (Simulation time: 0 hr 10 min 38 sec) 
Heartbeat CPU  0 instructions:  375000000 cycles:  246963234 heartbeat IPC: 1.37215 cumulative IPC: 1.34726 (Simulation time: 0 hr 10 min 40 sec) 
Heartbeat CPU  0 instructions:  376000000 cycles:  247705033 heartbeat IPC: 1.34807 cumulative IPC: 1.34726 (Simulation time: 0 hr 10 min 42 sec) 
Heartbeat CPU  0 instructions:  377000001 cycles:  248420156 heartbeat IPC: 1.39836 cumulative IPC: 1.34744 (Simulation time: 0 hr 10 min 44 sec) 
Heartbeat CPU  0 instructions:  378000003 cycles:  249215318 heartbeat IPC: 1.25761 cumulative IPC: 1.34709 (Simulation time: 0 hr 10 min 45 sec) 
Heartbeat CPU  0 instructions:  379000002 cycles:  249917391 heartbeat IPC: 1.42435 cumulative IPC: 1.34735 (Simulation time: 0 hr 10 min 47 sec) 
Heartbeat CPU  0 instructions:  380000000 cycles:  250652945 heartbeat IPC: 1.35952 cumulative IPC: 1.34740 (Simulation time: 0 hr 10 min 49 sec) 
Heartbeat CPU  0 instructions:  381000000 cycles:  251429769 heartbeat IPC: 1.28729 cumulative IPC: 1.34717 (Simulation time: 0 hr 10 min 51 sec) 
Heartbeat CPU  0 instructions:  382000001 cycles:  252121239 heartbeat IPC: 1.44620 cumulative IPC: 1.34750 (Simulation time: 0 hr 10 min 53 sec) 
Heartbeat CPU  0 instructions:  383000002 cycles:  252831283 heartbeat IPC: 1.40836 cumulative IPC: 1.34770 (Simulation time: 0 hr 10 min 54 sec) 
Heartbeat CPU  0 instructions:  384000000 cycles:  253539360 heartbeat IPC: 1.41227 cumulative IPC: 1.34792 (Simulation time: 0 hr 10 min 56 sec) 
Heartbeat CPU  0 instructions:  385000001 cycles:  254323670 heartbeat IPC: 1.27501 cumulative IPC: 1.34765 (Simulation time: 0 hr 10 min 58 sec) 
Heartbeat CPU  0 instructions:  386000003 cycles:  255077137 heartbeat IPC: 1.32720 cumulative IPC: 1.34758 (Simulation time: 0 hr 11 min 0 sec) 
Heartbeat CPU  0 instructions:  387000002 cycles:  255798804 heartbeat IPC: 1.38568 cumulative IPC: 1.34771 (Simulation time: 0 hr 11 min 1 sec) 
Heartbeat CPU  0 instructions:  388000000 cycles:  256526887 heartbeat IPC: 1.37347 cumulative IPC: 1.34780 (Simulation time: 0 hr 11 min 3 sec) 
Heartbeat CPU  0 instructions:  389000000 cycles:  257188876 heartbeat IPC: 1.51060 cumulative IPC: 1.34830 (Simulation time: 0 hr 11 min 5 sec) 
Heartbeat CPU  0 instructions:  390000003 cycles:  257889432 heartbeat IPC: 1.42744 cumulative IPC: 1.34856 (Simulation time: 0 hr 11 min 7 sec) 
Heartbeat CPU  0 instructions:  391000000 cycles:  258626727 heartbeat IPC: 1.35631 cumulative IPC: 1.34858 (Simulation time: 0 hr 11 min 8 sec) 
Heartbeat CPU  0 instructions:  392000000 cycles:  259350411 heartbeat IPC: 1.38182 cumulative IPC: 1.34869 (Simulation time: 0 hr 11 min 10 sec) 
Heartbeat CPU  0 instructions:  393000000 cycles:  260034785 heartbeat IPC: 1.46119 cumulative IPC: 1.34905 (Simulation time: 0 hr 11 min 12 sec) 
Heartbeat CPU  0 instructions:  394000000 cycles:  260772630 heartbeat IPC: 1.35530 cumulative IPC: 1.34907 (Simulation time: 0 hr 11 min 14 sec) 
Heartbeat CPU  0 instructions:  395000000 cycles:  261548948 heartbeat IPC: 1.28813 cumulative IPC: 1.34885 (Simulation time: 0 hr 11 min 15 sec) 
Heartbeat CPU  0 instructions:  396000000 cycles:  262290900 heartbeat IPC: 1.34780 cumulative IPC: 1.34885 (Simulation time: 0 hr 11 min 17 sec) 
Heartbeat CPU  0 instructions:  397000000 cycles:  263138295 heartbeat IPC: 1.18009 cumulative IPC: 1.34820 (Simulation time: 0 hr 11 min 19 sec) 
Heartbeat CPU  0 instructions:  398000000 cycles:  263842078 heartbeat IPC: 1.42089 cumulative IPC: 1.34843 (Simulation time: 0 hr 11 min 21 sec) 
Heartbeat CPU  0 instructions:  399000003 cycles:  264589005 heartbeat IPC: 1.33882 cumulative IPC: 1.34840 (Simulation time: 0 hr 11 min 23 sec) 
Heartbeat CPU  0 instructions:  400000000 cycles:  265307901 heartbeat IPC: 1.39102 cumulative IPC: 1.34854 (Simulation time: 0 hr 11 min 24 sec) 
Heartbeat CPU  0 instructions:  401000001 cycles:  266038502 heartbeat IPC: 1.36874 cumulative IPC: 1.34860 (Simulation time: 0 hr 11 min 26 sec) 
Heartbeat CPU  0 instructions:  402000003 cycles:  266760036 heartbeat IPC: 1.38594 cumulative IPC: 1.34872 (Simulation time: 0 hr 11 min 28 sec) 
Heartbeat CPU  0 instructions:  403000002 cycles:  267519572 heartbeat IPC: 1.31659 cumulative IPC: 1.34861 (Simulation time: 0 hr 11 min 30 sec) 
Heartbeat CPU  0 instructions:  404000000 cycles:  268293950 heartbeat IPC: 1.29136 cumulative IPC: 1.34842 (Simulation time: 0 hr 11 min 31 sec) 
Heartbeat CPU  0 instructions:  405000002 cycles:  268986546 heartbeat IPC: 1.44385 cumulative IPC: 1.34871 (Simulation time: 0 hr 11 min 33 sec) 
Heartbeat CPU  0 instructions:  406000000 cycles:  269736555 heartbeat IPC: 1.33331 cumulative IPC: 1.34866 (Simulation time: 0 hr 11 min 35 sec) 
Heartbeat CPU  0 instructions:  407000000 cycles:  270468220 heartbeat IPC: 1.36675 cumulative IPC: 1.34872 (Simulation time: 0 hr 11 min 37 sec) 
Heartbeat CPU  0 instructions:  408000000 cycles:  271170204 heartbeat IPC: 1.42453 cumulative IPC: 1.34895 (Simulation time: 0 hr 11 min 38 sec) 
Heartbeat CPU  0 instructions:  409000003 cycles:  271962521 heartbeat IPC: 1.26212 cumulative IPC: 1.34865 (Simulation time: 0 hr 11 min 40 sec) 
Heartbeat CPU  0 instructions:  410000000 cycles:  272680349 heartbeat IPC: 1.39309 cumulative IPC: 1.34879 (Simulation time: 0 hr 11 min 42 sec) 
Heartbeat CPU  0 instructions:  411000003 cycles:  273400825 heartbeat IPC: 1.38798 cumulative IPC: 1.34891 (Simulation time: 0 hr 11 min 44 sec) 
Heartbeat CPU  0 instructions:  412000000 cycles:  274283188 heartbeat IPC: 1.13332 cumulative IPC: 1.34809 (Simulation time: 0 hr 11 min 46 sec) 
Heartbeat CPU  0 instructions:  413000002 cycles:  275489701 heartbeat IPC: 0.82884 cumulative IPC: 1.34540 (Simulation time: 0 hr 11 min 47 sec) 
Heartbeat CPU  0 instructions:  414000001 cycles:  287390927 heartbeat IPC: 0.08402 cumulative IPC: 1.28401 (Simulation time: 0 hr 11 min 55 sec) 
Heartbeat CPU  0 instructions:  415000002 cycles:  292230122 heartbeat IPC: 0.20665 cumulative IPC: 1.26310 (Simulation time: 0 hr 11 min 58 sec) 
Heartbeat CPU  0 instructions:  416000000 cycles:  296533147 heartbeat IPC: 0.23239 cumulative IPC: 1.24562 (Simulation time: 0 hr 12 min 1 sec) 
Heartbeat CPU  0 instructions:  417000001 cycles:  300907999 heartbeat IPC: 0.22858 cumulative IPC: 1.22838 (Simulation time: 0 hr 12 min 4 sec) 
Heartbeat CPU  0 instructions:  418000003 cycles:  312306399 heartbeat IPC: 0.08773 cumulative IPC: 1.18013 (Simulation time: 0 hr 12 min 11 sec) 
Heartbeat CPU  0 instructions:  419000001 cycles:  325215507 heartbeat IPC: 0.07746 cumulative IPC: 1.12972 (Simulation time: 0 hr 12 min 17 sec) 
Heartbeat CPU  0 instructions:  420000000 cycles:  333961956 heartbeat IPC: 0.11433 cumulative IPC: 1.09921 (Simulation time: 0 hr 12 min 21 sec) 
Heartbeat CPU  0 instructions:  421000003 cycles:  341960727 heartbeat IPC: 0.12502 cumulative IPC: 1.07316 (Simulation time: 0 hr 12 min 24 sec) 
Heartbeat CPU  0 instructions:  422000001 cycles:  349314534 heartbeat IPC: 0.13598 cumulative IPC: 1.05067 (Simulation time: 0 hr 12 min 28 sec) 
Heartbeat CPU  0 instructions:  423000000 cycles:  356236349 heartbeat IPC: 0.14447 cumulative IPC: 1.03066 (Simulation time: 0 hr 12 min 31 sec) 
Heartbeat CPU  0 instructions:  424000000 cycles:  366720261 heartbeat IPC: 0.09538 cumulative IPC: 1.00038 (Simulation time: 0 hr 12 min 37 sec) 
Heartbeat CPU  0 instructions:  425000002 cycles:  374061158 heartbeat IPC: 0.13622 cumulative IPC: 0.98123 (Simulation time: 0 hr 12 min 42 sec) 
Heartbeat CPU  0 instructions:  426000002 cycles:  379785245 heartbeat IPC: 0.17470 cumulative IPC: 0.96753 (Simulation time: 0 hr 12 min 45 sec) 
Heartbeat CPU  0 instructions:  427000000 cycles:  385488322 heartbeat IPC: 0.17534 cumulative IPC: 0.95434 (Simulation time: 0 hr 12 min 49 sec) 
Heartbeat CPU  0 instructions:  428000000 cycles:  391680740 heartbeat IPC: 0.16149 cumulative IPC: 0.94027 (Simulation time: 0 hr 12 min 53 sec) 
Heartbeat CPU  0 instructions:  429000001 cycles:  398027095 heartbeat IPC: 0.15757 cumulative IPC: 0.92628 (Simulation time: 0 hr 12 min 57 sec) 
Heartbeat CPU  0 instructions:  430000001 cycles:  404486479 heartbeat IPC: 0.15481 cumulative IPC: 0.91250 (Simulation time: 0 hr 13 min 1 sec) 
Heartbeat CPU  0 instructions:  431000000 cycles:  416605449 heartbeat IPC: 0.08252 cumulative IPC: 0.88559 (Simulation time: 0 hr 13 min 6 sec) 
Heartbeat CPU  0 instructions:  432000000 cycles:  427691080 heartbeat IPC: 0.09021 cumulative IPC: 0.86268 (Simulation time: 0 hr 13 min 13 sec) 
Heartbeat CPU  0 instructions:  433000000 cycles:  439912772 heartbeat IPC: 0.08182 cumulative IPC: 0.83865 (Simulation time: 0 hr 13 min 19 sec) 
Heartbeat CPU  0 instructions:  434000001 cycles:  448759348 heartbeat IPC: 0.11304 cumulative IPC: 0.82283 (Simulation time: 0 hr 13 min 23 sec) 
Heartbeat CPU  0 instructions:  435000003 cycles:  456919084 heartbeat IPC: 0.12255 cumulative IPC: 0.80903 (Simulation time: 0 hr 13 min 27 sec) 
Heartbeat CPU  0 instructions:  436000000 cycles:  464583255 heartbeat IPC: 0.13048 cumulative IPC: 0.79670 (Simulation time: 0 hr 13 min 30 sec) 
Heartbeat CPU  0 instructions:  437000002 cycles:  470959462 heartbeat IPC: 0.15683 cumulative IPC: 0.78717 (Simulation time: 0 hr 13 min 34 sec) 
Heartbeat CPU  0 instructions:  438000001 cycles:  481542363 heartbeat IPC: 0.09449 cumulative IPC: 0.77046 (Simulation time: 0 hr 13 min 40 sec) 
Heartbeat CPU  0 instructions:  439000000 cycles:  490236363 heartbeat IPC: 0.11502 cumulative IPC: 0.75773 (Simulation time: 0 hr 13 min 45 sec) 
Heartbeat CPU  0 instructions:  440000000 cycles:  496359556 heartbeat IPC: 0.16331 cumulative IPC: 0.74970 (Simulation time: 0 hr 13 min 49 sec) 
Heartbeat CPU  0 instructions:  441000000 cycles:  502475384 heartbeat IPC: 0.16351 cumulative IPC: 0.74190 (Simulation time: 0 hr 13 min 53 sec) 
Heartbeat CPU  0 instructions:  442000000 cycles:  508707512 heartbeat IPC: 0.16046 cumulative IPC: 0.73412 (Simulation time: 0 hr 13 min 56 sec) 
Heartbeat CPU  0 instructions:  443000001 cycles:  515046948 heartbeat IPC: 0.15774 cumulative IPC: 0.72638 (Simulation time: 0 hr 14 min 0 sec) 
Heartbeat CPU  0 instructions:  444000000 cycles:  521465899 heartbeat IPC: 0.15579 cumulative IPC: 0.71873 (Simulation time: 0 hr 14 min 4 sec) 
Heartbeat CPU  0 instructions:  445000002 cycles:  527986316 heartbeat IPC: 0.15336 cumulative IPC: 0.71113 (Simulation time: 0 hr 14 min 8 sec) 
Heartbeat CPU  0 instructions:  446000003 cycles:  542802498 heartbeat IPC: 0.06749 cumulative IPC: 0.69206 (Simulation time: 0 hr 14 min 16 sec) 
Heartbeat CPU  0 instructions:  447000000 cycles:  556243918 heartbeat IPC: 0.07440 cumulative IPC: 0.67589 (Simulation time: 0 hr 14 min 23 sec) 
Heartbeat CPU  0 instructions:  448000000 cycles:  565682482 heartbeat IPC: 0.10595 cumulative IPC: 0.66560 (Simulation time: 0 hr 14 min 27 sec) 
Heartbeat CPU  0 instructions:  449000001 cycles:  573981316 heartbeat IPC: 0.12050 cumulative IPC: 0.65708 (Simulation time: 0 hr 14 min 31 sec) 
Heartbeat CPU  0 instructions:  450000000 cycles:  581844344 heartbeat IPC: 0.12718 cumulative IPC: 0.64935 (Simulation time: 0 hr 14 min 34 sec) 
Heartbeat CPU  0 instructions:  451000000 cycles:  588469313 heartbeat IPC: 0.15094 cumulative IPC: 0.64330 (Simulation time: 0 hr 14 min 38 sec) 
Heartbeat CPU  0 instructions:  452000000 cycles:  597436556 heartbeat IPC: 0.11152 cumulative IPC: 0.63470 (Simulation time: 0 hr 14 min 42 sec) 
Heartbeat CPU  0 instructions:  453000001 cycles:  607683056 heartbeat IPC: 0.09759 cumulative IPC: 0.62496 (Simulation time: 0 hr 14 min 48 sec) 
Heartbeat CPU  0 instructions:  454000000 cycles:  613824806 heartbeat IPC: 0.16282 cumulative IPC: 0.61999 (Simulation time: 0 hr 14 min 52 sec) 
Heartbeat CPU  0 instructions:  455000001 cycles:  619930372 heartbeat IPC: 0.16379 cumulative IPC: 0.61516 (Simulation time: 0 hr 14 min 56 sec) 
Heartbeat CPU  0 instructions:  456000000 cycles:  626109326 heartbeat IPC: 0.16184 cumulative IPC: 0.61036 (Simulation time: 0 hr 15 min 0 sec) 
Heartbeat CPU  0 instructions:  457000002 cycles:  632451195 heartbeat IPC: 0.15768 cumulative IPC: 0.60549 (Simulation time: 0 hr 15 min 4 sec) 
Heartbeat CPU  0 instructions:  458000000 cycles:  638782825 heartbeat IPC: 0.15794 cumulative IPC: 0.60073 (Simulation time: 0 hr 15 min 8 sec) 
Heartbeat CPU  0 instructions:  459000001 cycles:  645191070 heartbeat IPC: 0.15605 cumulative IPC: 0.59600 (Simulation time: 0 hr 15 min 12 sec) 
Heartbeat CPU  0 instructions:  460000000 cycles:  658416166 heartbeat IPC: 0.07561 cumulative IPC: 0.58482 (Simulation time: 0 hr 15 min 18 sec) 
Heartbeat CPU  0 instructions:  461000002 cycles:  672016207 heartbeat IPC: 0.07353 cumulative IPC: 0.57377 (Simulation time: 0 hr 15 min 26 sec) 
Heartbeat CPU  0 instructions:  462000000 cycles:  682470115 heartbeat IPC: 0.09566 cumulative IPC: 0.56596 (Simulation time: 0 hr 15 min 31 sec) 
Heartbeat CPU  0 instructions:  463000000 cycles:  690938479 heartbeat IPC: 0.11809 cumulative IPC: 0.56010 (Simulation time: 0 hr 15 min 34 sec) 
Heartbeat CPU  0 instructions:  464000000 cycles:  698796834 heartbeat IPC: 0.12725 cumulative IPC: 0.55492 (Simulation time: 0 hr 15 min 38 sec) 
Heartbeat CPU  0 instructions:  465000000 cycles:  705831608 heartbeat IPC: 0.14215 cumulative IPC: 0.55054 (Simulation time: 0 hr 15 min 41 sec) 
Heartbeat CPU  0 instructions:  466000000 cycles:  713310798 heartbeat IPC: 0.13370 cumulative IPC: 0.54589 (Simulation time: 0 hr 15 min 45 sec) 
Heartbeat CPU  0 instructions:  467000000 cycles:  725034453 heartbeat IPC: 0.08530 cumulative IPC: 0.53797 (Simulation time: 0 hr 15 min 52 sec) 
Heartbeat CPU  0 instructions:  468000000 cycles:  731195672 heartbeat IPC: 0.16231 cumulative IPC: 0.53461 (Simulation time: 0 hr 15 min 56 sec) 
Heartbeat CPU  0 instructions:  469000000 cycles:  737304628 heartbeat IPC: 0.16369 cumulative IPC: 0.53135 (Simulation time: 0 hr 16 min 0 sec) 
Heartbeat CPU  0 instructions:  470000002 cycles:  743451214 heartbeat IPC: 0.16269 cumulative IPC: 0.52811 (Simulation time: 0 hr 16 min 4 sec) 
Heartbeat CPU  0 instructions:  471000000 cycles:  749731594 heartbeat IPC: 0.15923 cumulative IPC: 0.52484 (Simulation time: 0 hr 16 min 8 sec) 
Heartbeat CPU  0 instructions:  472000000 cycles:  756089783 heartbeat IPC: 0.15728 cumulative IPC: 0.52156 (Simulation time: 0 hr 16 min 12 sec) 
Heartbeat CPU  0 instructions:  473000002 cycles:  762561036 heartbeat IPC: 0.15453 cumulative IPC: 0.51826 (Simulation time: 0 hr 16 min 16 sec) 
Heartbeat CPU  0 instructions:  474000000 cycles:  774482894 heartbeat IPC: 0.08388 cumulative IPC: 0.51118 (Simulation time: 0 hr 16 min 21 sec) 
Heartbeat CPU  0 instructions:  475000002 cycles:  787159769 heartbeat IPC: 0.07888 cumulative IPC: 0.50382 (Simulation time: 0 hr 16 min 28 sec) 
Heartbeat CPU  0 instructions:  476000000 cycles:  799132450 heartbeat IPC: 0.08352 cumulative IPC: 0.49717 (Simulation time: 0 hr 16 min 34 sec) 
Heartbeat CPU  0 instructions:  477000000 cycles:  807605467 heartbeat IPC: 0.11802 cumulative IPC: 0.49296 (Simulation time: 0 hr 16 min 38 sec) 
Heartbeat CPU  0 instructions:  478000002 cycles:  815610889 heartbeat IPC: 0.12492 cumulative IPC: 0.48915 (Simulation time: 0 hr 16 min 42 sec) 
Heartbeat CPU  0 instructions:  479000000 cycles:  823086456 heartbeat IPC: 0.13377 cumulative IPC: 0.48575 (Simulation time: 0 hr 16 min 45 sec) 
Heartbeat CPU  0 instructions:  480000000 cycles:  829748288 heartbeat IPC: 0.15011 cumulative IPC: 0.48291 (Simulation time: 0 hr 16 min 48 sec) 
Heartbeat CPU  0 instructions:  481000000 cycles:  842035968 heartbeat IPC: 0.08138 cumulative IPC: 0.47673 (Simulation time: 0 hr 16 min 55 sec) 
Heartbeat CPU  0 instructions:  482000000 cycles:  848454061 heartbeat IPC: 0.15581 cumulative IPC: 0.47418 (Simulation time: 0 hr 16 min 59 sec) 
Heartbeat CPU  0 instructions:  483000000 cycles:  854553204 heartbeat IPC: 0.16396 cumulative IPC: 0.47184 (Simulation time: 0 hr 17 min 3 sec) 
Heartbeat CPU  0 instructions:  484000000 cycles:  860643694 heartbeat IPC: 0.16419 cumulative IPC: 0.46955 (Simulation time: 0 hr 17 min 7 sec) 
Heartbeat CPU  0 instructions:  485000002 cycles:  866901978 heartbeat IPC: 0.15979 cumulative IPC: 0.46720 (Simulation time: 0 hr 17 min 11 sec) 
Heartbeat CPU  0 instructions:  486000003 cycles:  873239987 heartbeat IPC: 0.15778 cumulative IPC: 0.46484 (Simulation time: 0 hr 17 min 15 sec) 
Heartbeat CPU  0 instructions:  487000000 cycles:  879643220 heartbeat IPC: 0.15617 cumulative IPC: 0.46248 (Simulation time: 0 hr 17 min 19 sec) 
Heartbeat CPU  0 instructions:  488000000 cycles:  889143901 heartbeat IPC: 0.10526 cumulative IPC: 0.45847 (Simulation time: 0 hr 17 min 24 sec) 
Heartbeat CPU  0 instructions:  489000000 cycles:  902440764 heartbeat IPC: 0.07521 cumulative IPC: 0.45254 (Simulation time: 0 hr 17 min 31 sec) 
Heartbeat CPU  0 instructions:  490000003 cycles:  915296360 heartbeat IPC: 0.07779 cumulative IPC: 0.44702 (Simulation time: 0 hr 17 min 38 sec) 
Heartbeat CPU  0 instructions:  491000003 cycles:  924245868 heartbeat IPC: 0.11174 cumulative IPC: 0.44361 (Simulation time: 0 hr 17 min 41 sec) 
Heartbeat CPU  0 instructions:  492000000 cycles:  932401848 heartbeat IPC: 0.12261 cumulative IPC: 0.44067 (Simulation time: 0 hr 17 min 45 sec) 
Heartbeat CPU  0 instructions:  493000002 cycles:  940126162 heartbeat IPC: 0.12946 cumulative IPC: 0.43799 (Simulation time: 0 hr 17 min 49 sec) 
Heartbeat CPU  0 instructions:  494000001 cycles:  946519783 heartbeat IPC: 0.15641 cumulative IPC: 0.43600 (Simulation time: 0 hr 17 min 52 sec) 
Heartbeat CPU  0 instructions:  495000001 cycles:  956753800 heartbeat IPC: 0.09771 cumulative IPC: 0.43221 (Simulation time: 0 hr 17 min 57 sec) 
Heartbeat CPU  0 instructions:  496000000 cycles:  965697942 heartbeat IPC: 0.11180 cumulative IPC: 0.42910 (Simulation time: 0 hr 18 min 3 sec) 
Heartbeat CPU  0 instructions:  497000001 cycles:  971802235 heartbeat IPC: 0.16382 cumulative IPC: 0.42736 (Simulation time: 0 hr 18 min 7 sec) 
Heartbeat CPU  0 instructions:  498000001 cycles:  977880723 heartbeat IPC: 0.16451 cumulative IPC: 0.42565 (Simulation time: 0 hr 18 min 10 sec) 
Heartbeat CPU  0 instructions:  499000000 cycles:  984117971 heartbeat IPC: 0.16033 cumulative IPC: 0.42389 (Simulation time: 0 hr 18 min 14 sec) 
Heartbeat CPU  0 instructions:  500000000 cycles:  990430836 heartbeat IPC: 0.15841 cumulative IPC: 0.42213 (Simulation time: 0 hr 18 min 18 sec) 
Heartbeat CPU  0 instructions:  501000000 cycles:  996802607 heartbeat IPC: 0.15694 cumulative IPC: 0.42035 (Simulation time: 0 hr 18 min 22 sec) 
Heartbeat CPU  0 instructions:  502000002 cycles: 1003276787 heartbeat IPC: 0.15446 cumulative IPC: 0.41856 (Simulation time: 0 hr 18 min 26 sec) 
Heartbeat CPU  0 instructions:  503000003 cycles: 1017605000 heartbeat IPC: 0.06979 cumulative IPC: 0.41343 (Simulation time: 0 hr 18 min 33 sec) 
Heartbeat CPU  0 instructions:  504000000 cycles: 1031109879 heartbeat IPC: 0.07405 cumulative IPC: 0.40880 (Simulation time: 0 hr 18 min 41 sec) 
Heartbeat CPU  0 instructions:  505000002 cycles: 1040858015 heartbeat IPC: 0.10258 cumulative IPC: 0.40581 (Simulation time: 0 hr 18 min 45 sec) 
Heartbeat CPU  0 instructions:  506000001 cycles: 1049155785 heartbeat IPC: 0.12051 cumulative IPC: 0.40345 (Simulation time: 0 hr 18 min 49 sec) 
Heartbeat CPU  0 instructions:  507000000 cycles: 1057001010 heartbeat IPC: 0.12747 cumulative IPC: 0.40132 (Simulation time: 0 hr 18 min 52 sec) 
Heartbeat CPU  0 instructions:  508000000 cycles: 1063712055 heartbeat IPC: 0.14901 cumulative IPC: 0.39966 (Simulation time: 0 hr 18 min 55 sec) 
Heartbeat CPU  0 instructions:  509000002 cycles: 1072307183 heartbeat IPC: 0.11635 cumulative IPC: 0.39729 (Simulation time: 0 hr 19 min 0 sec) 
Heartbeat CPU  0 instructions:  510000001 cycles: 1082857305 heartbeat IPC: 0.09479 cumulative IPC: 0.39423 (Simulation time: 0 hr 19 min 6 sec) 
Heartbeat CPU  0 instructions:  511000001 cycles: 1089000724 heartbeat IPC: 0.16278 cumulative IPC: 0.39287 (Simulation time: 0 hr 19 min 10 sec) 
Heartbeat CPU  0 instructions:  512000000 cycles: 1095065058 heartbeat IPC: 0.16490 cumulative IPC: 0.39155 (Simulation time: 0 hr 19 min 14 sec) 
Heartbeat CPU  0 instructions:  513000003 cycles: 1101247052 heartbeat IPC: 0.16176 cumulative IPC: 0.39021 (Simulation time: 0 hr 19 min 18 sec) 
Heartbeat CPU  0 instructions:  514000002 cycles: 1107560768 heartbeat IPC: 0.15839 cumulative IPC: 0.38884 (Simulation time: 0 hr 19 min 22 sec) 
Heartbeat CPU  0 instructions:  515000001 cycles: 1113853752 heartbeat IPC: 0.15891 cumulative IPC: 0.38749 (Simulation time: 0 hr 19 min 26 sec) 
Heartbeat CPU  0 instructions:  516000000 cycles: 1120307461 heartbeat IPC: 0.15495 cumulative IPC: 0.38609 (Simulation time: 0 hr 19 min 30 sec) 
Heartbeat CPU  0 instructions:  517000000 cycles: 1132910783 heartbeat IPC: 0.07934 cumulative IPC: 0.38255 (Simulation time: 0 hr 19 min 36 sec) 
Heartbeat CPU  0 instructions:  518000002 cycles: 1146419353 heartbeat IPC: 0.07403 cumulative IPC: 0.37877 (Simulation time: 0 hr 19 min 43 sec) 
Heartbeat CPU  0 instructions:  519000001 cycles: 1157344472 heartbeat IPC: 0.09153 cumulative IPC: 0.37595 (Simulation time: 0 hr 19 min 48 sec) 
Heartbeat CPU  0 instructions:  520000000 cycles: 1165886997 heartbeat IPC: 0.11706 cumulative IPC: 0.37398 (Simulation time: 0 hr 19 min 52 sec) 
Heartbeat CPU  0 instructions:  521000001 cycles: 1173764463 heartbeat IPC: 0.12694 cumulative IPC: 0.37226 (Simulation time: 0 hr 19 min 56 sec) 
Heartbeat CPU  0 instructions:  522000001 cycles: 1180894129 heartbeat IPC: 0.14026 cumulative IPC: 0.37081 (Simulation time: 0 hr 19 min 59 sec) 
Heartbeat CPU  0 instructions:  523000001 cycles: 1187940712 heartbeat IPC: 0.14191 cumulative IPC: 0.36940 (Simulation time: 0 hr 20 min 2 sec) 
Heartbeat CPU  0 instructions:  524000000 cycles: 1200053795 heartbeat IPC: 0.08256 cumulative IPC: 0.36640 (Simulation time: 0 hr 20 min 10 sec) 
Heartbeat CPU  0 instructions:  525000000 cycles: 1206231965 heartbeat IPC: 0.16186 cumulative IPC: 0.36531 (Simulation time: 0 hr 20 min 13 sec) 
Heartbeat CPU  0 instructions:  526000000 cycles: 1212330823 heartbeat IPC: 0.16397 cumulative IPC: 0.36426 (Simulation time: 0 hr 20 min 17 sec) 
Heartbeat CPU  0 instructions:  527000000 cycles: 1218443051 heartbeat IPC: 0.16361 cumulative IPC: 0.36322 (Simulation time: 0 hr 20 min 21 sec) 
Heartbeat CPU  0 instructions:  528000000 cycles: 1224720994 heartbeat IPC: 0.15929 cumulative IPC: 0.36214 (Simulation time: 0 hr 20 min 25 sec) 
Heartbeat CPU  0 instructions:  529000001 cycles: 1231066041 heartbeat IPC: 0.15760 cumulative IPC: 0.36104 (Simulation time: 0 hr 20 min 29 sec) 
Heartbeat CPU  0 instructions:  530000001 cycles: 1237522135 heartbeat IPC: 0.15489 cumulative IPC: 0.35993 (Simulation time: 0 hr 20 min 33 sec) 
Heartbeat CPU  0 instructions:  531000000 cycles: 1249411716 heartbeat IPC: 0.08411 cumulative IPC: 0.35721 (Simulation time: 0 hr 20 min 39 sec) 
Heartbeat CPU  0 instructions:  532000000 cycles: 1261679249 heartbeat IPC: 0.08152 cumulative IPC: 0.35444 (Simulation time: 0 hr 20 min 46 sec) 
Heartbeat CPU  0 instructions:  533000000 cycles: 1273878063 heartbeat IPC: 0.08198 cumulative IPC: 0.35174 (Simulation time: 0 hr 20 min 52 sec) 
Heartbeat CPU  0 instructions:  534000000 cycles: 1282548893 heartbeat IPC: 0.11533 cumulative IPC: 0.35008 (Simulation time: 0 hr 20 min 55 sec) 
Heartbeat CPU  0 instructions:  535000001 cycles: 1290575621 heartbeat IPC: 0.12458 cumulative IPC: 0.34863 (Simulation time: 0 hr 20 min 59 sec) 
Heartbeat CPU  0 instructions:  536000000 cycles: 1298122142 heartbeat IPC: 0.13251 cumulative IPC: 0.34733 (Simulation time: 0 hr 21 min 2 sec) 
Heartbeat CPU  0 instructions:  537000001 cycles: 1304593810 heartbeat IPC: 0.15452 cumulative IPC: 0.34634 (Simulation time: 0 hr 21 min 6 sec) 
Heartbeat CPU  0 instructions:  538000001 cycles: 1316428935 heartbeat IPC: 0.08449 cumulative IPC: 0.34391 (Simulation time: 0 hr 21 min 12 sec) 
Heartbeat CPU  0 instructions:  539000001 cycles: 1323478794 heartbeat IPC: 0.14185 cumulative IPC: 0.34280 (Simulation time: 0 hr 21 min 17 sec) 
Heartbeat CPU  0 instructions:  540000000 cycles: 1329577493 heartbeat IPC: 0.16397 cumulative IPC: 0.34195 (Simulation time: 0 hr 21 min 21 sec) 
Heartbeat CPU  0 instructions:  541000001 cycles: 1335691453 heartbeat IPC: 0.16356 cumulative IPC: 0.34111 (Simulation time: 0 hr 21 min 25 sec) 
Heartbeat CPU  0 instructions:  542000002 cycles: 1341908602 heartbeat IPC: 0.16085 cumulative IPC: 0.34024 (Simulation time: 0 hr 21 min 28 sec) 
Heartbeat CPU  0 instructions:  543000001 cycles: 1348241674 heartbeat IPC: 0.15790 cumulative IPC: 0.33936 (Simulation time: 0 hr 21 min 32 sec) 
Heartbeat CPU  0 instructions:  544000000 cycles: 1354639181 heartbeat IPC: 0.15631 cumulative IPC: 0.33847 (Simulation time: 0 hr 21 min 36 sec) 
Heartbeat CPU  0 instructions:  545000000 cycles: 1362129539 heartbeat IPC: 0.13350 cumulative IPC: 0.33730 (Simulation time: 0 hr 21 min 41 sec) 
Heartbeat CPU  0 instructions:  546000000 cycles: 1377077308 heartbeat IPC: 0.06690 cumulative IPC: 0.33427 (Simulation time: 0 hr 21 min 48 sec) 
Heartbeat CPU  0 instructions:  547000000 cycles: 1390168273 heartbeat IPC: 0.07639 cumulative IPC: 0.33177 (Simulation time: 0 hr 21 min 55 sec) 
Heartbeat CPU  0 instructions:  548000000 cycles: 1399261845 heartbeat IPC: 0.10997 cumulative IPC: 0.33028 (Simulation time: 0 hr 21 min 59 sec) 
Heartbeat CPU  0 instructions:  549000000 cycles: 1407380990 heartbeat IPC: 0.12317 cumulative IPC: 0.32905 (Simulation time: 0 hr 22 min 2 sec) 
Heartbeat CPU  0 instructions:  550000001 cycles: 1415185093 heartbeat IPC: 0.12814 cumulative IPC: 0.32791 (Simulation time: 0 hr 22 min 6 sec) 
Heartbeat CPU  0 instructions:  551000000 cycles: 1421582867 heartbeat IPC: 0.15630 cumulative IPC: 0.32711 (Simulation time: 0 hr 22 min 9 sec) 
Heartbeat CPU  0 instructions:  552000000 cycles: 1431580242 heartbeat IPC: 0.10003 cumulative IPC: 0.32548 (Simulation time: 0 hr 22 min 15 sec) 
Heartbeat CPU  0 instructions:  553000000 cycles: 1440721484 heartbeat IPC: 0.10939 cumulative IPC: 0.32406 (Simulation time: 0 hr 22 min 20 sec) 
Heartbeat CPU  0 instructions:  554000001 cycles: 1446848173 heartbeat IPC: 0.16322 cumulative IPC: 0.32336 (Simulation time: 0 hr 22 min 24 sec) 
Heartbeat CPU  0 instructions:  555000002 cycles: 1452933810 heartbeat IPC: 0.16432 cumulative IPC: 0.32267 (Simulation time: 0 hr 22 min 28 sec) 
Heartbeat CPU  0 instructions:  556000000 cycles: 1459133832 heartbeat IPC: 0.16129 cumulative IPC: 0.32197 (Simulation time: 0 hr 22 min 32 sec) 
Heartbeat CPU  0 instructions:  557000000 cycles: 1465464969 heartbeat IPC: 0.15795 cumulative IPC: 0.32124 (Simulation time: 0 hr 22 min 36 sec) 
Heartbeat CPU  0 instructions:  558000003 cycles: 1471801047 heartbeat IPC: 0.15783 cumulative IPC: 0.32051 (Simulation time: 0 hr 22 min 40 sec) 
Heartbeat CPU  0 instructions:  559000003 cycles: 1478067779 heartbeat IPC: 0.15957 cumulative IPC: 0.31981 (Simulation time: 0 hr 22 min 43 sec) 
Heartbeat CPU  0 instructions:  560000000 cycles: 1492441213 heartbeat IPC: 0.06957 cumulative IPC: 0.31733 (Simulation time: 0 hr 22 min 50 sec) 
Heartbeat CPU  0 instructions:  561000001 cycles: 1505982094 heartbeat IPC: 0.07385 cumulative IPC: 0.31508 (Simulation time: 0 hr 22 min 58 sec) 
Heartbeat CPU  0 instructions:  562000002 cycles: 1515819180 heartbeat IPC: 0.10166 cumulative IPC: 0.31365 (Simulation time: 0 hr 23 min 2 sec) 
Heartbeat CPU  0 instructions:  563000003 cycles: 1524238654 heartbeat IPC: 0.11877 cumulative IPC: 0.31254 (Simulation time: 0 hr 23 min 6 sec) 
Heartbeat CPU  0 instructions:  564000000 cycles: 1532051911 heartbeat IPC: 0.12799 cumulative IPC: 0.31158 (Simulation time: 0 hr 23 min 9 sec) 
Heartbeat CPU  0 instructions:  565000003 cycles: 1538798932 heartbeat IPC: 0.14821 cumulative IPC: 0.31084 (Simulation time: 0 hr 23 min 13 sec) 
Heartbeat CPU  0 instructions:  566000003 cycles: 1547306450 heartbeat IPC: 0.11754 cumulative IPC: 0.30975 (Simulation time: 0 hr 23 min 17 sec) 
Heartbeat CPU  0 instructions:  567000000 cycles: 1557945806 heartbeat IPC: 0.09399 cumulative IPC: 0.30823 (Simulation time: 0 hr 23 min 23 sec) 
Heartbeat CPU  0 instructions:  568000000 cycles: 1564088552 heartbeat IPC: 0.16279 cumulative IPC: 0.30764 (Simulation time: 0 hr 23 min 27 sec) 
Heartbeat CPU  0 instructions:  569000000 cycles: 1570165795 heartbeat IPC: 0.16455 cumulative IPC: 0.30707 (Simulation time: 0 hr 23 min 31 sec) 
Heartbeat CPU  0 instructions:  570000000 cycles: 1576344070 heartbeat IPC: 0.16186 cumulative IPC: 0.30649 (Simulation time: 0 hr 23 min 35 sec) 
Heartbeat CPU  0 instructions:  571000001 cycles: 1582647869 heartbeat IPC: 0.15863 cumulative IPC: 0.30588 (Simulation time: 0 hr 23 min 39 sec) 
Heartbeat CPU  0 instructions:  572000000 cycles: 1588950608 heartbeat IPC: 0.15866 cumulative IPC: 0.30528 (Simulation time: 0 hr 23 min 43 sec) 
Heartbeat CPU  0 instructions:  573000002 cycles: 1595400184 heartbeat IPC: 0.15505 cumulative IPC: 0.30466 (Simulation time: 0 hr 23 min 47 sec) 
Heartbeat CPU  0 instructions:  574000000 cycles: 1607927190 heartbeat IPC: 0.07983 cumulative IPC: 0.30286 (Simulation time: 0 hr 23 min 53 sec) 
Heartbeat CPU  0 instructions:  575000002 cycles: 1621371381 heartbeat IPC: 0.07438 cumulative IPC: 0.30091 (Simulation time: 0 hr 24 min 0 sec) 
Heartbeat CPU  0 instructions:  576000000 cycles: 1632406383 heartbeat IPC: 0.09062 cumulative IPC: 0.29945 (Simulation time: 0 hr 24 min 6 sec) 
Heartbeat CPU  0 instructions:  577000003 cycles: 1640998730 heartbeat IPC: 0.11638 cumulative IPC: 0.29847 (Simulation time: 0 hr 24 min 9 sec) 
Heartbeat CPU  0 instructions:  578000000 cycles: 1648858354 heartbeat IPC: 0.12723 cumulative IPC: 0.29763 (Simulation time: 0 hr 24 min 13 sec) 
Heartbeat CPU  0 instructions:  579000001 cycles: 1656010237 heartbeat IPC: 0.13982 cumulative IPC: 0.29693 (Simulation time: 0 hr 24 min 16 sec) 
Heartbeat CPU  0 instructions:  580000000 cycles: 1663016807 heartbeat IPC: 0.14272 cumulative IPC: 0.29626 (Simulation time: 0 hr 24 min 20 sec) 
Heartbeat CPU  0 instructions:  581000003 cycles: 1675154222 heartbeat IPC: 0.08239 cumulative IPC: 0.29467 (Simulation time: 0 hr 24 min 27 sec) 
Heartbeat CPU  0 instructions:  582000003 cycles: 1681351842 heartbeat IPC: 0.16135 cumulative IPC: 0.29417 (Simulation time: 0 hr 24 min 31 sec) 
Heartbeat CPU  0 instructions:  583000002 cycles: 1687436990 heartbeat IPC: 0.16433 cumulative IPC: 0.29369 (Simulation time: 0 hr 24 min 35 sec) 
Heartbeat CPU  0 instructions:  584000000 cycles: 1693569550 heartbeat IPC: 0.16306 cumulative IPC: 0.29320 (Simulation time: 0 hr 24 min 38 sec) 
Heartbeat CPU  0 instructions:  585000002 cycles: 1699832064 heartbeat IPC: 0.15968 cumulative IPC: 0.29270 (Simulation time: 0 hr 24 min 42 sec) 
Heartbeat CPU  0 instructions:  586000002 cycles: 1706180902 heartbeat IPC: 0.15751 cumulative IPC: 0.29218 (Simulation time: 0 hr 24 min 46 sec) 
Heartbeat CPU  0 instructions:  587000000 cycles: 1712641523 heartbeat IPC: 0.15478 cumulative IPC: 0.29165 (Simulation time: 0 hr 24 min 50 sec) 
Heartbeat CPU  0 instructions:  588000000 cycles: 1724643276 heartbeat IPC: 0.08332 cumulative IPC: 0.29017 (Simulation time: 0 hr 24 min 56 sec) 
Heartbeat CPU  0 instructions:  589000001 cycles: 1736754711 heartbeat IPC: 0.08257 cumulative IPC: 0.28868 (Simulation time: 0 hr 25 min 4 sec) 
Heartbeat CPU  0 instructions:  590000002 cycles: 1748973964 heartbeat IPC: 0.08184 cumulative IPC: 0.28720 (Simulation time: 0 hr 25 min 10 sec) 
Heartbeat CPU  0 instructions:  591000000 cycles: 1757663199 heartbeat IPC: 0.11508 cumulative IPC: 0.28633 (Simulation time: 0 hr 25 min 14 sec) 
Heartbeat CPU  0 instructions:  592000000 cycles: 1765755028 heartbeat IPC: 0.12358 cumulative IPC: 0.28556 (Simulation time: 0 hr 25 min 18 sec) 
Heartbeat CPU  0 instructions:  593000003 cycles: 1773297360 heartbeat IPC: 0.13259 cumulative IPC: 0.28490 (Simulation time: 0 hr 25 min 21 sec) 
Heartbeat CPU  0 instructions:  594000000 cycles: 1779769172 heartbeat IPC: 0.15452 cumulative IPC: 0.28441 (Simulation time: 0 hr 25 min 24 sec) 
Heartbeat CPU  0 instructions:  595000001 cycles: 1791572723 heartbeat IPC: 0.08472 cumulative IPC: 0.28306 (Simulation time: 0 hr 25 min 31 sec) 
Heartbeat CPU  0 instructions:  596000000 cycles: 1798645794 heartbeat IPC: 0.14138 cumulative IPC: 0.28249 (Simulation time: 0 hr 25 min 35 sec) 
Heartbeat CPU  0 instructions:  597000003 cycles: 1804747039 heartbeat IPC: 0.16390 cumulative IPC: 0.28208 (Simulation time: 0 hr 25 min 39 sec) 
Heartbeat CPU  0 instructions:  598000002 cycles: 1810858256 heartbeat IPC: 0.16363 cumulative IPC: 0.28167 (Simulation time: 0 hr 25 min 43 sec) 
Heartbeat CPU  0 instructions:  599000001 cycles: 1817081418 heartbeat IPC: 0.16069 cumulative IPC: 0.28125 (Simulation time: 0 hr 25 min 47 sec) 
Heartbeat CPU  0 instructions:  600000000 cycles: 1823422951 heartbeat IPC: 0.15769 cumulative IPC: 0.28081 (Simulation time: 0 hr 25 min 51 sec) 
Finished CPU 0 instructions: 500000000 cycles: 1780578358 cumulative IPC: 0.28081 (Simulation time: 0 hr 25 min 51 sec) 

ChampSim completed all CPUs

[ROI Statistics]
Core_0_instructions 500000000
Core_0_cycles 1780578358
Core_0_IPC 0.28081

Core_0_branch_prediction_accuracy 99.11262
Core_0_branch_MPKI 1.69223
Core_0_average_ROB_occupancy_at_mispredict 139.21618

Core_0_L1D_total_access 68723951
Core_0_L1D_total_hit 45770196
Core_0_L1D_total_miss 22953755
Core_0_L1D_loads 32328827
Core_0_L1D_load_hit 26971004
Core_0_L1D_load_miss 5357823
Core_0_L1D_RFOs 36395124
Core_0_L1D_RFO_hit 18799192
Core_0_L1D_RFO_miss 17595932
Core_0_L1D_prefetches 0
Core_0_L1D_prefetch_hit 0
Core_0_L1D_prefetch_miss 0
Core_0_L1D_writebacks 0
Core_0_L1D_writeback_hit 0
Core_0_L1D_writeback_miss 0
Core_0_L1D_prefetch_requested 0
Core_0_L1D_prefetch_dropped 0
Core_0_L1D_prefetch_issued 0
Core_0_L1D_prefetch_filled 0
Core_0_L1D_prefetch_useful 0
Core_0_L1D_prefetch_useless 0
Core_0_L1D_prefetch_late 0
Core_0_L1D_average_miss_latency 229.90499

Core_0_L1D_rq_access 60868323
Core_0_L1D_rq_forward 0
Core_0_L1D_rq_merged 25212241
Core_0_L1D_rq_to_cache 35648530
Core_0_L1D_rq_full 0

Core_0_L1D_wq_access 156857733
Core_0_L1D_wq_forward 7552
Core_0_L1D_wq_merged 39837
Core_0_L1D_wq_to_cache 156817896
Core_0_L1D_wq_full 7313807

Core_0_L1D_pq_access 0
Core_0_L1D_pq_forward 0
Core_0_L1D_pq_merged 0
Core_0_L1D_pq_to_cache 0
Core_0_L1D_pq_full 0

Core_0_L1D_acc_epochs 1756807
Core_0_L1D_acc_level_0 1756807
Core_0_L1D_acc_level_1 0
Core_0_L1D_acc_level_2 0
Core_0_L1D_acc_level_3 0
Core_0_L1D_acc_level_4 0
Core_0_L1D_acc_level_5 0
Core_0_L1D_acc_level_6 0
Core_0_L1D_acc_level_7 0
Core_0_L1D_acc_level_8 0
Core_0_L1D_acc_level_9 0

Core_0_L1I_total_access 122783791
Core_0_L1I_total_hit 122764647
Core_0_L1I_total_miss 19144
Core_0_L1I_loads 122783791
Core_0_L1I_load_hit 122764647
Core_0_L1I_load_miss 19144
Core_0_L1I_RFOs 0
Core_0_L1I_RFO_hit 0
Core_0_L1I_RFO_miss 0
Core_0_L1I_prefetches 0
Core_0_L1I_prefetch_hit 0
Core_0_L1I_prefetch_miss 0
Core_0_L1I_writebacks 0
Core_0_L1I_writeback_hit 0
Core_0_L1I_writeback_miss 0
Core_0_L1I_prefetch_requested 0
Core_0_L1I_prefetch_dropped 0
Core_0_L1I_prefetch_issued 0
Core_0_L1I_prefetch_filled 0
Core_0_L1I_prefetch_useful 0
Core_0_L1I_prefetch_useless 0
Core_0_L1I_prefetch_late 0
Core_0_L1I_average_miss_latency 46.20476

Core_0_L1I_rq_access 500000003
Core_0_L1I_rq_forward 0
Core_0_L1I_rq_merged 377191570
Core_0_L1I_rq_to_cache 122808433
Core_0_L1I_rq_full 0

Core_0_L1I_wq_access 0
Core_0_L1I_wq_forward 0
Core_0_L1I_wq_merged 0
Core_0_L1I_wq_to_cache 0
Core_0_L1I_wq_full 0

Core_0_L1I_pq_access 0
Core_0_L1I_pq_forward 0
Core_0_L1I_pq_merged 0
Core_0_L1I_pq_to_cache 0
Core_0_L1I_pq_full 0

Core_0_L1I_acc_epochs 1756807
Core_0_L1I_acc_level_0 1756807
Core_0_L1I_acc_level_1 0
Core_0_L1I_acc_level_2 0
Core_0_L1I_acc_level_3 0
Core_0_L1I_acc_level_4 0
Core_0_L1I_acc_level_5 0
Core_0_L1I_acc_level_6 0
Core_0_L1I_acc_level_7 0
Core_0_L1I_acc_level_8 0
Core_0_L1I_acc_level_9 0

Core_0_L2C_total_access 41589465
Core_0_L2C_total_hit 18798132
Core_0_L2C_total_miss 22791333
Core_0_L2C_loads 5376967
Core_0_L2C_load_hit 174273
Core_0_L2C_load_miss 5202694
Core_0_L2C_RFOs 17595931
Core_0_L2C_RFO_hit 7441
Core_0_L2C_RFO_miss 17588490
Core_0_L2C_prefetches 0
Core_0_L2C_prefetch_hit 0
Core_0_L2C_prefetch_miss 0
Core_0_L2C_writebacks 18616567
Core_0_L2C_writeback_hit 18616418
Core_0_L2C_writeback_miss 149
Core_0_L2C_prefetch_requested 0
Core_0_L2C_prefetch_dropped 0
Core_0_L2C_prefetch_issued 0
Core_0_L2C_prefetch_filled 0
Core_0_L2C_prefetch_useful 0
Core_0_L2C_prefetch_useless 0
Core_0_L2C_prefetch_late 0
Core_0_L2C_average_miss_latency 217.30408

Core_0_L2C_rq_access 22972899
Core_0_L2C_rq_forward 0
Core_0_L2C_rq_merged 0
Core_0_L2C_rq_to_cache 22972898
Core_0_L2C_rq_full 0

Core_0_L2C_wq_access 18616567
Core_0_L2C_wq_forward 1
Core_0_L2C_wq_merged 0
Core_0_L2C_wq_to_cache 18616567
Core_0_L2C_wq_full 0

Core_0_L2C_pq_access 0
Core_0_L2C_pq_forward 0
Core_0_L2C_pq_merged 0
Core_0_L2C_pq_to_cache 0
Core_0_L2C_pq_full 0

Core_0_L2C_acc_epochs 1756807
Core_0_L2C_acc_level_0 1756807
Core_0_L2C_acc_level_1 0
Core_0_L2C_acc_level_2 0
Core_0_L2C_acc_level_3 0
Core_0_L2C_acc_level_4 0
Core_0_L2C_acc_level_5 0
Core_0_L2C_acc_level_6 0
Core_0_L2C_acc_level_7 0
Core_0_L2C_acc_level_8 0
Core_0_L2C_acc_level_9 0

Core_0_LLC_total_access 41396608
Core_0_LLC_total_hit 31189771
Core_0_LLC_total_miss 10206837
Core_0_LLC_loads 5202694
Core_0_LLC_load_hit 335758
Core_0_LLC_load_miss 4866936
Core_0_LLC_RFOs 17588490
Core_0_LLC_RFO_hit 15288207
Core_0_LLC_RFO_miss 2300283
Core_0_LLC_prefetches 0
Core_0_LLC_prefetch_hit 0
Core_0_LLC_prefetch_miss 0
Core_0_LLC_writebacks 18605424
Core_0_LLC_writeback_hit 15565806
Core_0_LLC_writeback_miss 3039618
Core_0_LLC_prefetch_requested 0
Core_0_LLC_prefetch_dropped 0
Core_0_LLC_prefetch_issued 0
Core_0_LLC_prefetch_filled 0
Core_0_LLC_prefetch_useful 0
Core_0_LLC_prefetch_useless 0
Core_0_LLC_prefetch_late 0
Core_0_LLC_average_miss_latency 418.06585

Core_0_LLC_rq_access 22791184
Core_0_LLC_rq_forward 0
Core_0_LLC_rq_merged 0
Core_0_LLC_rq_to_cache 22791184
Core_0_LLC_rq_full 0

Core_0_LLC_wq_access 18605424
Core_0_LLC_wq_forward 0
Core_0_LLC_wq_merged 0
Core_0_LLC_wq_to_cache 18605424
Core_0_LLC_wq_full 29370

Core_0_LLC_pq_access 0
Core_0_LLC_pq_forward 0
Core_0_LLC_pq_merged 0
Core_0_LLC_pq_to_cache 0
Core_0_LLC_pq_full 0

Core_0_LLC_acc_epochs 1780687
Core_0_LLC_acc_level_0 1780687
Core_0_LLC_acc_level_1 0
Core_0_LLC_acc_level_2 0
Core_0_LLC_acc_level_3 0
Core_0_LLC_acc_level_4 0
Core_0_LLC_acc_level_5 0
Core_0_LLC_acc_level_6 0
Core_0_LLC_acc_level_7 0
Core_0_LLC_acc_level_8 0
Core_0_LLC_acc_level_9 0

Core_0_major_page_fault 0
Core_0_minor_page_fault 13167

Channel_0_RQ_row_buffer_hit 1646297
Channel_0_RQ_row_buffer_miss 5520807
Channel_0_WQ_row_buffer_hit 1220884
Channel_0_WQ_row_buffer_miss 2006182
Channel_0_WQ_full 116660
Channel_0_dbus_congested 6960643

avg_congested_cycle 95

DRAM_bw_pochs 7122746
DRAM_bw_level_0 2043083
DRAM_bw_level_1 1836274
DRAM_bw_level_2 0
DRAM_bw_level_3 3243389
