*************************************************
   ChampSim Multicore Out-of-Order Simulator
   Last compiled: Dec 11 2024 17:59:53
*************************************************
parsing config file: /home/functionmain/桌面/Pythia/config/nopref.ini

trace_0 /home/functionmain/桌面/Pythia/traces/403.gcc-16B.champsimtrace.xz
adding L2C_PREFETCHER: NONE
Initialize SHIP state
warmup_instructions 100000000
simulation_instructions 500000000
champsim_seed 169
measure_ipc 0
measure_ipc_epoch 1000
measure_dram_bw 1
measure_dram_bw_epoch 256
measure_cache_acc 1
measure_cache_acc_epoch 1024
l1d_perfect 0
l2c_perfect 0
llc_perfect 0
l1d_semi_perfect 0
l2c_semi_perfect 0
llc_semi_perfect 0
semi_perfect_cache_page_buffer_size 64

num_cpus 1
cpu_freq 4000
dram_io_freq 150
page_size 4096
block_size 64
max_read_per_cycle 8
max_fill_per_cycle 1
dram_channels 1
log2_dram_channels 0
dram_ranks 1
dram_banks 8
dram_rows 65536
dram_columns 128
dram_row_size 8
dram_size 4096
dram_pages 1048576

fetch_width 6
decode_width 6
exec_width 4
lq_width 2
sq_width 2
retire_width 4
scheduler_size 128
branch_mispredict_penalty 20
rob_size 256
lq_size 72
sq_size 56
num_instr_destinations_sparc 4
num_instr_destinations 2
num_instr_sources 4

itlb_set 16
itlb_way 8
itlb_rq_size 16
itlb_wq_size 16
itlb_pq_size 0
itlb_mshr_size 8
itlb_latency 1

dtlb_set 16
dtlb_way 4
dtlb_rq_size 16
dtlb_wq_size 16
dtlb_pq_size 0
dtlb_mshr_size 8
dtlb_latency 1

stlb_set 128
stlb_way 12
stlb_rq_size 32
stlb_wq_size 32
stlb_pq_size 0
stlb_mshr_size 16
stlb_latency 8

l1i_size 32
l1i_set 64
l1i_way 8
l1i_rq_size 64
l1i_wq_size 64
l1i_pq_size 8
l1i_mshr_size 8
l1i_latency 1

l1d_size 32
l1d_set 64
l1d_way 8
l1d_rq_size 64
l1d_wq_size 64
l1d_pq_size 8
l1d_mshr_size 16
l1d_latency 4

l2c_size 256
l2c_set 512
l2c_way 8
l2c_rq_size 32
l2c_wq_size 32
l2c_pq_size 32
l2c_mshr_size 32
l2c_latency 10

llc_size 2048
llc_set 2048
llc_way 16
llc_rq_size 32
llc_wq_size 32
llc_pq_size 32
llc_mshr_size 64
llc_latency 20

dram_channel_width 8
dram_wq_size 64
dram_rq_size 64
tRP 15
tRCD 15
tCAS 12.5
dram_dbus_turn_around_time 30
dram_write_high_wm 56
dram_write_low_wm 48
min_dram_writes_per_switch 16
dram_mtps 150
dram_dbus_return_time 213


Heartbeat CPU  0 instructions:    1000000 cycles:     453084 heartbeat IPC: 2.20710 cumulative IPC: 2.20710 (Simulation time: 0 hr 0 min 1 sec) 
Heartbeat CPU  0 instructions:    2000000 cycles:     861369 heartbeat IPC: 2.44927 cumulative IPC: 2.32189 (Simulation time: 0 hr 0 min 3 sec) 
Heartbeat CPU  0 instructions:    3000003 cycles:    1299564 heartbeat IPC: 2.28210 cumulative IPC: 2.30847 (Simulation time: 0 hr 0 min 4 sec) 
Heartbeat CPU  0 instructions:    4000000 cycles:    1765825 heartbeat IPC: 2.14472 cumulative IPC: 2.26523 (Simulation time: 0 hr 0 min 6 sec) 
Heartbeat CPU  0 instructions:    5000000 cycles:    2181330 heartbeat IPC: 2.40671 cumulative IPC: 2.29218 (Simulation time: 0 hr 0 min 7 sec) 
Heartbeat CPU  0 instructions:    6000000 cycles:    2658696 heartbeat IPC: 2.09483 cumulative IPC: 2.25675 (Simulation time: 0 hr 0 min 9 sec) 
Heartbeat CPU  0 instructions:    7000002 cycles:    3082342 heartbeat IPC: 2.36047 cumulative IPC: 2.27100 (Simulation time: 0 hr 0 min 10 sec) 
Heartbeat CPU  0 instructions:    8000000 cycles:    3488552 heartbeat IPC: 2.46178 cumulative IPC: 2.29322 (Simulation time: 0 hr 0 min 12 sec) 
Heartbeat CPU  0 instructions:    9000003 cycles:    3937221 heartbeat IPC: 2.22882 cumulative IPC: 2.28588 (Simulation time: 0 hr 0 min 13 sec) 
Heartbeat CPU  0 instructions:   10000001 cycles:    4377897 heartbeat IPC: 2.26924 cumulative IPC: 2.28420 (Simulation time: 0 hr 0 min 15 sec) 
Heartbeat CPU  0 instructions:   11000000 cycles:    4782111 heartbeat IPC: 2.47393 cumulative IPC: 2.30024 (Simulation time: 0 hr 0 min 16 sec) 
Heartbeat CPU  0 instructions:   12000000 cycles:    5196346 heartbeat IPC: 2.41409 cumulative IPC: 2.30931 (Simulation time: 0 hr 0 min 18 sec) 
Heartbeat CPU  0 instructions:   13000001 cycles:    5649489 heartbeat IPC: 2.20681 cumulative IPC: 2.30109 (Simulation time: 0 hr 0 min 19 sec) 
Heartbeat CPU  0 instructions:   14000003 cycles:    6084805 heartbeat IPC: 2.29719 cumulative IPC: 2.30081 (Simulation time: 0 hr 0 min 21 sec) 
Heartbeat CPU  0 instructions:   15000000 cycles:    6489924 heartbeat IPC: 2.46840 cumulative IPC: 2.31128 (Simulation time: 0 hr 0 min 23 sec) 
Heartbeat CPU  0 instructions:   16000000 cycles:    6910149 heartbeat IPC: 2.37968 cumulative IPC: 2.31543 (Simulation time: 0 hr 0 min 24 sec) 
Heartbeat CPU  0 instructions:   17000001 cycles:    7353128 heartbeat IPC: 2.25745 cumulative IPC: 2.31194 (Simulation time: 0 hr 0 min 26 sec) 
Heartbeat CPU  0 instructions:   18000000 cycles:    7788446 heartbeat IPC: 2.29717 cumulative IPC: 2.31112 (Simulation time: 0 hr 0 min 27 sec) 
Heartbeat CPU  0 instructions:   19000001 cycles:    8189043 heartbeat IPC: 2.49628 cumulative IPC: 2.32017 (Simulation time: 0 hr 0 min 29 sec) 
Heartbeat CPU  0 instructions:   20000000 cycles:    8635794 heartbeat IPC: 2.23838 cumulative IPC: 2.31594 (Simulation time: 0 hr 0 min 30 sec) 
Heartbeat CPU  0 instructions:   21000001 cycles:    9080999 heartbeat IPC: 2.24616 cumulative IPC: 2.31252 (Simulation time: 0 hr 0 min 32 sec) 
Heartbeat CPU  0 instructions:   22000000 cycles:    9481726 heartbeat IPC: 2.49546 cumulative IPC: 2.32025 (Simulation time: 0 hr 0 min 33 sec) 
Heartbeat CPU  0 instructions:   23000003 cycles:    9896018 heartbeat IPC: 2.41376 cumulative IPC: 2.32417 (Simulation time: 0 hr 0 min 35 sec) 
Heartbeat CPU  0 instructions:   24000000 cycles:   10338281 heartbeat IPC: 2.26109 cumulative IPC: 2.32147 (Simulation time: 0 hr 0 min 36 sec) 
Heartbeat CPU  0 instructions:   25000000 cycles:   10787280 heartbeat IPC: 2.22718 cumulative IPC: 2.31754 (Simulation time: 0 hr 0 min 38 sec) 
Heartbeat CPU  0 instructions:   26000000 cycles:   11183588 heartbeat IPC: 2.52329 cumulative IPC: 2.32484 (Simulation time: 0 hr 0 min 39 sec) 
Heartbeat CPU  0 instructions:   27000001 cycles:   11598421 heartbeat IPC: 2.41061 cumulative IPC: 2.32790 (Simulation time: 0 hr 0 min 41 sec) 
Heartbeat CPU  0 instructions:   28000000 cycles:   12046192 heartbeat IPC: 2.23328 cumulative IPC: 2.32439 (Simulation time: 0 hr 0 min 42 sec) 
Heartbeat CPU  0 instructions:   29000000 cycles:   12479089 heartbeat IPC: 2.31002 cumulative IPC: 2.32389 (Simulation time: 0 hr 0 min 44 sec) 
Heartbeat CPU  0 instructions:   30000003 cycles:   12886910 heartbeat IPC: 2.45206 cumulative IPC: 2.32794 (Simulation time: 0 hr 0 min 45 sec) 
Heartbeat CPU  0 instructions:   31000003 cycles:   13377203 heartbeat IPC: 2.03960 cumulative IPC: 2.31738 (Simulation time: 0 hr 0 min 47 sec) 
Heartbeat CPU  0 instructions:   32000000 cycles:   13779930 heartbeat IPC: 2.48306 cumulative IPC: 2.32222 (Simulation time: 0 hr 0 min 48 sec) 
Heartbeat CPU  0 instructions:   33000001 cycles:   14203933 heartbeat IPC: 2.35848 cumulative IPC: 2.32330 (Simulation time: 0 hr 0 min 50 sec) 
Heartbeat CPU  0 instructions:   34000003 cycles:   14656100 heartbeat IPC: 2.21158 cumulative IPC: 2.31985 (Simulation time: 0 hr 0 min 51 sec) 
Heartbeat CPU  0 instructions:   35000002 cycles:   15077540 heartbeat IPC: 2.37281 cumulative IPC: 2.32133 (Simulation time: 0 hr 0 min 53 sec) 
Heartbeat CPU  0 instructions:   36000000 cycles:   15474775 heartbeat IPC: 2.51740 cumulative IPC: 2.32637 (Simulation time: 0 hr 0 min 54 sec) 
Heartbeat CPU  0 instructions:   37000001 cycles:   15910221 heartbeat IPC: 2.29650 cumulative IPC: 2.32555 (Simulation time: 0 hr 0 min 56 sec) 
Heartbeat CPU  0 instructions:   38000000 cycles:   16358452 heartbeat IPC: 2.23099 cumulative IPC: 2.32296 (Simulation time: 0 hr 0 min 57 sec) 
Heartbeat CPU  0 instructions:   39000000 cycles:   16774764 heartbeat IPC: 2.40204 cumulative IPC: 2.32492 (Simulation time: 0 hr 0 min 59 sec) 
Heartbeat CPU  0 instructions:   40000000 cycles:   17173267 heartbeat IPC: 2.50939 cumulative IPC: 2.32920 (Simulation time: 0 hr 1 min 0 sec) 
Heartbeat CPU  0 instructions:   41000003 cycles:   17615387 heartbeat IPC: 2.26184 cumulative IPC: 2.32751 (Simulation time: 0 hr 1 min 2 sec) 
Heartbeat CPU  0 instructions:   42000003 cycles:   18057676 heartbeat IPC: 2.26097 cumulative IPC: 2.32588 (Simulation time: 0 hr 1 min 3 sec) 
Heartbeat CPU  0 instructions:   43000002 cycles:   18463882 heartbeat IPC: 2.46180 cumulative IPC: 2.32887 (Simulation time: 0 hr 1 min 5 sec) 
Heartbeat CPU  0 instructions:   44000000 cycles:   18914311 heartbeat IPC: 2.22010 cumulative IPC: 2.32628 (Simulation time: 0 hr 1 min 6 sec) 
Heartbeat CPU  0 instructions:   45000000 cycles:   19362137 heartbeat IPC: 2.23301 cumulative IPC: 2.32412 (Simulation time: 0 hr 1 min 8 sec) 
Heartbeat CPU  0 instructions:   46000003 cycles:   19775504 heartbeat IPC: 2.41917 cumulative IPC: 2.32611 (Simulation time: 0 hr 1 min 9 sec) 
Heartbeat CPU  0 instructions:   47000003 cycles:   20228926 heartbeat IPC: 2.20545 cumulative IPC: 2.32341 (Simulation time: 0 hr 1 min 11 sec) 
Heartbeat CPU  0 instructions:   48000000 cycles:   20652662 heartbeat IPC: 2.35995 cumulative IPC: 2.32416 (Simulation time: 0 hr 1 min 12 sec) 
Heartbeat CPU  0 instructions:   49000003 cycles:   21061400 heartbeat IPC: 2.44656 cumulative IPC: 2.32653 (Simulation time: 0 hr 1 min 14 sec) 
Heartbeat CPU  0 instructions:   50000000 cycles:   21501722 heartbeat IPC: 2.27106 cumulative IPC: 2.32540 (Simulation time: 0 hr 1 min 15 sec) 
Heartbeat CPU  0 instructions:   51000003 cycles:   21938755 heartbeat IPC: 2.28816 cumulative IPC: 2.32465 (Simulation time: 0 hr 1 min 17 sec) 
Heartbeat CPU  0 instructions:   52000000 cycles:   22346105 heartbeat IPC: 2.45488 cumulative IPC: 2.32703 (Simulation time: 0 hr 1 min 18 sec) 
Heartbeat CPU  0 instructions:   53000000 cycles:   22761564 heartbeat IPC: 2.40698 cumulative IPC: 2.32849 (Simulation time: 0 hr 1 min 20 sec) 
Heartbeat CPU  0 instructions:   54000001 cycles:   23201453 heartbeat IPC: 2.27330 cumulative IPC: 2.32744 (Simulation time: 0 hr 1 min 21 sec) 
Heartbeat CPU  0 instructions:   55000001 cycles:   23636419 heartbeat IPC: 2.29903 cumulative IPC: 2.32692 (Simulation time: 0 hr 1 min 23 sec) 
Heartbeat CPU  0 instructions:   56000000 cycles:   24043752 heartbeat IPC: 2.45499 cumulative IPC: 2.32909 (Simulation time: 0 hr 1 min 24 sec) 
Heartbeat CPU  0 instructions:   57000003 cycles:   24459515 heartbeat IPC: 2.40522 cumulative IPC: 2.33038 (Simulation time: 0 hr 1 min 26 sec) 
Heartbeat CPU  0 instructions:   58000001 cycles:   24906738 heartbeat IPC: 2.23602 cumulative IPC: 2.32869 (Simulation time: 0 hr 1 min 28 sec) 
Heartbeat CPU  0 instructions:   59000000 cycles:   25337421 heartbeat IPC: 2.32189 cumulative IPC: 2.32857 (Simulation time: 0 hr 1 min 29 sec) 
Heartbeat CPU  0 instructions:   60000000 cycles:   25733140 heartbeat IPC: 2.52705 cumulative IPC: 2.33162 (Simulation time: 0 hr 1 min 31 sec) 
Heartbeat CPU  0 instructions:   61000001 cycles:   26184850 heartbeat IPC: 2.21381 cumulative IPC: 2.32959 (Simulation time: 0 hr 1 min 32 sec) 
Heartbeat CPU  0 instructions:   62000001 cycles:   26622929 heartbeat IPC: 2.28269 cumulative IPC: 2.32882 (Simulation time: 0 hr 1 min 34 sec) 
Heartbeat CPU  0 instructions:   63000000 cycles:   27026953 heartbeat IPC: 2.47510 cumulative IPC: 2.33101 (Simulation time: 0 hr 1 min 35 sec) 
Heartbeat CPU  0 instructions:   64000000 cycles:   27436593 heartbeat IPC: 2.44117 cumulative IPC: 2.33265 (Simulation time: 0 hr 1 min 37 sec) 
Heartbeat CPU  0 instructions:   65000001 cycles:   27884575 heartbeat IPC: 2.23223 cumulative IPC: 2.33104 (Simulation time: 0 hr 1 min 38 sec) 
Heartbeat CPU  0 instructions:   66000003 cycles:   28323020 heartbeat IPC: 2.28079 cumulative IPC: 2.33026 (Simulation time: 0 hr 1 min 40 sec) 
Heartbeat CPU  0 instructions:   67000000 cycles:   28722352 heartbeat IPC: 2.50417 cumulative IPC: 2.33268 (Simulation time: 0 hr 1 min 41 sec) 
Heartbeat CPU  0 instructions:   68000000 cycles:   29138533 heartbeat IPC: 2.40280 cumulative IPC: 2.33368 (Simulation time: 0 hr 1 min 43 sec) 
Heartbeat CPU  0 instructions:   69000001 cycles:   29579922 heartbeat IPC: 2.26558 cumulative IPC: 2.33266 (Simulation time: 0 hr 1 min 44 sec) 
Heartbeat CPU  0 instructions:   70000001 cycles:   30013438 heartbeat IPC: 2.30672 cumulative IPC: 2.33229 (Simulation time: 0 hr 1 min 46 sec) 
Heartbeat CPU  0 instructions:   71000003 cycles:   30438823 heartbeat IPC: 2.35082 cumulative IPC: 2.33255 (Simulation time: 0 hr 1 min 47 sec) 
Heartbeat CPU  0 instructions:   72000000 cycles:   30914511 heartbeat IPC: 2.10221 cumulative IPC: 2.32900 (Simulation time: 0 hr 1 min 49 sec) 
Heartbeat CPU  0 instructions:   73000001 cycles:   31310959 heartbeat IPC: 2.52240 cumulative IPC: 2.33145 (Simulation time: 0 hr 1 min 50 sec) 
Heartbeat CPU  0 instructions:   74000000 cycles:   31750796 heartbeat IPC: 2.27357 cumulative IPC: 2.33065 (Simulation time: 0 hr 1 min 52 sec) 
Heartbeat CPU  0 instructions:   75000003 cycles:   32202011 heartbeat IPC: 2.21624 cumulative IPC: 2.32905 (Simulation time: 0 hr 1 min 53 sec) 
Heartbeat CPU  0 instructions:   76000000 cycles:   32602980 heartbeat IPC: 2.49395 cumulative IPC: 2.33108 (Simulation time: 0 hr 1 min 55 sec) 
Heartbeat CPU  0 instructions:   77000001 cycles:   33019873 heartbeat IPC: 2.39870 cumulative IPC: 2.33193 (Simulation time: 0 hr 1 min 56 sec) 
Heartbeat CPU  0 instructions:   78000001 cycles:   33455027 heartbeat IPC: 2.29804 cumulative IPC: 2.33149 (Simulation time: 0 hr 1 min 58 sec) 
Heartbeat CPU  0 instructions:   79000000 cycles:   33901500 heartbeat IPC: 2.23977 cumulative IPC: 2.33028 (Simulation time: 0 hr 1 min 59 sec) 
Heartbeat CPU  0 instructions:   80000000 cycles:   34297588 heartbeat IPC: 2.52469 cumulative IPC: 2.33253 (Simulation time: 0 hr 2 min 1 sec) 
Heartbeat CPU  0 instructions:   81000003 cycles:   34715456 heartbeat IPC: 2.39311 cumulative IPC: 2.33325 (Simulation time: 0 hr 2 min 2 sec) 
Heartbeat CPU  0 instructions:   82000003 cycles:   35156795 heartbeat IPC: 2.26583 cumulative IPC: 2.33241 (Simulation time: 0 hr 2 min 4 sec) 
Heartbeat CPU  0 instructions:   83000000 cycles:   35591934 heartbeat IPC: 2.29811 cumulative IPC: 2.33199 (Simulation time: 0 hr 2 min 5 sec) 
Heartbeat CPU  0 instructions:   84000000 cycles:   35985357 heartbeat IPC: 2.54179 cumulative IPC: 2.33428 (Simulation time: 0 hr 2 min 7 sec) 
Heartbeat CPU  0 instructions:   85000000 cycles:   36425868 heartbeat IPC: 2.27009 cumulative IPC: 2.33351 (Simulation time: 0 hr 2 min 8 sec) 
Heartbeat CPU  0 instructions:   86000001 cycles:   36866670 heartbeat IPC: 2.26859 cumulative IPC: 2.33273 (Simulation time: 0 hr 2 min 10 sec) 
Heartbeat CPU  0 instructions:   87000002 cycles:   37278044 heartbeat IPC: 2.43088 cumulative IPC: 2.33381 (Simulation time: 0 hr 2 min 11 sec) 
Heartbeat CPU  0 instructions:   88000000 cycles:   37694046 heartbeat IPC: 2.40383 cumulative IPC: 2.33459 (Simulation time: 0 hr 2 min 13 sec) 
Heartbeat CPU  0 instructions:   89000001 cycles:   38130345 heartbeat IPC: 2.29201 cumulative IPC: 2.33410 (Simulation time: 0 hr 2 min 14 sec) 
Heartbeat CPU  0 instructions:   90000000 cycles:   38564999 heartbeat IPC: 2.30068 cumulative IPC: 2.33372 (Simulation time: 0 hr 2 min 16 sec) 
Heartbeat CPU  0 instructions:   91000000 cycles:   38971046 heartbeat IPC: 2.46277 cumulative IPC: 2.33507 (Simulation time: 0 hr 2 min 17 sec) 
Heartbeat CPU  0 instructions:   92000000 cycles:   39389535 heartbeat IPC: 2.38955 cumulative IPC: 2.33565 (Simulation time: 0 hr 2 min 19 sec) 
Heartbeat CPU  0 instructions:   93000000 cycles:   39823070 heartbeat IPC: 2.30662 cumulative IPC: 2.33533 (Simulation time: 0 hr 2 min 20 sec) 
Heartbeat CPU  0 instructions:   94000002 cycles:   40263252 heartbeat IPC: 2.27179 cumulative IPC: 2.33464 (Simulation time: 0 hr 2 min 22 sec) 
Heartbeat CPU  0 instructions:   95000000 cycles:   40655305 heartbeat IPC: 2.55067 cumulative IPC: 2.33672 (Simulation time: 0 hr 2 min 23 sec) 
Heartbeat CPU  0 instructions:   96000000 cycles:   41089247 heartbeat IPC: 2.30446 cumulative IPC: 2.33638 (Simulation time: 0 hr 2 min 25 sec) 
Heartbeat CPU  0 instructions:   97000001 cycles:   41551861 heartbeat IPC: 2.16163 cumulative IPC: 2.33443 (Simulation time: 0 hr 2 min 26 sec) 
Heartbeat CPU  0 instructions:   98000003 cycles:   41971019 heartbeat IPC: 2.38574 cumulative IPC: 2.33494 (Simulation time: 0 hr 2 min 28 sec) 
Heartbeat CPU  0 instructions:   99000001 cycles:   42413393 heartbeat IPC: 2.26053 cumulative IPC: 2.33417 (Simulation time: 0 hr 2 min 29 sec) 
Heartbeat CPU  0 instructions:  100000000 cycles:   42844600 heartbeat IPC: 2.31907 cumulative IPC: 2.33402 (Simulation time: 0 hr 2 min 31 sec) 

Warmup complete CPU  0 instructions:  100000001 cycles:   42844601 (Simulation time: 0 hr 2 min 31 sec) 

Heartbeat CPU  0 instructions:  101000001 cycles:   43523657 heartbeat IPC: 1.47263 cumulative IPC: 1.47263 (Simulation time: 0 hr 2 min 33 sec) 
Heartbeat CPU  0 instructions:  102000003 cycles:   44212191 heartbeat IPC: 1.45236 cumulative IPC: 1.46243 (Simulation time: 0 hr 2 min 34 sec) 
Heartbeat CPU  0 instructions:  103000003 cycles:   44897432 heartbeat IPC: 1.45934 cumulative IPC: 1.46140 (Simulation time: 0 hr 2 min 36 sec) 
Heartbeat CPU  0 instructions:  104000000 cycles:   45585904 heartbeat IPC: 1.45249 cumulative IPC: 1.45916 (Simulation time: 0 hr 2 min 38 sec) 
Heartbeat CPU  0 instructions:  105000001 cycles:   46276739 heartbeat IPC: 1.44753 cumulative IPC: 1.45682 (Simulation time: 0 hr 2 min 40 sec) 
Heartbeat CPU  0 instructions:  106000000 cycles:   46963800 heartbeat IPC: 1.45547 cumulative IPC: 1.45659 (Simulation time: 0 hr 2 min 41 sec) 
Heartbeat CPU  0 instructions:  107000001 cycles:   47650940 heartbeat IPC: 1.45531 cumulative IPC: 1.45641 (Simulation time: 0 hr 2 min 43 sec) 
Heartbeat CPU  0 instructions:  108000000 cycles:   48384762 heartbeat IPC: 1.36273 cumulative IPC: 1.44400 (Simulation time: 0 hr 2 min 45 sec) 
Heartbeat CPU  0 instructions:  109000001 cycles:   49075063 heartbeat IPC: 1.44864 cumulative IPC: 1.44452 (Simulation time: 0 hr 2 min 47 sec) 
Heartbeat CPU  0 instructions:  110000003 cycles:   49885957 heartbeat IPC: 1.23321 cumulative IPC: 1.42018 (Simulation time: 0 hr 2 min 48 sec) 
Heartbeat CPU  0 instructions:  111000000 cycles:   50762676 heartbeat IPC: 1.14061 cumulative IPC: 1.38923 (Simulation time: 0 hr 2 min 50 sec) 
Heartbeat CPU  0 instructions:  112000000 cycles:   51600028 heartbeat IPC: 1.19424 cumulative IPC: 1.37058 (Simulation time: 0 hr 2 min 52 sec) 
Heartbeat CPU  0 instructions:  113000003 cycles:   52309358 heartbeat IPC: 1.40979 cumulative IPC: 1.37352 (Simulation time: 0 hr 2 min 54 sec) 
Heartbeat CPU  0 instructions:  114000001 cycles:   53016417 heartbeat IPC: 1.41431 cumulative IPC: 1.37635 (Simulation time: 0 hr 2 min 55 sec) 
Heartbeat CPU  0 instructions:  115000002 cycles:   53738474 heartbeat IPC: 1.38493 cumulative IPC: 1.37692 (Simulation time: 0 hr 2 min 57 sec) 
Heartbeat CPU  0 instructions:  116000000 cycles:   54428024 heartbeat IPC: 1.45022 cumulative IPC: 1.38128 (Simulation time: 0 hr 2 min 59 sec) 
Heartbeat CPU  0 instructions:  117000000 cycles:   55099616 heartbeat IPC: 1.48900 cumulative IPC: 1.38719 (Simulation time: 0 hr 3 min 1 sec) 
Heartbeat CPU  0 instructions:  118000000 cycles:   55753184 heartbeat IPC: 1.53006 cumulative IPC: 1.39442 (Simulation time: 0 hr 3 min 2 sec) 
Heartbeat CPU  0 instructions:  119000002 cycles:   56482073 heartbeat IPC: 1.37195 cumulative IPC: 1.39322 (Simulation time: 0 hr 3 min 4 sec) 
Heartbeat CPU  0 instructions:  120000000 cycles:   57166357 heartbeat IPC: 1.46138 cumulative IPC: 1.39648 (Simulation time: 0 hr 3 min 6 sec) 
Heartbeat CPU  0 instructions:  121000002 cycles:   57841214 heartbeat IPC: 1.48180 cumulative IPC: 1.40032 (Simulation time: 0 hr 3 min 8 sec) 
Heartbeat CPU  0 instructions:  122000000 cycles:   58527184 heartbeat IPC: 1.45779 cumulative IPC: 1.40283 (Simulation time: 0 hr 3 min 9 sec) 
Heartbeat CPU  0 instructions:  123000002 cycles:   59273158 heartbeat IPC: 1.34053 cumulative IPC: 1.40000 (Simulation time: 0 hr 3 min 11 sec) 
Heartbeat CPU  0 instructions:  124000000 cycles:   60042594 heartbeat IPC: 1.29965 cumulative IPC: 1.39551 (Simulation time: 0 hr 3 min 13 sec) 
Heartbeat CPU  0 instructions:  125000000 cycles:   60721395 heartbeat IPC: 1.47319 cumulative IPC: 1.39846 (Simulation time: 0 hr 3 min 15 sec) 
Heartbeat CPU  0 instructions:  126000000 cycles:   61439572 heartbeat IPC: 1.39241 cumulative IPC: 1.39823 (Simulation time: 0 hr 3 min 16 sec) 
Heartbeat CPU  0 instructions:  127000003 cycles:   62166065 heartbeat IPC: 1.37648 cumulative IPC: 1.39741 (Simulation time: 0 hr 3 min 18 sec) 
Heartbeat CPU  0 instructions:  128000000 cycles:   62840375 heartbeat IPC: 1.48299 cumulative IPC: 1.40030 (Simulation time: 0 hr 3 min 20 sec) 
Heartbeat CPU  0 instructions:  129000001 cycles:   63489023 heartbeat IPC: 1.54167 cumulative IPC: 1.40474 (Simulation time: 0 hr 3 min 21 sec) 
Heartbeat CPU  0 instructions:  130000001 cycles:   64182462 heartbeat IPC: 1.44209 cumulative IPC: 1.40595 (Simulation time: 0 hr 3 min 23 sec) 
Heartbeat CPU  0 instructions:  131000002 cycles:   64907267 heartbeat IPC: 1.37968 cumulative IPC: 1.40509 (Simulation time: 0 hr 3 min 25 sec) 
Heartbeat CPU  0 instructions:  132000000 cycles:   65573029 heartbeat IPC: 1.50204 cumulative IPC: 1.40793 (Simulation time: 0 hr 3 min 27 sec) 
Heartbeat CPU  0 instructions:  133000003 cycles:   66229191 heartbeat IPC: 1.52402 cumulative IPC: 1.41119 (Simulation time: 0 hr 3 min 28 sec) 
Heartbeat CPU  0 instructions:  134000001 cycles:   66979184 heartbeat IPC: 1.33334 cumulative IPC: 1.40877 (Simulation time: 0 hr 3 min 30 sec) 
Heartbeat CPU  0 instructions:  135000001 cycles:   67705261 heartbeat IPC: 1.37726 cumulative IPC: 1.40785 (Simulation time: 0 hr 3 min 32 sec) 
Heartbeat CPU  0 instructions:  136000000 cycles:   68490400 heartbeat IPC: 1.27366 cumulative IPC: 1.40374 (Simulation time: 0 hr 3 min 34 sec) 
Heartbeat CPU  0 instructions:  137000003 cycles:   69423910 heartbeat IPC: 1.07123 cumulative IPC: 1.39206 (Simulation time: 0 hr 3 min 36 sec) 
Heartbeat CPU  0 instructions:  138000002 cycles:   70145977 heartbeat IPC: 1.38491 cumulative IPC: 1.39187 (Simulation time: 0 hr 3 min 37 sec) 
Heartbeat CPU  0 instructions:  139000002 cycles:   70810492 heartbeat IPC: 1.50486 cumulative IPC: 1.39456 (Simulation time: 0 hr 3 min 39 sec) 
Heartbeat CPU  0 instructions:  140000000 cycles:   71577460 heartbeat IPC: 1.30383 cumulative IPC: 1.39213 (Simulation time: 0 hr 3 min 41 sec) 
Heartbeat CPU  0 instructions:  141000001 cycles:   72270666 heartbeat IPC: 1.44257 cumulative IPC: 1.39332 (Simulation time: 0 hr 3 min 43 sec) 
Heartbeat CPU  0 instructions:  142000001 cycles:   72933919 heartbeat IPC: 1.50772 cumulative IPC: 1.39584 (Simulation time: 0 hr 3 min 44 sec) 
Heartbeat CPU  0 instructions:  143000002 cycles:   73595070 heartbeat IPC: 1.51252 cumulative IPC: 1.39835 (Simulation time: 0 hr 3 min 46 sec) 
Heartbeat CPU  0 instructions:  144000000 cycles:   74315631 heartbeat IPC: 1.38780 cumulative IPC: 1.39811 (Simulation time: 0 hr 3 min 48 sec) 
Heartbeat CPU  0 instructions:  145000003 cycles:   75012951 heartbeat IPC: 1.43407 cumulative IPC: 1.39889 (Simulation time: 0 hr 3 min 49 sec) 
Heartbeat CPU  0 instructions:  146000000 cycles:   75673396 heartbeat IPC: 1.51413 cumulative IPC: 1.40121 (Simulation time: 0 hr 3 min 51 sec) 
Heartbeat CPU  0 instructions:  147000003 cycles:   76374340 heartbeat IPC: 1.42665 cumulative IPC: 1.40174 (Simulation time: 0 hr 3 min 53 sec) 
Heartbeat CPU  0 instructions:  148000000 cycles:   77098224 heartbeat IPC: 1.38143 cumulative IPC: 1.40131 (Simulation time: 0 hr 3 min 55 sec) 
Heartbeat CPU  0 instructions:  149000001 cycles:   77872709 heartbeat IPC: 1.29118 cumulative IPC: 1.39888 (Simulation time: 0 hr 3 min 56 sec) 
Heartbeat CPU  0 instructions:  150000003 cycles:   78724671 heartbeat IPC: 1.17376 cumulative IPC: 1.39353 (Simulation time: 0 hr 3 min 58 sec) 
Heartbeat CPU  0 instructions:  151000000 cycles:   79567971 heartbeat IPC: 1.18581 cumulative IPC: 1.38876 (Simulation time: 0 hr 4 min 0 sec) 
Heartbeat CPU  0 instructions:  152000000 cycles:   80325979 heartbeat IPC: 1.31925 cumulative IPC: 1.38736 (Simulation time: 0 hr 4 min 2 sec) 
Heartbeat CPU  0 instructions:  153000001 cycles:   81108059 heartbeat IPC: 1.27864 cumulative IPC: 1.38513 (Simulation time: 0 hr 4 min 4 sec) 
Heartbeat CPU  0 instructions:  154000000 cycles:   81900196 heartbeat IPC: 1.26241 cumulative IPC: 1.38264 (Simulation time: 0 hr 4 min 5 sec) 
Heartbeat CPU  0 instructions:  155000000 cycles:   82703821 heartbeat IPC: 1.24436 cumulative IPC: 1.37986 (Simulation time: 0 hr 4 min 7 sec) 
Heartbeat CPU  0 instructions:  156000000 cycles:   83673624 heartbeat IPC: 1.03114 cumulative IPC: 1.37157 (Simulation time: 0 hr 4 min 9 sec) 
Heartbeat CPU  0 instructions:  157000002 cycles:   84426602 heartbeat IPC: 1.32806 cumulative IPC: 1.37079 (Simulation time: 0 hr 4 min 11 sec) 
Heartbeat CPU  0 instructions:  158000001 cycles:   85341154 heartbeat IPC: 1.09343 cumulative IPC: 1.36482 (Simulation time: 0 hr 4 min 13 sec) 
Heartbeat CPU  0 instructions:  159000001 cycles:   86111923 heartbeat IPC: 1.29741 cumulative IPC: 1.36362 (Simulation time: 0 hr 4 min 14 sec) 
Heartbeat CPU  0 instructions:  160000000 cycles:   86817523 heartbeat IPC: 1.41723 cumulative IPC: 1.36448 (Simulation time: 0 hr 4 min 16 sec) 
Heartbeat CPU  0 instructions:  161000001 cycles:   87552583 heartbeat IPC: 1.36043 cumulative IPC: 1.36441 (Simulation time: 0 hr 4 min 18 sec) 
Heartbeat CPU  0 instructions:  162000003 cycles:   88296219 heartbeat IPC: 1.34475 cumulative IPC: 1.36409 (Simulation time: 0 hr 4 min 19 sec) 
Heartbeat CPU  0 instructions:  163000000 cycles:   88969642 heartbeat IPC: 1.48495 cumulative IPC: 1.36585 (Simulation time: 0 hr 4 min 21 sec) 
Heartbeat CPU  0 instructions:  164000000 cycles:   89689941 heartbeat IPC: 1.38831 cumulative IPC: 1.36620 (Simulation time: 0 hr 4 min 23 sec) 
Heartbeat CPU  0 instructions:  165000001 cycles:   90384611 heartbeat IPC: 1.43953 cumulative IPC: 1.36727 (Simulation time: 0 hr 4 min 25 sec) 
Heartbeat CPU  0 instructions:  166000001 cycles:   91065633 heartbeat IPC: 1.46838 cumulative IPC: 1.36870 (Simulation time: 0 hr 4 min 26 sec) 
Heartbeat CPU  0 instructions:  167000002 cycles:   91804943 heartbeat IPC: 1.35261 cumulative IPC: 1.36845 (Simulation time: 0 hr 4 min 28 sec) 
Heartbeat CPU  0 instructions:  168000000 cycles:   92562916 heartbeat IPC: 1.31931 cumulative IPC: 1.36771 (Simulation time: 0 hr 4 min 30 sec) 
Heartbeat CPU  0 instructions:  169000000 cycles:   93309284 heartbeat IPC: 1.33982 cumulative IPC: 1.36729 (Simulation time: 0 hr 4 min 32 sec) 
Heartbeat CPU  0 instructions:  170000001 cycles:   93995738 heartbeat IPC: 1.45676 cumulative IPC: 1.36849 (Simulation time: 0 hr 4 min 33 sec) 
Heartbeat CPU  0 instructions:  171000000 cycles:   94773905 heartbeat IPC: 1.28507 cumulative IPC: 1.36724 (Simulation time: 0 hr 4 min 35 sec) 
Heartbeat CPU  0 instructions:  172000000 cycles:   95530377 heartbeat IPC: 1.32193 cumulative IPC: 1.36659 (Simulation time: 0 hr 4 min 37 sec) 
Heartbeat CPU  0 instructions:  173000001 cycles:   96222723 heartbeat IPC: 1.44437 cumulative IPC: 1.36760 (Simulation time: 0 hr 4 min 39 sec) 
Heartbeat CPU  0 instructions:  174000000 cycles:   96960277 heartbeat IPC: 1.35583 cumulative IPC: 1.36744 (Simulation time: 0 hr 4 min 40 sec) 
Heartbeat CPU  0 instructions:  175000000 cycles:   97670877 heartbeat IPC: 1.40726 cumulative IPC: 1.36796 (Simulation time: 0 hr 4 min 42 sec) 
Heartbeat CPU  0 instructions:  176000000 cycles:   98399584 heartbeat IPC: 1.37229 cumulative IPC: 1.36801 (Simulation time: 0 hr 4 min 44 sec) 
Heartbeat CPU  0 instructions:  177000002 cycles:   99188128 heartbeat IPC: 1.26816 cumulative IPC: 1.36662 (Simulation time: 0 hr 4 min 46 sec) 
Heartbeat CPU  0 instructions:  178000001 cycles:  100003241 heartbeat IPC: 1.22682 cumulative IPC: 1.36462 (Simulation time: 0 hr 4 min 47 sec) 
Heartbeat CPU  0 instructions:  179000003 cycles:  100759887 heartbeat IPC: 1.32162 cumulative IPC: 1.36406 (Simulation time: 0 hr 4 min 49 sec) 
Heartbeat CPU  0 instructions:  180000000 cycles:  101544485 heartbeat IPC: 1.27453 cumulative IPC: 1.36286 (Simulation time: 0 hr 4 min 51 sec) 
Heartbeat CPU  0 instructions:  181000000 cycles:  102322619 heartbeat IPC: 1.28513 cumulative IPC: 1.36185 (Simulation time: 0 hr 4 min 53 sec) 
Heartbeat CPU  0 instructions:  182000003 cycles:  103109349 heartbeat IPC: 1.27109 cumulative IPC: 1.36066 (Simulation time: 0 hr 4 min 55 sec) 
Heartbeat CPU  0 instructions:  183000002 cycles:  103918955 heartbeat IPC: 1.23517 cumulative IPC: 1.35900 (Simulation time: 0 hr 4 min 56 sec) 
Heartbeat CPU  0 instructions:  184000000 cycles:  104622351 heartbeat IPC: 1.42167 cumulative IPC: 1.35971 (Simulation time: 0 hr 4 min 58 sec) 
Heartbeat CPU  0 instructions:  185000002 cycles:  105360049 heartbeat IPC: 1.35557 cumulative IPC: 1.35966 (Simulation time: 0 hr 5 min 0 sec) 
Heartbeat CPU  0 instructions:  186000000 cycles:  106067142 heartbeat IPC: 1.41424 cumulative IPC: 1.36027 (Simulation time: 0 hr 5 min 2 sec) 
Heartbeat CPU  0 instructions:  187000001 cycles:  106765399 heartbeat IPC: 1.43214 cumulative IPC: 1.36106 (Simulation time: 0 hr 5 min 3 sec) 
Heartbeat CPU  0 instructions:  188000000 cycles:  107585374 heartbeat IPC: 1.21955 cumulative IPC: 1.35927 (Simulation time: 0 hr 5 min 5 sec) 
Heartbeat CPU  0 instructions:  189000000 cycles:  108399251 heartbeat IPC: 1.22869 cumulative IPC: 1.35765 (Simulation time: 0 hr 5 min 7 sec) 
Heartbeat CPU  0 instructions:  190000000 cycles:  109160408 heartbeat IPC: 1.31379 cumulative IPC: 1.35714 (Simulation time: 0 hr 5 min 9 sec) 
Heartbeat CPU  0 instructions:  191000003 cycles:  109944100 heartbeat IPC: 1.27602 cumulative IPC: 1.35619 (Simulation time: 0 hr 5 min 10 sec) 
Heartbeat CPU  0 instructions:  192000000 cycles:  110690548 heartbeat IPC: 1.33967 cumulative IPC: 1.35601 (Simulation time: 0 hr 5 min 12 sec) 
Heartbeat CPU  0 instructions:  193000000 cycles:  111509349 heartbeat IPC: 1.22130 cumulative IPC: 1.35441 (Simulation time: 0 hr 5 min 14 sec) 
Heartbeat CPU  0 instructions:  194000001 cycles:  112336425 heartbeat IPC: 1.20908 cumulative IPC: 1.35268 (Simulation time: 0 hr 5 min 16 sec) 
Heartbeat CPU  0 instructions:  195000001 cycles:  113055636 heartbeat IPC: 1.39041 cumulative IPC: 1.35306 (Simulation time: 0 hr 5 min 18 sec) 
Heartbeat CPU  0 instructions:  196000000 cycles:  113897451 heartbeat IPC: 1.18791 cumulative IPC: 1.35111 (Simulation time: 0 hr 5 min 19 sec) 
Heartbeat CPU  0 instructions:  197000001 cycles:  114697455 heartbeat IPC: 1.24999 cumulative IPC: 1.34998 (Simulation time: 0 hr 5 min 21 sec) 
Heartbeat CPU  0 instructions:  198000002 cycles:  115538223 heartbeat IPC: 1.18939 cumulative IPC: 1.34812 (Simulation time: 0 hr 5 min 23 sec) 
Heartbeat CPU  0 instructions:  199000002 cycles:  116457172 heartbeat IPC: 1.08820 cumulative IPC: 1.34488 (Simulation time: 0 hr 5 min 25 sec) 
Heartbeat CPU  0 instructions:  200000000 cycles:  117276452 heartbeat IPC: 1.22058 cumulative IPC: 1.34351 (Simulation time: 0 hr 5 min 27 sec) 
Heartbeat CPU  0 instructions:  201000000 cycles:  118170410 heartbeat IPC: 1.11862 cumulative IPC: 1.34084 (Simulation time: 0 hr 5 min 28 sec) 
Heartbeat CPU  0 instructions:  202000000 cycles:  118977886 heartbeat IPC: 1.23843 cumulative IPC: 1.33976 (Simulation time: 0 hr 5 min 30 sec) 
Heartbeat CPU  0 instructions:  203000000 cycles:  119927469 heartbeat IPC: 1.05309 cumulative IPC: 1.33622 (Simulation time: 0 hr 5 min 32 sec) 
Heartbeat CPU  0 instructions:  204000000 cycles:  120752654 heartbeat IPC: 1.21185 cumulative IPC: 1.33491 (Simulation time: 0 hr 5 min 34 sec) 
Heartbeat CPU  0 instructions:  205000001 cycles:  121650897 heartbeat IPC: 1.11329 cumulative IPC: 1.33238 (Simulation time: 0 hr 5 min 36 sec) 
Heartbeat CPU  0 instructions:  206000003 cycles:  122444724 heartbeat IPC: 1.25972 cumulative IPC: 1.33166 (Simulation time: 0 hr 5 min 37 sec) 
Heartbeat CPU  0 instructions:  207000003 cycles:  123197506 heartbeat IPC: 1.32841 cumulative IPC: 1.33163 (Simulation time: 0 hr 5 min 39 sec) 
Heartbeat CPU  0 instructions:  208000000 cycles:  123969347 heartbeat IPC: 1.29560 cumulative IPC: 1.33128 (Simulation time: 0 hr 5 min 41 sec) 
Heartbeat CPU  0 instructions:  209000001 cycles:  124777753 heartbeat IPC: 1.23700 cumulative IPC: 1.33035 (Simulation time: 0 hr 5 min 43 sec) 
Heartbeat CPU  0 instructions:  210000003 cycles:  125685988 heartbeat IPC: 1.10104 cumulative IPC: 1.32784 (Simulation time: 0 hr 5 min 45 sec) 
Heartbeat CPU  0 instructions:  211000001 cycles:  126437744 heartbeat IPC: 1.33022 cumulative IPC: 1.32786 (Simulation time: 0 hr 5 min 46 sec) 
Heartbeat CPU  0 instructions:  212000000 cycles:  127153875 heartbeat IPC: 1.39639 cumulative IPC: 1.32844 (Simulation time: 0 hr 5 min 48 sec) 
Heartbeat CPU  0 instructions:  213000000 cycles:  128000792 heartbeat IPC: 1.18075 cumulative IPC: 1.32697 (Simulation time: 0 hr 5 min 50 sec) 
Heartbeat CPU  0 instructions:  214000000 cycles:  128804474 heartbeat IPC: 1.24427 cumulative IPC: 1.32620 (Simulation time: 0 hr 5 min 52 sec) 
Heartbeat CPU  0 instructions:  215000001 cycles:  129686243 heartbeat IPC: 1.13409 cumulative IPC: 1.32425 (Simulation time: 0 hr 5 min 54 sec) 
Heartbeat CPU  0 instructions:  216000000 cycles:  130515848 heartbeat IPC: 1.20539 cumulative IPC: 1.32312 (Simulation time: 0 hr 5 min 55 sec) 
Heartbeat CPU  0 instructions:  217000003 cycles:  131453931 heartbeat IPC: 1.06601 cumulative IPC: 1.32040 (Simulation time: 0 hr 5 min 57 sec) 
Heartbeat CPU  0 instructions:  218000002 cycles:  132242107 heartbeat IPC: 1.26875 cumulative IPC: 1.31995 (Simulation time: 0 hr 5 min 59 sec) 
Heartbeat CPU  0 instructions:  219000001 cycles:  132966052 heartbeat IPC: 1.38132 cumulative IPC: 1.32044 (Simulation time: 0 hr 6 min 1 sec) 
Heartbeat CPU  0 instructions:  220000000 cycles:  133677385 heartbeat IPC: 1.40581 cumulative IPC: 1.32111 (Simulation time: 0 hr 6 min 2 sec) 
Heartbeat CPU  0 instructions:  221000000 cycles:  134349431 heartbeat IPC: 1.48799 cumulative IPC: 1.32233 (Simulation time: 0 hr 6 min 4 sec) 
Heartbeat CPU  0 instructions:  222000003 cycles:  135208689 heartbeat IPC: 1.16380 cumulative IPC: 1.32086 (Simulation time: 0 hr 6 min 6 sec) 
Heartbeat CPU  0 instructions:  223000002 cycles:  135922897 heartbeat IPC: 1.40015 cumulative IPC: 1.32147 (Simulation time: 0 hr 6 min 8 sec) 
Heartbeat CPU  0 instructions:  224000000 cycles:  136605823 heartbeat IPC: 1.46428 cumulative IPC: 1.32251 (Simulation time: 0 hr 6 min 9 sec) 
Heartbeat CPU  0 instructions:  225000000 cycles:  137318053 heartbeat IPC: 1.40404 cumulative IPC: 1.32312 (Simulation time: 0 hr 6 min 11 sec) 
Heartbeat CPU  0 instructions:  226000001 cycles:  138160209 heartbeat IPC: 1.18743 cumulative IPC: 1.32192 (Simulation time: 0 hr 6 min 13 sec) 
Heartbeat CPU  0 instructions:  227000002 cycles:  138843591 heartbeat IPC: 1.46331 cumulative IPC: 1.32293 (Simulation time: 0 hr 6 min 15 sec) 
Heartbeat CPU  0 instructions:  228000000 cycles:  139571508 heartbeat IPC: 1.37378 cumulative IPC: 1.32331 (Simulation time: 0 hr 6 min 17 sec) 
Heartbeat CPU  0 instructions:  229000000 cycles:  140277766 heartbeat IPC: 1.41591 cumulative IPC: 1.32398 (Simulation time: 0 hr 6 min 18 sec) 
Heartbeat CPU  0 instructions:  230000002 cycles:  141010045 heartbeat IPC: 1.36560 cumulative IPC: 1.32429 (Simulation time: 0 hr 6 min 20 sec) 
Heartbeat CPU  0 instructions:  231000000 cycles:  141803473 heartbeat IPC: 1.26035 cumulative IPC: 1.32378 (Simulation time: 0 hr 6 min 22 sec) 
Heartbeat CPU  0 instructions:  232000000 cycles:  142526040 heartbeat IPC: 1.38395 cumulative IPC: 1.32422 (Simulation time: 0 hr 6 min 24 sec) 
Heartbeat CPU  0 instructions:  233000001 cycles:  143215781 heartbeat IPC: 1.44982 cumulative IPC: 1.32508 (Simulation time: 0 hr 6 min 25 sec) 
Heartbeat CPU  0 instructions:  234000003 cycles:  143973687 heartbeat IPC: 1.31943 cumulative IPC: 1.32504 (Simulation time: 0 hr 6 min 27 sec) 
Heartbeat CPU  0 instructions:  235000002 cycles:  144765274 heartbeat IPC: 1.26328 cumulative IPC: 1.32456 (Simulation time: 0 hr 6 min 29 sec) 
Heartbeat CPU  0 instructions:  236000000 cycles:  145468055 heartbeat IPC: 1.42292 cumulative IPC: 1.32523 (Simulation time: 0 hr 6 min 31 sec) 
Heartbeat CPU  0 instructions:  237000002 cycles:  146153545 heartbeat IPC: 1.45881 cumulative IPC: 1.32612 (Simulation time: 0 hr 6 min 32 sec) 
Heartbeat CPU  0 instructions:  238000000 cycles:  146934302 heartbeat IPC: 1.28081 cumulative IPC: 1.32578 (Simulation time: 0 hr 6 min 34 sec) 
Heartbeat CPU  0 instructions:  239000000 cycles:  147701132 heartbeat IPC: 1.30407 cumulative IPC: 1.32562 (Simulation time: 0 hr 6 min 36 sec) 
Heartbeat CPU  0 instructions:  240000000 cycles:  148395068 heartbeat IPC: 1.44106 cumulative IPC: 1.32638 (Simulation time: 0 hr 6 min 38 sec) 
Heartbeat CPU  0 instructions:  241000002 cycles:  149112163 heartbeat IPC: 1.39452 cumulative IPC: 1.32684 (Simulation time: 0 hr 6 min 39 sec) 
Heartbeat CPU  0 instructions:  242000002 cycles:  149876107 heartbeat IPC: 1.30900 cumulative IPC: 1.32671 (Simulation time: 0 hr 6 min 41 sec) 
Heartbeat CPU  0 instructions:  243000002 cycles:  150635371 heartbeat IPC: 1.31707 cumulative IPC: 1.32664 (Simulation time: 0 hr 6 min 43 sec) 
Heartbeat CPU  0 instructions:  244000000 cycles:  151360333 heartbeat IPC: 1.37938 cumulative IPC: 1.32700 (Simulation time: 0 hr 6 min 45 sec) 
Heartbeat CPU  0 instructions:  245000000 cycles:  152064889 heartbeat IPC: 1.41933 cumulative IPC: 1.32759 (Simulation time: 0 hr 6 min 46 sec) 
Heartbeat CPU  0 instructions:  246000000 cycles:  152739529 heartbeat IPC: 1.48227 cumulative IPC: 1.32854 (Simulation time: 0 hr 6 min 48 sec) 
Heartbeat CPU  0 instructions:  247000001 cycles:  153502902 heartbeat IPC: 1.30998 cumulative IPC: 1.32841 (Simulation time: 0 hr 6 min 50 sec) 
Heartbeat CPU  0 instructions:  248000000 cycles:  154357176 heartbeat IPC: 1.17058 cumulative IPC: 1.32720 (Simulation time: 0 hr 6 min 52 sec) 
Heartbeat CPU  0 instructions:  249000000 cycles:  155038861 heartbeat IPC: 1.46695 cumulative IPC: 1.32805 (Simulation time: 0 hr 6 min 53 sec) 
Heartbeat CPU  0 instructions:  250000001 cycles:  155763629 heartbeat IPC: 1.37975 cumulative IPC: 1.32839 (Simulation time: 0 hr 6 min 55 sec) 
Heartbeat CPU  0 instructions:  251000000 cycles:  156470912 heartbeat IPC: 1.41386 cumulative IPC: 1.32892 (Simulation time: 0 hr 6 min 57 sec) 
Heartbeat CPU  0 instructions:  252000000 cycles:  157166802 heartbeat IPC: 1.43701 cumulative IPC: 1.32958 (Simulation time: 0 hr 6 min 59 sec) 
Heartbeat CPU  0 instructions:  253000002 cycles:  158052906 heartbeat IPC: 1.12854 cumulative IPC: 1.32803 (Simulation time: 0 hr 7 min 1 sec) 
Heartbeat CPU  0 instructions:  254000002 cycles:  158761767 heartbeat IPC: 1.41071 cumulative IPC: 1.32853 (Simulation time: 0 hr 7 min 2 sec) 
Heartbeat CPU  0 instructions:  255000000 cycles:  159438263 heartbeat IPC: 1.47820 cumulative IPC: 1.32940 (Simulation time: 0 hr 7 min 4 sec) 
Heartbeat CPU  0 instructions:  256000000 cycles:  160281932 heartbeat IPC: 1.18530 cumulative IPC: 1.32837 (Simulation time: 0 hr 7 min 6 sec) 
Heartbeat CPU  0 instructions:  257000000 cycles:  160991088 heartbeat IPC: 1.41013 cumulative IPC: 1.32886 (Simulation time: 0 hr 7 min 8 sec) 
Heartbeat CPU  0 instructions:  258000002 cycles:  161666806 heartbeat IPC: 1.47991 cumulative IPC: 1.32972 (Simulation time: 0 hr 7 min 9 sec) 
Heartbeat CPU  0 instructions:  259000000 cycles:  162515964 heartbeat IPC: 1.17763 cumulative IPC: 1.32864 (Simulation time: 0 hr 7 min 11 sec) 
Heartbeat CPU  0 instructions:  260000000 cycles:  163227852 heartbeat IPC: 1.40472 cumulative IPC: 1.32909 (Simulation time: 0 hr 7 min 13 sec) 
Heartbeat CPU  0 instructions:  261000002 cycles:  163906464 heartbeat IPC: 1.47360 cumulative IPC: 1.32990 (Simulation time: 0 hr 7 min 15 sec) 
Heartbeat CPU  0 instructions:  262000000 cycles:  164748199 heartbeat IPC: 1.18802 cumulative IPC: 1.32892 (Simulation time: 0 hr 7 min 16 sec) 
Heartbeat CPU  0 instructions:  263000002 cycles:  165458508 heartbeat IPC: 1.40784 cumulative IPC: 1.32938 (Simulation time: 0 hr 7 min 18 sec) 
Heartbeat CPU  0 instructions:  264000000 cycles:  166134424 heartbeat IPC: 1.47947 cumulative IPC: 1.33020 (Simulation time: 0 hr 7 min 20 sec) 
Heartbeat CPU  0 instructions:  265000000 cycles:  166984537 heartbeat IPC: 1.17631 cumulative IPC: 1.32915 (Simulation time: 0 hr 7 min 22 sec) 
Heartbeat CPU  0 instructions:  266000000 cycles:  167693663 heartbeat IPC: 1.41019 cumulative IPC: 1.32961 (Simulation time: 0 hr 7 min 23 sec) 
Heartbeat CPU  0 instructions:  267000002 cycles:  168369163 heartbeat IPC: 1.48039 cumulative IPC: 1.33042 (Simulation time: 0 hr 7 min 25 sec) 
Heartbeat CPU  0 instructions:  268000000 cycles:  169209807 heartbeat IPC: 1.18956 cumulative IPC: 1.32948 (Simulation time: 0 hr 7 min 27 sec) 
Heartbeat CPU  0 instructions:  269000002 cycles:  169918693 heartbeat IPC: 1.41067 cumulative IPC: 1.32993 (Simulation time: 0 hr 7 min 29 sec) 
Heartbeat CPU  0 instructions:  270000002 cycles:  170594692 heartbeat IPC: 1.47929 cumulative IPC: 1.33072 (Simulation time: 0 hr 7 min 30 sec) 
Heartbeat CPU  0 instructions:  271000000 cycles:  171444534 heartbeat IPC: 1.17669 cumulative IPC: 1.32971 (Simulation time: 0 hr 7 min 32 sec) 
Heartbeat CPU  0 instructions:  272000000 cycles:  172153853 heartbeat IPC: 1.40980 cumulative IPC: 1.33014 (Simulation time: 0 hr 7 min 34 sec) 
Heartbeat CPU  0 instructions:  273000002 cycles:  172829018 heartbeat IPC: 1.48112 cumulative IPC: 1.33093 (Simulation time: 0 hr 7 min 36 sec) 
Heartbeat CPU  0 instructions:  274000002 cycles:  173671077 heartbeat IPC: 1.18757 cumulative IPC: 1.33001 (Simulation time: 0 hr 7 min 38 sec) 
Heartbeat CPU  0 instructions:  275000000 cycles:  174380766 heartbeat IPC: 1.40907 cumulative IPC: 1.33043 (Simulation time: 0 hr 7 min 39 sec) 
Heartbeat CPU  0 instructions:  276000000 cycles:  175056260 heartbeat IPC: 1.48040 cumulative IPC: 1.33120 (Simulation time: 0 hr 7 min 41 sec) 
Heartbeat CPU  0 instructions:  277000003 cycles:  175902373 heartbeat IPC: 1.18188 cumulative IPC: 1.33025 (Simulation time: 0 hr 7 min 43 sec) 
Heartbeat CPU  0 instructions:  278000002 cycles:  176616361 heartbeat IPC: 1.40058 cumulative IPC: 1.33062 (Simulation time: 0 hr 7 min 45 sec) 
Heartbeat CPU  0 instructions:  279000001 cycles:  177289435 heartbeat IPC: 1.48572 cumulative IPC: 1.33140 (Simulation time: 0 hr 7 min 46 sec) 
Heartbeat CPU  0 instructions:  280000000 cycles:  178136138 heartbeat IPC: 1.18105 cumulative IPC: 1.33046 (Simulation time: 0 hr 7 min 48 sec) 
Heartbeat CPU  0 instructions:  281000000 cycles:  178846925 heartbeat IPC: 1.40689 cumulative IPC: 1.33086 (Simulation time: 0 hr 7 min 50 sec) 
Heartbeat CPU  0 instructions:  282000002 cycles:  179521877 heartbeat IPC: 1.48159 cumulative IPC: 1.33160 (Simulation time: 0 hr 7 min 52 sec) 
Heartbeat CPU  0 instructions:  283000002 cycles:  180368292 heartbeat IPC: 1.18145 cumulative IPC: 1.33068 (Simulation time: 0 hr 7 min 53 sec) 
Heartbeat CPU  0 instructions:  284000000 cycles:  181077764 heartbeat IPC: 1.40950 cumulative IPC: 1.33108 (Simulation time: 0 hr 7 min 55 sec) 
Heartbeat CPU  0 instructions:  285000000 cycles:  181753881 heartbeat IPC: 1.47903 cumulative IPC: 1.33180 (Simulation time: 0 hr 7 min 57 sec) 
Heartbeat CPU  0 instructions:  286000000 cycles:  182596561 heartbeat IPC: 1.18669 cumulative IPC: 1.33093 (Simulation time: 0 hr 7 min 59 sec) 
Heartbeat CPU  0 instructions:  287000000 cycles:  183310138 heartbeat IPC: 1.40139 cumulative IPC: 1.33129 (Simulation time: 0 hr 8 min 0 sec) 
Heartbeat CPU  0 instructions:  288000000 cycles:  183985005 heartbeat IPC: 1.48177 cumulative IPC: 1.33201 (Simulation time: 0 hr 8 min 2 sec) 
Heartbeat CPU  0 instructions:  289000003 cycles:  184830948 heartbeat IPC: 1.18212 cumulative IPC: 1.33111 (Simulation time: 0 hr 8 min 4 sec) 
Heartbeat CPU  0 instructions:  290000002 cycles:  185544550 heartbeat IPC: 1.40134 cumulative IPC: 1.33147 (Simulation time: 0 hr 8 min 6 sec) 
Heartbeat CPU  0 instructions:  291000001 cycles:  186213329 heartbeat IPC: 1.49526 cumulative IPC: 1.33223 (Simulation time: 0 hr 8 min 7 sec) 
Heartbeat CPU  0 instructions:  292000000 cycles:  186990897 heartbeat IPC: 1.28606 cumulative IPC: 1.33198 (Simulation time: 0 hr 8 min 9 sec) 
Heartbeat CPU  0 instructions:  293000001 cycles:  187712736 heartbeat IPC: 1.38535 cumulative IPC: 1.33225 (Simulation time: 0 hr 8 min 11 sec) 
Heartbeat CPU  0 instructions:  294000001 cycles:  188402992 heartbeat IPC: 1.44874 cumulative IPC: 1.33280 (Simulation time: 0 hr 8 min 13 sec) 
Heartbeat CPU  0 instructions:  295000002 cycles:  189146557 heartbeat IPC: 1.34487 cumulative IPC: 1.33286 (Simulation time: 0 hr 8 min 14 sec) 
Heartbeat CPU  0 instructions:  296000000 cycles:  189870890 heartbeat IPC: 1.38058 cumulative IPC: 1.33309 (Simulation time: 0 hr 8 min 16 sec) 
Heartbeat CPU  0 instructions:  297000001 cycles:  190571168 heartbeat IPC: 1.42801 cumulative IPC: 1.33354 (Simulation time: 0 hr 8 min 18 sec) 
Heartbeat CPU  0 instructions:  298000000 cycles:  191312398 heartbeat IPC: 1.34911 cumulative IPC: 1.33362 (Simulation time: 0 hr 8 min 20 sec) 
Heartbeat CPU  0 instructions:  299000000 cycles:  192039941 heartbeat IPC: 1.37449 cumulative IPC: 1.33382 (Simulation time: 0 hr 8 min 21 sec) 
Heartbeat CPU  0 instructions:  300000000 cycles:  192745496 heartbeat IPC: 1.41732 cumulative IPC: 1.33421 (Simulation time: 0 hr 8 min 23 sec) 
Heartbeat CPU  0 instructions:  301000003 cycles:  193472122 heartbeat IPC: 1.37623 cumulative IPC: 1.33442 (Simulation time: 0 hr 8 min 25 sec) 
Heartbeat CPU  0 instructions:  302000003 cycles:  194198190 heartbeat IPC: 1.37728 cumulative IPC: 1.33462 (Simulation time: 0 hr 8 min 27 sec) 
Heartbeat CPU  0 instructions:  303000002 cycles:  194912514 heartbeat IPC: 1.39992 cumulative IPC: 1.33493 (Simulation time: 0 hr 8 min 28 sec) 
Heartbeat CPU  0 instructions:  304000000 cycles:  195661577 heartbeat IPC: 1.33500 cumulative IPC: 1.33493 (Simulation time: 0 hr 8 min 30 sec) 
Heartbeat CPU  0 instructions:  305000001 cycles:  196355742 heartbeat IPC: 1.44058 cumulative IPC: 1.33541 (Simulation time: 0 hr 8 min 32 sec) 
Heartbeat CPU  0 instructions:  306000003 cycles:  197070215 heartbeat IPC: 1.39964 cumulative IPC: 1.33571 (Simulation time: 0 hr 8 min 34 sec) 
Heartbeat CPU  0 instructions:  307000000 cycles:  197827381 heartbeat IPC: 1.32071 cumulative IPC: 1.33563 (Simulation time: 0 hr 8 min 35 sec) 
Heartbeat CPU  0 instructions:  308000000 cycles:  198510828 heartbeat IPC: 1.46317 cumulative IPC: 1.33619 (Simulation time: 0 hr 8 min 37 sec) 
Heartbeat CPU  0 instructions:  309000002 cycles:  199246055 heartbeat IPC: 1.36013 cumulative IPC: 1.33630 (Simulation time: 0 hr 8 min 39 sec) 
Heartbeat CPU  0 instructions:  310000000 cycles:  200056892 heartbeat IPC: 1.23329 cumulative IPC: 1.33577 (Simulation time: 0 hr 8 min 41 sec) 
Heartbeat CPU  0 instructions:  311000001 cycles:  200738658 heartbeat IPC: 1.46678 cumulative IPC: 1.33634 (Simulation time: 0 hr 8 min 42 sec) 
Heartbeat CPU  0 instructions:  312000000 cycles:  201475534 heartbeat IPC: 1.35708 cumulative IPC: 1.33644 (Simulation time: 0 hr 8 min 44 sec) 
Heartbeat CPU  0 instructions:  313000002 cycles:  202367921 heartbeat IPC: 1.12059 cumulative IPC: 1.33523 (Simulation time: 0 hr 8 min 46 sec) 
Heartbeat CPU  0 instructions:  314000001 cycles:  203123642 heartbeat IPC: 1.32324 cumulative IPC: 1.33517 (Simulation time: 0 hr 8 min 48 sec) 
Heartbeat CPU  0 instructions:  315000000 cycles:  203847457 heartbeat IPC: 1.38157 cumulative IPC: 1.33538 (Simulation time: 0 hr 8 min 50 sec) 
Heartbeat CPU  0 instructions:  316000000 cycles:  204605678 heartbeat IPC: 1.31888 cumulative IPC: 1.33530 (Simulation time: 0 hr 8 min 51 sec) 
Heartbeat CPU  0 instructions:  317000001 cycles:  205437481 heartbeat IPC: 1.20221 cumulative IPC: 1.33462 (Simulation time: 0 hr 8 min 53 sec) 
Heartbeat CPU  0 instructions:  318000001 cycles:  206331238 heartbeat IPC: 1.11887 cumulative IPC: 1.33344 (Simulation time: 0 hr 8 min 55 sec) 
Heartbeat CPU  0 instructions:  319000003 cycles:  207027793 heartbeat IPC: 1.43564 cumulative IPC: 1.33388 (Simulation time: 0 hr 8 min 57 sec) 
Heartbeat CPU  0 instructions:  320000000 cycles:  207737773 heartbeat IPC: 1.40849 cumulative IPC: 1.33420 (Simulation time: 0 hr 8 min 58 sec) 
Heartbeat CPU  0 instructions:  321000001 cycles:  208576452 heartbeat IPC: 1.19235 cumulative IPC: 1.33348 (Simulation time: 0 hr 9 min 0 sec) 
Heartbeat CPU  0 instructions:  322000003 cycles:  209381390 heartbeat IPC: 1.24233 cumulative IPC: 1.33304 (Simulation time: 0 hr 9 min 2 sec) 
Heartbeat CPU  0 instructions:  323000001 cycles:  210178704 heartbeat IPC: 1.25421 cumulative IPC: 1.33266 (Simulation time: 0 hr 9 min 4 sec) 
Heartbeat CPU  0 instructions:  324000000 cycles:  210904373 heartbeat IPC: 1.37804 cumulative IPC: 1.33286 (Simulation time: 0 hr 9 min 6 sec) 
Heartbeat CPU  0 instructions:  325000000 cycles:  211649741 heartbeat IPC: 1.34162 cumulative IPC: 1.33290 (Simulation time: 0 hr 9 min 7 sec) 
Heartbeat CPU  0 instructions:  326000003 cycles:  212467258 heartbeat IPC: 1.22322 cumulative IPC: 1.33237 (Simulation time: 0 hr 9 min 9 sec) 
Heartbeat CPU  0 instructions:  327000000 cycles:  213213175 heartbeat IPC: 1.34063 cumulative IPC: 1.33241 (Simulation time: 0 hr 9 min 11 sec) 
Heartbeat CPU  0 instructions:  328000000 cycles:  214001345 heartbeat IPC: 1.26876 cumulative IPC: 1.33211 (Simulation time: 0 hr 9 min 13 sec) 
Heartbeat CPU  0 instructions:  329000001 cycles:  214807946 heartbeat IPC: 1.23977 cumulative IPC: 1.33168 (Simulation time: 0 hr 9 min 14 sec) 
Heartbeat CPU  0 instructions:  330000001 cycles:  215474630 heartbeat IPC: 1.49996 cumulative IPC: 1.33233 (Simulation time: 0 hr 9 min 16 sec) 
Heartbeat CPU  0 instructions:  331000000 cycles:  216180409 heartbeat IPC: 1.41687 cumulative IPC: 1.33267 (Simulation time: 0 hr 9 min 18 sec) 
Heartbeat CPU  0 instructions:  332000000 cycles:  216911182 heartbeat IPC: 1.36841 cumulative IPC: 1.33282 (Simulation time: 0 hr 9 min 20 sec) 
Heartbeat CPU  0 instructions:  333000001 cycles:  217693931 heartbeat IPC: 1.27755 cumulative IPC: 1.33258 (Simulation time: 0 hr 9 min 21 sec) 
Heartbeat CPU  0 instructions:  334000002 cycles:  218482431 heartbeat IPC: 1.26823 cumulative IPC: 1.33229 (Simulation time: 0 hr 9 min 23 sec) 
Heartbeat CPU  0 instructions:  335000000 cycles:  219312532 heartbeat IPC: 1.20467 cumulative IPC: 1.33169 (Simulation time: 0 hr 9 min 25 sec) 
Heartbeat CPU  0 instructions:  336000000 cycles:  220040847 heartbeat IPC: 1.37303 cumulative IPC: 1.33186 (Simulation time: 0 hr 9 min 27 sec) 
Heartbeat CPU  0 instructions:  337000002 cycles:  220761313 heartbeat IPC: 1.38799 cumulative IPC: 1.33208 (Simulation time: 0 hr 9 min 28 sec) 
Heartbeat CPU  0 instructions:  338000003 cycles:  221565050 heartbeat IPC: 1.24419 cumulative IPC: 1.33169 (Simulation time: 0 hr 9 min 30 sec) 
Heartbeat CPU  0 instructions:  339000002 cycles:  222311838 heartbeat IPC: 1.33907 cumulative IPC: 1.33172 (Simulation time: 0 hr 9 min 32 sec) 
Heartbeat CPU  0 instructions:  340000000 cycles:  223084885 heartbeat IPC: 1.29358 cumulative IPC: 1.33156 (Simulation time: 0 hr 9 min 34 sec) 
Heartbeat CPU  0 instructions:  341000001 cycles:  223887185 heartbeat IPC: 1.24642 cumulative IPC: 1.33118 (Simulation time: 0 hr 9 min 35 sec) 
Heartbeat CPU  0 instructions:  342000003 cycles:  224564862 heartbeat IPC: 1.47563 cumulative IPC: 1.33172 (Simulation time: 0 hr 9 min 37 sec) 
Heartbeat CPU  0 instructions:  343000003 cycles:  225338459 heartbeat IPC: 1.29266 cumulative IPC: 1.33155 (Simulation time: 0 hr 9 min 39 sec) 
Heartbeat CPU  0 instructions:  344000000 cycles:  226069817 heartbeat IPC: 1.36732 cumulative IPC: 1.33169 (Simulation time: 0 hr 9 min 41 sec) 
Heartbeat CPU  0 instructions:  345000003 cycles:  226741719 heartbeat IPC: 1.48832 cumulative IPC: 1.33227 (Simulation time: 0 hr 9 min 42 sec) 
Heartbeat CPU  0 instructions:  346000000 cycles:  227462144 heartbeat IPC: 1.38807 cumulative IPC: 1.33248 (Simulation time: 0 hr 9 min 44 sec) 
Heartbeat CPU  0 instructions:  347000001 cycles:  228195844 heartbeat IPC: 1.36296 cumulative IPC: 1.33261 (Simulation time: 0 hr 9 min 46 sec) 
Heartbeat CPU  0 instructions:  348000000 cycles:  228933043 heartbeat IPC: 1.35648 cumulative IPC: 1.33270 (Simulation time: 0 hr 9 min 48 sec) 
Heartbeat CPU  0 instructions:  349000003 cycles:  229668464 heartbeat IPC: 1.35977 cumulative IPC: 1.33281 (Simulation time: 0 hr 9 min 49 sec) 
Heartbeat CPU  0 instructions:  350000003 cycles:  230396675 heartbeat IPC: 1.37323 cumulative IPC: 1.33296 (Simulation time: 0 hr 9 min 51 sec) 
Heartbeat CPU  0 instructions:  351000002 cycles:  231190249 heartbeat IPC: 1.26012 cumulative IPC: 1.33266 (Simulation time: 0 hr 9 min 53 sec) 
Heartbeat CPU  0 instructions:  352000000 cycles:  231885818 heartbeat IPC: 1.43767 cumulative IPC: 1.33304 (Simulation time: 0 hr 9 min 55 sec) 
Heartbeat CPU  0 instructions:  353000003 cycles:  232635194 heartbeat IPC: 1.33445 cumulative IPC: 1.33305 (Simulation time: 0 hr 9 min 56 sec) 
Heartbeat CPU  0 instructions:  354000002 cycles:  233328663 heartbeat IPC: 1.44202 cumulative IPC: 1.33344 (Simulation time: 0 hr 9 min 58 sec) 
Heartbeat CPU  0 instructions:  355000002 cycles:  234053086 heartbeat IPC: 1.38041 cumulative IPC: 1.33362 (Simulation time: 0 hr 10 min 0 sec) 
Heartbeat CPU  0 instructions:  356000000 cycles:  234826254 heartbeat IPC: 1.29338 cumulative IPC: 1.33346 (Simulation time: 0 hr 10 min 2 sec) 
Heartbeat CPU  0 instructions:  357000002 cycles:  235600092 heartbeat IPC: 1.29226 cumulative IPC: 1.33330 (Simulation time: 0 hr 10 min 3 sec) 
Heartbeat CPU  0 instructions:  358000002 cycles:  236303059 heartbeat IPC: 1.42254 cumulative IPC: 1.33362 (Simulation time: 0 hr 10 min 5 sec) 
Heartbeat CPU  0 instructions:  359000002 cycles:  237020254 heartbeat IPC: 1.39432 cumulative IPC: 1.33384 (Simulation time: 0 hr 10 min 7 sec) 
Heartbeat CPU  0 instructions:  360000000 cycles:  237717167 heartbeat IPC: 1.43490 cumulative IPC: 1.33421 (Simulation time: 0 hr 10 min 9 sec) 
Heartbeat CPU  0 instructions:  361000000 cycles:  238410439 heartbeat IPC: 1.44244 cumulative IPC: 1.33459 (Simulation time: 0 hr 10 min 10 sec) 
Heartbeat CPU  0 instructions:  362000003 cycles:  239148526 heartbeat IPC: 1.35486 cumulative IPC: 1.33467 (Simulation time: 0 hr 10 min 12 sec) 
Heartbeat CPU  0 instructions:  363000000 cycles:  239877096 heartbeat IPC: 1.37255 cumulative IPC: 1.33481 (Simulation time: 0 hr 10 min 14 sec) 
Heartbeat CPU  0 instructions:  364000000 cycles:  240598986 heartbeat IPC: 1.38525 cumulative IPC: 1.33499 (Simulation time: 0 hr 10 min 16 sec) 
Heartbeat CPU  0 instructions:  365000001 cycles:  241332269 heartbeat IPC: 1.36373 cumulative IPC: 1.33510 (Simulation time: 0 hr 10 min 17 sec) 
Heartbeat CPU  0 instructions:  366000003 cycles:  242142444 heartbeat IPC: 1.23430 cumulative IPC: 1.33469 (Simulation time: 0 hr 10 min 19 sec) 
Heartbeat CPU  0 instructions:  367000001 cycles:  242893105 heartbeat IPC: 1.33216 cumulative IPC: 1.33468 (Simulation time: 0 hr 10 min 21 sec) 
Heartbeat CPU  0 instructions:  368000000 cycles:  243701055 heartbeat IPC: 1.23770 cumulative IPC: 1.33429 (Simulation time: 0 hr 10 min 23 sec) 
Heartbeat CPU  0 instructions:  369000000 cycles:  244437170 heartbeat IPC: 1.35848 cumulative IPC: 1.33437 (Simulation time: 0 hr 10 min 24 sec) 
Heartbeat CPU  0 instructions:  370000001 cycles:  245116670 heartbeat IPC: 1.47167 cumulative IPC: 1.33484 (Simulation time: 0 hr 10 min 26 sec) 
Heartbeat CPU  0 instructions:  371000001 cycles:  245857909 heartbeat IPC: 1.34909 cumulative IPC: 1.33489 (Simulation time: 0 hr 10 min 28 sec) 
Heartbeat CPU  0 instructions:  372000000 cycles:  246637844 heartbeat IPC: 1.28216 cumulative IPC: 1.33469 (Simulation time: 0 hr 10 min 30 sec) 
Heartbeat CPU  0 instructions:  373000000 cycles:  247373638 heartbeat IPC: 1.35908 cumulative IPC: 1.33477 (Simulation time: 0 hr 10 min 31 sec) 
Heartbeat CPU  0 instructions:  374000002 cycles:  248139497 heartbeat IPC: 1.30573 cumulative IPC: 1.33467 (Simulation time: 0 hr 10 min 33 sec) 
Heartbeat CPU  0 instructions:  375000000 cycles:  248874549 heartbeat IPC: 1.36045 cumulative IPC: 1.33476 (Simulation time: 0 hr 10 min 35 sec) 
Heartbeat CPU  0 instructions:  376000000 cycles:  249622289 heartbeat IPC: 1.33736 cumulative IPC: 1.33477 (Simulation time: 0 hr 10 min 37 sec) 
Heartbeat CPU  0 instructions:  377000001 cycles:  250340315 heartbeat IPC: 1.39271 cumulative IPC: 1.33497 (Simulation time: 0 hr 10 min 38 sec) 
Heartbeat CPU  0 instructions:  378000003 cycles:  251139741 heartbeat IPC: 1.25090 cumulative IPC: 1.33464 (Simulation time: 0 hr 10 min 40 sec) 
Heartbeat CPU  0 instructions:  379000002 cycles:  251844535 heartbeat IPC: 1.41885 cumulative IPC: 1.33493 (Simulation time: 0 hr 10 min 42 sec) 
Heartbeat CPU  0 instructions:  380000000 cycles:  252586098 heartbeat IPC: 1.34850 cumulative IPC: 1.33498 (Simulation time: 0 hr 10 min 44 sec) 
Heartbeat CPU  0 instructions:  381000000 cycles:  253364941 heartbeat IPC: 1.28396 cumulative IPC: 1.33479 (Simulation time: 0 hr 10 min 45 sec) 
Heartbeat CPU  0 instructions:  382000001 cycles:  254059232 heartbeat IPC: 1.44032 cumulative IPC: 1.33513 (Simulation time: 0 hr 10 min 47 sec) 
Heartbeat CPU  0 instructions:  383000002 cycles:  254770399 heartbeat IPC: 1.40614 cumulative IPC: 1.33537 (Simulation time: 0 hr 10 min 49 sec) 
Heartbeat CPU  0 instructions:  384000000 cycles:  255481762 heartbeat IPC: 1.40575 cumulative IPC: 1.33561 (Simulation time: 0 hr 10 min 51 sec) 
Heartbeat CPU  0 instructions:  385000001 cycles:  256271668 heartbeat IPC: 1.26597 cumulative IPC: 1.33535 (Simulation time: 0 hr 10 min 52 sec) 
Heartbeat CPU  0 instructions:  386000003 cycles:  257027940 heartbeat IPC: 1.32228 cumulative IPC: 1.33530 (Simulation time: 0 hr 10 min 54 sec) 
Heartbeat CPU  0 instructions:  387000002 cycles:  257752276 heartbeat IPC: 1.38057 cumulative IPC: 1.33546 (Simulation time: 0 hr 10 min 56 sec) 
Heartbeat CPU  0 instructions:  388000000 cycles:  258484439 heartbeat IPC: 1.36581 cumulative IPC: 1.33556 (Simulation time: 0 hr 10 min 58 sec) 
Heartbeat CPU  0 instructions:  389000000 cycles:  259147680 heartbeat IPC: 1.50775 cumulative IPC: 1.33609 (Simulation time: 0 hr 10 min 59 sec) 
Heartbeat CPU  0 instructions:  390000003 cycles:  259849845 heartbeat IPC: 1.42417 cumulative IPC: 1.33637 (Simulation time: 0 hr 11 min 1 sec) 
Heartbeat CPU  0 instructions:  391000000 cycles:  260591404 heartbeat IPC: 1.34851 cumulative IPC: 1.33641 (Simulation time: 0 hr 11 min 3 sec) 
Heartbeat CPU  0 instructions:  392000000 cycles:  261316899 heartbeat IPC: 1.37837 cumulative IPC: 1.33655 (Simulation time: 0 hr 11 min 5 sec) 
Heartbeat CPU  0 instructions:  393000000 cycles:  262005280 heartbeat IPC: 1.45268 cumulative IPC: 1.33692 (Simulation time: 0 hr 11 min 6 sec) 
Heartbeat CPU  0 instructions:  394000000 cycles:  262745478 heartbeat IPC: 1.35099 cumulative IPC: 1.33697 (Simulation time: 0 hr 11 min 8 sec) 
Heartbeat CPU  0 instructions:  395000000 cycles:  263526718 heartbeat IPC: 1.28002 cumulative IPC: 1.33676 (Simulation time: 0 hr 11 min 10 sec) 
Heartbeat CPU  0 instructions:  396000000 cycles:  264273057 heartbeat IPC: 1.33987 cumulative IPC: 1.33677 (Simulation time: 0 hr 11 min 12 sec) 
Heartbeat CPU  0 instructions:  397000000 cycles:  265122375 heartbeat IPC: 1.17742 cumulative IPC: 1.33617 (Simulation time: 0 hr 11 min 13 sec) 
Heartbeat CPU  0 instructions:  398000000 cycles:  265826189 heartbeat IPC: 1.42083 cumulative IPC: 1.33643 (Simulation time: 0 hr 11 min 15 sec) 
Heartbeat CPU  0 instructions:  399000003 cycles:  266574170 heartbeat IPC: 1.33694 cumulative IPC: 1.33643 (Simulation time: 0 hr 11 min 17 sec) 
Heartbeat CPU  0 instructions:  400000000 cycles:  267298432 heartbeat IPC: 1.38071 cumulative IPC: 1.33658 (Simulation time: 0 hr 11 min 19 sec) 
Heartbeat CPU  0 instructions:  401000001 cycles:  268034785 heartbeat IPC: 1.35805 cumulative IPC: 1.33665 (Simulation time: 0 hr 11 min 20 sec) 
Heartbeat CPU  0 instructions:  402000003 cycles:  268764227 heartbeat IPC: 1.37091 cumulative IPC: 1.33676 (Simulation time: 0 hr 11 min 22 sec) 
Heartbeat CPU  0 instructions:  403000002 cycles:  269529745 heartbeat IPC: 1.30630 cumulative IPC: 1.33666 (Simulation time: 0 hr 11 min 24 sec) 
Heartbeat CPU  0 instructions:  404000000 cycles:  270307225 heartbeat IPC: 1.28620 cumulative IPC: 1.33648 (Simulation time: 0 hr 11 min 26 sec) 
Heartbeat CPU  0 instructions:  405000002 cycles:  271006058 heartbeat IPC: 1.43096 cumulative IPC: 1.33677 (Simulation time: 0 hr 11 min 27 sec) 
Heartbeat CPU  0 instructions:  406000000 cycles:  271759749 heartbeat IPC: 1.32680 cumulative IPC: 1.33674 (Simulation time: 0 hr 11 min 29 sec) 
Heartbeat CPU  0 instructions:  407000000 cycles:  272495083 heartbeat IPC: 1.35993 cumulative IPC: 1.33681 (Simulation time: 0 hr 11 min 31 sec) 
Heartbeat CPU  0 instructions:  408000000 cycles:  273199363 heartbeat IPC: 1.41989 cumulative IPC: 1.33707 (Simulation time: 0 hr 11 min 33 sec) 
Heartbeat CPU  0 instructions:  409000003 cycles:  273994945 heartbeat IPC: 1.25695 cumulative IPC: 1.33679 (Simulation time: 0 hr 11 min 34 sec) 
Heartbeat CPU  0 instructions:  410000000 cycles:  274715380 heartbeat IPC: 1.38805 cumulative IPC: 1.33695 (Simulation time: 0 hr 11 min 36 sec) 
Heartbeat CPU  0 instructions:  411000003 cycles:  275443108 heartbeat IPC: 1.37414 cumulative IPC: 1.33707 (Simulation time: 0 hr 11 min 38 sec) 
Heartbeat CPU  0 instructions:  412000000 cycles:  276333748 heartbeat IPC: 1.12278 cumulative IPC: 1.33625 (Simulation time: 0 hr 11 min 40 sec) 
Heartbeat CPU  0 instructions:  413000002 cycles:  277997697 heartbeat IPC: 0.60098 cumulative IPC: 1.33105 (Simulation time: 0 hr 11 min 42 sec) 
Heartbeat CPU  0 instructions:  414000001 cycles:  299269969 heartbeat IPC: 0.04701 cumulative IPC: 1.22453 (Simulation time: 0 hr 11 min 53 sec) 
Heartbeat CPU  0 instructions:  415000002 cycles:  305748182 heartbeat IPC: 0.15436 cumulative IPC: 1.19816 (Simulation time: 0 hr 11 min 57 sec) 
Heartbeat CPU  0 instructions:  416000000 cycles:  310681297 heartbeat IPC: 0.20271 cumulative IPC: 1.17982 (Simulation time: 0 hr 12 min 1 sec) 
Heartbeat CPU  0 instructions:  417000001 cycles:  316251605 heartbeat IPC: 0.17952 cumulative IPC: 1.15944 (Simulation time: 0 hr 12 min 4 sec) 
Heartbeat CPU  0 instructions:  418000003 cycles:  337948391 heartbeat IPC: 0.04609 cumulative IPC: 1.07759 (Simulation time: 0 hr 12 min 15 sec) 
Heartbeat CPU  0 instructions:  419000001 cycles:  359671409 heartbeat IPC: 0.04603 cumulative IPC: 1.00686 (Simulation time: 0 hr 12 min 25 sec) 
Heartbeat CPU  0 instructions:  420000000 cycles:  370075896 heartbeat IPC: 0.09611 cumulative IPC: 0.97790 (Simulation time: 0 hr 12 min 29 sec) 
Heartbeat CPU  0 instructions:  421000003 cycles:  379461711 heartbeat IPC: 0.10654 cumulative IPC: 0.95361 (Simulation time: 0 hr 12 min 33 sec) 
Heartbeat CPU  0 instructions:  422000001 cycles:  388159559 heartbeat IPC: 0.11497 cumulative IPC: 0.93248 (Simulation time: 0 hr 12 min 36 sec) 
Heartbeat CPU  0 instructions:  423000000 cycles:  396394750 heartbeat IPC: 0.12143 cumulative IPC: 0.91359 (Simulation time: 0 hr 12 min 40 sec) 
Heartbeat CPU  0 instructions:  424000000 cycles:  416137530 heartbeat IPC: 0.05065 cumulative IPC: 0.86795 (Simulation time: 0 hr 12 min 50 sec) 
Heartbeat CPU  0 instructions:  425000002 cycles:  428759546 heartbeat IPC: 0.07923 cumulative IPC: 0.84215 (Simulation time: 0 hr 12 min 56 sec) 
Heartbeat CPU  0 instructions:  426000002 cycles:  437515996 heartbeat IPC: 0.11420 cumulative IPC: 0.82600 (Simulation time: 0 hr 13 min 1 sec) 
Heartbeat CPU  0 instructions:  427000000 cycles:  446196691 heartbeat IPC: 0.11520 cumulative IPC: 0.81071 (Simulation time: 0 hr 13 min 6 sec) 
Heartbeat CPU  0 instructions:  428000000 cycles:  456071772 heartbeat IPC: 0.10126 cumulative IPC: 0.79375 (Simulation time: 0 hr 13 min 11 sec) 
Heartbeat CPU  0 instructions:  429000001 cycles:  466329223 heartbeat IPC: 0.09749 cumulative IPC: 0.77689 (Simulation time: 0 hr 13 min 16 sec) 
Heartbeat CPU  0 instructions:  430000001 cycles:  476805744 heartbeat IPC: 0.09545 cumulative IPC: 0.76044 (Simulation time: 0 hr 13 min 22 sec) 
Heartbeat CPU  0 instructions:  431000000 cycles:  496466482 heartbeat IPC: 0.05086 cumulative IPC: 0.72968 (Simulation time: 0 hr 13 min 30 sec) 
Heartbeat CPU  0 instructions:  432000000 cycles:  517179708 heartbeat IPC: 0.04828 cumulative IPC: 0.69993 (Simulation time: 0 hr 13 min 40 sec) 
Heartbeat CPU  0 instructions:  433000000 cycles:  538374410 heartbeat IPC: 0.04718 cumulative IPC: 0.67201 (Simulation time: 0 hr 13 min 50 sec) 
Heartbeat CPU  0 instructions:  434000001 cycles:  548725547 heartbeat IPC: 0.09661 cumulative IPC: 0.66023 (Simulation time: 0 hr 13 min 54 sec) 
Heartbeat CPU  0 instructions:  435000003 cycles:  558254842 heartbeat IPC: 0.10494 cumulative IPC: 0.64997 (Simulation time: 0 hr 13 min 58 sec) 
Heartbeat CPU  0 instructions:  436000000 cycles:  567259285 heartbeat IPC: 0.11106 cumulative IPC: 0.64071 (Simulation time: 0 hr 14 min 2 sec) 
Heartbeat CPU  0 instructions:  437000002 cycles:  574919572 heartbeat IPC: 0.13054 cumulative IPC: 0.63337 (Simulation time: 0 hr 14 min 6 sec) 
Heartbeat CPU  0 instructions:  438000001 cycles:  593167810 heartbeat IPC: 0.05480 cumulative IPC: 0.61418 (Simulation time: 0 hr 14 min 15 sec) 
Heartbeat CPU  0 instructions:  439000000 cycles:  608431627 heartbeat IPC: 0.06551 cumulative IPC: 0.59938 (Simulation time: 0 hr 14 min 22 sec) 
Heartbeat CPU  0 instructions:  440000000 cycles:  618420473 heartbeat IPC: 0.10011 cumulative IPC: 0.59071 (Simulation time: 0 hr 14 min 28 sec) 
Heartbeat CPU  0 instructions:  441000000 cycles:  628169453 heartbeat IPC: 0.10257 cumulative IPC: 0.58258 (Simulation time: 0 hr 14 min 33 sec) 
Heartbeat CPU  0 instructions:  442000000 cycles:  638207759 heartbeat IPC: 0.09962 cumulative IPC: 0.57444 (Simulation time: 0 hr 14 min 38 sec) 
Heartbeat CPU  0 instructions:  443000001 cycles:  648395403 heartbeat IPC: 0.09816 cumulative IPC: 0.56643 (Simulation time: 0 hr 14 min 43 sec) 
Heartbeat CPU  0 instructions:  444000000 cycles:  658793640 heartbeat IPC: 0.09617 cumulative IPC: 0.55849 (Simulation time: 0 hr 14 min 49 sec) 
Heartbeat CPU  0 instructions:  445000002 cycles:  669371773 heartbeat IPC: 0.09453 cumulative IPC: 0.55065 (Simulation time: 0 hr 14 min 54 sec) 
Heartbeat CPU  0 instructions:  446000003 cycles:  694533520 heartbeat IPC: 0.03974 cumulative IPC: 0.53093 (Simulation time: 0 hr 15 min 5 sec) 
Heartbeat CPU  0 instructions:  447000000 cycles:  719755767 heartbeat IPC: 0.03965 cumulative IPC: 0.51262 (Simulation time: 0 hr 15 min 18 sec) 
Heartbeat CPU  0 instructions:  448000000 cycles:  731208284 heartbeat IPC: 0.08732 cumulative IPC: 0.50555 (Simulation time: 0 hr 15 min 22 sec) 
Heartbeat CPU  0 instructions:  449000001 cycles:  740829938 heartbeat IPC: 0.10393 cumulative IPC: 0.50001 (Simulation time: 0 hr 15 min 26 sec) 
Heartbeat CPU  0 instructions:  450000000 cycles:  750100369 heartbeat IPC: 0.10787 cumulative IPC: 0.49487 (Simulation time: 0 hr 15 min 30 sec) 
Heartbeat CPU  0 instructions:  451000000 cycles:  757998293 heartbeat IPC: 0.12662 cumulative IPC: 0.49080 (Simulation time: 0 hr 15 min 34 sec) 
Heartbeat CPU  0 instructions:  452000000 cycles:  772002015 heartbeat IPC: 0.07141 cumulative IPC: 0.48275 (Simulation time: 0 hr 15 min 40 sec) 
Heartbeat CPU  0 instructions:  453000001 cycles:  790603015 heartbeat IPC: 0.05376 cumulative IPC: 0.47208 (Simulation time: 0 hr 15 min 50 sec) 
Heartbeat CPU  0 instructions:  454000000 cycles:  800679336 heartbeat IPC: 0.09924 cumulative IPC: 0.46712 (Simulation time: 0 hr 15 min 55 sec) 
Heartbeat CPU  0 instructions:  455000001 cycles:  810431805 heartbeat IPC: 0.10254 cumulative IPC: 0.46249 (Simulation time: 0 hr 16 min 0 sec) 
Heartbeat CPU  0 instructions:  456000000 cycles:  820353190 heartbeat IPC: 0.10079 cumulative IPC: 0.45787 (Simulation time: 0 hr 16 min 5 sec) 
Heartbeat CPU  0 instructions:  457000002 cycles:  830566351 heartbeat IPC: 0.09791 cumulative IPC: 0.45321 (Simulation time: 0 hr 16 min 11 sec) 
Heartbeat CPU  0 instructions:  458000000 cycles:  840779529 heartbeat IPC: 0.09791 cumulative IPC: 0.44866 (Simulation time: 0 hr 16 min 16 sec) 
Heartbeat CPU  0 instructions:  459000001 cycles:  851162338 heartbeat IPC: 0.09631 cumulative IPC: 0.44413 (Simulation time: 0 hr 16 min 21 sec) 
Heartbeat CPU  0 instructions:  460000000 cycles:  872884732 heartbeat IPC: 0.04604 cumulative IPC: 0.43371 (Simulation time: 0 hr 16 min 31 sec) 
Heartbeat CPU  0 instructions:  461000002 cycles:  898605364 heartbeat IPC: 0.03888 cumulative IPC: 0.42185 (Simulation time: 0 hr 16 min 44 sec) 
Heartbeat CPU  0 instructions:  462000000 cycles:  913283284 heartbeat IPC: 0.06813 cumulative IPC: 0.41588 (Simulation time: 0 hr 16 min 50 sec) 
Heartbeat CPU  0 instructions:  463000000 cycles:  923175625 heartbeat IPC: 0.10109 cumulative IPC: 0.41234 (Simulation time: 0 hr 16 min 54 sec) 
Heartbeat CPU  0 instructions:  464000000 cycles:  932443533 heartbeat IPC: 0.10790 cumulative IPC: 0.40917 (Simulation time: 0 hr 16 min 58 sec) 
Heartbeat CPU  0 instructions:  465000000 cycles:  940780213 heartbeat IPC: 0.11995 cumulative IPC: 0.40649 (Simulation time: 0 hr 17 min 2 sec) 
Heartbeat CPU  0 instructions:  466000000 cycles:  950885123 heartbeat IPC: 0.09896 cumulative IPC: 0.40307 (Simulation time: 0 hr 17 min 6 sec) 
Heartbeat CPU  0 instructions:  467000000 cycles:  972638417 heartbeat IPC: 0.04597 cumulative IPC: 0.39471 (Simulation time: 0 hr 17 min 17 sec) 
Heartbeat CPU  0 instructions:  468000000 cycles:  982777886 heartbeat IPC: 0.09862 cumulative IPC: 0.39152 (Simulation time: 0 hr 17 min 23 sec) 
Heartbeat CPU  0 instructions:  469000000 cycles:  992601174 heartbeat IPC: 0.10180 cumulative IPC: 0.38852 (Simulation time: 0 hr 17 min 28 sec) 
Heartbeat CPU  0 instructions:  470000002 cycles: 1002412195 heartbeat IPC: 0.10193 cumulative IPC: 0.38559 (Simulation time: 0 hr 17 min 33 sec) 
Heartbeat CPU  0 instructions:  471000000 cycles: 1012518430 heartbeat IPC: 0.09895 cumulative IPC: 0.38260 (Simulation time: 0 hr 17 min 38 sec) 
Heartbeat CPU  0 instructions:  472000000 cycles: 1022807787 heartbeat IPC: 0.09719 cumulative IPC: 0.37961 (Simulation time: 0 hr 17 min 44 sec) 
Heartbeat CPU  0 instructions:  473000002 cycles: 1033312154 heartbeat IPC: 0.09520 cumulative IPC: 0.37659 (Simulation time: 0 hr 17 min 49 sec) 
Heartbeat CPU  0 instructions:  474000000 cycles: 1052033376 heartbeat IPC: 0.05342 cumulative IPC: 0.37059 (Simulation time: 0 hr 17 min 57 sec) 
Heartbeat CPU  0 instructions:  475000002 cycles: 1076036191 heartbeat IPC: 0.04166 cumulative IPC: 0.36295 (Simulation time: 0 hr 18 min 9 sec) 
Heartbeat CPU  0 instructions:  476000000 cycles: 1095196439 heartbeat IPC: 0.05219 cumulative IPC: 0.35729 (Simulation time: 0 hr 18 min 18 sec) 
Heartbeat CPU  0 instructions:  477000000 cycles: 1105155584 heartbeat IPC: 0.10041 cumulative IPC: 0.35489 (Simulation time: 0 hr 18 min 22 sec) 
Heartbeat CPU  0 instructions:  478000002 cycles: 1114543157 heartbeat IPC: 0.10652 cumulative IPC: 0.35271 (Simulation time: 0 hr 18 min 26 sec) 
Heartbeat CPU  0 instructions:  479000000 cycles: 1123361893 heartbeat IPC: 0.11339 cumulative IPC: 0.35076 (Simulation time: 0 hr 18 min 30 sec) 
Heartbeat CPU  0 instructions:  480000000 cycles: 1131310072 heartbeat IPC: 0.12581 cumulative IPC: 0.34912 (Simulation time: 0 hr 18 min 33 sec) 
Heartbeat CPU  0 instructions:  481000000 cycles: 1153969750 heartbeat IPC: 0.04413 cumulative IPC: 0.34290 (Simulation time: 0 hr 18 min 45 sec) 
Heartbeat CPU  0 instructions:  482000000 cycles: 1164650874 heartbeat IPC: 0.09362 cumulative IPC: 0.34052 (Simulation time: 0 hr 18 min 50 sec) 
Heartbeat CPU  0 instructions:  483000000 cycles: 1174535199 heartbeat IPC: 0.10117 cumulative IPC: 0.33843 (Simulation time: 0 hr 18 min 55 sec) 
Heartbeat CPU  0 instructions:  484000000 cycles: 1184253238 heartbeat IPC: 0.10290 cumulative IPC: 0.33643 (Simulation time: 0 hr 19 min 1 sec) 
Heartbeat CPU  0 instructions:  485000002 cycles: 1194346506 heartbeat IPC: 0.09908 cumulative IPC: 0.33435 (Simulation time: 0 hr 19 min 6 sec) 
Heartbeat CPU  0 instructions:  486000003 cycles: 1204577014 heartbeat IPC: 0.09775 cumulative IPC: 0.33226 (Simulation time: 0 hr 19 min 11 sec) 
Heartbeat CPU  0 instructions:  487000000 cycles: 1214955118 heartbeat IPC: 0.09636 cumulative IPC: 0.33017 (Simulation time: 0 hr 19 min 16 sec) 
Heartbeat CPU  0 instructions:  488000000 cycles: 1229507728 heartbeat IPC: 0.06872 cumulative IPC: 0.32697 (Simulation time: 0 hr 19 min 23 sec) 
Heartbeat CPU  0 instructions:  489000000 cycles: 1253827293 heartbeat IPC: 0.04112 cumulative IPC: 0.32123 (Simulation time: 0 hr 19 min 35 sec) 
Heartbeat CPU  0 instructions:  490000003 cycles: 1276657864 heartbeat IPC: 0.04380 cumulative IPC: 0.31609 (Simulation time: 0 hr 19 min 46 sec) 
Heartbeat CPU  0 instructions:  491000003 cycles: 1287016932 heartbeat IPC: 0.09653 cumulative IPC: 0.31427 (Simulation time: 0 hr 19 min 50 sec) 
Heartbeat CPU  0 instructions:  492000000 cycles: 1296622460 heartbeat IPC: 0.10411 cumulative IPC: 0.31266 (Simulation time: 0 hr 19 min 54 sec) 
Heartbeat CPU  0 instructions:  493000002 cycles: 1305701904 heartbeat IPC: 0.11014 cumulative IPC: 0.31120 (Simulation time: 0 hr 19 min 57 sec) 
Heartbeat CPU  0 instructions:  494000001 cycles: 1313378976 heartbeat IPC: 0.13026 cumulative IPC: 0.31011 (Simulation time: 0 hr 20 min 1 sec) 
Heartbeat CPU  0 instructions:  495000001 cycles: 1330688738 heartbeat IPC: 0.05777 cumulative IPC: 0.30671 (Simulation time: 0 hr 20 min 10 sec) 
Heartbeat CPU  0 instructions:  496000000 cycles: 1346486329 heartbeat IPC: 0.06330 cumulative IPC: 0.30376 (Simulation time: 0 hr 20 min 18 sec) 
Heartbeat CPU  0 instructions:  497000000 cycles: 1356451323 heartbeat IPC: 0.10035 cumulative IPC: 0.30222 (Simulation time: 0 hr 20 min 23 sec) 
Heartbeat CPU  0 instructions:  498000001 cycles: 1366159865 heartbeat IPC: 0.10300 cumulative IPC: 0.30076 (Simulation time: 0 hr 20 min 28 sec) 
Heartbeat CPU  0 instructions:  499000000 cycles: 1376210127 heartbeat IPC: 0.09950 cumulative IPC: 0.29924 (Simulation time: 0 hr 20 min 33 sec) 
Heartbeat CPU  0 instructions:  500000000 cycles: 1386373028 heartbeat IPC: 0.09840 cumulative IPC: 0.29772 (Simulation time: 0 hr 20 min 39 sec) 
Heartbeat CPU  0 instructions:  501000000 cycles: 1396669908 heartbeat IPC: 0.09712 cumulative IPC: 0.29620 (Simulation time: 0 hr 20 min 44 sec) 
Heartbeat CPU  0 instructions:  502000002 cycles: 1407169383 heartbeat IPC: 0.09524 cumulative IPC: 0.29465 (Simulation time: 0 hr 20 min 49 sec) 
Heartbeat CPU  0 instructions:  503000003 cycles: 1431298868 heartbeat IPC: 0.04144 cumulative IPC: 0.29025 (Simulation time: 0 hr 21 min 0 sec) 
Heartbeat CPU  0 instructions:  504000000 cycles: 1456830386 heartbeat IPC: 0.03917 cumulative IPC: 0.28572 (Simulation time: 0 hr 21 min 13 sec) 
Heartbeat CPU  0 instructions:  505000002 cycles: 1468913761 heartbeat IPC: 0.08276 cumulative IPC: 0.28400 (Simulation time: 0 hr 21 min 18 sec) 
Heartbeat CPU  0 instructions:  506000001 cycles: 1478633863 heartbeat IPC: 0.10288 cumulative IPC: 0.28277 (Simulation time: 0 hr 21 min 21 sec) 
Heartbeat CPU  0 instructions:  507000000 cycles: 1487876595 heartbeat IPC: 0.10819 cumulative IPC: 0.28165 (Simulation time: 0 hr 21 min 25 sec) 
Heartbeat CPU  0 instructions:  508000000 cycles: 1495864974 heartbeat IPC: 0.12518 cumulative IPC: 0.28079 (Simulation time: 0 hr 21 min 29 sec) 
Heartbeat CPU  0 instructions:  509000002 cycles: 1508914755 heartbeat IPC: 0.07663 cumulative IPC: 0.27898 (Simulation time: 0 hr 21 min 35 sec) 
Heartbeat CPU  0 instructions:  510000001 cycles: 1528177828 heartbeat IPC: 0.05191 cumulative IPC: 0.27603 (Simulation time: 0 hr 21 min 45 sec) 
Heartbeat CPU  0 instructions:  511000001 cycles: 1538271068 heartbeat IPC: 0.09908 cumulative IPC: 0.27484 (Simulation time: 0 hr 21 min 50 sec) 
Heartbeat CPU  0 instructions:  512000000 cycles: 1547966524 heartbeat IPC: 0.10314 cumulative IPC: 0.27373 (Simulation time: 0 hr 21 min 55 sec) 
Heartbeat CPU  0 instructions:  513000003 cycles: 1557896372 heartbeat IPC: 0.10071 cumulative IPC: 0.27260 (Simulation time: 0 hr 22 min 1 sec) 
Heartbeat CPU  0 instructions:  514000002 cycles: 1568066565 heartbeat IPC: 0.09833 cumulative IPC: 0.27144 (Simulation time: 0 hr 22 min 6 sec) 
Heartbeat CPU  0 instructions:  515000001 cycles: 1578223255 heartbeat IPC: 0.09846 cumulative IPC: 0.27029 (Simulation time: 0 hr 22 min 11 sec) 
Heartbeat CPU  0 instructions:  516000000 cycles: 1588703559 heartbeat IPC: 0.09542 cumulative IPC: 0.26911 (Simulation time: 0 hr 22 min 17 sec) 
Heartbeat CPU  0 instructions:  517000000 cycles: 1609058224 heartbeat IPC: 0.04913 cumulative IPC: 0.26625 (Simulation time: 0 hr 22 min 25 sec) 
Heartbeat CPU  0 instructions:  518000002 cycles: 1634605140 heartbeat IPC: 0.03914 cumulative IPC: 0.26260 (Simulation time: 0 hr 22 min 38 sec) 
Heartbeat CPU  0 instructions:  519000001 cycles: 1650616732 heartbeat IPC: 0.06245 cumulative IPC: 0.26061 (Simulation time: 0 hr 22 min 45 sec) 
Heartbeat CPU  0 instructions:  520000000 cycles: 1660494587 heartbeat IPC: 0.10124 cumulative IPC: 0.25964 (Simulation time: 0 hr 22 min 49 sec) 
Heartbeat CPU  0 instructions:  521000001 cycles: 1669843380 heartbeat IPC: 0.10697 cumulative IPC: 0.25876 (Simulation time: 0 hr 22 min 53 sec) 
Heartbeat CPU  0 instructions:  522000001 cycles: 1678284747 heartbeat IPC: 0.11846 cumulative IPC: 0.25803 (Simulation time: 0 hr 22 min 57 sec) 
Heartbeat CPU  0 instructions:  523000000 cycles: 1687282104 heartbeat IPC: 0.11114 cumulative IPC: 0.25723 (Simulation time: 0 hr 23 min 1 sec) 
Heartbeat CPU  0 instructions:  524000000 cycles: 1709889284 heartbeat IPC: 0.04423 cumulative IPC: 0.25434 (Simulation time: 0 hr 23 min 12 sec) 
Heartbeat CPU  0 instructions:  525000000 cycles: 1720058999 heartbeat IPC: 0.09833 cumulative IPC: 0.25340 (Simulation time: 0 hr 23 min 18 sec) 
Heartbeat CPU  0 instructions:  526000000 cycles: 1729891029 heartbeat IPC: 0.10171 cumulative IPC: 0.25251 (Simulation time: 0 hr 23 min 23 sec) 
Heartbeat CPU  0 instructions:  527000000 cycles: 1739641250 heartbeat IPC: 0.10256 cumulative IPC: 0.25165 (Simulation time: 0 hr 23 min 28 sec) 
Heartbeat CPU  0 instructions:  528000000 cycles: 1749735886 heartbeat IPC: 0.09906 cumulative IPC: 0.25075 (Simulation time: 0 hr 23 min 33 sec) 
Heartbeat CPU  0 instructions:  529000001 cycles: 1760005359 heartbeat IPC: 0.09738 cumulative IPC: 0.24983 (Simulation time: 0 hr 23 min 39 sec) 
Heartbeat CPU  0 instructions:  530000001 cycles: 1770476852 heartbeat IPC: 0.09550 cumulative IPC: 0.24890 (Simulation time: 0 hr 23 min 44 sec) 
Heartbeat CPU  0 instructions:  531000000 cycles: 1789077533 heartbeat IPC: 0.05376 cumulative IPC: 0.24682 (Simulation time: 0 hr 23 min 52 sec) 
Heartbeat CPU  0 instructions:  532000000 cycles: 1812233554 heartbeat IPC: 0.04319 cumulative IPC: 0.24415 (Simulation time: 0 hr 24 min 4 sec) 
Heartbeat CPU  0 instructions:  533000000 cycles: 1832341838 heartbeat IPC: 0.04973 cumulative IPC: 0.24197 (Simulation time: 0 hr 24 min 13 sec) 
Heartbeat CPU  0 instructions:  534000000 cycles: 1842388871 heartbeat IPC: 0.09953 cumulative IPC: 0.24117 (Simulation time: 0 hr 24 min 17 sec) 
Heartbeat CPU  0 instructions:  535000001 cycles: 1851867208 heartbeat IPC: 0.10550 cumulative IPC: 0.24046 (Simulation time: 0 hr 24 min 21 sec) 
Heartbeat CPU  0 instructions:  536000000 cycles: 1860760608 heartbeat IPC: 0.11244 cumulative IPC: 0.23984 (Simulation time: 0 hr 24 min 25 sec) 
Heartbeat CPU  0 instructions:  537000001 cycles: 1868498455 heartbeat IPC: 0.12924 cumulative IPC: 0.23937 (Simulation time: 0 hr 24 min 28 sec) 
Heartbeat CPU  0 instructions:  538000001 cycles: 1889944367 heartbeat IPC: 0.04663 cumulative IPC: 0.23713 (Simulation time: 0 hr 24 min 39 sec) 
Heartbeat CPU  0 instructions:  539000001 cycles: 1901854722 heartbeat IPC: 0.08396 cumulative IPC: 0.23615 (Simulation time: 0 hr 24 min 45 sec) 
Heartbeat CPU  0 instructions:  540000000 cycles: 1911757111 heartbeat IPC: 0.10099 cumulative IPC: 0.23543 (Simulation time: 0 hr 24 min 50 sec) 
Heartbeat CPU  0 instructions:  541000001 cycles: 1921511486 heartbeat IPC: 0.10252 cumulative IPC: 0.23474 (Simulation time: 0 hr 24 min 56 sec) 
Heartbeat CPU  0 instructions:  542000002 cycles: 1931525741 heartbeat IPC: 0.09986 cumulative IPC: 0.23403 (Simulation time: 0 hr 25 min 1 sec) 
Heartbeat CPU  0 instructions:  543000001 cycles: 1941748489 heartbeat IPC: 0.09782 cumulative IPC: 0.23329 (Simulation time: 0 hr 25 min 6 sec) 
Heartbeat CPU  0 instructions:  544000000 cycles: 1952111535 heartbeat IPC: 0.09650 cumulative IPC: 0.23255 (Simulation time: 0 hr 25 min 11 sec) 
Heartbeat CPU  0 instructions:  545000000 cycles: 1963927947 heartbeat IPC: 0.08463 cumulative IPC: 0.23164 (Simulation time: 0 hr 25 min 17 sec) 
Heartbeat CPU  0 instructions:  546000000 cycles: 1990192136 heartbeat IPC: 0.03807 cumulative IPC: 0.22903 (Simulation time: 0 hr 25 min 29 sec) 
Heartbeat CPU  0 instructions:  547000000 cycles: 2013816661 heartbeat IPC: 0.04233 cumulative IPC: 0.22679 (Simulation time: 0 hr 25 min 41 sec) 
Heartbeat CPU  0 instructions:  548000000 cycles: 2024333931 heartbeat IPC: 0.09508 cumulative IPC: 0.22609 (Simulation time: 0 hr 25 min 45 sec) 
Heartbeat CPU  0 instructions:  549000000 cycles: 2033828971 heartbeat IPC: 0.10532 cumulative IPC: 0.22552 (Simulation time: 0 hr 25 min 49 sec) 
Heartbeat CPU  0 instructions:  550000001 cycles: 2043058196 heartbeat IPC: 0.10835 cumulative IPC: 0.22498 (Simulation time: 0 hr 25 min 53 sec) 
Heartbeat CPU  0 instructions:  551000000 cycles: 2050728215 heartbeat IPC: 0.13038 cumulative IPC: 0.22461 (Simulation time: 0 hr 25 min 56 sec) 
Heartbeat CPU  0 instructions:  552000000 cycles: 2067436171 heartbeat IPC: 0.05985 cumulative IPC: 0.22325 (Simulation time: 0 hr 26 min 4 sec) 
Heartbeat CPU  0 instructions:  553000000 cycles: 2083693072 heartbeat IPC: 0.06151 cumulative IPC: 0.22197 (Simulation time: 0 hr 26 min 13 sec) 
Heartbeat CPU  0 instructions:  554000001 cycles: 2093711858 heartbeat IPC: 0.09981 cumulative IPC: 0.22137 (Simulation time: 0 hr 26 min 18 sec) 
Heartbeat CPU  0 instructions:  555000002 cycles: 2103431923 heartbeat IPC: 0.10288 cumulative IPC: 0.22081 (Simulation time: 0 hr 26 min 23 sec) 
Heartbeat CPU  0 instructions:  556000000 cycles: 2113421910 heartbeat IPC: 0.10010 cumulative IPC: 0.22023 (Simulation time: 0 hr 26 min 28 sec) 
Heartbeat CPU  0 instructions:  557000000 cycles: 2123616781 heartbeat IPC: 0.09809 cumulative IPC: 0.21963 (Simulation time: 0 hr 26 min 34 sec) 
Heartbeat CPU  0 instructions:  558000003 cycles: 2133856560 heartbeat IPC: 0.09766 cumulative IPC: 0.21903 (Simulation time: 0 hr 26 min 39 sec) 
Heartbeat CPU  0 instructions:  559000003 cycles: 2143997287 heartbeat IPC: 0.09861 cumulative IPC: 0.21845 (Simulation time: 0 hr 26 min 44 sec) 
Heartbeat CPU  0 instructions:  560000000 cycles: 2168147869 heartbeat IPC: 0.04141 cumulative IPC: 0.21644 (Simulation time: 0 hr 26 min 55 sec) 
Heartbeat CPU  0 instructions:  561000001 cycles: 2193750786 heartbeat IPC: 0.03906 cumulative IPC: 0.21433 (Simulation time: 0 hr 27 min 8 sec) 
Heartbeat CPU  0 instructions:  562000002 cycles: 2206179284 heartbeat IPC: 0.08046 cumulative IPC: 0.21356 (Simulation time: 0 hr 27 min 13 sec) 
Heartbeat CPU  0 instructions:  563000003 cycles: 2215932027 heartbeat IPC: 0.10254 cumulative IPC: 0.21306 (Simulation time: 0 hr 27 min 17 sec) 
Heartbeat CPU  0 instructions:  564000000 cycles: 2225213405 heartbeat IPC: 0.10774 cumulative IPC: 0.21261 (Simulation time: 0 hr 27 min 20 sec) 
Heartbeat CPU  0 instructions:  565000003 cycles: 2233240488 heartbeat IPC: 0.12458 cumulative IPC: 0.21229 (Simulation time: 0 hr 27 min 24 sec) 
Heartbeat CPU  0 instructions:  566000003 cycles: 2246061870 heartbeat IPC: 0.07799 cumulative IPC: 0.21151 (Simulation time: 0 hr 27 min 30 sec) 
Heartbeat CPU  0 instructions:  567000000 cycles: 2265516556 heartbeat IPC: 0.05140 cumulative IPC: 0.21011 (Simulation time: 0 hr 27 min 40 sec) 
Heartbeat CPU  0 instructions:  568000000 cycles: 2275605064 heartbeat IPC: 0.09912 cumulative IPC: 0.20961 (Simulation time: 0 hr 27 min 45 sec) 
Heartbeat CPU  0 instructions:  569000000 cycles: 2285334168 heartbeat IPC: 0.10278 cumulative IPC: 0.20914 (Simulation time: 0 hr 27 min 51 sec) 
Heartbeat CPU  0 instructions:  570000000 cycles: 2295256633 heartbeat IPC: 0.10078 cumulative IPC: 0.20867 (Simulation time: 0 hr 27 min 56 sec) 
Heartbeat CPU  0 instructions:  571000001 cycles: 2305412982 heartbeat IPC: 0.09846 cumulative IPC: 0.20817 (Simulation time: 0 hr 28 min 1 sec) 
Heartbeat CPU  0 instructions:  572000000 cycles: 2315597158 heartbeat IPC: 0.09819 cumulative IPC: 0.20768 (Simulation time: 0 hr 28 min 6 sec) 
Heartbeat CPU  0 instructions:  573000002 cycles: 2326084769 heartbeat IPC: 0.09535 cumulative IPC: 0.20716 (Simulation time: 0 hr 28 min 12 sec) 
Heartbeat CPU  0 instructions:  574000000 cycles: 2346282531 heartbeat IPC: 0.04951 cumulative IPC: 0.20578 (Simulation time: 0 hr 28 min 20 sec) 
Heartbeat CPU  0 instructions:  575000003 cycles: 2371720707 heartbeat IPC: 0.03931 cumulative IPC: 0.20396 (Simulation time: 0 hr 28 min 33 sec) 
Heartbeat CPU  0 instructions:  576000000 cycles: 2388005038 heartbeat IPC: 0.06141 cumulative IPC: 0.20297 (Simulation time: 0 hr 28 min 40 sec) 
Heartbeat CPU  0 instructions:  577000003 cycles: 2397932425 heartbeat IPC: 0.10073 cumulative IPC: 0.20254 (Simulation time: 0 hr 28 min 44 sec) 
Heartbeat CPU  0 instructions:  578000000 cycles: 2407231765 heartbeat IPC: 0.10753 cumulative IPC: 0.20217 (Simulation time: 0 hr 28 min 48 sec) 
Heartbeat CPU  0 instructions:  579000001 cycles: 2415737852 heartbeat IPC: 0.11756 cumulative IPC: 0.20186 (Simulation time: 0 hr 28 min 52 sec) 
Heartbeat CPU  0 instructions:  580000000 cycles: 2424641152 heartbeat IPC: 0.11232 cumulative IPC: 0.20153 (Simulation time: 0 hr 28 min 56 sec) 
Heartbeat CPU  0 instructions:  581000003 cycles: 2447315668 heartbeat IPC: 0.04410 cumulative IPC: 0.20004 (Simulation time: 0 hr 29 min 8 sec) 
Heartbeat CPU  0 instructions:  582000003 cycles: 2457508798 heartbeat IPC: 0.09811 cumulative IPC: 0.19961 (Simulation time: 0 hr 29 min 13 sec) 
Heartbeat CPU  0 instructions:  583000002 cycles: 2467317111 heartbeat IPC: 0.10195 cumulative IPC: 0.19922 (Simulation time: 0 hr 29 min 18 sec) 
Heartbeat CPU  0 instructions:  584000000 cycles: 2477107451 heartbeat IPC: 0.10214 cumulative IPC: 0.19883 (Simulation time: 0 hr 29 min 23 sec) 
Heartbeat CPU  0 instructions:  585000002 cycles: 2487186324 heartbeat IPC: 0.09922 cumulative IPC: 0.19842 (Simulation time: 0 hr 29 min 28 sec) 
Heartbeat CPU  0 instructions:  586000002 cycles: 2497463760 heartbeat IPC: 0.09730 cumulative IPC: 0.19799 (Simulation time: 0 hr 29 min 34 sec) 
Heartbeat CPU  0 instructions:  587000000 cycles: 2507934455 heartbeat IPC: 0.09550 cumulative IPC: 0.19756 (Simulation time: 0 hr 29 min 39 sec) 
Heartbeat CPU  0 instructions:  588000000 cycles: 2526776616 heartbeat IPC: 0.05307 cumulative IPC: 0.19646 (Simulation time: 0 hr 29 min 47 sec) 
Heartbeat CPU  0 instructions:  589000001 cycles: 2549563048 heartbeat IPC: 0.04389 cumulative IPC: 0.19508 (Simulation time: 0 hr 29 min 59 sec) 
Heartbeat CPU  0 instructions:  590000002 cycles: 2569761432 heartbeat IPC: 0.04951 cumulative IPC: 0.19391 (Simulation time: 0 hr 30 min 8 sec) 
Heartbeat CPU  0 instructions:  591000000 cycles: 2579835030 heartbeat IPC: 0.09927 cumulative IPC: 0.19354 (Simulation time: 0 hr 30 min 12 sec) 
Heartbeat CPU  0 instructions:  592000000 cycles: 2589309921 heartbeat IPC: 0.10554 cumulative IPC: 0.19321 (Simulation time: 0 hr 30 min 16 sec) 
Heartbeat CPU  0 instructions:  593000003 cycles: 2598262001 heartbeat IPC: 0.11171 cumulative IPC: 0.19292 (Simulation time: 0 hr 30 min 20 sec) 
Heartbeat CPU  0 instructions:  594000000 cycles: 2606000901 heartbeat IPC: 0.12922 cumulative IPC: 0.19273 (Simulation time: 0 hr 30 min 24 sec) 
Heartbeat CPU  0 instructions:  595000001 cycles: 2627374973 heartbeat IPC: 0.04679 cumulative IPC: 0.19152 (Simulation time: 0 hr 30 min 34 sec) 
Heartbeat CPU  0 instructions:  596000000 cycles: 2639341104 heartbeat IPC: 0.08357 cumulative IPC: 0.19103 (Simulation time: 0 hr 30 min 41 sec) 
Heartbeat CPU  0 instructions:  597000003 cycles: 2649246834 heartbeat IPC: 0.10095 cumulative IPC: 0.19068 (Simulation time: 0 hr 30 min 46 sec) 
Heartbeat CPU  0 instructions:  598000002 cycles: 2658998212 heartbeat IPC: 0.10255 cumulative IPC: 0.19036 (Simulation time: 0 hr 30 min 51 sec) 
Heartbeat CPU  0 instructions:  599000001 cycles: 2669025278 heartbeat IPC: 0.09973 cumulative IPC: 0.19001 (Simulation time: 0 hr 30 min 56 sec) 
Heartbeat CPU  0 instructions:  600000000 cycles: 2679254042 heartbeat IPC: 0.09776 cumulative IPC: 0.18965 (Simulation time: 0 hr 31 min 1 sec) 
Finished CPU 0 instructions: 500000000 cycles: 2636409449 cumulative IPC: 0.18965 (Simulation time: 0 hr 31 min 1 sec) 

ChampSim completed all CPUs

[ROI Statistics]
Core_0_instructions 500000000
Core_0_cycles 2636409449
Core_0_IPC 0.18965

Core_0_branch_prediction_accuracy 99.11262
Core_0_branch_MPKI 1.69223
Core_0_average_ROB_occupancy_at_mispredict 139.36799

Core_0_L1D_total_access 68677260
Core_0_L1D_total_hit 45723520
Core_0_L1D_total_miss 22953740
Core_0_L1D_loads 32303011
Core_0_L1D_load_hit 26944580
Core_0_L1D_load_miss 5358431
Core_0_L1D_RFOs 36374249
Core_0_L1D_RFO_hit 18778940
Core_0_L1D_RFO_miss 17595309
Core_0_L1D_prefetches 0
Core_0_L1D_prefetch_hit 0
Core_0_L1D_prefetch_miss 0
Core_0_L1D_writebacks 0
Core_0_L1D_writeback_hit 0
Core_0_L1D_writeback_miss 0
Core_0_L1D_prefetch_requested 0
Core_0_L1D_prefetch_dropped 0
Core_0_L1D_prefetch_issued 0
Core_0_L1D_prefetch_filled 0
Core_0_L1D_prefetch_useful 0
Core_0_L1D_prefetch_useless 0
Core_0_L1D_prefetch_late 0
Core_0_L1D_average_miss_latency 388.59691

Core_0_L1D_rq_access 60842675
Core_0_L1D_rq_forward 0
Core_0_L1D_rq_merged 25167501
Core_0_L1D_rq_to_cache 35668729
Core_0_L1D_rq_full 0

Core_0_L1D_wq_access 156857733
Core_0_L1D_wq_forward 6445
Core_0_L1D_wq_merged 39776
Core_0_L1D_wq_to_cache 156817957
Core_0_L1D_wq_full 14520820

Core_0_L1D_pq_access 0
Core_0_L1D_pq_forward 0
Core_0_L1D_pq_merged 0
Core_0_L1D_pq_to_cache 0
Core_0_L1D_pq_full 0

Core_0_L1D_acc_epochs 2592580
Core_0_L1D_acc_level_0 2592580
Core_0_L1D_acc_level_1 0
Core_0_L1D_acc_level_2 0
Core_0_L1D_acc_level_3 0
Core_0_L1D_acc_level_4 0
Core_0_L1D_acc_level_5 0
Core_0_L1D_acc_level_6 0
Core_0_L1D_acc_level_7 0
Core_0_L1D_acc_level_8 0
Core_0_L1D_acc_level_9 0

Core_0_L1I_total_access 122742578
Core_0_L1I_total_hit 122723434
Core_0_L1I_total_miss 19144
Core_0_L1I_loads 122742578
Core_0_L1I_load_hit 122723434
Core_0_L1I_load_miss 19144
Core_0_L1I_RFOs 0
Core_0_L1I_RFO_hit 0
Core_0_L1I_RFO_miss 0
Core_0_L1I_prefetches 0
Core_0_L1I_prefetch_hit 0
Core_0_L1I_prefetch_miss 0
Core_0_L1I_writebacks 0
Core_0_L1I_writeback_hit 0
Core_0_L1I_writeback_miss 0
Core_0_L1I_prefetch_requested 0
Core_0_L1I_prefetch_dropped 0
Core_0_L1I_prefetch_issued 0
Core_0_L1I_prefetch_filled 0
Core_0_L1I_prefetch_useful 0
Core_0_L1I_prefetch_useless 0
Core_0_L1I_prefetch_late 0
Core_0_L1I_average_miss_latency 49.93909

Core_0_L1I_rq_access 500000003
Core_0_L1I_rq_forward 0
Core_0_L1I_rq_merged 377232786
Core_0_L1I_rq_to_cache 122767217
Core_0_L1I_rq_full 0

Core_0_L1I_wq_access 0
Core_0_L1I_wq_forward 0
Core_0_L1I_wq_merged 0
Core_0_L1I_wq_to_cache 0
Core_0_L1I_wq_full 0

Core_0_L1I_pq_access 0
Core_0_L1I_pq_forward 0
Core_0_L1I_pq_merged 0
Core_0_L1I_pq_to_cache 0
Core_0_L1I_pq_full 0

Core_0_L1I_acc_epochs 2592580
Core_0_L1I_acc_level_0 2592580
Core_0_L1I_acc_level_1 0
Core_0_L1I_acc_level_2 0
Core_0_L1I_acc_level_3 0
Core_0_L1I_acc_level_4 0
Core_0_L1I_acc_level_5 0
Core_0_L1I_acc_level_6 0
Core_0_L1I_acc_level_7 0
Core_0_L1I_acc_level_8 0
Core_0_L1I_acc_level_9 0

Core_0_L2C_total_access 41588150
Core_0_L2C_total_hit 18796817
Core_0_L2C_total_miss 22791333
Core_0_L2C_loads 5377575
Core_0_L2C_load_hit 174258
Core_0_L2C_load_miss 5203317
Core_0_L2C_RFOs 17595308
Core_0_L2C_RFO_hit 7441
Core_0_L2C_RFO_miss 17587867
Core_0_L2C_prefetches 0
Core_0_L2C_prefetch_hit 0
Core_0_L2C_prefetch_miss 0
Core_0_L2C_writebacks 18615267
Core_0_L2C_writeback_hit 18615118
Core_0_L2C_writeback_miss 149
Core_0_L2C_prefetch_requested 0
Core_0_L2C_prefetch_dropped 0
Core_0_L2C_prefetch_issued 0
Core_0_L2C_prefetch_filled 0
Core_0_L2C_prefetch_useful 0
Core_0_L2C_prefetch_useless 0
Core_0_L2C_prefetch_late 0
Core_0_L2C_average_miss_latency 377.13337

Core_0_L2C_rq_access 22972884
Core_0_L2C_rq_forward 0
Core_0_L2C_rq_merged 0
Core_0_L2C_rq_to_cache 22972883
Core_0_L2C_rq_full 0

Core_0_L2C_wq_access 18615267
Core_0_L2C_wq_forward 1
Core_0_L2C_wq_merged 0
Core_0_L2C_wq_to_cache 18615267
Core_0_L2C_wq_full 0

Core_0_L2C_pq_access 0
Core_0_L2C_pq_forward 0
Core_0_L2C_pq_merged 0
Core_0_L2C_pq_to_cache 0
Core_0_L2C_pq_full 0

Core_0_L2C_acc_epochs 2592580
Core_0_L2C_acc_level_0 2592580
Core_0_L2C_acc_level_1 0
Core_0_L2C_acc_level_2 0
Core_0_L2C_acc_level_3 0
Core_0_L2C_acc_level_4 0
Core_0_L2C_acc_level_5 0
Core_0_L2C_acc_level_6 0
Core_0_L2C_acc_level_7 0
Core_0_L2C_acc_level_8 0
Core_0_L2C_acc_level_9 0

Core_0_LLC_total_access 41395308
Core_0_LLC_total_hit 31190113
Core_0_LLC_total_miss 10205195
Core_0_LLC_loads 5203317
Core_0_LLC_load_hit 335986
Core_0_LLC_load_miss 4867331
Core_0_LLC_RFOs 17587867
Core_0_LLC_RFO_hit 15288297
Core_0_LLC_RFO_miss 2299570
Core_0_LLC_prefetches 0
Core_0_LLC_prefetch_hit 0
Core_0_LLC_prefetch_miss 0
Core_0_LLC_writebacks 18604124
Core_0_LLC_writeback_hit 15565830
Core_0_LLC_writeback_miss 3038294
Core_0_LLC_prefetch_requested 0
Core_0_LLC_prefetch_dropped 0
Core_0_LLC_prefetch_issued 0
Core_0_LLC_prefetch_filled 0
Core_0_LLC_prefetch_useful 0
Core_0_LLC_prefetch_useless 0
Core_0_LLC_prefetch_late 0
Core_0_LLC_average_miss_latency 775.22139

Core_0_LLC_rq_access 22791184
Core_0_LLC_rq_forward 0
Core_0_LLC_rq_merged 0
Core_0_LLC_rq_to_cache 22791184
Core_0_LLC_rq_full 0

Core_0_LLC_wq_access 18604124
Core_0_LLC_wq_forward 0
Core_0_LLC_wq_merged 0
Core_0_LLC_wq_to_cache 18604124
Core_0_LLC_wq_full 83572

Core_0_LLC_pq_access 0
Core_0_LLC_pq_forward 0
Core_0_LLC_pq_merged 0
Core_0_LLC_pq_to_cache 0
Core_0_LLC_pq_full 0

Core_0_LLC_acc_epochs 2616460
Core_0_LLC_acc_level_0 2616460
Core_0_LLC_acc_level_1 0
Core_0_LLC_acc_level_2 0
Core_0_LLC_acc_level_3 0
Core_0_LLC_acc_level_4 0
Core_0_LLC_acc_level_5 0
Core_0_LLC_acc_level_6 0
Core_0_LLC_acc_level_7 0
Core_0_LLC_acc_level_8 0
Core_0_LLC_acc_level_9 0

Core_0_major_page_fault 0
Core_0_minor_page_fault 13167

Channel_0_RQ_row_buffer_hit 1566792
Channel_0_RQ_row_buffer_miss 5599987
Channel_0_WQ_row_buffer_hit 1129311
Channel_0_WQ_row_buffer_miss 2096373
Channel_0_WQ_full 254879
Channel_0_dbus_congested 9879656

avg_congested_cycle 170

DRAM_bw_pochs 10465837
DRAM_bw_level_0 4718472
DRAM_bw_level_1 0
DRAM_bw_level_2 0
DRAM_bw_level_3 5747365
