*************************************************
   ChampSim Multicore Out-of-Order Simulator
   Last compiled: Dec 11 2024 17:59:53
*************************************************
parsing config file: /home/functionmain/桌面/Pythia/config/pythia.ini

trace_0 /home/functionmain/桌面/Pythia/traces/410.bwaves-1963B.champsimtrace.xz
adding L2C_PREFETCHER: Scooby
Initialize SHIP state
warmup_instructions 100000000
simulation_instructions 500000000
champsim_seed 277
measure_ipc 0
measure_ipc_epoch 1000
measure_dram_bw 1
measure_dram_bw_epoch 256
measure_cache_acc 1
measure_cache_acc_epoch 1024
l1d_perfect 0
l2c_perfect 0
llc_perfect 0
l1d_semi_perfect 0
l2c_semi_perfect 0
llc_semi_perfect 0
semi_perfect_cache_page_buffer_size 64

num_cpus 1
cpu_freq 4000
dram_io_freq 1200
page_size 4096
block_size 64
max_read_per_cycle 8
max_fill_per_cycle 1
dram_channels 1
log2_dram_channels 0
dram_ranks 1
dram_banks 8
dram_rows 65536
dram_columns 128
dram_row_size 8
dram_size 4096
dram_pages 1048576

fetch_width 6
decode_width 6
exec_width 4
lq_width 2
sq_width 2
retire_width 4
scheduler_size 128
branch_mispredict_penalty 20
rob_size 256
lq_size 72
sq_size 56
num_instr_destinations_sparc 4
num_instr_destinations 2
num_instr_sources 4

itlb_set 16
itlb_way 8
itlb_rq_size 16
itlb_wq_size 16
itlb_pq_size 0
itlb_mshr_size 8
itlb_latency 1

dtlb_set 16
dtlb_way 4
dtlb_rq_size 16
dtlb_wq_size 16
dtlb_pq_size 0
dtlb_mshr_size 8
dtlb_latency 1

stlb_set 128
stlb_way 12
stlb_rq_size 32
stlb_wq_size 32
stlb_pq_size 0
stlb_mshr_size 16
stlb_latency 8

l1i_size 32
l1i_set 64
l1i_way 8
l1i_rq_size 64
l1i_wq_size 64
l1i_pq_size 8
l1i_mshr_size 8
l1i_latency 1

l1d_size 32
l1d_set 64
l1d_way 8
l1d_rq_size 64
l1d_wq_size 64
l1d_pq_size 8
l1d_mshr_size 16
l1d_latency 4

l2c_size 256
l2c_set 512
l2c_way 8
l2c_rq_size 32
l2c_wq_size 32
l2c_pq_size 32
l2c_mshr_size 32
l2c_latency 10

llc_size 2048
llc_set 2048
llc_way 16
llc_rq_size 32
llc_wq_size 32
llc_pq_size 32
llc_mshr_size 64
llc_latency 20

dram_channel_width 8
dram_wq_size 64
dram_rq_size 64
tRP 15
tRCD 15
tCAS 12.5
dram_dbus_turn_around_time 30
dram_write_high_wm 56
dram_write_low_wm 48
min_dram_writes_per_switch 16
dram_mtps 1200
dram_dbus_return_time 26

scooby_alpha 0.0065088
scooby_gamma 0.556301
scooby_epsilon 0.00182284
scooby_state_num_bits 10
scooby_max_states 1024
scooby_seed 200
scooby_policy EGreedy
scooby_learning_type SARSA
scooby_actions 1,3,4,5,10,11,12,22,23,30,32,-1,-3,-6,0,
scooby_max_actions 15
scooby_pt_size 256
scooby_st_size 64
scooby_max_pcs 5
scooby_max_offsets 5
scooby_max_deltas 5
scooby_reward_none -4
scooby_reward_incorrect -8
scooby_reward_correct_untimely 12
scooby_reward_correct_timely 20
scooby_brain_zero_init 0
scooby_enable_reward_all 0
scooby_enable_track_multiple 0
scooby_enable_reward_out_of_bounds 1
scooby_reward_out_of_bounds -12
scooby_state_type 1
scooby_state_hash_type 11
scooby_access_debug 0
scooby_print_access_debug 0
scooby_print_access_debug_pc deadbeef
scooby_print_access_debug_pc_count 0
scooby_print_trace 0
scooby_enable_state_action_stats 1
scooby_enable_reward_tracker_hit 0
scooby_reward_tracker_hit -2
scooby_enable_featurewise_engine 1
scooby_pref_degree 1
scooby_enable_dyn_degree 1
scooby_max_to_avg_q_thresholds 0.5,1,2,
scooby_dyn_degrees 1,2,4,4,
scooby_multi_deg_select_type 2
scooby_last_pref_offset_conf_thresholds 1,3,8,
scooby_dyn_degrees_type2 1,2,4,6,
scooby_action_tracker_size 2
scooby_high_bw_thresh 4
scooby_enable_hbw_reward 1
scooby_reward_hbw_correct_timely 20
scooby_reward_hbw_correct_untimely 12
scooby_reward_hbw_incorrect -14
scooby_reward_hbw_none -2
scooby_reward_hbw_out_of_bounds -12
scooby_reward_hbw_tracker_hit -2
scooby_last_pref_offset_conf_thresholds_hbw 1,3,8,
scooby_dyn_degrees_type2_hbw 1,2,4,6,

le_enable_trace 0
le_trace_interval 0
le_trace_file_name 
le_trace_state 0
le_enable_score_plot 0
le_plot_file_name 
le_plot_actions 
le_enable_action_trace 0
le_action_trace_interval 0
le_action_trace_name 
le_enable_action_plot 0

le_featurewise_active_features PC, PC_Delta
le_featurewise_num_tilings 3,3,
le_featurewise_num_tiles 128,128,
le_featurewise_hash_types 2,2,
le_featurewise_enable_tiling_offset 1,1,
le_featurewise_max_q_thresh 0.5
le_featurewise_enable_action_fallback 1
le_featurewise_feature_weights 1,1,
le_featurewise_enable_dynamic_weight 0
le_featurewise_weight_gradient 0.001
le_featurewise_disable_adjust_weight_all_features_align 1
le_featurewise_selective_update 0
le_featurewise_pooling_type 2
le_featurewise_enable_dyn_action_fallback 1
le_featurewise_bw_acc_check_level 1
le_featurewise_acc_thresh 2
le_featurewise_enable_trace 0
le_featurewise_trace_feature_type 0
le_featurewise_trace_feature 
le_featurewise_trace_interval 0
le_featurewise_trace_record_count 0
le_featurewise_trace_file_name 
le_featurewise_enable_score_plot 0
le_featurewise_plot_actions 
le_featurewise_plot_file_name 


Heartbeat CPU  0 instructions:    1000002 cycles:     658255 heartbeat IPC: 1.51917 cumulative IPC: 1.51917 (Simulation time: 0 hr 0 min 3 sec) 
Heartbeat CPU  0 instructions:    2000002 cycles:    1316145 heartbeat IPC: 1.52001 cumulative IPC: 1.51959 (Simulation time: 0 hr 0 min 5 sec) 
Heartbeat CPU  0 instructions:    3000002 cycles:    1974117 heartbeat IPC: 1.51982 cumulative IPC: 1.51967 (Simulation time: 0 hr 0 min 7 sec) 
Heartbeat CPU  0 instructions:    4000000 cycles:    2632000 heartbeat IPC: 1.52002 cumulative IPC: 1.51976 (Simulation time: 0 hr 0 min 10 sec) 
Heartbeat CPU  0 instructions:    5000002 cycles:    3290056 heartbeat IPC: 1.51963 cumulative IPC: 1.51973 (Simulation time: 0 hr 0 min 12 sec) 
Heartbeat CPU  0 instructions:    6000002 cycles:    3947997 heartbeat IPC: 1.51989 cumulative IPC: 1.51976 (Simulation time: 0 hr 0 min 15 sec) 
Heartbeat CPU  0 instructions:    7000000 cycles:    4605956 heartbeat IPC: 1.51985 cumulative IPC: 1.51977 (Simulation time: 0 hr 0 min 17 sec) 
Heartbeat CPU  0 instructions:    8000000 cycles:    5263831 heartbeat IPC: 1.52005 cumulative IPC: 1.51981 (Simulation time: 0 hr 0 min 20 sec) 
Heartbeat CPU  0 instructions:    9000001 cycles:    5921719 heartbeat IPC: 1.52002 cumulative IPC: 1.51983 (Simulation time: 0 hr 0 min 22 sec) 
Heartbeat CPU  0 instructions:   10000002 cycles:    6579623 heartbeat IPC: 1.51998 cumulative IPC: 1.51984 (Simulation time: 0 hr 0 min 25 sec) 
Heartbeat CPU  0 instructions:   11000001 cycles:    7237560 heartbeat IPC: 1.51990 cumulative IPC: 1.51985 (Simulation time: 0 hr 0 min 27 sec) 
Heartbeat CPU  0 instructions:   12000000 cycles:    7895383 heartbeat IPC: 1.52016 cumulative IPC: 1.51988 (Simulation time: 0 hr 0 min 30 sec) 
Heartbeat CPU  0 instructions:   13000001 cycles:    8553369 heartbeat IPC: 1.51979 cumulative IPC: 1.51987 (Simulation time: 0 hr 0 min 32 sec) 
Heartbeat CPU  0 instructions:   14000001 cycles:    9211162 heartbeat IPC: 1.52024 cumulative IPC: 1.51990 (Simulation time: 0 hr 0 min 34 sec) 
Heartbeat CPU  0 instructions:   15000000 cycles:    9868946 heartbeat IPC: 1.52025 cumulative IPC: 1.51992 (Simulation time: 0 hr 0 min 37 sec) 
Heartbeat CPU  0 instructions:   16000000 cycles:   10526767 heartbeat IPC: 1.52017 cumulative IPC: 1.51993 (Simulation time: 0 hr 0 min 39 sec) 
Heartbeat CPU  0 instructions:   17000002 cycles:   11184678 heartbeat IPC: 1.51997 cumulative IPC: 1.51994 (Simulation time: 0 hr 0 min 42 sec) 
Heartbeat CPU  0 instructions:   18000000 cycles:   11842519 heartbeat IPC: 1.52012 cumulative IPC: 1.51995 (Simulation time: 0 hr 0 min 44 sec) 
Heartbeat CPU  0 instructions:   19000001 cycles:   12500345 heartbeat IPC: 1.52016 cumulative IPC: 1.51996 (Simulation time: 0 hr 0 min 47 sec) 
Heartbeat CPU  0 instructions:   20000000 cycles:   13158142 heartbeat IPC: 1.52022 cumulative IPC: 1.51997 (Simulation time: 0 hr 0 min 49 sec) 
Heartbeat CPU  0 instructions:   21000003 cycles:   13816022 heartbeat IPC: 1.52004 cumulative IPC: 1.51997 (Simulation time: 0 hr 0 min 51 sec) 
Heartbeat CPU  0 instructions:   22000001 cycles:   14473780 heartbeat IPC: 1.52031 cumulative IPC: 1.51999 (Simulation time: 0 hr 0 min 54 sec) 
Heartbeat CPU  0 instructions:   23000001 cycles:   15131609 heartbeat IPC: 1.52015 cumulative IPC: 1.52000 (Simulation time: 0 hr 0 min 56 sec) 
Heartbeat CPU  0 instructions:   24000000 cycles:   15789343 heartbeat IPC: 1.52037 cumulative IPC: 1.52001 (Simulation time: 0 hr 0 min 59 sec) 
Heartbeat CPU  0 instructions:   25000001 cycles:   16447309 heartbeat IPC: 1.51984 cumulative IPC: 1.52001 (Simulation time: 0 hr 1 min 1 sec) 
Heartbeat CPU  0 instructions:   26000003 cycles:   17104975 heartbeat IPC: 1.52053 cumulative IPC: 1.52003 (Simulation time: 0 hr 1 min 4 sec) 
Heartbeat CPU  0 instructions:   27000000 cycles:   17762812 heartbeat IPC: 1.52013 cumulative IPC: 1.52003 (Simulation time: 0 hr 1 min 6 sec) 
Heartbeat CPU  0 instructions:   28000000 cycles:   18420599 heartbeat IPC: 1.52025 cumulative IPC: 1.52004 (Simulation time: 0 hr 1 min 9 sec) 
Heartbeat CPU  0 instructions:   29000000 cycles:   19078508 heartbeat IPC: 1.51997 cumulative IPC: 1.52004 (Simulation time: 0 hr 1 min 11 sec) 
Heartbeat CPU  0 instructions:   30000001 cycles:   19736311 heartbeat IPC: 1.52021 cumulative IPC: 1.52004 (Simulation time: 0 hr 1 min 13 sec) 
Heartbeat CPU  0 instructions:   31000002 cycles:   20394223 heartbeat IPC: 1.51996 cumulative IPC: 1.52004 (Simulation time: 0 hr 1 min 16 sec) 
Heartbeat CPU  0 instructions:   32000000 cycles:   21052135 heartbeat IPC: 1.51996 cumulative IPC: 1.52004 (Simulation time: 0 hr 1 min 18 sec) 
Heartbeat CPU  0 instructions:   33000000 cycles:   21710143 heartbeat IPC: 1.51974 cumulative IPC: 1.52003 (Simulation time: 0 hr 1 min 21 sec) 
Heartbeat CPU  0 instructions:   34000002 cycles:   22368059 heartbeat IPC: 1.51995 cumulative IPC: 1.52002 (Simulation time: 0 hr 1 min 23 sec) 
Heartbeat CPU  0 instructions:   35000001 cycles:   23025990 heartbeat IPC: 1.51991 cumulative IPC: 1.52002 (Simulation time: 0 hr 1 min 26 sec) 
Heartbeat CPU  0 instructions:   36000000 cycles:   23683930 heartbeat IPC: 1.51989 cumulative IPC: 1.52002 (Simulation time: 0 hr 1 min 28 sec) 
Heartbeat CPU  0 instructions:   37000002 cycles:   24341918 heartbeat IPC: 1.51979 cumulative IPC: 1.52001 (Simulation time: 0 hr 1 min 31 sec) 
Heartbeat CPU  0 instructions:   38000000 cycles:   24999815 heartbeat IPC: 1.51999 cumulative IPC: 1.52001 (Simulation time: 0 hr 1 min 33 sec) 
Heartbeat CPU  0 instructions:   39000000 cycles:   25657831 heartbeat IPC: 1.51972 cumulative IPC: 1.52000 (Simulation time: 0 hr 1 min 35 sec) 
Heartbeat CPU  0 instructions:   40000000 cycles:   26315677 heartbeat IPC: 1.52011 cumulative IPC: 1.52001 (Simulation time: 0 hr 1 min 38 sec) 
Heartbeat CPU  0 instructions:   41000000 cycles:   26973686 heartbeat IPC: 1.51974 cumulative IPC: 1.52000 (Simulation time: 0 hr 1 min 40 sec) 
Heartbeat CPU  0 instructions:   42000003 cycles:   27631624 heartbeat IPC: 1.51990 cumulative IPC: 1.52000 (Simulation time: 0 hr 1 min 43 sec) 
Heartbeat CPU  0 instructions:   43000001 cycles:   28289484 heartbeat IPC: 1.52008 cumulative IPC: 1.52000 (Simulation time: 0 hr 1 min 45 sec) 
Heartbeat CPU  0 instructions:   44000000 cycles:   28947290 heartbeat IPC: 1.52020 cumulative IPC: 1.52000 (Simulation time: 0 hr 1 min 48 sec) 
Heartbeat CPU  0 instructions:   45000000 cycles:   29605151 heartbeat IPC: 1.52008 cumulative IPC: 1.52001 (Simulation time: 0 hr 1 min 50 sec) 
Heartbeat CPU  0 instructions:   46000001 cycles:   30262990 heartbeat IPC: 1.52013 cumulative IPC: 1.52001 (Simulation time: 0 hr 1 min 52 sec) 
Heartbeat CPU  0 instructions:   47000003 cycles:   30920844 heartbeat IPC: 1.52010 cumulative IPC: 1.52001 (Simulation time: 0 hr 1 min 55 sec) 
Heartbeat CPU  0 instructions:   48000000 cycles:   31578529 heartbeat IPC: 1.52048 cumulative IPC: 1.52002 (Simulation time: 0 hr 1 min 57 sec) 
Heartbeat CPU  0 instructions:   49000000 cycles:   32236305 heartbeat IPC: 1.52027 cumulative IPC: 1.52003 (Simulation time: 0 hr 2 min 0 sec) 
Heartbeat CPU  0 instructions:   50000003 cycles:   32894232 heartbeat IPC: 1.51993 cumulative IPC: 1.52002 (Simulation time: 0 hr 2 min 2 sec) 
Heartbeat CPU  0 instructions:   51000000 cycles:   33552053 heartbeat IPC: 1.52017 cumulative IPC: 1.52003 (Simulation time: 0 hr 2 min 5 sec) 
Heartbeat CPU  0 instructions:   52000000 cycles:   34209861 heartbeat IPC: 1.52020 cumulative IPC: 1.52003 (Simulation time: 0 hr 2 min 7 sec) 
Heartbeat CPU  0 instructions:   53000003 cycles:   34867754 heartbeat IPC: 1.52001 cumulative IPC: 1.52003 (Simulation time: 0 hr 2 min 10 sec) 
Heartbeat CPU  0 instructions:   54000001 cycles:   35525629 heartbeat IPC: 1.52004 cumulative IPC: 1.52003 (Simulation time: 0 hr 2 min 12 sec) 
Heartbeat CPU  0 instructions:   55000003 cycles:   36183481 heartbeat IPC: 1.52010 cumulative IPC: 1.52003 (Simulation time: 0 hr 2 min 15 sec) 
Heartbeat CPU  0 instructions:   56000000 cycles:   36841344 heartbeat IPC: 1.52007 cumulative IPC: 1.52003 (Simulation time: 0 hr 2 min 17 sec) 
Heartbeat CPU  0 instructions:   57000001 cycles:   37499076 heartbeat IPC: 1.52038 cumulative IPC: 1.52004 (Simulation time: 0 hr 2 min 20 sec) 
Heartbeat CPU  0 instructions:   58000000 cycles:   38157015 heartbeat IPC: 1.51990 cumulative IPC: 1.52004 (Simulation time: 0 hr 2 min 22 sec) 
Heartbeat CPU  0 instructions:   59000002 cycles:   38814971 heartbeat IPC: 1.51986 cumulative IPC: 1.52003 (Simulation time: 0 hr 2 min 24 sec) 
Heartbeat CPU  0 instructions:   60000000 cycles:   39472729 heartbeat IPC: 1.52031 cumulative IPC: 1.52004 (Simulation time: 0 hr 2 min 27 sec) 
Heartbeat CPU  0 instructions:   61000002 cycles:   40130772 heartbeat IPC: 1.51966 cumulative IPC: 1.52003 (Simulation time: 0 hr 2 min 29 sec) 
Heartbeat CPU  0 instructions:   62000001 cycles:   40788699 heartbeat IPC: 1.51992 cumulative IPC: 1.52003 (Simulation time: 0 hr 2 min 32 sec) 
Heartbeat CPU  0 instructions:   63000002 cycles:   41446647 heartbeat IPC: 1.51988 cumulative IPC: 1.52003 (Simulation time: 0 hr 2 min 34 sec) 
Heartbeat CPU  0 instructions:   64000000 cycles:   42104572 heartbeat IPC: 1.51993 cumulative IPC: 1.52002 (Simulation time: 0 hr 2 min 37 sec) 
Heartbeat CPU  0 instructions:   65000002 cycles:   42762592 heartbeat IPC: 1.51971 cumulative IPC: 1.52002 (Simulation time: 0 hr 2 min 39 sec) 
Heartbeat CPU  0 instructions:   66000002 cycles:   43420510 heartbeat IPC: 1.51995 cumulative IPC: 1.52002 (Simulation time: 0 hr 2 min 42 sec) 
Heartbeat CPU  0 instructions:   67000002 cycles:   44078412 heartbeat IPC: 1.51998 cumulative IPC: 1.52002 (Simulation time: 0 hr 2 min 44 sec) 
Heartbeat CPU  0 instructions:   68000000 cycles:   44736289 heartbeat IPC: 1.52004 cumulative IPC: 1.52002 (Simulation time: 0 hr 2 min 47 sec) 
Heartbeat CPU  0 instructions:   69000000 cycles:   45394288 heartbeat IPC: 1.51976 cumulative IPC: 1.52002 (Simulation time: 0 hr 2 min 49 sec) 
Heartbeat CPU  0 instructions:   70000003 cycles:   46052120 heartbeat IPC: 1.52015 cumulative IPC: 1.52002 (Simulation time: 0 hr 2 min 51 sec) 
Heartbeat CPU  0 instructions:   71000003 cycles:   46709919 heartbeat IPC: 1.52022 cumulative IPC: 1.52002 (Simulation time: 0 hr 2 min 54 sec) 
Heartbeat CPU  0 instructions:   72000000 cycles:   47367777 heartbeat IPC: 1.52008 cumulative IPC: 1.52002 (Simulation time: 0 hr 2 min 56 sec) 
Heartbeat CPU  0 instructions:   73000001 cycles:   48025657 heartbeat IPC: 1.52004 cumulative IPC: 1.52002 (Simulation time: 0 hr 2 min 59 sec) 
Heartbeat CPU  0 instructions:   74000002 cycles:   48683479 heartbeat IPC: 1.52017 cumulative IPC: 1.52002 (Simulation time: 0 hr 3 min 1 sec) 
Heartbeat CPU  0 instructions:   75000001 cycles:   49341363 heartbeat IPC: 1.52002 cumulative IPC: 1.52002 (Simulation time: 0 hr 3 min 4 sec) 
Heartbeat CPU  0 instructions:   76000000 cycles:   49999163 heartbeat IPC: 1.52022 cumulative IPC: 1.52003 (Simulation time: 0 hr 3 min 6 sec) 
Heartbeat CPU  0 instructions:   77000002 cycles:   50657043 heartbeat IPC: 1.52004 cumulative IPC: 1.52003 (Simulation time: 0 hr 3 min 9 sec) 
Heartbeat CPU  0 instructions:   78000000 cycles:   51315003 heartbeat IPC: 1.51985 cumulative IPC: 1.52002 (Simulation time: 0 hr 3 min 11 sec) 
Heartbeat CPU  0 instructions:   79000003 cycles:   51972817 heartbeat IPC: 1.52019 cumulative IPC: 1.52003 (Simulation time: 0 hr 3 min 13 sec) 
Heartbeat CPU  0 instructions:   80000000 cycles:   52630640 heartbeat IPC: 1.52016 cumulative IPC: 1.52003 (Simulation time: 0 hr 3 min 16 sec) 
Heartbeat CPU  0 instructions:   81000001 cycles:   53288580 heartbeat IPC: 1.51990 cumulative IPC: 1.52003 (Simulation time: 0 hr 3 min 18 sec) 
Heartbeat CPU  0 instructions:   82000001 cycles:   53946432 heartbeat IPC: 1.52010 cumulative IPC: 1.52003 (Simulation time: 0 hr 3 min 21 sec) 
Heartbeat CPU  0 instructions:   83000001 cycles:   54604204 heartbeat IPC: 1.52028 cumulative IPC: 1.52003 (Simulation time: 0 hr 3 min 23 sec) 
Heartbeat CPU  0 instructions:   84000000 cycles:   55262005 heartbeat IPC: 1.52022 cumulative IPC: 1.52003 (Simulation time: 0 hr 3 min 26 sec) 
Heartbeat CPU  0 instructions:   85000000 cycles:   55919919 heartbeat IPC: 1.51996 cumulative IPC: 1.52003 (Simulation time: 0 hr 3 min 28 sec) 
Heartbeat CPU  0 instructions:   86000002 cycles:   56577773 heartbeat IPC: 1.52010 cumulative IPC: 1.52003 (Simulation time: 0 hr 3 min 31 sec) 
Heartbeat CPU  0 instructions:   87000001 cycles:   57235726 heartbeat IPC: 1.51986 cumulative IPC: 1.52003 (Simulation time: 0 hr 3 min 33 sec) 
Heartbeat CPU  0 instructions:   88000000 cycles:   57893775 heartbeat IPC: 1.51964 cumulative IPC: 1.52003 (Simulation time: 0 hr 3 min 36 sec) 
Heartbeat CPU  0 instructions:   89000001 cycles:   58551723 heartbeat IPC: 1.51988 cumulative IPC: 1.52002 (Simulation time: 0 hr 3 min 38 sec) 
Heartbeat CPU  0 instructions:   90000003 cycles:   59209668 heartbeat IPC: 1.51989 cumulative IPC: 1.52002 (Simulation time: 0 hr 3 min 40 sec) 
Heartbeat CPU  0 instructions:   91000000 cycles:   59867567 heartbeat IPC: 1.51999 cumulative IPC: 1.52002 (Simulation time: 0 hr 3 min 43 sec) 
Heartbeat CPU  0 instructions:   92000000 cycles:   60525526 heartbeat IPC: 1.51985 cumulative IPC: 1.52002 (Simulation time: 0 hr 3 min 45 sec) 
Heartbeat CPU  0 instructions:   93000001 cycles:   61183449 heartbeat IPC: 1.51994 cumulative IPC: 1.52002 (Simulation time: 0 hr 3 min 48 sec) 
Heartbeat CPU  0 instructions:   94000001 cycles:   61841376 heartbeat IPC: 1.51993 cumulative IPC: 1.52002 (Simulation time: 0 hr 3 min 50 sec) 
Heartbeat CPU  0 instructions:   95000000 cycles:   62499243 heartbeat IPC: 1.52006 cumulative IPC: 1.52002 (Simulation time: 0 hr 3 min 53 sec) 
Heartbeat CPU  0 instructions:   96000000 cycles:   63157102 heartbeat IPC: 1.52008 cumulative IPC: 1.52002 (Simulation time: 0 hr 3 min 55 sec) 
Heartbeat CPU  0 instructions:   97000000 cycles:   63815095 heartbeat IPC: 1.51977 cumulative IPC: 1.52002 (Simulation time: 0 hr 3 min 58 sec) 
Heartbeat CPU  0 instructions:   98000001 cycles:   64473014 heartbeat IPC: 1.51995 cumulative IPC: 1.52002 (Simulation time: 0 hr 4 min 0 sec) 
Heartbeat CPU  0 instructions:   99000003 cycles:   65130907 heartbeat IPC: 1.52001 cumulative IPC: 1.52002 (Simulation time: 0 hr 4 min 3 sec) 
Heartbeat CPU  0 instructions:  100000000 cycles:   65788750 heartbeat IPC: 1.52012 cumulative IPC: 1.52002 (Simulation time: 0 hr 4 min 5 sec) 

Warmup complete CPU  0 instructions:  100000002 cycles:   65788753 (Simulation time: 0 hr 4 min 5 sec) 

Heartbeat CPU  0 instructions:  101000001 cycles:   66656516 heartbeat IPC: 1.15239 cumulative IPC: 1.15239 (Simulation time: 0 hr 4 min 8 sec) 
Heartbeat CPU  0 instructions:  102000000 cycles:   67522986 heartbeat IPC: 1.15411 cumulative IPC: 1.15325 (Simulation time: 0 hr 4 min 11 sec) 
Heartbeat CPU  0 instructions:  103000001 cycles:   68389693 heartbeat IPC: 1.15379 cumulative IPC: 1.15343 (Simulation time: 0 hr 4 min 13 sec) 
Heartbeat CPU  0 instructions:  104000000 cycles:   69260356 heartbeat IPC: 1.14855 cumulative IPC: 1.15220 (Simulation time: 0 hr 4 min 16 sec) 
Heartbeat CPU  0 instructions:  105000002 cycles:   70125433 heartbeat IPC: 1.15597 cumulative IPC: 1.15296 (Simulation time: 0 hr 4 min 19 sec) 
Heartbeat CPU  0 instructions:  106000000 cycles:   70991887 heartbeat IPC: 1.15413 cumulative IPC: 1.15315 (Simulation time: 0 hr 4 min 22 sec) 
Heartbeat CPU  0 instructions:  107000001 cycles:   71862419 heartbeat IPC: 1.14872 cumulative IPC: 1.15252 (Simulation time: 0 hr 4 min 24 sec) 
Heartbeat CPU  0 instructions:  108000000 cycles:   72730717 heartbeat IPC: 1.15168 cumulative IPC: 1.15241 (Simulation time: 0 hr 4 min 27 sec) 
Heartbeat CPU  0 instructions:  109000001 cycles:   73609196 heartbeat IPC: 1.13833 cumulative IPC: 1.15083 (Simulation time: 0 hr 4 min 30 sec) 
Heartbeat CPU  0 instructions:  110000000 cycles:   74477027 heartbeat IPC: 1.15230 cumulative IPC: 1.15098 (Simulation time: 0 hr 4 min 33 sec) 
Heartbeat CPU  0 instructions:  111000000 cycles:   75346736 heartbeat IPC: 1.14981 cumulative IPC: 1.15087 (Simulation time: 0 hr 4 min 36 sec) 
Heartbeat CPU  0 instructions:  112000000 cycles:   76215745 heartbeat IPC: 1.15074 cumulative IPC: 1.15086 (Simulation time: 0 hr 4 min 38 sec) 
Heartbeat CPU  0 instructions:  113000000 cycles:   77085808 heartbeat IPC: 1.14934 cumulative IPC: 1.15074 (Simulation time: 0 hr 4 min 41 sec) 
Heartbeat CPU  0 instructions:  114000002 cycles:   77953873 heartbeat IPC: 1.15199 cumulative IPC: 1.15083 (Simulation time: 0 hr 4 min 44 sec) 
Heartbeat CPU  0 instructions:  115000000 cycles:   78822303 heartbeat IPC: 1.15150 cumulative IPC: 1.15088 (Simulation time: 0 hr 4 min 47 sec) 
Heartbeat CPU  0 instructions:  116000000 cycles:   79692434 heartbeat IPC: 1.14925 cumulative IPC: 1.15077 (Simulation time: 0 hr 4 min 49 sec) 
Heartbeat CPU  0 instructions:  117000003 cycles:   80561872 heartbeat IPC: 1.15017 cumulative IPC: 1.15074 (Simulation time: 0 hr 4 min 52 sec) 
Heartbeat CPU  0 instructions:  118000000 cycles:   81431671 heartbeat IPC: 1.14969 cumulative IPC: 1.15068 (Simulation time: 0 hr 4 min 55 sec) 
Heartbeat CPU  0 instructions:  119000001 cycles:   82299753 heartbeat IPC: 1.15197 cumulative IPC: 1.15075 (Simulation time: 0 hr 4 min 58 sec) 
Heartbeat CPU  0 instructions:  120000000 cycles:   83168499 heartbeat IPC: 1.15108 cumulative IPC: 1.15076 (Simulation time: 0 hr 5 min 0 sec) 
Heartbeat CPU  0 instructions:  121000003 cycles:   84042128 heartbeat IPC: 1.14465 cumulative IPC: 1.15047 (Simulation time: 0 hr 5 min 3 sec) 
Heartbeat CPU  0 instructions:  122000000 cycles:   84912724 heartbeat IPC: 1.14863 cumulative IPC: 1.15039 (Simulation time: 0 hr 5 min 6 sec) 
Heartbeat CPU  0 instructions:  123000002 cycles:   85782056 heartbeat IPC: 1.15031 cumulative IPC: 1.15039 (Simulation time: 0 hr 5 min 9 sec) 
Heartbeat CPU  0 instructions:  124000000 cycles:   86654005 heartbeat IPC: 1.14685 cumulative IPC: 1.15024 (Simulation time: 0 hr 5 min 11 sec) 
Heartbeat CPU  0 instructions:  125000003 cycles:   87519995 heartbeat IPC: 1.15475 cumulative IPC: 1.15042 (Simulation time: 0 hr 5 min 14 sec) 
Heartbeat CPU  0 instructions:  126000002 cycles:   88387423 heartbeat IPC: 1.15283 cumulative IPC: 1.15051 (Simulation time: 0 hr 5 min 17 sec) 
Heartbeat CPU  0 instructions:  127000000 cycles:   89257647 heartbeat IPC: 1.14913 cumulative IPC: 1.15046 (Simulation time: 0 hr 5 min 20 sec) 
Heartbeat CPU  0 instructions:  128000000 cycles:   90126332 heartbeat IPC: 1.15117 cumulative IPC: 1.15048 (Simulation time: 0 hr 5 min 23 sec) 
Heartbeat CPU  0 instructions:  129000000 cycles:   90993062 heartbeat IPC: 1.15376 cumulative IPC: 1.15060 (Simulation time: 0 hr 5 min 25 sec) 
Heartbeat CPU  0 instructions:  130000001 cycles:   91865068 heartbeat IPC: 1.14678 cumulative IPC: 1.15047 (Simulation time: 0 hr 5 min 28 sec) 
Heartbeat CPU  0 instructions:  131000000 cycles:   92730313 heartbeat IPC: 1.15574 cumulative IPC: 1.15064 (Simulation time: 0 hr 5 min 31 sec) 
Heartbeat CPU  0 instructions:  132000000 cycles:   93599489 heartbeat IPC: 1.15051 cumulative IPC: 1.15063 (Simulation time: 0 hr 5 min 34 sec) 
Heartbeat CPU  0 instructions:  133000001 cycles:   94472598 heartbeat IPC: 1.14533 cumulative IPC: 1.15047 (Simulation time: 0 hr 5 min 36 sec) 
Heartbeat CPU  0 instructions:  134000000 cycles:   95345531 heartbeat IPC: 1.14556 cumulative IPC: 1.15033 (Simulation time: 0 hr 5 min 39 sec) 
Heartbeat CPU  0 instructions:  135000001 cycles:   96217084 heartbeat IPC: 1.14738 cumulative IPC: 1.15024 (Simulation time: 0 hr 5 min 42 sec) 
Heartbeat CPU  0 instructions:  136000000 cycles:   97085763 heartbeat IPC: 1.15117 cumulative IPC: 1.15027 (Simulation time: 0 hr 5 min 45 sec) 
Heartbeat CPU  0 instructions:  137000002 cycles:   97951805 heartbeat IPC: 1.15468 cumulative IPC: 1.15039 (Simulation time: 0 hr 5 min 48 sec) 
Heartbeat CPU  0 instructions:  138000000 cycles:   98824494 heartbeat IPC: 1.14588 cumulative IPC: 1.15027 (Simulation time: 0 hr 5 min 50 sec) 
Heartbeat CPU  0 instructions:  139000002 cycles:   99692765 heartbeat IPC: 1.15172 cumulative IPC: 1.15031 (Simulation time: 0 hr 5 min 53 sec) 
Heartbeat CPU  0 instructions:  140000000 cycles:  100556003 heartbeat IPC: 1.15843 cumulative IPC: 1.15051 (Simulation time: 0 hr 5 min 56 sec) 
Heartbeat CPU  0 instructions:  141000003 cycles:  101426576 heartbeat IPC: 1.14867 cumulative IPC: 1.15046 (Simulation time: 0 hr 5 min 59 sec) 
Heartbeat CPU  0 instructions:  142000001 cycles:  102299480 heartbeat IPC: 1.14560 cumulative IPC: 1.15035 (Simulation time: 0 hr 6 min 1 sec) 
Heartbeat CPU  0 instructions:  143000001 cycles:  103171788 heartbeat IPC: 1.14638 cumulative IPC: 1.15025 (Simulation time: 0 hr 6 min 4 sec) 
Heartbeat CPU  0 instructions:  144000000 cycles:  104041861 heartbeat IPC: 1.14933 cumulative IPC: 1.15023 (Simulation time: 0 hr 6 min 7 sec) 
Heartbeat CPU  0 instructions:  145000001 cycles:  104916266 heartbeat IPC: 1.14364 cumulative IPC: 1.15009 (Simulation time: 0 hr 6 min 10 sec) 
Heartbeat CPU  0 instructions:  146000003 cycles:  105786938 heartbeat IPC: 1.14854 cumulative IPC: 1.15005 (Simulation time: 0 hr 6 min 12 sec) 
Heartbeat CPU  0 instructions:  147000002 cycles:  106657627 heartbeat IPC: 1.14851 cumulative IPC: 1.15002 (Simulation time: 0 hr 6 min 15 sec) 
Heartbeat CPU  0 instructions:  148000000 cycles:  107523887 heartbeat IPC: 1.15439 cumulative IPC: 1.15011 (Simulation time: 0 hr 6 min 18 sec) 
Heartbeat CPU  0 instructions:  149000001 cycles:  108394867 heartbeat IPC: 1.14813 cumulative IPC: 1.15007 (Simulation time: 0 hr 6 min 21 sec) 
Heartbeat CPU  0 instructions:  150000002 cycles:  109259291 heartbeat IPC: 1.15684 cumulative IPC: 1.15020 (Simulation time: 0 hr 6 min 24 sec) 
Heartbeat CPU  0 instructions:  151000001 cycles:  110128008 heartbeat IPC: 1.15112 cumulative IPC: 1.15022 (Simulation time: 0 hr 6 min 26 sec) 
Heartbeat CPU  0 instructions:  152000000 cycles:  110996397 heartbeat IPC: 1.15156 cumulative IPC: 1.15025 (Simulation time: 0 hr 6 min 29 sec) 
Heartbeat CPU  0 instructions:  153000002 cycles:  111866098 heartbeat IPC: 1.14982 cumulative IPC: 1.15024 (Simulation time: 0 hr 6 min 32 sec) 
Heartbeat CPU  0 instructions:  154000001 cycles:  112737169 heartbeat IPC: 1.14801 cumulative IPC: 1.15020 (Simulation time: 0 hr 6 min 35 sec) 
Heartbeat CPU  0 instructions:  155000002 cycles:  113612627 heartbeat IPC: 1.14226 cumulative IPC: 1.15005 (Simulation time: 0 hr 6 min 37 sec) 
Heartbeat CPU  0 instructions:  156000000 cycles:  114485071 heartbeat IPC: 1.14620 cumulative IPC: 1.14998 (Simulation time: 0 hr 6 min 40 sec) 
Heartbeat CPU  0 instructions:  157000002 cycles:  115353928 heartbeat IPC: 1.15094 cumulative IPC: 1.15000 (Simulation time: 0 hr 6 min 43 sec) 
Heartbeat CPU  0 instructions:  158000000 cycles:  116227050 heartbeat IPC: 1.14531 cumulative IPC: 1.14992 (Simulation time: 0 hr 6 min 46 sec) 
Heartbeat CPU  0 instructions:  159000000 cycles:  117095012 heartbeat IPC: 1.15212 cumulative IPC: 1.14996 (Simulation time: 0 hr 6 min 48 sec) 
Heartbeat CPU  0 instructions:  160000000 cycles:  117963428 heartbeat IPC: 1.15152 cumulative IPC: 1.14998 (Simulation time: 0 hr 6 min 51 sec) 
Heartbeat CPU  0 instructions:  161000000 cycles:  118831295 heartbeat IPC: 1.15225 cumulative IPC: 1.15002 (Simulation time: 0 hr 6 min 54 sec) 
Heartbeat CPU  0 instructions:  162000000 cycles:  119699613 heartbeat IPC: 1.15165 cumulative IPC: 1.15005 (Simulation time: 0 hr 6 min 57 sec) 
Heartbeat CPU  0 instructions:  163000001 cycles:  120565438 heartbeat IPC: 1.15497 cumulative IPC: 1.15012 (Simulation time: 0 hr 6 min 59 sec) 
Heartbeat CPU  0 instructions:  164000000 cycles:  121438515 heartbeat IPC: 1.14537 cumulative IPC: 1.15005 (Simulation time: 0 hr 7 min 2 sec) 
Heartbeat CPU  0 instructions:  165000001 cycles:  122302930 heartbeat IPC: 1.15685 cumulative IPC: 1.15015 (Simulation time: 0 hr 7 min 5 sec) 
Heartbeat CPU  0 instructions:  166000002 cycles:  123177636 heartbeat IPC: 1.14324 cumulative IPC: 1.15005 (Simulation time: 0 hr 7 min 8 sec) 
Heartbeat CPU  0 instructions:  167000001 cycles:  124048307 heartbeat IPC: 1.14854 cumulative IPC: 1.15003 (Simulation time: 0 hr 7 min 10 sec) 
Heartbeat CPU  0 instructions:  168000000 cycles:  124921161 heartbeat IPC: 1.14567 cumulative IPC: 1.14996 (Simulation time: 0 hr 7 min 13 sec) 
Heartbeat CPU  0 instructions:  169000002 cycles:  125789438 heartbeat IPC: 1.15171 cumulative IPC: 1.14999 (Simulation time: 0 hr 7 min 16 sec) 
Heartbeat CPU  0 instructions:  170000001 cycles:  126660674 heartbeat IPC: 1.14779 cumulative IPC: 1.14996 (Simulation time: 0 hr 7 min 19 sec) 
Heartbeat CPU  0 instructions:  171000000 cycles:  127525034 heartbeat IPC: 1.15692 cumulative IPC: 1.15005 (Simulation time: 0 hr 7 min 22 sec) 
Heartbeat CPU  0 instructions:  172000000 cycles:  128392498 heartbeat IPC: 1.15279 cumulative IPC: 1.15009 (Simulation time: 0 hr 7 min 24 sec) 
Heartbeat CPU  0 instructions:  173000000 cycles:  129254750 heartbeat IPC: 1.15975 cumulative IPC: 1.15022 (Simulation time: 0 hr 7 min 27 sec) 
Heartbeat CPU  0 instructions:  174000000 cycles:  130121147 heartbeat IPC: 1.15421 cumulative IPC: 1.15028 (Simulation time: 0 hr 7 min 30 sec) 
Heartbeat CPU  0 instructions:  175000003 cycles:  130990814 heartbeat IPC: 1.14987 cumulative IPC: 1.15027 (Simulation time: 0 hr 7 min 33 sec) 
Heartbeat CPU  0 instructions:  176000000 cycles:  131862368 heartbeat IPC: 1.14737 cumulative IPC: 1.15023 (Simulation time: 0 hr 7 min 35 sec) 
Heartbeat CPU  0 instructions:  177000000 cycles:  132729856 heartbeat IPC: 1.15275 cumulative IPC: 1.15026 (Simulation time: 0 hr 7 min 38 sec) 
Heartbeat CPU  0 instructions:  178000002 cycles:  133604449 heartbeat IPC: 1.14339 cumulative IPC: 1.15018 (Simulation time: 0 hr 7 min 41 sec) 
Heartbeat CPU  0 instructions:  179000001 cycles:  134476149 heartbeat IPC: 1.14718 cumulative IPC: 1.15014 (Simulation time: 0 hr 7 min 44 sec) 
Heartbeat CPU  0 instructions:  180000000 cycles:  135346702 heartbeat IPC: 1.14869 cumulative IPC: 1.15012 (Simulation time: 0 hr 7 min 47 sec) 
Heartbeat CPU  0 instructions:  181000001 cycles:  136218610 heartbeat IPC: 1.14691 cumulative IPC: 1.15008 (Simulation time: 0 hr 7 min 49 sec) 
Heartbeat CPU  0 instructions:  182000000 cycles:  137084434 heartbeat IPC: 1.15497 cumulative IPC: 1.15014 (Simulation time: 0 hr 7 min 52 sec) 
Heartbeat CPU  0 instructions:  183000002 cycles:  137954830 heartbeat IPC: 1.14890 cumulative IPC: 1.15012 (Simulation time: 0 hr 7 min 55 sec) 
Heartbeat CPU  0 instructions:  184000000 cycles:  138818387 heartbeat IPC: 1.15800 cumulative IPC: 1.15022 (Simulation time: 0 hr 7 min 58 sec) 
Heartbeat CPU  0 instructions:  185000000 cycles:  139687193 heartbeat IPC: 1.15100 cumulative IPC: 1.15023 (Simulation time: 0 hr 8 min 0 sec) 
Heartbeat CPU  0 instructions:  186000000 cycles:  140550909 heartbeat IPC: 1.15779 cumulative IPC: 1.15031 (Simulation time: 0 hr 8 min 3 sec) 
Heartbeat CPU  0 instructions:  187000003 cycles:  141422399 heartbeat IPC: 1.14746 cumulative IPC: 1.15028 (Simulation time: 0 hr 8 min 6 sec) 
Heartbeat CPU  0 instructions:  188000000 cycles:  142291221 heartbeat IPC: 1.15098 cumulative IPC: 1.15029 (Simulation time: 0 hr 8 min 9 sec) 
Heartbeat CPU  0 instructions:  189000000 cycles:  143164339 heartbeat IPC: 1.14532 cumulative IPC: 1.15023 (Simulation time: 0 hr 8 min 12 sec) 
Heartbeat CPU  0 instructions:  190000003 cycles:  144031719 heartbeat IPC: 1.15290 cumulative IPC: 1.15026 (Simulation time: 0 hr 8 min 14 sec) 
Heartbeat CPU  0 instructions:  191000001 cycles:  144902985 heartbeat IPC: 1.14775 cumulative IPC: 1.15024 (Simulation time: 0 hr 8 min 17 sec) 
Heartbeat CPU  0 instructions:  192000000 cycles:  145772052 heartbeat IPC: 1.15066 cumulative IPC: 1.15024 (Simulation time: 0 hr 8 min 20 sec) 
Heartbeat CPU  0 instructions:  193000001 cycles:  146645334 heartbeat IPC: 1.14511 cumulative IPC: 1.15018 (Simulation time: 0 hr 8 min 23 sec) 
Heartbeat CPU  0 instructions:  194000001 cycles:  147507984 heartbeat IPC: 1.15922 cumulative IPC: 1.15028 (Simulation time: 0 hr 8 min 25 sec) 
Heartbeat CPU  0 instructions:  195000002 cycles:  148376426 heartbeat IPC: 1.15149 cumulative IPC: 1.15029 (Simulation time: 0 hr 8 min 28 sec) 
Heartbeat CPU  0 instructions:  196000000 cycles:  149244855 heartbeat IPC: 1.15150 cumulative IPC: 1.15031 (Simulation time: 0 hr 8 min 31 sec) 
Heartbeat CPU  0 instructions:  197000001 cycles:  150113679 heartbeat IPC: 1.15098 cumulative IPC: 1.15031 (Simulation time: 0 hr 8 min 34 sec) 
Heartbeat CPU  0 instructions:  198000002 cycles:  150979480 heartbeat IPC: 1.15500 cumulative IPC: 1.15036 (Simulation time: 0 hr 8 min 36 sec) 
Heartbeat CPU  0 instructions:  199000003 cycles:  151848160 heartbeat IPC: 1.15117 cumulative IPC: 1.15037 (Simulation time: 0 hr 8 min 39 sec) 
Heartbeat CPU  0 instructions:  200000000 cycles:  152718316 heartbeat IPC: 1.14922 cumulative IPC: 1.15036 (Simulation time: 0 hr 8 min 42 sec) 
Heartbeat CPU  0 instructions:  201000002 cycles:  153591563 heartbeat IPC: 1.14515 cumulative IPC: 1.15030 (Simulation time: 0 hr 8 min 45 sec) 
Heartbeat CPU  0 instructions:  202000000 cycles:  154466934 heartbeat IPC: 1.14237 cumulative IPC: 1.15023 (Simulation time: 0 hr 8 min 48 sec) 
Heartbeat CPU  0 instructions:  203000000 cycles:  155334280 heartbeat IPC: 1.15294 cumulative IPC: 1.15025 (Simulation time: 0 hr 8 min 50 sec) 
Heartbeat CPU  0 instructions:  204000000 cycles:  156203293 heartbeat IPC: 1.15073 cumulative IPC: 1.15026 (Simulation time: 0 hr 8 min 53 sec) 
Heartbeat CPU  0 instructions:  205000003 cycles:  157075129 heartbeat IPC: 1.14701 cumulative IPC: 1.15023 (Simulation time: 0 hr 8 min 56 sec) 
Heartbeat CPU  0 instructions:  206000002 cycles:  157943199 heartbeat IPC: 1.15198 cumulative IPC: 1.15024 (Simulation time: 0 hr 8 min 59 sec) 
Heartbeat CPU  0 instructions:  207000000 cycles:  158807188 heartbeat IPC: 1.15742 cumulative IPC: 1.15031 (Simulation time: 0 hr 9 min 1 sec) 
Heartbeat CPU  0 instructions:  208000000 cycles:  159672950 heartbeat IPC: 1.15505 cumulative IPC: 1.15035 (Simulation time: 0 hr 9 min 4 sec) 
Heartbeat CPU  0 instructions:  209000002 cycles:  160543855 heartbeat IPC: 1.14823 cumulative IPC: 1.15033 (Simulation time: 0 hr 9 min 7 sec) 
Heartbeat CPU  0 instructions:  210000001 cycles:  161410649 heartbeat IPC: 1.15368 cumulative IPC: 1.15036 (Simulation time: 0 hr 9 min 10 sec) 
Heartbeat CPU  0 instructions:  211000000 cycles:  162276853 heartbeat IPC: 1.15446 cumulative IPC: 1.15040 (Simulation time: 0 hr 9 min 13 sec) 
Heartbeat CPU  0 instructions:  212000000 cycles:  163149965 heartbeat IPC: 1.14533 cumulative IPC: 1.15036 (Simulation time: 0 hr 9 min 15 sec) 
Heartbeat CPU  0 instructions:  213000001 cycles:  164022968 heartbeat IPC: 1.14547 cumulative IPC: 1.15031 (Simulation time: 0 hr 9 min 18 sec) 
Heartbeat CPU  0 instructions:  214000000 cycles:  164897046 heartbeat IPC: 1.14406 cumulative IPC: 1.15026 (Simulation time: 0 hr 9 min 21 sec) 
Heartbeat CPU  0 instructions:  215000002 cycles:  165766103 heartbeat IPC: 1.15067 cumulative IPC: 1.15026 (Simulation time: 0 hr 9 min 24 sec) 
Heartbeat CPU  0 instructions:  216000000 cycles:  166632123 heartbeat IPC: 1.15471 cumulative IPC: 1.15030 (Simulation time: 0 hr 9 min 26 sec) 
Heartbeat CPU  0 instructions:  217000001 cycles:  167501709 heartbeat IPC: 1.14997 cumulative IPC: 1.15030 (Simulation time: 0 hr 9 min 29 sec) 
Heartbeat CPU  0 instructions:  218000002 cycles:  168366571 heartbeat IPC: 1.15626 cumulative IPC: 1.15035 (Simulation time: 0 hr 9 min 32 sec) 
Heartbeat CPU  0 instructions:  219000001 cycles:  169234325 heartbeat IPC: 1.15240 cumulative IPC: 1.15036 (Simulation time: 0 hr 9 min 35 sec) 
Heartbeat CPU  0 instructions:  220000000 cycles:  170101226 heartbeat IPC: 1.15353 cumulative IPC: 1.15039 (Simulation time: 0 hr 9 min 38 sec) 
Heartbeat CPU  0 instructions:  221000001 cycles:  170971623 heartbeat IPC: 1.14890 cumulative IPC: 1.15038 (Simulation time: 0 hr 9 min 40 sec) 
Heartbeat CPU  0 instructions:  222000002 cycles:  171838767 heartbeat IPC: 1.15321 cumulative IPC: 1.15040 (Simulation time: 0 hr 9 min 43 sec) 
Heartbeat CPU  0 instructions:  223000000 cycles:  172708927 heartbeat IPC: 1.14921 cumulative IPC: 1.15039 (Simulation time: 0 hr 9 min 46 sec) 
Heartbeat CPU  0 instructions:  224000000 cycles:  173584405 heartbeat IPC: 1.14223 cumulative IPC: 1.15032 (Simulation time: 0 hr 9 min 49 sec) 
Heartbeat CPU  0 instructions:  225000002 cycles:  174454928 heartbeat IPC: 1.14874 cumulative IPC: 1.15031 (Simulation time: 0 hr 9 min 51 sec) 
Heartbeat CPU  0 instructions:  226000003 cycles:  175328484 heartbeat IPC: 1.14475 cumulative IPC: 1.15027 (Simulation time: 0 hr 9 min 54 sec) 
Heartbeat CPU  0 instructions:  227000002 cycles:  176195256 heartbeat IPC: 1.15370 cumulative IPC: 1.15029 (Simulation time: 0 hr 9 min 57 sec) 
Heartbeat CPU  0 instructions:  228000000 cycles:  177060171 heartbeat IPC: 1.15618 cumulative IPC: 1.15034 (Simulation time: 0 hr 10 min 0 sec) 
Heartbeat CPU  0 instructions:  229000000 cycles:  177924091 heartbeat IPC: 1.15751 cumulative IPC: 1.15040 (Simulation time: 0 hr 10 min 2 sec) 
Heartbeat CPU  0 instructions:  230000002 cycles:  178793632 heartbeat IPC: 1.15003 cumulative IPC: 1.15039 (Simulation time: 0 hr 10 min 5 sec) 
Heartbeat CPU  0 instructions:  231000001 cycles:  179658980 heartbeat IPC: 1.15560 cumulative IPC: 1.15043 (Simulation time: 0 hr 10 min 8 sec) 
Heartbeat CPU  0 instructions:  232000000 cycles:  180528542 heartbeat IPC: 1.15000 cumulative IPC: 1.15043 (Simulation time: 0 hr 10 min 11 sec) 
Heartbeat CPU  0 instructions:  233000000 cycles:  181396899 heartbeat IPC: 1.15160 cumulative IPC: 1.15044 (Simulation time: 0 hr 10 min 14 sec) 
Heartbeat CPU  0 instructions:  234000001 cycles:  182269540 heartbeat IPC: 1.14595 cumulative IPC: 1.15040 (Simulation time: 0 hr 10 min 16 sec) 
Heartbeat CPU  0 instructions:  235000001 cycles:  183141389 heartbeat IPC: 1.14699 cumulative IPC: 1.15038 (Simulation time: 0 hr 10 min 19 sec) 
Heartbeat CPU  0 instructions:  236000000 cycles:  184012286 heartbeat IPC: 1.14824 cumulative IPC: 1.15036 (Simulation time: 0 hr 10 min 22 sec) 
Heartbeat CPU  0 instructions:  237000000 cycles:  184882179 heartbeat IPC: 1.14957 cumulative IPC: 1.15036 (Simulation time: 0 hr 10 min 25 sec) 
Heartbeat CPU  0 instructions:  238000000 cycles:  185753660 heartbeat IPC: 1.14747 cumulative IPC: 1.15034 (Simulation time: 0 hr 10 min 27 sec) 
Heartbeat CPU  0 instructions:  239000001 cycles:  186620707 heartbeat IPC: 1.15334 cumulative IPC: 1.15036 (Simulation time: 0 hr 10 min 30 sec) 
Heartbeat CPU  0 instructions:  240000000 cycles:  187486490 heartbeat IPC: 1.15502 cumulative IPC: 1.15039 (Simulation time: 0 hr 10 min 33 sec) 
Heartbeat CPU  0 instructions:  241000000 cycles:  188351772 heartbeat IPC: 1.15569 cumulative IPC: 1.15043 (Simulation time: 0 hr 10 min 36 sec) 
Heartbeat CPU  0 instructions:  242000003 cycles:  189221623 heartbeat IPC: 1.14963 cumulative IPC: 1.15042 (Simulation time: 0 hr 10 min 38 sec) 
Heartbeat CPU  0 instructions:  243000000 cycles:  190088207 heartbeat IPC: 1.15395 cumulative IPC: 1.15045 (Simulation time: 0 hr 10 min 41 sec) 
Heartbeat CPU  0 instructions:  244000000 cycles:  190955454 heartbeat IPC: 1.15307 cumulative IPC: 1.15047 (Simulation time: 0 hr 10 min 44 sec) 
Heartbeat CPU  0 instructions:  245000001 cycles:  191823696 heartbeat IPC: 1.15175 cumulative IPC: 1.15047 (Simulation time: 0 hr 10 min 47 sec) 
Heartbeat CPU  0 instructions:  246000001 cycles:  192696459 heartbeat IPC: 1.14579 cumulative IPC: 1.15044 (Simulation time: 0 hr 10 min 50 sec) 
Heartbeat CPU  0 instructions:  247000001 cycles:  193567881 heartbeat IPC: 1.14755 cumulative IPC: 1.15042 (Simulation time: 0 hr 10 min 52 sec) 
Heartbeat CPU  0 instructions:  248000000 cycles:  194436309 heartbeat IPC: 1.15150 cumulative IPC: 1.15043 (Simulation time: 0 hr 10 min 55 sec) 
Heartbeat CPU  0 instructions:  249000003 cycles:  195304880 heartbeat IPC: 1.15132 cumulative IPC: 1.15044 (Simulation time: 0 hr 10 min 58 sec) 
Heartbeat CPU  0 instructions:  250000001 cycles:  196175756 heartbeat IPC: 1.14827 cumulative IPC: 1.15042 (Simulation time: 0 hr 11 min 1 sec) 
Heartbeat CPU  0 instructions:  251000000 cycles:  197042807 heartbeat IPC: 1.15333 cumulative IPC: 1.15044 (Simulation time: 0 hr 11 min 3 sec) 
Heartbeat CPU  0 instructions:  252000000 cycles:  197909823 heartbeat IPC: 1.15338 cumulative IPC: 1.15046 (Simulation time: 0 hr 11 min 6 sec) 
Heartbeat CPU  0 instructions:  253000000 cycles:  198775785 heartbeat IPC: 1.15479 cumulative IPC: 1.15049 (Simulation time: 0 hr 11 min 9 sec) 
Heartbeat CPU  0 instructions:  254000001 cycles:  199645336 heartbeat IPC: 1.15002 cumulative IPC: 1.15049 (Simulation time: 0 hr 11 min 12 sec) 
Heartbeat CPU  0 instructions:  255000000 cycles:  200514843 heartbeat IPC: 1.15008 cumulative IPC: 1.15048 (Simulation time: 0 hr 11 min 14 sec) 
Heartbeat CPU  0 instructions:  256000000 cycles:  201383707 heartbeat IPC: 1.15093 cumulative IPC: 1.15049 (Simulation time: 0 hr 11 min 17 sec) 
Heartbeat CPU  0 instructions:  257000000 cycles:  202251848 heartbeat IPC: 1.15189 cumulative IPC: 1.15049 (Simulation time: 0 hr 11 min 20 sec) 
Heartbeat CPU  0 instructions:  258000003 cycles:  203122124 heartbeat IPC: 1.14906 cumulative IPC: 1.15049 (Simulation time: 0 hr 11 min 23 sec) 
Heartbeat CPU  0 instructions:  259000002 cycles:  203993488 heartbeat IPC: 1.14762 cumulative IPC: 1.15047 (Simulation time: 0 hr 11 min 26 sec) 
Heartbeat CPU  0 instructions:  260000000 cycles:  204865266 heartbeat IPC: 1.14708 cumulative IPC: 1.15045 (Simulation time: 0 hr 11 min 28 sec) 
Heartbeat CPU  0 instructions:  261000003 cycles:  205731628 heartbeat IPC: 1.15426 cumulative IPC: 1.15047 (Simulation time: 0 hr 11 min 31 sec) 
Heartbeat CPU  0 instructions:  262000000 cycles:  206598576 heartbeat IPC: 1.15347 cumulative IPC: 1.15049 (Simulation time: 0 hr 11 min 34 sec) 
Heartbeat CPU  0 instructions:  263000000 cycles:  207464989 heartbeat IPC: 1.15418 cumulative IPC: 1.15051 (Simulation time: 0 hr 11 min 37 sec) 
Heartbeat CPU  0 instructions:  264000000 cycles:  208331995 heartbeat IPC: 1.15339 cumulative IPC: 1.15053 (Simulation time: 0 hr 11 min 39 sec) 
Heartbeat CPU  0 instructions:  265000002 cycles:  209199380 heartbeat IPC: 1.15289 cumulative IPC: 1.15054 (Simulation time: 0 hr 11 min 42 sec) 
Heartbeat CPU  0 instructions:  266000003 cycles:  210070210 heartbeat IPC: 1.14833 cumulative IPC: 1.15053 (Simulation time: 0 hr 11 min 45 sec) 
Heartbeat CPU  0 instructions:  267000003 cycles:  210935558 heartbeat IPC: 1.15560 cumulative IPC: 1.15056 (Simulation time: 0 hr 11 min 48 sec) 
Heartbeat CPU  0 instructions:  268000000 cycles:  211806048 heartbeat IPC: 1.14877 cumulative IPC: 1.15055 (Simulation time: 0 hr 11 min 51 sec) 
Heartbeat CPU  0 instructions:  269000000 cycles:  212679066 heartbeat IPC: 1.14545 cumulative IPC: 1.15052 (Simulation time: 0 hr 11 min 53 sec) 
Heartbeat CPU  0 instructions:  270000001 cycles:  213546177 heartbeat IPC: 1.15326 cumulative IPC: 1.15053 (Simulation time: 0 hr 11 min 56 sec) 
Heartbeat CPU  0 instructions:  271000001 cycles:  214416559 heartbeat IPC: 1.14892 cumulative IPC: 1.15052 (Simulation time: 0 hr 11 min 59 sec) 
Heartbeat CPU  0 instructions:  272000000 cycles:  215289183 heartbeat IPC: 1.14597 cumulative IPC: 1.15050 (Simulation time: 0 hr 12 min 2 sec) 
Heartbeat CPU  0 instructions:  273000003 cycles:  216158335 heartbeat IPC: 1.15055 cumulative IPC: 1.15050 (Simulation time: 0 hr 12 min 4 sec) 
Heartbeat CPU  0 instructions:  274000002 cycles:  217023060 heartbeat IPC: 1.15644 cumulative IPC: 1.15053 (Simulation time: 0 hr 12 min 7 sec) 
Heartbeat CPU  0 instructions:  275000000 cycles:  217890034 heartbeat IPC: 1.15343 cumulative IPC: 1.15055 (Simulation time: 0 hr 12 min 10 sec) 
Heartbeat CPU  0 instructions:  276000000 cycles:  218758987 heartbeat IPC: 1.15081 cumulative IPC: 1.15055 (Simulation time: 0 hr 12 min 13 sec) 
Heartbeat CPU  0 instructions:  277000002 cycles:  219632906 heartbeat IPC: 1.14427 cumulative IPC: 1.15051 (Simulation time: 0 hr 12 min 16 sec) 
Heartbeat CPU  0 instructions:  278000002 cycles:  220497687 heartbeat IPC: 1.15636 cumulative IPC: 1.15055 (Simulation time: 0 hr 12 min 18 sec) 
Heartbeat CPU  0 instructions:  279000001 cycles:  221367908 heartbeat IPC: 1.14913 cumulative IPC: 1.15054 (Simulation time: 0 hr 12 min 21 sec) 
Heartbeat CPU  0 instructions:  280000000 cycles:  222238872 heartbeat IPC: 1.14815 cumulative IPC: 1.15053 (Simulation time: 0 hr 12 min 24 sec) 
Heartbeat CPU  0 instructions:  281000000 cycles:  223116233 heartbeat IPC: 1.13978 cumulative IPC: 1.15047 (Simulation time: 0 hr 12 min 27 sec) 
Heartbeat CPU  0 instructions:  282000000 cycles:  223981654 heartbeat IPC: 1.15551 cumulative IPC: 1.15049 (Simulation time: 0 hr 12 min 30 sec) 
Heartbeat CPU  0 instructions:  283000003 cycles:  224857786 heartbeat IPC: 1.14138 cumulative IPC: 1.15044 (Simulation time: 0 hr 12 min 32 sec) 
Heartbeat CPU  0 instructions:  284000000 cycles:  225728095 heartbeat IPC: 1.14901 cumulative IPC: 1.15044 (Simulation time: 0 hr 12 min 35 sec) 
Heartbeat CPU  0 instructions:  285000000 cycles:  226600005 heartbeat IPC: 1.14691 cumulative IPC: 1.15042 (Simulation time: 0 hr 12 min 38 sec) 
Heartbeat CPU  0 instructions:  286000002 cycles:  227465271 heartbeat IPC: 1.15572 cumulative IPC: 1.15045 (Simulation time: 0 hr 12 min 41 sec) 
Heartbeat CPU  0 instructions:  287000000 cycles:  228335589 heartbeat IPC: 1.14900 cumulative IPC: 1.15044 (Simulation time: 0 hr 12 min 43 sec) 
Heartbeat CPU  0 instructions:  288000000 cycles:  229203831 heartbeat IPC: 1.15175 cumulative IPC: 1.15044 (Simulation time: 0 hr 12 min 46 sec) 
Heartbeat CPU  0 instructions:  289000001 cycles:  230076689 heartbeat IPC: 1.14566 cumulative IPC: 1.15042 (Simulation time: 0 hr 12 min 49 sec) 
Heartbeat CPU  0 instructions:  290000002 cycles:  230942118 heartbeat IPC: 1.15550 cumulative IPC: 1.15045 (Simulation time: 0 hr 12 min 52 sec) 
Heartbeat CPU  0 instructions:  291000002 cycles:  231815442 heartbeat IPC: 1.14505 cumulative IPC: 1.15042 (Simulation time: 0 hr 12 min 55 sec) 
Heartbeat CPU  0 instructions:  292000000 cycles:  232687808 heartbeat IPC: 1.14631 cumulative IPC: 1.15040 (Simulation time: 0 hr 12 min 57 sec) 
Heartbeat CPU  0 instructions:  293000001 cycles:  233557899 heartbeat IPC: 1.14931 cumulative IPC: 1.15039 (Simulation time: 0 hr 13 min 0 sec) 
Heartbeat CPU  0 instructions:  294000000 cycles:  234426460 heartbeat IPC: 1.15133 cumulative IPC: 1.15040 (Simulation time: 0 hr 13 min 3 sec) 
Heartbeat CPU  0 instructions:  295000003 cycles:  235298329 heartbeat IPC: 1.14696 cumulative IPC: 1.15038 (Simulation time: 0 hr 13 min 6 sec) 
Heartbeat CPU  0 instructions:  296000000 cycles:  236166796 heartbeat IPC: 1.15145 cumulative IPC: 1.15038 (Simulation time: 0 hr 13 min 8 sec) 
Heartbeat CPU  0 instructions:  297000001 cycles:  237033943 heartbeat IPC: 1.15321 cumulative IPC: 1.15040 (Simulation time: 0 hr 13 min 11 sec) 
Heartbeat CPU  0 instructions:  298000001 cycles:  237901446 heartbeat IPC: 1.15273 cumulative IPC: 1.15041 (Simulation time: 0 hr 13 min 14 sec) 
Heartbeat CPU  0 instructions:  299000000 cycles:  238766605 heartbeat IPC: 1.15586 cumulative IPC: 1.15044 (Simulation time: 0 hr 13 min 17 sec) 
Heartbeat CPU  0 instructions:  300000000 cycles:  239635425 heartbeat IPC: 1.15099 cumulative IPC: 1.15044 (Simulation time: 0 hr 13 min 19 sec) 
Heartbeat CPU  0 instructions:  301000000 cycles:  240503674 heartbeat IPC: 1.15174 cumulative IPC: 1.15045 (Simulation time: 0 hr 13 min 22 sec) 
Heartbeat CPU  0 instructions:  302000002 cycles:  241374790 heartbeat IPC: 1.14796 cumulative IPC: 1.15043 (Simulation time: 0 hr 13 min 25 sec) 
Heartbeat CPU  0 instructions:  303000000 cycles:  242242299 heartbeat IPC: 1.15272 cumulative IPC: 1.15044 (Simulation time: 0 hr 13 min 28 sec) 
Heartbeat CPU  0 instructions:  304000000 cycles:  243113566 heartbeat IPC: 1.14775 cumulative IPC: 1.15043 (Simulation time: 0 hr 13 min 31 sec) 
Heartbeat CPU  0 instructions:  305000001 cycles:  243983930 heartbeat IPC: 1.14895 cumulative IPC: 1.15042 (Simulation time: 0 hr 13 min 33 sec) 
Heartbeat CPU  0 instructions:  306000001 cycles:  244859990 heartbeat IPC: 1.14147 cumulative IPC: 1.15038 (Simulation time: 0 hr 13 min 36 sec) 
Heartbeat CPU  0 instructions:  307000002 cycles:  245724951 heartbeat IPC: 1.15612 cumulative IPC: 1.15041 (Simulation time: 0 hr 13 min 39 sec) 
Heartbeat CPU  0 instructions:  308000000 cycles:  246594333 heartbeat IPC: 1.15024 cumulative IPC: 1.15041 (Simulation time: 0 hr 13 min 42 sec) 
Heartbeat CPU  0 instructions:  309000002 cycles:  247465217 heartbeat IPC: 1.14826 cumulative IPC: 1.15040 (Simulation time: 0 hr 13 min 44 sec) 
Heartbeat CPU  0 instructions:  310000000 cycles:  248334676 heartbeat IPC: 1.15014 cumulative IPC: 1.15040 (Simulation time: 0 hr 13 min 47 sec) 
Heartbeat CPU  0 instructions:  311000002 cycles:  249204128 heartbeat IPC: 1.15015 cumulative IPC: 1.15039 (Simulation time: 0 hr 13 min 50 sec) 
Heartbeat CPU  0 instructions:  312000000 cycles:  250068520 heartbeat IPC: 1.15688 cumulative IPC: 1.15042 (Simulation time: 0 hr 13 min 53 sec) 
Heartbeat CPU  0 instructions:  313000003 cycles:  250938775 heartbeat IPC: 1.14909 cumulative IPC: 1.15042 (Simulation time: 0 hr 13 min 55 sec) 
Heartbeat CPU  0 instructions:  314000002 cycles:  251811706 heartbeat IPC: 1.14556 cumulative IPC: 1.15040 (Simulation time: 0 hr 13 min 58 sec) 
Heartbeat CPU  0 instructions:  315000000 cycles:  252682881 heartbeat IPC: 1.14787 cumulative IPC: 1.15038 (Simulation time: 0 hr 14 min 1 sec) 
Heartbeat CPU  0 instructions:  316000000 cycles:  253551626 heartbeat IPC: 1.15109 cumulative IPC: 1.15039 (Simulation time: 0 hr 14 min 4 sec) 
Heartbeat CPU  0 instructions:  317000001 cycles:  254426668 heartbeat IPC: 1.14280 cumulative IPC: 1.15035 (Simulation time: 0 hr 14 min 7 sec) 
Heartbeat CPU  0 instructions:  318000001 cycles:  255301390 heartbeat IPC: 1.14322 cumulative IPC: 1.15032 (Simulation time: 0 hr 14 min 10 sec) 
Heartbeat CPU  0 instructions:  319000000 cycles:  256173980 heartbeat IPC: 1.14601 cumulative IPC: 1.15030 (Simulation time: 0 hr 14 min 13 sec) 
Heartbeat CPU  0 instructions:  320000000 cycles:  257040690 heartbeat IPC: 1.15379 cumulative IPC: 1.15032 (Simulation time: 0 hr 14 min 15 sec) 
Heartbeat CPU  0 instructions:  321000000 cycles:  257911923 heartbeat IPC: 1.14780 cumulative IPC: 1.15030 (Simulation time: 0 hr 14 min 18 sec) 
Heartbeat CPU  0 instructions:  322000000 cycles:  258781330 heartbeat IPC: 1.15021 cumulative IPC: 1.15030 (Simulation time: 0 hr 14 min 21 sec) 
Heartbeat CPU  0 instructions:  323000002 cycles:  259648469 heartbeat IPC: 1.15322 cumulative IPC: 1.15032 (Simulation time: 0 hr 14 min 24 sec) 
Heartbeat CPU  0 instructions:  324000000 cycles:  260514293 heartbeat IPC: 1.15497 cumulative IPC: 1.15034 (Simulation time: 0 hr 14 min 27 sec) 
Heartbeat CPU  0 instructions:  325000002 cycles:  261381983 heartbeat IPC: 1.15249 cumulative IPC: 1.15035 (Simulation time: 0 hr 14 min 29 sec) 
Heartbeat CPU  0 instructions:  326000001 cycles:  262255472 heartbeat IPC: 1.14483 cumulative IPC: 1.15032 (Simulation time: 0 hr 14 min 32 sec) 
Heartbeat CPU  0 instructions:  327000000 cycles:  263123580 heartbeat IPC: 1.15193 cumulative IPC: 1.15033 (Simulation time: 0 hr 14 min 35 sec) 
Heartbeat CPU  0 instructions:  328000000 cycles:  263997590 heartbeat IPC: 1.14415 cumulative IPC: 1.15030 (Simulation time: 0 hr 14 min 38 sec) 
Heartbeat CPU  0 instructions:  329000003 cycles:  264866931 heartbeat IPC: 1.15030 cumulative IPC: 1.15030 (Simulation time: 0 hr 14 min 40 sec) 
Heartbeat CPU  0 instructions:  330000000 cycles:  265738247 heartbeat IPC: 1.14769 cumulative IPC: 1.15029 (Simulation time: 0 hr 14 min 43 sec) 
Heartbeat CPU  0 instructions:  331000000 cycles:  266609709 heartbeat IPC: 1.14750 cumulative IPC: 1.15028 (Simulation time: 0 hr 14 min 46 sec) 
Heartbeat CPU  0 instructions:  332000000 cycles:  267478270 heartbeat IPC: 1.15133 cumulative IPC: 1.15028 (Simulation time: 0 hr 14 min 49 sec) 
Heartbeat CPU  0 instructions:  333000002 cycles:  268346508 heartbeat IPC: 1.15176 cumulative IPC: 1.15029 (Simulation time: 0 hr 14 min 52 sec) 
Heartbeat CPU  0 instructions:  334000003 cycles:  269216362 heartbeat IPC: 1.14962 cumulative IPC: 1.15029 (Simulation time: 0 hr 14 min 54 sec) 
Heartbeat CPU  0 instructions:  335000000 cycles:  270079282 heartbeat IPC: 1.15885 cumulative IPC: 1.15032 (Simulation time: 0 hr 14 min 57 sec) 
Heartbeat CPU  0 instructions:  336000000 cycles:  270948825 heartbeat IPC: 1.15003 cumulative IPC: 1.15032 (Simulation time: 0 hr 15 min 0 sec) 
Heartbeat CPU  0 instructions:  337000001 cycles:  271815551 heartbeat IPC: 1.15377 cumulative IPC: 1.15034 (Simulation time: 0 hr 15 min 3 sec) 
Heartbeat CPU  0 instructions:  338000002 cycles:  272685737 heartbeat IPC: 1.14918 cumulative IPC: 1.15033 (Simulation time: 0 hr 15 min 5 sec) 
Heartbeat CPU  0 instructions:  339000001 cycles:  273554079 heartbeat IPC: 1.15162 cumulative IPC: 1.15034 (Simulation time: 0 hr 15 min 8 sec) 
Heartbeat CPU  0 instructions:  340000000 cycles:  274426253 heartbeat IPC: 1.14656 cumulative IPC: 1.15032 (Simulation time: 0 hr 15 min 11 sec) 
Heartbeat CPU  0 instructions:  341000001 cycles:  275293159 heartbeat IPC: 1.15353 cumulative IPC: 1.15033 (Simulation time: 0 hr 15 min 14 sec) 
Heartbeat CPU  0 instructions:  342000003 cycles:  276163545 heartbeat IPC: 1.14892 cumulative IPC: 1.15033 (Simulation time: 0 hr 15 min 16 sec) 
Heartbeat CPU  0 instructions:  343000002 cycles:  277034630 heartbeat IPC: 1.14799 cumulative IPC: 1.15032 (Simulation time: 0 hr 15 min 19 sec) 
Heartbeat CPU  0 instructions:  344000000 cycles:  277901508 heartbeat IPC: 1.15356 cumulative IPC: 1.15033 (Simulation time: 0 hr 15 min 22 sec) 
Heartbeat CPU  0 instructions:  345000001 cycles:  279742553 heartbeat IPC: 0.54317 cumulative IPC: 1.14511 (Simulation time: 0 hr 15 min 25 sec) 
Heartbeat CPU  0 instructions:  346000001 cycles:  280979263 heartbeat IPC: 0.80860 cumulative IPC: 1.14317 (Simulation time: 0 hr 15 min 27 sec) 
Heartbeat CPU  0 instructions:  347000003 cycles:  281937622 heartbeat IPC: 1.04345 cumulative IPC: 1.14273 (Simulation time: 0 hr 15 min 29 sec) 
Heartbeat CPU  0 instructions:  348000000 cycles:  282892460 heartbeat IPC: 1.04729 cumulative IPC: 1.14231 (Simulation time: 0 hr 15 min 32 sec) 
Heartbeat CPU  0 instructions:  349000002 cycles:  283846694 heartbeat IPC: 1.04796 cumulative IPC: 1.14190 (Simulation time: 0 hr 15 min 34 sec) 
Heartbeat CPU  0 instructions:  350000002 cycles:  284803556 heartbeat IPC: 1.04508 cumulative IPC: 1.14148 (Simulation time: 0 hr 15 min 36 sec) 
Heartbeat CPU  0 instructions:  351000003 cycles:  285757667 heartbeat IPC: 1.04810 cumulative IPC: 1.14107 (Simulation time: 0 hr 15 min 38 sec) 
Heartbeat CPU  0 instructions:  352000000 cycles:  286712628 heartbeat IPC: 1.04716 cumulative IPC: 1.14066 (Simulation time: 0 hr 15 min 41 sec) 
Heartbeat CPU  0 instructions:  353000003 cycles:  287668144 heartbeat IPC: 1.04656 cumulative IPC: 1.14026 (Simulation time: 0 hr 15 min 43 sec) 
Heartbeat CPU  0 instructions:  354000000 cycles:  288623195 heartbeat IPC: 1.04706 cumulative IPC: 1.13986 (Simulation time: 0 hr 15 min 45 sec) 
Heartbeat CPU  0 instructions:  355000000 cycles:  289575872 heartbeat IPC: 1.04967 cumulative IPC: 1.13948 (Simulation time: 0 hr 15 min 47 sec) 
Heartbeat CPU  0 instructions:  356000000 cycles:  290534886 heartbeat IPC: 1.04274 cumulative IPC: 1.13906 (Simulation time: 0 hr 15 min 49 sec) 
Heartbeat CPU  0 instructions:  357000003 cycles:  291492384 heartbeat IPC: 1.04439 cumulative IPC: 1.13866 (Simulation time: 0 hr 15 min 52 sec) 
Heartbeat CPU  0 instructions:  358000003 cycles:  292436482 heartbeat IPC: 1.05921 cumulative IPC: 1.13833 (Simulation time: 0 hr 15 min 54 sec) 
Heartbeat CPU  0 instructions:  359000003 cycles:  293172198 heartbeat IPC: 1.35922 cumulative IPC: 1.13905 (Simulation time: 0 hr 15 min 56 sec) 
Heartbeat CPU  0 instructions:  360000000 cycles:  293817817 heartbeat IPC: 1.54890 cumulative IPC: 1.14021 (Simulation time: 0 hr 15 min 58 sec) 
Heartbeat CPU  0 instructions:  361000003 cycles:  294885396 heartbeat IPC: 0.93670 cumulative IPC: 1.13926 (Simulation time: 0 hr 16 min 0 sec) 
Heartbeat CPU  0 instructions:  362000003 cycles:  296118103 heartbeat IPC: 0.81122 cumulative IPC: 1.13750 (Simulation time: 0 hr 16 min 3 sec) 
Heartbeat CPU  0 instructions:  363000000 cycles:  297337053 heartbeat IPC: 0.82038 cumulative IPC: 1.13583 (Simulation time: 0 hr 16 min 5 sec) 
Heartbeat CPU  0 instructions:  364000000 cycles:  298554615 heartbeat IPC: 0.82131 cumulative IPC: 1.13419 (Simulation time: 0 hr 16 min 8 sec) 
Heartbeat CPU  0 instructions:  365000000 cycles:  299770785 heartbeat IPC: 0.82225 cumulative IPC: 1.13257 (Simulation time: 0 hr 16 min 10 sec) 
Heartbeat CPU  0 instructions:  366000003 cycles:  300980343 heartbeat IPC: 0.82675 cumulative IPC: 1.13099 (Simulation time: 0 hr 16 min 13 sec) 
Heartbeat CPU  0 instructions:  367000001 cycles:  302182874 heartbeat IPC: 0.83158 cumulative IPC: 1.12947 (Simulation time: 0 hr 16 min 15 sec) 
Heartbeat CPU  0 instructions:  368000000 cycles:  303384698 heartbeat IPC: 0.83207 cumulative IPC: 1.12797 (Simulation time: 0 hr 16 min 17 sec) 
Heartbeat CPU  0 instructions:  369000002 cycles:  304636197 heartbeat IPC: 0.79904 cumulative IPC: 1.12624 (Simulation time: 0 hr 16 min 20 sec) 
Heartbeat CPU  0 instructions:  370000002 cycles:  305918682 heartbeat IPC: 0.77974 cumulative IPC: 1.12439 (Simulation time: 0 hr 16 min 22 sec) 
Heartbeat CPU  0 instructions:  371000000 cycles:  307210222 heartbeat IPC: 0.77427 cumulative IPC: 1.12252 (Simulation time: 0 hr 16 min 25 sec) 
Heartbeat CPU  0 instructions:  372000000 cycles:  308507561 heartbeat IPC: 0.77081 cumulative IPC: 1.12064 (Simulation time: 0 hr 16 min 27 sec) 
Heartbeat CPU  0 instructions:  373000003 cycles:  309792234 heartbeat IPC: 0.77841 cumulative IPC: 1.11884 (Simulation time: 0 hr 16 min 30 sec) 
Heartbeat CPU  0 instructions:  374000003 cycles:  311084399 heartbeat IPC: 0.77389 cumulative IPC: 1.11702 (Simulation time: 0 hr 16 min 32 sec) 
Heartbeat CPU  0 instructions:  375000000 cycles:  312361643 heartbeat IPC: 0.78293 cumulative IPC: 1.11529 (Simulation time: 0 hr 16 min 35 sec) 
Heartbeat CPU  0 instructions:  376000000 cycles:  313641866 heartbeat IPC: 0.78111 cumulative IPC: 1.11356 (Simulation time: 0 hr 16 min 37 sec) 
Heartbeat CPU  0 instructions:  377000001 cycles:  314623167 heartbeat IPC: 1.01906 cumulative IPC: 1.11319 (Simulation time: 0 hr 16 min 40 sec) 
Heartbeat CPU  0 instructions:  378000001 cycles:  315488928 heartbeat IPC: 1.15505 cumulative IPC: 1.11334 (Simulation time: 0 hr 16 min 43 sec) 
Heartbeat CPU  0 instructions:  379000000 cycles:  316353078 heartbeat IPC: 1.15721 cumulative IPC: 1.11349 (Simulation time: 0 hr 16 min 46 sec) 
Heartbeat CPU  0 instructions:  380000000 cycles:  317215905 heartbeat IPC: 1.15898 cumulative IPC: 1.11364 (Simulation time: 0 hr 16 min 48 sec) 
Heartbeat CPU  0 instructions:  381000003 cycles:  318079976 heartbeat IPC: 1.15732 cumulative IPC: 1.11379 (Simulation time: 0 hr 16 min 51 sec) 
Heartbeat CPU  0 instructions:  382000000 cycles:  318947515 heartbeat IPC: 1.15268 cumulative IPC: 1.11393 (Simulation time: 0 hr 16 min 54 sec) 
Heartbeat CPU  0 instructions:  383000000 cycles:  319813622 heartbeat IPC: 1.15459 cumulative IPC: 1.11406 (Simulation time: 0 hr 16 min 57 sec) 
Heartbeat CPU  0 instructions:  384000000 cycles:  320677925 heartbeat IPC: 1.15700 cumulative IPC: 1.11421 (Simulation time: 0 hr 16 min 59 sec) 
Heartbeat CPU  0 instructions:  385000000 cycles:  321545158 heartbeat IPC: 1.15309 cumulative IPC: 1.11434 (Simulation time: 0 hr 17 min 2 sec) 
Heartbeat CPU  0 instructions:  386000000 cycles:  322415095 heartbeat IPC: 1.14951 cumulative IPC: 1.11446 (Simulation time: 0 hr 17 min 5 sec) 
Heartbeat CPU  0 instructions:  387000003 cycles:  323280914 heartbeat IPC: 1.15498 cumulative IPC: 1.11460 (Simulation time: 0 hr 17 min 8 sec) 
Heartbeat CPU  0 instructions:  388000000 cycles:  324147991 heartbeat IPC: 1.15330 cumulative IPC: 1.11473 (Simulation time: 0 hr 17 min 11 sec) 
Heartbeat CPU  0 instructions:  389000000 cycles:  325018453 heartbeat IPC: 1.14882 cumulative IPC: 1.11484 (Simulation time: 0 hr 17 min 14 sec) 
Heartbeat CPU  0 instructions:  390000000 cycles:  325887571 heartbeat IPC: 1.15059 cumulative IPC: 1.11496 (Simulation time: 0 hr 17 min 16 sec) 
Heartbeat CPU  0 instructions:  391000001 cycles:  326749757 heartbeat IPC: 1.15984 cumulative IPC: 1.11511 (Simulation time: 0 hr 17 min 19 sec) 
Heartbeat CPU  0 instructions:  392000000 cycles:  327615746 heartbeat IPC: 1.15475 cumulative IPC: 1.11524 (Simulation time: 0 hr 17 min 22 sec) 
Heartbeat CPU  0 instructions:  393000000 cycles:  328484346 heartbeat IPC: 1.15128 cumulative IPC: 1.11536 (Simulation time: 0 hr 17 min 25 sec) 
Heartbeat CPU  0 instructions:  394000000 cycles:  329352760 heartbeat IPC: 1.15152 cumulative IPC: 1.11548 (Simulation time: 0 hr 17 min 27 sec) 
Heartbeat CPU  0 instructions:  395000000 cycles:  330218687 heartbeat IPC: 1.15483 cumulative IPC: 1.11561 (Simulation time: 0 hr 17 min 30 sec) 
Heartbeat CPU  0 instructions:  396000000 cycles:  331085023 heartbeat IPC: 1.15429 cumulative IPC: 1.11573 (Simulation time: 0 hr 17 min 33 sec) 
Heartbeat CPU  0 instructions:  397000001 cycles:  331952085 heartbeat IPC: 1.15332 cumulative IPC: 1.11586 (Simulation time: 0 hr 17 min 36 sec) 
Heartbeat CPU  0 instructions:  398000000 cycles:  332820524 heartbeat IPC: 1.15149 cumulative IPC: 1.11597 (Simulation time: 0 hr 17 min 39 sec) 
Heartbeat CPU  0 instructions:  399000000 cycles:  333687791 heartbeat IPC: 1.15305 cumulative IPC: 1.11609 (Simulation time: 0 hr 17 min 41 sec) 
Heartbeat CPU  0 instructions:  400000000 cycles:  334554115 heartbeat IPC: 1.15430 cumulative IPC: 1.11622 (Simulation time: 0 hr 17 min 44 sec) 
Heartbeat CPU  0 instructions:  401000003 cycles:  335421984 heartbeat IPC: 1.15225 cumulative IPC: 1.11633 (Simulation time: 0 hr 17 min 47 sec) 
Heartbeat CPU  0 instructions:  402000003 cycles:  336288419 heartbeat IPC: 1.15415 cumulative IPC: 1.11645 (Simulation time: 0 hr 17 min 50 sec) 
Heartbeat CPU  0 instructions:  403000000 cycles:  337158668 heartbeat IPC: 1.14909 cumulative IPC: 1.11656 (Simulation time: 0 hr 17 min 52 sec) 
Heartbeat CPU  0 instructions:  404000000 cycles:  338025241 heartbeat IPC: 1.15397 cumulative IPC: 1.11668 (Simulation time: 0 hr 17 min 55 sec) 
Heartbeat CPU  0 instructions:  405000000 cycles:  338889793 heartbeat IPC: 1.15667 cumulative IPC: 1.11680 (Simulation time: 0 hr 17 min 58 sec) 
Heartbeat CPU  0 instructions:  406000000 cycles:  339756128 heartbeat IPC: 1.15429 cumulative IPC: 1.11692 (Simulation time: 0 hr 18 min 1 sec) 
Heartbeat CPU  0 instructions:  407000002 cycles:  340626666 heartbeat IPC: 1.14872 cumulative IPC: 1.11702 (Simulation time: 0 hr 18 min 3 sec) 
Heartbeat CPU  0 instructions:  408000000 cycles:  341495371 heartbeat IPC: 1.15114 cumulative IPC: 1.11713 (Simulation time: 0 hr 18 min 6 sec) 
Heartbeat CPU  0 instructions:  409000002 cycles:  342365135 heartbeat IPC: 1.14974 cumulative IPC: 1.11723 (Simulation time: 0 hr 18 min 9 sec) 
Heartbeat CPU  0 instructions:  410000001 cycles:  343235797 heartbeat IPC: 1.14855 cumulative IPC: 1.11733 (Simulation time: 0 hr 18 min 12 sec) 
Heartbeat CPU  0 instructions:  411000000 cycles:  344103978 heartbeat IPC: 1.15183 cumulative IPC: 1.11744 (Simulation time: 0 hr 18 min 15 sec) 
Heartbeat CPU  0 instructions:  412000000 cycles:  344972637 heartbeat IPC: 1.15120 cumulative IPC: 1.11754 (Simulation time: 0 hr 18 min 17 sec) 
Heartbeat CPU  0 instructions:  413000001 cycles:  345839754 heartbeat IPC: 1.15325 cumulative IPC: 1.11765 (Simulation time: 0 hr 18 min 20 sec) 
Heartbeat CPU  0 instructions:  414000000 cycles:  346705181 heartbeat IPC: 1.15550 cumulative IPC: 1.11777 (Simulation time: 0 hr 18 min 23 sec) 
Heartbeat CPU  0 instructions:  415000002 cycles:  347575516 heartbeat IPC: 1.14899 cumulative IPC: 1.11787 (Simulation time: 0 hr 18 min 26 sec) 
Heartbeat CPU  0 instructions:  416000000 cycles:  348440507 heartbeat IPC: 1.15608 cumulative IPC: 1.11798 (Simulation time: 0 hr 18 min 29 sec) 
Heartbeat CPU  0 instructions:  417000000 cycles:  349307714 heartbeat IPC: 1.15313 cumulative IPC: 1.11809 (Simulation time: 0 hr 18 min 31 sec) 
Heartbeat CPU  0 instructions:  418000002 cycles:  350175009 heartbeat IPC: 1.15301 cumulative IPC: 1.11820 (Simulation time: 0 hr 18 min 34 sec) 
Heartbeat CPU  0 instructions:  419000002 cycles:  351047134 heartbeat IPC: 1.14662 cumulative IPC: 1.11828 (Simulation time: 0 hr 18 min 37 sec) 
Heartbeat CPU  0 instructions:  420000000 cycles:  351917901 heartbeat IPC: 1.14841 cumulative IPC: 1.11838 (Simulation time: 0 hr 18 min 40 sec) 
Heartbeat CPU  0 instructions:  421000001 cycles:  352783232 heartbeat IPC: 1.15563 cumulative IPC: 1.11849 (Simulation time: 0 hr 18 min 42 sec) 
Heartbeat CPU  0 instructions:  422000001 cycles:  353653566 heartbeat IPC: 1.14898 cumulative IPC: 1.11858 (Simulation time: 0 hr 18 min 45 sec) 
Heartbeat CPU  0 instructions:  423000000 cycles:  354521236 heartbeat IPC: 1.15251 cumulative IPC: 1.11868 (Simulation time: 0 hr 18 min 48 sec) 
Heartbeat CPU  0 instructions:  424000000 cycles:  355388627 heartbeat IPC: 1.15288 cumulative IPC: 1.11879 (Simulation time: 0 hr 18 min 51 sec) 
Heartbeat CPU  0 instructions:  425000002 cycles:  356252161 heartbeat IPC: 1.15803 cumulative IPC: 1.11890 (Simulation time: 0 hr 18 min 54 sec) 
Heartbeat CPU  0 instructions:  426000003 cycles:  357117826 heartbeat IPC: 1.15518 cumulative IPC: 1.11901 (Simulation time: 0 hr 18 min 56 sec) 
Heartbeat CPU  0 instructions:  427000002 cycles:  357985984 heartbeat IPC: 1.15186 cumulative IPC: 1.11911 (Simulation time: 0 hr 18 min 59 sec) 
Heartbeat CPU  0 instructions:  428000000 cycles:  358853185 heartbeat IPC: 1.15313 cumulative IPC: 1.11921 (Simulation time: 0 hr 19 min 2 sec) 
Heartbeat CPU  0 instructions:  429000000 cycles:  359722422 heartbeat IPC: 1.15043 cumulative IPC: 1.11930 (Simulation time: 0 hr 19 min 5 sec) 
Heartbeat CPU  0 instructions:  430000002 cycles:  360591186 heartbeat IPC: 1.15106 cumulative IPC: 1.11939 (Simulation time: 0 hr 19 min 7 sec) 
Heartbeat CPU  0 instructions:  431000001 cycles:  361462396 heartbeat IPC: 1.14783 cumulative IPC: 1.11948 (Simulation time: 0 hr 19 min 10 sec) 
Heartbeat CPU  0 instructions:  432000000 cycles:  362328399 heartbeat IPC: 1.15473 cumulative IPC: 1.11958 (Simulation time: 0 hr 19 min 13 sec) 
Heartbeat CPU  0 instructions:  433000002 cycles:  363196417 heartbeat IPC: 1.15205 cumulative IPC: 1.11968 (Simulation time: 0 hr 19 min 16 sec) 
Heartbeat CPU  0 instructions:  434000003 cycles:  364062247 heartbeat IPC: 1.15496 cumulative IPC: 1.11978 (Simulation time: 0 hr 19 min 18 sec) 
Heartbeat CPU  0 instructions:  435000001 cycles:  364931733 heartbeat IPC: 1.15010 cumulative IPC: 1.11987 (Simulation time: 0 hr 19 min 21 sec) 
Heartbeat CPU  0 instructions:  436000000 cycles:  365799057 heartbeat IPC: 1.15297 cumulative IPC: 1.11996 (Simulation time: 0 hr 19 min 24 sec) 
Heartbeat CPU  0 instructions:  437000001 cycles:  366665885 heartbeat IPC: 1.15363 cumulative IPC: 1.12006 (Simulation time: 0 hr 19 min 27 sec) 
Heartbeat CPU  0 instructions:  438000001 cycles:  367532033 heartbeat IPC: 1.15454 cumulative IPC: 1.12016 (Simulation time: 0 hr 19 min 30 sec) 
Heartbeat CPU  0 instructions:  439000001 cycles:  368397831 heartbeat IPC: 1.15500 cumulative IPC: 1.12026 (Simulation time: 0 hr 19 min 32 sec) 
Heartbeat CPU  0 instructions:  440000000 cycles:  369264372 heartbeat IPC: 1.15401 cumulative IPC: 1.12035 (Simulation time: 0 hr 19 min 35 sec) 
Heartbeat CPU  0 instructions:  441000000 cycles:  370132778 heartbeat IPC: 1.15154 cumulative IPC: 1.12044 (Simulation time: 0 hr 19 min 38 sec) 
Heartbeat CPU  0 instructions:  442000001 cycles:  371000699 heartbeat IPC: 1.15218 cumulative IPC: 1.12053 (Simulation time: 0 hr 19 min 41 sec) 
Heartbeat CPU  0 instructions:  443000001 cycles:  371869428 heartbeat IPC: 1.15111 cumulative IPC: 1.12062 (Simulation time: 0 hr 19 min 43 sec) 
Heartbeat CPU  0 instructions:  444000000 cycles:  372737048 heartbeat IPC: 1.15258 cumulative IPC: 1.12071 (Simulation time: 0 hr 19 min 46 sec) 
Heartbeat CPU  0 instructions:  445000000 cycles:  373611790 heartbeat IPC: 1.14319 cumulative IPC: 1.12077 (Simulation time: 0 hr 19 min 49 sec) 
Heartbeat CPU  0 instructions:  446000002 cycles:  374475271 heartbeat IPC: 1.15811 cumulative IPC: 1.12088 (Simulation time: 0 hr 19 min 52 sec) 
Heartbeat CPU  0 instructions:  447000000 cycles:  375345222 heartbeat IPC: 1.14949 cumulative IPC: 1.12096 (Simulation time: 0 hr 19 min 55 sec) 
Heartbeat CPU  0 instructions:  448000000 cycles:  376210926 heartbeat IPC: 1.15513 cumulative IPC: 1.12105 (Simulation time: 0 hr 19 min 57 sec) 
Heartbeat CPU  0 instructions:  449000001 cycles:  377081748 heartbeat IPC: 1.14834 cumulative IPC: 1.12113 (Simulation time: 0 hr 20 min 0 sec) 
Heartbeat CPU  0 instructions:  450000001 cycles:  377945880 heartbeat IPC: 1.15723 cumulative IPC: 1.12123 (Simulation time: 0 hr 20 min 3 sec) 
Heartbeat CPU  0 instructions:  451000002 cycles:  378812890 heartbeat IPC: 1.15339 cumulative IPC: 1.12132 (Simulation time: 0 hr 20 min 6 sec) 
Heartbeat CPU  0 instructions:  452000000 cycles:  379679963 heartbeat IPC: 1.15330 cumulative IPC: 1.12141 (Simulation time: 0 hr 20 min 8 sec) 
Heartbeat CPU  0 instructions:  453000001 cycles:  380547958 heartbeat IPC: 1.15208 cumulative IPC: 1.12149 (Simulation time: 0 hr 20 min 11 sec) 
Heartbeat CPU  0 instructions:  454000000 cycles:  381415757 heartbeat IPC: 1.15234 cumulative IPC: 1.12158 (Simulation time: 0 hr 20 min 14 sec) 
Heartbeat CPU  0 instructions:  455000003 cycles:  382282974 heartbeat IPC: 1.15312 cumulative IPC: 1.12166 (Simulation time: 0 hr 20 min 17 sec) 
Heartbeat CPU  0 instructions:  456000000 cycles:  383152573 heartbeat IPC: 1.14995 cumulative IPC: 1.12174 (Simulation time: 0 hr 20 min 20 sec) 
Heartbeat CPU  0 instructions:  457000000 cycles:  384019868 heartbeat IPC: 1.15301 cumulative IPC: 1.12183 (Simulation time: 0 hr 20 min 22 sec) 
Heartbeat CPU  0 instructions:  458000003 cycles:  384888875 heartbeat IPC: 1.15074 cumulative IPC: 1.12190 (Simulation time: 0 hr 20 min 25 sec) 
Heartbeat CPU  0 instructions:  459000002 cycles:  385753230 heartbeat IPC: 1.15693 cumulative IPC: 1.12200 (Simulation time: 0 hr 20 min 28 sec) 
Heartbeat CPU  0 instructions:  460000000 cycles:  386620781 heartbeat IPC: 1.15267 cumulative IPC: 1.12208 (Simulation time: 0 hr 20 min 31 sec) 
Heartbeat CPU  0 instructions:  461000000 cycles:  387487214 heartbeat IPC: 1.15416 cumulative IPC: 1.12217 (Simulation time: 0 hr 20 min 34 sec) 
Heartbeat CPU  0 instructions:  462000000 cycles:  388351338 heartbeat IPC: 1.15724 cumulative IPC: 1.12226 (Simulation time: 0 hr 20 min 36 sec) 
Heartbeat CPU  0 instructions:  463000000 cycles:  389216662 heartbeat IPC: 1.15564 cumulative IPC: 1.12235 (Simulation time: 0 hr 20 min 39 sec) 
Heartbeat CPU  0 instructions:  464000000 cycles:  390088762 heartbeat IPC: 1.14666 cumulative IPC: 1.12242 (Simulation time: 0 hr 20 min 42 sec) 
Heartbeat CPU  0 instructions:  465000001 cycles:  390954842 heartbeat IPC: 1.15463 cumulative IPC: 1.12250 (Simulation time: 0 hr 20 min 45 sec) 
Heartbeat CPU  0 instructions:  466000003 cycles:  391823783 heartbeat IPC: 1.15083 cumulative IPC: 1.12258 (Simulation time: 0 hr 20 min 48 sec) 
Heartbeat CPU  0 instructions:  467000002 cycles:  392687880 heartbeat IPC: 1.15728 cumulative IPC: 1.12267 (Simulation time: 0 hr 20 min 50 sec) 
Heartbeat CPU  0 instructions:  468000000 cycles:  393560313 heartbeat IPC: 1.14622 cumulative IPC: 1.12273 (Simulation time: 0 hr 20 min 53 sec) 
Heartbeat CPU  0 instructions:  469000000 cycles:  394427390 heartbeat IPC: 1.15330 cumulative IPC: 1.12281 (Simulation time: 0 hr 20 min 56 sec) 
Heartbeat CPU  0 instructions:  470000000 cycles:  395293800 heartbeat IPC: 1.15419 cumulative IPC: 1.12290 (Simulation time: 0 hr 20 min 59 sec) 
Heartbeat CPU  0 instructions:  471000003 cycles:  396162744 heartbeat IPC: 1.15083 cumulative IPC: 1.12297 (Simulation time: 0 hr 21 min 1 sec) 
Heartbeat CPU  0 instructions:  472000000 cycles:  397031914 heartbeat IPC: 1.15052 cumulative IPC: 1.12304 (Simulation time: 0 hr 21 min 4 sec) 
Heartbeat CPU  0 instructions:  473000000 cycles:  397898903 heartbeat IPC: 1.15342 cumulative IPC: 1.12312 (Simulation time: 0 hr 21 min 7 sec) 
Heartbeat CPU  0 instructions:  474000001 cycles:  398764631 heartbeat IPC: 1.15510 cumulative IPC: 1.12320 (Simulation time: 0 hr 21 min 10 sec) 
Heartbeat CPU  0 instructions:  475000000 cycles:  399629503 heartbeat IPC: 1.15624 cumulative IPC: 1.12329 (Simulation time: 0 hr 21 min 13 sec) 
Heartbeat CPU  0 instructions:  476000000 cycles:  400495855 heartbeat IPC: 1.15427 cumulative IPC: 1.12337 (Simulation time: 0 hr 21 min 15 sec) 
Heartbeat CPU  0 instructions:  477000002 cycles:  401362989 heartbeat IPC: 1.15323 cumulative IPC: 1.12345 (Simulation time: 0 hr 21 min 18 sec) 
Heartbeat CPU  0 instructions:  478000002 cycles:  402232321 heartbeat IPC: 1.15031 cumulative IPC: 1.12352 (Simulation time: 0 hr 21 min 21 sec) 
Heartbeat CPU  0 instructions:  479000001 cycles:  403098787 heartbeat IPC: 1.15411 cumulative IPC: 1.12360 (Simulation time: 0 hr 21 min 24 sec) 
Heartbeat CPU  0 instructions:  480000000 cycles:  403965833 heartbeat IPC: 1.15334 cumulative IPC: 1.12367 (Simulation time: 0 hr 21 min 27 sec) 
Heartbeat CPU  0 instructions:  481000002 cycles:  404835845 heartbeat IPC: 1.14941 cumulative IPC: 1.12374 (Simulation time: 0 hr 21 min 29 sec) 
Heartbeat CPU  0 instructions:  482000003 cycles:  405701924 heartbeat IPC: 1.15463 cumulative IPC: 1.12382 (Simulation time: 0 hr 21 min 32 sec) 
Heartbeat CPU  0 instructions:  483000002 cycles:  406572735 heartbeat IPC: 1.14835 cumulative IPC: 1.12388 (Simulation time: 0 hr 21 min 35 sec) 
Heartbeat CPU  0 instructions:  484000000 cycles:  407439651 heartbeat IPC: 1.15351 cumulative IPC: 1.12395 (Simulation time: 0 hr 21 min 38 sec) 
Heartbeat CPU  0 instructions:  485000003 cycles:  408306357 heartbeat IPC: 1.15380 cumulative IPC: 1.12403 (Simulation time: 0 hr 21 min 40 sec) 
Heartbeat CPU  0 instructions:  486000001 cycles:  409173088 heartbeat IPC: 1.15376 cumulative IPC: 1.12410 (Simulation time: 0 hr 21 min 43 sec) 
Heartbeat CPU  0 instructions:  487000002 cycles:  410040800 heartbeat IPC: 1.15246 cumulative IPC: 1.12418 (Simulation time: 0 hr 21 min 46 sec) 
Heartbeat CPU  0 instructions:  488000000 cycles:  410907813 heartbeat IPC: 1.15338 cumulative IPC: 1.12425 (Simulation time: 0 hr 21 min 49 sec) 
Heartbeat CPU  0 instructions:  489000003 cycles:  411775778 heartbeat IPC: 1.15212 cumulative IPC: 1.12432 (Simulation time: 0 hr 21 min 52 sec) 
Heartbeat CPU  0 instructions:  490000001 cycles:  412645939 heartbeat IPC: 1.14921 cumulative IPC: 1.12438 (Simulation time: 0 hr 21 min 54 sec) 
Heartbeat CPU  0 instructions:  491000000 cycles:  413515531 heartbeat IPC: 1.14996 cumulative IPC: 1.12445 (Simulation time: 0 hr 21 min 57 sec) 
Heartbeat CPU  0 instructions:  492000000 cycles:  414377659 heartbeat IPC: 1.15992 cumulative IPC: 1.12453 (Simulation time: 0 hr 22 min 0 sec) 
Heartbeat CPU  0 instructions:  493000001 cycles:  415244514 heartbeat IPC: 1.15360 cumulative IPC: 1.12461 (Simulation time: 0 hr 22 min 3 sec) 
Heartbeat CPU  0 instructions:  494000000 cycles:  416114647 heartbeat IPC: 1.14925 cumulative IPC: 1.12467 (Simulation time: 0 hr 22 min 5 sec) 
Heartbeat CPU  0 instructions:  495000003 cycles:  416979630 heartbeat IPC: 1.15610 cumulative IPC: 1.12474 (Simulation time: 0 hr 22 min 8 sec) 
Heartbeat CPU  0 instructions:  496000000 cycles:  417844062 heartbeat IPC: 1.15683 cumulative IPC: 1.12482 (Simulation time: 0 hr 22 min 11 sec) 
Heartbeat CPU  0 instructions:  497000001 cycles:  418710519 heartbeat IPC: 1.15413 cumulative IPC: 1.12490 (Simulation time: 0 hr 22 min 14 sec) 
Heartbeat CPU  0 instructions:  498000003 cycles:  419580606 heartbeat IPC: 1.14931 cumulative IPC: 1.12496 (Simulation time: 0 hr 22 min 17 sec) 
Heartbeat CPU  0 instructions:  499000001 cycles:  420447594 heartbeat IPC: 1.15342 cumulative IPC: 1.12502 (Simulation time: 0 hr 22 min 19 sec) 
Heartbeat CPU  0 instructions:  500000000 cycles:  421320858 heartbeat IPC: 1.14513 cumulative IPC: 1.12507 (Simulation time: 0 hr 22 min 22 sec) 
Heartbeat CPU  0 instructions:  501000003 cycles:  422184624 heartbeat IPC: 1.15772 cumulative IPC: 1.12515 (Simulation time: 0 hr 22 min 25 sec) 
Heartbeat CPU  0 instructions:  502000001 cycles:  423054008 heartbeat IPC: 1.15024 cumulative IPC: 1.12521 (Simulation time: 0 hr 22 min 28 sec) 
Heartbeat CPU  0 instructions:  503000000 cycles:  423922095 heartbeat IPC: 1.15196 cumulative IPC: 1.12528 (Simulation time: 0 hr 22 min 31 sec) 
Heartbeat CPU  0 instructions:  504000000 cycles:  424789490 heartbeat IPC: 1.15288 cumulative IPC: 1.12535 (Simulation time: 0 hr 22 min 33 sec) 
Heartbeat CPU  0 instructions:  505000000 cycles:  425657592 heartbeat IPC: 1.15194 cumulative IPC: 1.12541 (Simulation time: 0 hr 22 min 36 sec) 
Heartbeat CPU  0 instructions:  506000001 cycles:  426523980 heartbeat IPC: 1.15422 cumulative IPC: 1.12548 (Simulation time: 0 hr 22 min 39 sec) 
Heartbeat CPU  0 instructions:  507000000 cycles:  427393545 heartbeat IPC: 1.15000 cumulative IPC: 1.12554 (Simulation time: 0 hr 22 min 42 sec) 
Heartbeat CPU  0 instructions:  508000000 cycles:  428260147 heartbeat IPC: 1.15393 cumulative IPC: 1.12561 (Simulation time: 0 hr 22 min 45 sec) 
Heartbeat CPU  0 instructions:  509000000 cycles:  429125094 heartbeat IPC: 1.15614 cumulative IPC: 1.12568 (Simulation time: 0 hr 22 min 47 sec) 
Heartbeat CPU  0 instructions:  510000001 cycles:  429992715 heartbeat IPC: 1.15258 cumulative IPC: 1.12574 (Simulation time: 0 hr 22 min 50 sec) 
Heartbeat CPU  0 instructions:  511000001 cycles:  430863686 heartbeat IPC: 1.14814 cumulative IPC: 1.12580 (Simulation time: 0 hr 22 min 53 sec) 
Heartbeat CPU  0 instructions:  512000000 cycles:  431731441 heartbeat IPC: 1.15240 cumulative IPC: 1.12586 (Simulation time: 0 hr 22 min 56 sec) 
[...]
scooby_state_400e44|46|-17 1,0,0,0,0,0,0,0,0,0,0,0,0,0,0,1,
scooby_state_401661|25|-5 1,0,0,0,0,0,0,0,0,0,0,0,0,0,0,1,
scooby_state_400de5|16|-38 1,0,0,0,0,0,0,0,0,0,0,0,0,0,0,1,
scooby_state_400e20|9|4 1,0,0,0,0,0,0,0,0,0,0,0,0,0,0,1,
scooby_state_400dfd|35|2 1,0,0,0,0,0,0,0,0,0,0,0,0,0,0,1,
scooby_state_400c04|48|1 1,0,0,0,0,0,0,0,0,0,0,0,0,0,0,1,
scooby_state_402605|24|0 1,0,0,0,0,0,0,0,0,0,0,0,0,0,0,1,
scooby_state_400e5e|0|-9 1,0,0,0,0,0,0,0,0,0,0,0,0,0,0,1,
scooby_state_400e2c|61|-1 1,0,0,0,0,0,0,0,0,0,0,0,0,0,0,1,
scooby_state_400a87|42|1 1,0,0,0,0,0,0,0,0,0,0,0,0,0,0,1,
scooby_state_400a40|41|1 1,0,0,0,0,0,0,0,0,0,0,0,0,0,0,1,
scooby_state_4025a0|19|0 1,0,0,0,0,0,0,0,0,0,0,0,0,0,0,1,
scooby_state_402883|34|1 1,0,0,0,0,0,0,0,0,0,0,0,0,0,0,1,
scooby_state_400e5e|0|-23 1,0,0,0,0,0,0,0,0,0,0,0,0,0,0,1,
scooby_state_400e2c|20|-1 1,0,0,0,0,0,0,0,0,0,0,0,0,0,0,1,
scooby_state_400e2c|13|-1 1,0,0,0,0,0,0,0,0,0,0,0,0,0,0,1,
scooby_state_400e44|7|1 1,0,0,0,0,0,0,0,0,0,0,0,0,0,0,1,
scooby_state_401040|1|1 0,1,0,0,0,0,0,0,0,0,0,0,0,0,0,1,
scooby_state_400df3|27|3 1,0,0,0,0,0,0,0,0,0,0,0,0,0,0,1,
scooby_state_400de5|0|-23 1,0,0,0,0,0,0,0,0,0,0,0,0,0,0,1,
scooby_state_400902|36|1 1,0,0,0,0,0,0,0,0,0,0,0,0,0,0,1,
scooby_state_400dda|24|4 1,0,0,0,0,0,0,0,0,0,0,0,0,0,0,1,
scooby_state_400e44|25|-38 1,0,0,0,0,0,0,0,0,0,0,0,0,0,0,1,
scooby_state_400de5|20|-38 1,0,0,0,0,0,0,0,0,0,0,0,0,0,0,1,
scooby_state_400de5|60|43 1,0,0,0,0,0,0,0,0,0,0,0,0,0,0,1,
scooby_state_400525|20|1 1,0,0,0,0,0,0,0,0,0,0,0,0,0,0,1,
scooby_state_400de5|52|-11 1,0,0,0,0,0,0,0,0,0,0,0,0,0,0,1,
scooby_state_400df3|24|-3 1,0,0,0,0,0,0,0,0,0,0,0,0,0,0,1,
scooby_state_400e2c|26|-1 1,0,0,0,0,0,0,0,0,0,0,0,0,0,0,1,
scooby_state_400dfd|30|2 1,0,0,0,0,0,0,0,0,0,0,0,0,0,0,1,
scooby_state_400df3|42|2 1,0,0,0,0,0,0,0,0,0,0,0,0,0,0,1,
scooby_state_400e2c|30|-1 1,0,0,0,0,0,0,0,0,0,0,0,0,0,0,1,
scooby_state_400e44|0|-42 1,0,0,0,0,0,0,0,0,0,0,0,0,0,0,1,
scooby_state_400e01|56|1 1,0,0,0,0,0,0,0,0,0,0,0,0,0,0,1,
scooby_state_400dc0|20|-3 1,0,0,0,0,0,0,0,0,0,0,0,0,0,0,1,
scooby_state_400e20|38|2 1,0,0,0,0,0,0,0,0,0,0,0,0,0,0,1,
scooby_state_400e2c|40|-1 1,0,0,0,0,0,0,0,0,0,0,0,0,0,0,1,
scooby_state_4014fa|19|-8 1,0,0,0,0,0,0,0,0,0,0,0,0,0,0,1,
scooby_state_4010c7|3|1 1,0,0,0,0,0,0,0,0,0,0,0,0,0,0,1,
scooby_state_400942|37|1 1,0,0,0,0,0,0,0,0,0,0,0,0,0,0,1,
scooby_state_400e51|9|4 1,0,0,0,0,0,0,0,0,0,0,0,0,0,0,1,
scooby_state_400987|38|1 1,0,0,0,0,0,0,0,0,0,0,0,0,0,0,1,
scooby_state_400e2c|28|-1 1,0,0,0,0,0,0,0,0,0,0,0,0,0,0,1,
scooby_state_400d1d|61|7 1,0,0,0,0,0,0,0,0,0,0,0,0,0,0,1,
scooby_state_400e44|28|-35 1,0,0,0,0,0,0,0,0,0,0,0,0,0,0,1,
scooby_state_400dda|22|4 1,0,0,0,0,0,0,0,0,0,0,0,0,0,0,1,
scooby_state_400e38|36|-2 1,0,0,0,0,0,0,0,0,0,0,0,0,0,0,1,
scooby_state_400dda|38|4 1,0,0,0,0,0,0,0,0,0,0,0,0,0,0,1,
scooby_state_400b80|46|1 1,0,0,0,0,0,0,0,0,0,0,0,0,0,0,1,
scooby_state_400de5|40|-23 1,0,0,0,0,0,0,0,0,0,0,0,0,0,0,1,
scooby_state_4007c0|31|1 1,0,0,0,0,0,0,0,0,0,0,0,0,0,0,1,
scooby_state_400dda|9|4 1,0,0,0,0,0,0,0,0,0,0,0,0,0,0,1,
scooby_state_400e5e|42|0 1,0,0,0,0,0,0,0,0,0,0,0,0,0,0,1,
scooby_state_400e2c|4|-1 1,0,0,0,0,0,0,0,0,0,0,0,0,0,0,1,
scooby_state_400de5|5|-38 1,0,0,0,0,0,0,0,0,0,0,0,0,0,0,1,
scooby_state_400e2c|34|-1 1,0,0,0,0,0,0,0,0,0,0,0,0,0,0,1,
scooby_state_400e44|52|-1 1,0,0,0,0,0,0,0,0,0,0,0,0,0,0,1,
scooby_state_4014aa|18|1 1,0,0,0,0,0,0,0,0,0,0,0,0,0,0,1,
scooby_state_4003de|15|1 1,0,0,0,0,0,0,0,0,0,0,0,0,0,0,1,
scooby_state_400e44|30|-33 1,0,0,0,0,0,0,0,0,0,0,0,0,0,0,1,
scooby_state_400df3|50|2 1,0,0,0,0,0,0,0,0,0,0,0,0,0,0,1,
scooby_state_400d85|54|1 1,0,0,0,0,0,0,0,0,0,0,0,0,0,0,1,
scooby_state_400f87|62|1 1,0,0,0,0,0,0,0,0,0,0,0,0,0,0,1,
scooby_state_400ef0|53|-9 1,0,0,0,0,0,0,0,0,0,0,0,0,0,0,1,
scooby_state_400e38|24|4 1,0,0,0,0,0,0,0,0,0,0,0,0,0,0,1,
scooby_state_400e2c|3|-1 1,0,0,0,0,0,0,0,0,0,0,0,0,0,0,1,
scooby_state_400b00|44|1 1,0,0,0,0,0,0,0,0,0,0,0,0,0,0,1,
scooby_state_4009c2|39|1 1,0,0,0,0,0,0,0,0,0,0,0,0,0,0,1,
scooby_state_401783|30|1 1,0,0,0,0,0,0,0,0,0,0,0,0,0,0,1,
scooby_state_4027ee|1|-5 1,0,0,0,0,0,0,0,0,0,0,0,0,0,0,1,
scooby_state_400e2c|8|-1 1,0,0,0,0,0,0,0,0,0,0,0,0,0,0,1,
scooby_state_400e5e|0|-16 1,0,0,0,0,0,0,0,0,0,0,0,0,0,0,1,
scooby_state_400ac4|43|1 1,0,0,0,0,0,0,0,0,0,0,0,0,0,0,1,
scooby_state_400e5e|43|2 1,0,0,0,0,0,0,0,0,0,0,0,0,0,0,1,
scooby_state_400fc1|63|13 1,0,0,0,0,0,0,0,0,0,0,0,0,0,0,1,
scooby_state_400e20|52|-1 1,0,0,0,0,0,0,0,0,0,0,0,0,0,0,1,
scooby_state_400dfd|33|2 1,0,0,0,0,0,0,0,0,0,0,0,0,0,0,1,
scooby_state_401383|16|-1 1,0,0,0,0,0,0,0,0,0,0,0,0,0,0,1,
scooby_state_400a05|40|-23 1,0,0,0,0,0,0,0,0,0,0,0,0,0,0,1,
scooby_state_400e5e|0|-35 1,0,0,0,0,0,0,0,0,0,0,0,0,0,0,1,
scooby_state_400e44|32|0 1,0,0,0,0,0,0,0,0,0,0,0,0,0,0,1,
scooby_state_401082|2|0 1,0,0,0,0,0,0,0,0,0,0,0,0,0,0,1,
scooby_state_401003|0|0 1,0,0,0,0,0,0,0,0,0,0,0,0,0,0,1,
scooby_state_400c40|49|1 1,0,0,0,0,0,0,0,0,0,0,0,0,0,0,1,
scooby_state_400de5|0|-7 1,0,0,0,0,0,0,0,0,0,0,0,0,0,0,1,
scooby_state_400de5|63|0 1,0,0,0,0,0,0,0,0,0,0,0,0,0,0,1,
scooby_state_400df3|28|4 1,0,0,0,0,0,0,0,0,0,0,0,0,0,0,1,
scooby_state_400de5|3|-38 1,0,0,0,0,0,0,0,0,0,0,0,0,0,0,1,
scooby_state_400df3|34|-3 1,0,0,0,0,0,0,0,0,0,0,0,0,0,0,1,
scooby_state_400dda|5|-3 1,0,0,0,0,0,0,0,0,0,0,0,0,0,0,1,
scooby_state_400de5|0|-4 1,0,0,0,0,0,0,0,0,0,0,0,0,0,0,1,
scooby_state_400e44|33|-30 1,0,0,0,0,0,0,0,0,0,0,0,0,0,0,1,
scooby_state_400f08|52|-10 1,0,0,0,0,0,0,0,0,0,0,0,0,0,0,1,
scooby_state_4025c4|8|3 1,0,0,0,0,0,0,0,0,0,0,0,0,0,0,1,
scooby_state_402585|5|4 1,0,0,0,0,0,0,0,0,0,0,0,0,0,0,1,
scooby_state_402578|44|0 1,0,0,0,0,0,0,0,0,0,0,0,0,0,0,1,
scooby_state_400f47|58|1 1,0,0,0,0,0,0,0,0,0,0,0,0,0,0,1,
scooby_state_402580|22|1 1,0,0,0,0,0,0,0,0,0,0,0,0,0,0,1,
scooby_state_402519|17|1 1,0,0,0,0,0,0,0,0,0,0,0,0,0,0,1,
scooby_state_40251c|1|-9 1,0,0,0,0,0,0,0,0,0,0,0,0,0,0,1,
scooby_state_402509|10|7 1,0,0,0,0,0,0,0,0,0,0,0,0,0,0,1,
scooby_state_4024e2|3|3 1,0,0,0,0,0,0,0,0,0,0,0,0,0,0,1,
scooby_state_402500|20|1 1,0,0,0,0,0,0,0,0,0,0,0,0,0,0,1,
scooby_state_4024d1|16|0 1,0,0,0,0,0,0,0,0,0,0,0,0,0,0,1,
scooby_state_4024c5|0|-18 1,0,0,0,0,0,0,0,0,0,0,0,0,0,0,1,
scooby_state_400df3|18|-3 1,0,0,0,0,0,0,0,0,0,0,0,0,0,0,1,
scooby_state_4024c5|19|1 1,0,0,0,0,0,0,0,0,0,0,0,0,0,0,1,
scooby_state_400e09|6|-1 1,0,0,0,0,0,0,0,0,0,0,0,0,0,0,1,
scooby_state_4025ab|35|0 1,0,0,0,0,0,0,0,0,0,0,0,0,0,0,1,
scooby_state_400dc0|22|4 1,0,0,0,0,0,0,0,0,0,0,0,0,0,0,1,
scooby_state_40292d|1|-5 1,0,0,0,0,0,0,0,0,0,0,0,0,0,0,1,
scooby_state_400de0|50|-10 1,0,0,0,0,0,0,0,0,0,0,0,0,0,0,1,
scooby_state_400e44|17|1 1,0,0,0,0,0,0,0,0,0,0,0,0,0,0,1,
scooby_state_400e44|12|1 1,0,0,0,0,0,0,0,0,0,0,0,0,0,0,1,
scooby_state_400e13|2|0 1,0,0,0,0,0,0,0,0,0,0,0,0,0,0,1,
scooby_state_400df8|49|-13 1,0,0,0,0,0,0,0,0,0,0,0,0,0,0,1,
scooby_state_400e44|49|-14 1,0,0,0,0,0,0,0,0,0,0,0,0,0,0,1,
scooby_state_400e44|32|-1 1,0,0,0,0,0,0,0,0,0,0,0,0,0,0,1,
scooby_state_400e2c|32|-1 1,0,0,0,0,0,0,0,0,0,0,0,0,0,0,1,
scooby_state_400f7f|56|1 1,0,0,0,0,0,0,0,0,0,0,0,0,0,0,1,
scooby_state_400e2c|63|39 1,0,0,0,0,0,0,0,0,0,0,0,0,0,0,1,
scooby_state_400dfd|11|2 1,0,0,0,0,0,0,0,0,0,0,0,0,0,0,1,
scooby_state_400de5|54|-9 1,0,0,0,0,0,0,0,0,0,0,0,0,0,0,1,
scooby_state_400e5e|0|-14 1,0,0,0,0,0,0,0,0,0,0,0,0,0,0,1,
scooby_state_401383|14|-2 1,0,0,0,0,0,0,0,0,0,0,0,0,0,0,1,
scooby_state_40145d|17|-6 1,0,0,0,0,0,0,0,0,0,0,0,0,0,0,1,
scooby_state_400e5e|0|-31 1,0,0,0,0,0,0,0,0,0,0,0,0,0,0,1,
scooby_state_400e2c|47|-1 1,0,0,0,0,0,0,0,0,0,0,0,0,0,0,1,
scooby_state_400615|24|1 1,0,0,0,0,0,0,0,0,0,0,0,0,0,0,1,
scooby_state_4015cc|23|-1 1,0,0,0,0,0,0,0,0,0,0,0,0,0,0,1,
scooby_state_4005c3|23|1 1,0,0,0,0,0,0,0,0,0,0,0,0,0,0,1,
scooby_state_401631|24|3 1,0,0,0,0,0,0,0,0,0,0,0,0,0,0,1,
scooby_state_401566|21|-5 1,0,0,0,0,0,0,0,0,0,0,0,0,0,0,1,
scooby_state_400544|21|1 1,0,0,0,0,0,0,0,0,0,0,0,0,0,0,1,
scooby_state_4016dd|27|2 1,0,0,0,0,0,0,0,0,0,0,0,0,0,0,1,
scooby_state_400449|17|1 1,0,0,0,0,0,0,0,0,0,0,0,0,0,0,1,
scooby_state_400404|16|1 1,0,0,0,0,0,0,0,0,0,0,0,0,0,0,1,
scooby_state_401773|29|1 1,0,0,0,0,0,0,0,0,0,0,0,0,0,0,1,
scooby_state_400383|14|1 1,0,0,0,0,0,0,0,0,0,0,0,0,0,0,1,
scooby_state_400e20|24|4 1,0,0,0,0,0,0,0,0,0,0,0,0,0,0,1,
scooby_state_400dfd|32|2 1,0,0,0,0,0,0,0,0,0,0,0,0,0,0,1,
scooby_state_400317|17|0 1,0,0,0,0,0,0,0,0,0,0,0,0,0,0,1,
scooby_state_400300|12|1 1,0,0,0,0,0,0,0,0,0,0,0,0,0,0,1,
scooby_state_4002b0|10|0 1,0,0,0,0,0,0,0,0,0,0,0,0,0,0,1,
scooby_state_402980|38|1 1,0,0,0,0,0,0,0,0,0,0,0,0,0,0,1,
scooby_state_402940|37|1 1,0,0,0,0,0,0,0,0,0,0,0,0,0,0,1,
scooby_state_4028b8|2|1 1,0,0,0,0,0,0,0,0,0,0,0,0,0,0,1,
scooby_state_4028c0|35|1 1,0,0,0,0,0,0,0,0,0,0,0,0,0,0,1,
scooby_state_4005a3|22|1 1,0,0,0,0,0,0,0,0,0,0,0,0,0,0,1,
scooby_state_402877|43|0 1,0,0,0,0,0,0,0,0,0,0,0,0,0,0,1,
scooby_state_400e09|23|0 1,0,0,0,0,0,0,0,0,0,0,0,0,0,0,1,
scooby_state_400df3|9|4 1,0,0,0,0,0,0,0,0,0,0,0,0,0,0,1,
scooby_state_402800|32|1 1,0,0,0,0,0,0,0,0,0,0,0,0,0,0,1,
scooby_state_400de0|50|-4 1,0,0,0,0,0,0,0,0,0,0,0,0,0,0,1,
scooby_state_400e2c|15|-1 1,0,0,0,0,0,0,0,0,0,0,0,0,0,0,1,
scooby_state_400df3|22|4 1,0,0,0,0,0,0,0,0,0,0,0,0,0,0,1,
scooby_state_402844|33|1 1,0,0,0,0,0,0,0,0,0,0,0,0,0,0,1,
scooby_state_400de5|0|-30 1,0,0,0,0,0,0,0,0,0,0,0,0,0,0,1,
scooby_state_400de5|61|-2 1,0,0,0,0,0,0,0,0,0,0,0,0,0,0,1,
scooby_state_400e44|37|-26 1,0,0,0,0,0,0,0,0,0,0,0,0,0,0,1,
scooby_state_400e5e|0|-4 1,0,0,0,0,0,0,0,0,0,0,0,0,0,0,1,
scooby_state_400dfd|22|2 1,0,0,0,0,0,0,0,0,0,0,0,0,0,0,1,
scooby_state_400de5|0|-11 1,0,0,0,0,0,0,0,0,0,0,0,0,0,0,1,
scooby_state_400dfd|36|2 1,0,0,0,0,0,0,0,0,0,0,0,0,0,0,1,
scooby_state_400dcd|24|1 1,0,0,0,0,0,0,0,0,0,0,0,0,0,0,1,
scooby_state_400dcd|46|41 1,0,0,0,0,0,0,0,0,0,0,0,0,0,0,1,
scooby_state_400de5|7|-38 1,0,0,0,0,0,0,0,0,0,0,0,0,0,0,1,
scooby_state_400e20|5|-3 1,0,0,0,0,0,0,0,0,0,0,0,0,0,0,1,
scooby_state_40294d|17|16 1,0,0,0,0,0,0,0,0,0,0,0,0,0,0,1,
scooby_state_400dfd|27|2 1,0,0,0,0,0,0,0,0,0,0,0,0,0,0,1,
scooby_state_400e09|2|-3 1,0,0,0,0,0,0,0,0,0,0,0,0,0,0,1,
scooby_state_400de5|30|-33 1,0,0,0,0,0,0,0,0,0,0,0,0,0,0,1,
scooby_state_400e2c|38|-1 1,0,0,0,0,0,0,0,0,0,0,0,0,0,0,1,
scooby_state_402545|21|1 1,0,0,0,0,0,0,0,0,0,0,0,0,0,0,1,
scooby_state_400dda|20|-3 1,0,0,0,0,0,0,0,0,0,0,0,0,0,0,1,
scooby_state_400e85|58|1 1,0,0,0,0,0,0,0,0,0,0,0,0,0,0,1,
scooby_state_400de5|21|-38 1,0,0,0,0,0,0,0,0,0,0,0,0,0,0,1,
scooby_state_400e38|20|-3 1,0,0,0,0,0,0,0,0,0,0,0,0,0,0,1,
scooby_state_400cc8|51|-8 1,0,0,0,0,0,0,0,0,0,0,0,0,0,0,1,
scooby_state_400e51|5|-3 1,0,0,0,0,0,0,0,0,0,0,0,0,0,0,1,
scooby_state_400e56|58|-1 1,0,0,0,0,0,0,0,0,0,0,0,0,0,0,1,
scooby_state_400e5e|0|-18 1,0,0,0,0,0,0,0,0,0,0,0,0,0,0,1,
scooby_state_400342|13|1 1,0,0,0,0,0,0,0,0,0,0,0,0,0,0,1,
scooby_state_4027ea|31|0 1,0,0,0,0,0,0,0,0,0,0,0,0,0,0,1,
scooby_state_400e5e|0|-38 1,0,0,0,0,0,0,0,0,0,0,0,0,0,0,1,
scooby_state_400e2c|49|-1 1,0,0,0,0,0,0,0,0,0,0,0,0,0,0,1,
scooby_state_400de5|0|-9 1,0,0,0,0,0,0,0,0,0,0,0,0,0,0,1,
scooby_state_400dfd|4|2 1,0,0,0,0,0,0,0,0,0,0,0,0,0,0,1,
scooby_state_400de5|37|-26 1,0,0,0,0,0,0,0,0,0,0,0,0,0,0,1,
scooby_state_400dfd|15|2 1,0,0,0,0,0,0,0,0,0,0,0,0,0,0,1,
scooby_state_400f0d|62|10 1,0,0,0,0,0,0,0,0,0,0,0,0,0,0,1,
scooby_state_400de5|0|-37 1,0,0,0,0,0,0,0,0,0,0,0,0,0,0,1,
scooby_state_400e2c|37|0 1,0,0,0,0,0,0,0,0,0,0,0,0,0,0,1,
scooby_state_400e5e|0|-28 1,0,0,0,0,0,0,0,0,0,0,0,0,0,0,1,
scooby_state_400de5|6|-38 1,0,0,0,0,0,0,0,0,0,0,0,0,0,0,1,
scooby_state_400e44|44|-19 1,0,0,0,0,0,0,0,0,0,0,0,0,0,0,1,
scooby_state_400e2c|44|-1 1,0,0,0,0,0,0,0,0,0,0,0,0,0,0,1,
scooby_state_400de5|35|-28 1,0,0,0,0,0,0,0,0,0,0,0,0,0,0,1,
scooby_state_400e2c|54|38 1,0,0,0,0,0,0,0,0,0,0,0,0,0,0,1,
scooby_state_4016ad|26|6 1,0,0,0,0,0,0,0,0,0,0,0,0,0,0,1,
scooby_state_400de5|0|-35 1,0,0,0,0,0,0,0,0,0,0,0,0,0,0,1,
scooby_state_400e2c|58|-1 1,0,0,0,0,0,0,0,0,0,0,0,0,0,0,1,
scooby_state_400dcd|37|1 1,0,0,0,0,0,0,0,0,0,0,0,0,0,0,1,
scooby_state_40068b|26|1 1,0,0,0,0,0,0,0,0,0,0,0,0,0,0,1,
scooby_state_400e44|42|-21 1,0,0,0,0,0,0,0,0,0,0,0,0,0,0,1,
scooby_state_400dcd|2|1 1,0,0,0,0,0,0,0,0,0,0,0,0,0,0,1,
scooby_state_400643|25|1 1,0,0,0,0,0,0,0,0,0,0,0,0,0,0,1,
scooby_state_400de5|49|-14 1,0,0,0,0,0,0,0,0,0,0,0,0,0,0,1,
scooby_state_400e2c|25|-1 1,0,0,0,0,0,0,0,0,0,0,0,0,0,0,1,
scooby_state_401400|16|0 1,0,0,0,0,0,0,0,0,0,0,0,0,0,0,1,
scooby_state_4025c4|23|1 1,0,0,0,0,0,0,0,0,0,0,0,0,0,0,1,
scooby_state_400e7c|60|10 1,0,0,0,0,0,0,0,0,0,0,0,0,0,0,1,
scooby_state_400de0|50|-12 1,0,0,0,0,0,0,0,0,0,0,0,0,0,0,1,
scooby_state_400e44|56|-7 1,0,0,0,0,0,0,0,0,0,0,0,0,0,0,1,
scooby_state_400de5|0|-16 1,0,0,0,0,0,0,0,0,0,0,0,0,0,0,1,
scooby_state_400e2c|39|-1 1,0,0,0,0,0,0,0,0,0,0,0,0,0,0,1,
scooby_state_4004c0|19|1 1,0,0,0,0,0,0,0,0,0,0,0,0,0,0,1,
scooby_state_400e38|50|2 1,0,0,0,0,0,0,0,0,0,0,0,0,0,0,1,

scooby_action_0_deg_dist 0,1456,0,0,0,0,0,0,0,0,0,0,0,0,0,0,
scooby_action_12_deg_dist 0,2387,0,0,0,0,0,0,0,0,0,0,0,0,0,0,
scooby_action_3_deg_dist 0,1459,0,0,0,0,0,0,0,0,0,0,0,0,0,0,
scooby_action_32_deg_dist 0,1399,0,0,0,0,0,0,0,0,0,0,0,0,0,0,
scooby_action_5_deg_dist 0,1436,0,0,0,0,0,0,0,0,0,0,0,0,0,0,
scooby_action_1_deg_dist 0,523850,339380,0,850066,0,10303921,0,0,0,0,0,0,0,0,0,
scooby_action_30_deg_dist 0,1439,0,0,0,0,0,0,0,0,0,0,0,0,0,0,
scooby_action_4_deg_dist 0,1485,0,0,0,0,0,0,0,0,0,0,0,0,0,0,
scooby_action_-3_deg_dist 0,1446,0,0,0,0,0,0,0,0,0,0,0,0,0,0,
scooby_action_10_deg_dist 0,1495,0,0,0,0,0,0,0,0,0,0,0,0,0,0,
scooby_action_-1_deg_dist 0,1467,0,0,0,0,0,0,0,0,0,0,0,0,0,0,
scooby_action_23_deg_dist 0,1416,0,0,0,0,0,0,0,0,0,0,0,0,0,0,
scooby_action_-6_deg_dist 0,1437,0,0,0,0,0,0,0,0,0,0,0,0,0,0,
scooby_action_11_deg_dist 0,1453,0,0,0,0,0,0,0,0,0,0,0,0,0,0,
scooby_action_22_deg_dist 0,1475,0,0,0,0,0,0,0,0,0,0,0,0,0,0,

scooby_track_called 12038467
scooby_track_same_address 607619
scooby_track_evict 11430592

scooby_reward_demand_called 12038467
scooby_reward_demand_pt_not_found 253377
scooby_reward_demand_pt_found 11785090
scooby_reward_demand_pt_found_total 11785090
scooby_reward_demand_has_reward 601852
scooby_reward_train_called 23063
scooby_reward_assign_reward_called 11430834
scooby_reward_no_pref 1456
scooby_reward_incorrect 21607
scooby_reward_correct_untimely 10463306
scooby_reward_correct_timely 719932
scooby_reward_out_of_bounds 224533
scooby_reward_tracker_hit 0

scooby_reward_none_low_bw 1456
scooby_reward_none_high_bw 0
scooby_reward_incorrect_low_bw 21607
scooby_reward_incorrect_high_bw 0
scooby_reward_correct_untimely_low_bw 10463306
scooby_reward_correct_untimely_high_bw 0
scooby_reward_correct_timely_low_bw 719932
scooby_reward_correct_timely_high_bw 0
scooby_reward_out_of_bounds_low_bw 224533
scooby_reward_out_of_bounds_high_bw 0
scooby_reward_tracker_hit_low_bw 0
scooby_reward_tracker_hit_high_bw 0

scooby_reward_1 0,20351,10460991,712467,219681,0,
scooby_reward_3 0,8,1067,281,79,0,
scooby_reward_4 0,7,788,581,102,0,
scooby_reward_5 0,9,458,841,128,0,
scooby_reward_10 0,141,0,1069,285,0,
scooby_reward_11 0,147,0,1036,269,0,
scooby_reward_12 0,139,1,1050,1197,0,
scooby_reward_22 0,109,0,823,542,0,
scooby_reward_23 0,104,0,732,579,0,
scooby_reward_30 0,82,0,625,732,0,
scooby_reward_32 0,249,0,427,723,0,
scooby_reward_-1 0,42,1,0,29,0,
scooby_reward_-3 0,38,0,0,59,0,
scooby_reward_-6 0,181,0,0,128,0,
scooby_reward_0 1456,0,0,0,0,0,

scooby_train_called 11430591
scooby_train_compute_reward 23063

scooby_register_fill_called 10166913
scooby_register_fill_set 721574
scooby_register_fill_set_total 721574

scooby_register_prefetch_hit_called 31195654
scooby_register_prefetch_hit_set 9486658
scooby_register_prefetch_hit_set_total 9486658

scooby_pref_issue_scooby 58858062

learning_engine_featurewise.action.called 12038467
learning_engine_featurewise.action.explore 21853
learning_engine_featurewise.action.exploit 12016614
learning_engine_featurewise.action.fallback 0
learning_engine_featurewise.action.dyn_fallback_saved_bw 0
learning_engine_featurewise.action.dyn_fallback_saved_bw_acc 2156
learning_engine_featurewise.action.index_1_explored 1482
learning_engine_featurewise.action.index_1_exploited 12015735
learning_engine_featurewise.action.index_3_explored 1453
learning_engine_featurewise.action.index_3_exploited 6
learning_engine_featurewise.action.index_4_explored 1483
learning_engine_featurewise.action.index_4_exploited 2
learning_engine_featurewise.action.index_5_explored 1430
learning_engine_featurewise.action.index_5_exploited 6
learning_engine_featurewise.action.index_10_explored 1492
learning_engine_featurewise.action.index_10_exploited 3
learning_engine_featurewise.action.index_11_explored 1451
learning_engine_featurewise.action.index_11_exploited 2
learning_engine_featurewise.action.index_12_explored 1527
learning_engine_featurewise.action.index_12_exploited 860
learning_engine_featurewise.action.index_22_explored 1475
learning_engine_featurewise.action.index_22_exploited 0
learning_engine_featurewise.action.index_23_explored 1416
learning_engine_featurewise.action.index_23_exploited 0
learning_engine_featurewise.action.index_30_explored 1439
learning_engine_featurewise.action.index_30_exploited 0
learning_engine_featurewise.action.index_32_explored 1399
learning_engine_featurewise.action.index_32_exploited 0
learning_engine_featurewise.action.index_-1_explored 1467
learning_engine_featurewise.action.index_-1_exploited 0
learning_engine_featurewise.action.index_-3_explored 1446
learning_engine_featurewise.action.index_-3_exploited 0
learning_engine_featurewise.action.index_-6_explored 1437
learning_engine_featurewise.action.index_-6_exploited 0
learning_engine_featurewise.action.index_0_explored 1456
learning_engine_featurewise.action.index_0_exploited 0
learning_engine_featurewise.learn.called 11430591
learning_engine_featurewise.learn.su_skip_PC 0
learning_engine_featurewise.learn.su_skip_PC_Delta 0

learning_engine_featurewise.q_value_histogram.bucket_0 0
learning_engine_featurewise.q_value_histogram.bucket_1 0
learning_engine_featurewise.q_value_histogram.bucket_2 0
learning_engine_featurewise.q_value_histogram.bucket_3 0
learning_engine_featurewise.q_value_histogram.bucket_4 6318
learning_engine_featurewise.q_value_histogram.bucket_5 5234
learning_engine_featurewise.q_value_histogram.bucket_6 12005062
learning_engine_featurewise.q_value_histogram.bucket_7 0

learning_engine_featurewise.consensus.total 12016614
learning_engine_featurewise.consensus.feature_align_PC 12014622
learning_engine_featurewise.consensus.feature_align_PC_ratio 1.00
learning_engine_featurewise.consensus.feature_align_PC_Delta 12011620
learning_engine_featurewise.consensus.feature_align_PC_Delta_ratio 1.00
learning_engine_featurewise.consensus.feature_align_all 12009628
learning_engine_featurewise.consensus.feature_align_all_ratio 1.00

learning_engine_featurewise.feature_PC_min_weight 1000000.00000000
learning_engine_featurewise.feature_PC_max_weight 0.00000000
learning_engine_featurewise.feature_PC_Delta_min_weight 1000000.00000000
learning_engine_featurewise.feature_PC_Delta_max_weight 0.00000000
unique_pcs 154
unique_pages 102972
unique_trigger_pcs 34
total_bitmaps_seen 0
unique_bitmaps_seen 0

scooby_bw_epochs 1984631
scooby_bw_level_0 480282
scooby_bw_level_1 200924
scooby_bw_level_2 202925
scooby_bw_level_3 1100500

scooby_ipc_epochs 0
scooby_ipc_level_0 0
scooby_ipc_level_1 0
scooby_ipc_level_2 0
scooby_ipc_level_3 0

scooby_cache_acc_epochs 482454
scooby_cache_acc_level_0 1
scooby_cache_acc_level_1 14
scooby_cache_acc_level_2 242
scooby_cache_acc_level_3 537
scooby_cache_acc_level_4 1492
scooby_cache_acc_level_5 3600
scooby_cache_acc_level_6 6288
scooby_cache_acc_level_7 13986
scooby_cache_acc_level_8 41561
scooby_cache_acc_level_9 414733

Channel_0_RQ_row_buffer_hit 6462090
Channel_0_RQ_row_buffer_miss 2784004
Channel_0_WQ_row_buffer_hit 131172
Channel_0_WQ_row_buffer_miss 256516
Channel_0_WQ_full 0
Channel_0_dbus_congested 7374181

avg_congested_cycle 18

DRAM_bw_pochs 1984631
DRAM_bw_level_0 480282
DRAM_bw_level_1 200924
DRAM_bw_level_2 202925
DRAM_bw_level_3 1100500
