*************************************************
   ChampSim Multicore Out-of-Order Simulator
   Last compiled: Dec 11 2024 17:59:53
*************************************************
parsing config file: /home/functionmain/桌面/Pythia/config/bingo.ini

trace_0 /home/functionmain/桌面/Pythia/traces/410.bwaves-1963B.champsimtrace.xz
adding L2C_PREFETCHER: Bingo
Initialize SHIP state
warmup_instructions 100000000
simulation_instructions 500000000
champsim_seed 277
measure_ipc 0
measure_ipc_epoch 1000
measure_dram_bw 1
measure_dram_bw_epoch 256
measure_cache_acc 1
measure_cache_acc_epoch 1024
l1d_perfect 0
l2c_perfect 0
llc_perfect 0
l1d_semi_perfect 0
l2c_semi_perfect 0
llc_semi_perfect 0
semi_perfect_cache_page_buffer_size 64

num_cpus 1
cpu_freq 4000
dram_io_freq 4800
page_size 4096
block_size 64
max_read_per_cycle 8
max_fill_per_cycle 1
dram_channels 1
log2_dram_channels 0
dram_ranks 1
dram_banks 8
dram_rows 65536
dram_columns 128
dram_row_size 8
dram_size 4096
dram_pages 1048576

fetch_width 6
decode_width 6
exec_width 4
lq_width 2
sq_width 2
retire_width 4
scheduler_size 128
branch_mispredict_penalty 20
rob_size 256
lq_size 72
sq_size 56
num_instr_destinations_sparc 4
num_instr_destinations 2
num_instr_sources 4

itlb_set 16
itlb_way 8
itlb_rq_size 16
itlb_wq_size 16
itlb_pq_size 0
itlb_mshr_size 8
itlb_latency 1

dtlb_set 16
dtlb_way 4
dtlb_rq_size 16
dtlb_wq_size 16
dtlb_pq_size 0
dtlb_mshr_size 8
dtlb_latency 1

stlb_set 128
stlb_way 12
stlb_rq_size 32
stlb_wq_size 32
stlb_pq_size 0
stlb_mshr_size 16
stlb_latency 8

l1i_size 32
l1i_set 64
l1i_way 8
l1i_rq_size 64
l1i_wq_size 64
l1i_pq_size 8
l1i_mshr_size 8
l1i_latency 1

l1d_size 32
l1d_set 64
l1d_way 8
l1d_rq_size 64
l1d_wq_size 64
l1d_pq_size 8
l1d_mshr_size 16
l1d_latency 4

l2c_size 256
l2c_set 512
l2c_way 8
l2c_rq_size 32
l2c_wq_size 32
l2c_pq_size 32
l2c_mshr_size 32
l2c_latency 10

llc_size 2048
llc_set 2048
llc_way 16
llc_rq_size 32
llc_wq_size 32
llc_pq_size 32
llc_mshr_size 64
llc_latency 20

dram_channel_width 8
dram_wq_size 64
dram_rq_size 64
tRP 15
tRCD 15
tCAS 12.5
dram_dbus_turn_around_time 30
dram_write_high_wm 56
dram_write_low_wm 48
min_dram_writes_per_switch 16
dram_mtps 4800
dram_dbus_return_time 6

bingo_region_size 2048
bingo_pattern_len 32
bingo_pc_width 16
bingo_min_addr_width 5
bingo_max_addr_width 16
bingo_ft_size 64
bingo_at_size 128
bingo_pht_size 4096
bingo_pht_ways 16
bingo_pf_streamer_size 128
bingo_debug_level 0
bingo_l1d_thresh 1.01
bingo_l2c_thresh 0.8
bingo_llc_thresh 0.05
bingo_pc_address_fill_level L2


Heartbeat CPU  0 instructions:    1000002 cycles:     658387 heartbeat IPC: 1.51887 cumulative IPC: 1.51887 (Simulation time: 0 hr 0 min 2 sec) 
Heartbeat CPU  0 instructions:    2000002 cycles:    1316324 heartbeat IPC: 1.51990 cumulative IPC: 1.51938 (Simulation time: 0 hr 0 min 4 sec) 
Heartbeat CPU  0 instructions:    3000002 cycles:    1974294 heartbeat IPC: 1.51983 cumulative IPC: 1.51953 (Simulation time: 0 hr 0 min 6 sec) 
Heartbeat CPU  0 instructions:    4000000 cycles:    2632192 heartbeat IPC: 1.51999 cumulative IPC: 1.51965 (Simulation time: 0 hr 0 min 8 sec) 
Heartbeat CPU  0 instructions:    5000002 cycles:    3290251 heartbeat IPC: 1.51962 cumulative IPC: 1.51964 (Simulation time: 0 hr 0 min 10 sec) 
Heartbeat CPU  0 instructions:    6000002 cycles:    3948195 heartbeat IPC: 1.51989 cumulative IPC: 1.51968 (Simulation time: 0 hr 0 min 12 sec) 
Heartbeat CPU  0 instructions:    7000000 cycles:    4606175 heartbeat IPC: 1.51980 cumulative IPC: 1.51970 (Simulation time: 0 hr 0 min 14 sec) 
Heartbeat CPU  0 instructions:    8000000 cycles:    5264059 heartbeat IPC: 1.52002 cumulative IPC: 1.51974 (Simulation time: 0 hr 0 min 16 sec) 
Heartbeat CPU  0 instructions:    9000001 cycles:    5921981 heartbeat IPC: 1.51994 cumulative IPC: 1.51976 (Simulation time: 0 hr 0 min 18 sec) 
Heartbeat CPU  0 instructions:   10000002 cycles:    6579905 heartbeat IPC: 1.51993 cumulative IPC: 1.51978 (Simulation time: 0 hr 0 min 20 sec) 
Heartbeat CPU  0 instructions:   11000001 cycles:    7237855 heartbeat IPC: 1.51987 cumulative IPC: 1.51979 (Simulation time: 0 hr 0 min 22 sec) 
Heartbeat CPU  0 instructions:   12000000 cycles:    7895690 heartbeat IPC: 1.52014 cumulative IPC: 1.51982 (Simulation time: 0 hr 0 min 24 sec) 
Heartbeat CPU  0 instructions:   13000001 cycles:    8553703 heartbeat IPC: 1.51973 cumulative IPC: 1.51981 (Simulation time: 0 hr 0 min 26 sec) 
Heartbeat CPU  0 instructions:   14000001 cycles:    9211511 heartbeat IPC: 1.52020 cumulative IPC: 1.51984 (Simulation time: 0 hr 0 min 28 sec) 
Heartbeat CPU  0 instructions:   15000000 cycles:    9869291 heartbeat IPC: 1.52026 cumulative IPC: 1.51987 (Simulation time: 0 hr 0 min 30 sec) 
Heartbeat CPU  0 instructions:   16000000 cycles:   10527134 heartbeat IPC: 1.52012 cumulative IPC: 1.51988 (Simulation time: 0 hr 0 min 32 sec) 
Heartbeat CPU  0 instructions:   17000002 cycles:   11185048 heartbeat IPC: 1.51996 cumulative IPC: 1.51989 (Simulation time: 0 hr 0 min 34 sec) 
Heartbeat CPU  0 instructions:   18000000 cycles:   11842910 heartbeat IPC: 1.52007 cumulative IPC: 1.51990 (Simulation time: 0 hr 0 min 36 sec) 
Heartbeat CPU  0 instructions:   19000001 cycles:   12500770 heartbeat IPC: 1.52008 cumulative IPC: 1.51991 (Simulation time: 0 hr 0 min 38 sec) 
Heartbeat CPU  0 instructions:   20000000 cycles:   13158571 heartbeat IPC: 1.52022 cumulative IPC: 1.51992 (Simulation time: 0 hr 0 min 40 sec) 
Heartbeat CPU  0 instructions:   21000003 cycles:   13816472 heartbeat IPC: 1.51999 cumulative IPC: 1.51993 (Simulation time: 0 hr 0 min 42 sec) 
Heartbeat CPU  0 instructions:   22000001 cycles:   14474252 heartbeat IPC: 1.52026 cumulative IPC: 1.51994 (Simulation time: 0 hr 0 min 44 sec) 
Heartbeat CPU  0 instructions:   23000001 cycles:   15132080 heartbeat IPC: 1.52015 cumulative IPC: 1.51995 (Simulation time: 0 hr 0 min 46 sec) 
Heartbeat CPU  0 instructions:   24000000 cycles:   15789835 heartbeat IPC: 1.52032 cumulative IPC: 1.51997 (Simulation time: 0 hr 0 min 49 sec) 
Heartbeat CPU  0 instructions:   25000001 cycles:   16447806 heartbeat IPC: 1.51983 cumulative IPC: 1.51996 (Simulation time: 0 hr 0 min 51 sec) 
Heartbeat CPU  0 instructions:   26000003 cycles:   17105486 heartbeat IPC: 1.52050 cumulative IPC: 1.51998 (Simulation time: 0 hr 0 min 53 sec) 
Heartbeat CPU  0 instructions:   27000000 cycles:   17763329 heartbeat IPC: 1.52012 cumulative IPC: 1.51999 (Simulation time: 0 hr 0 min 55 sec) 
Heartbeat CPU  0 instructions:   28000000 cycles:   18421130 heartbeat IPC: 1.52022 cumulative IPC: 1.51999 (Simulation time: 0 hr 0 min 57 sec) 
Heartbeat CPU  0 instructions:   29000000 cycles:   19079058 heartbeat IPC: 1.51992 cumulative IPC: 1.51999 (Simulation time: 0 hr 0 min 59 sec) 
Heartbeat CPU  0 instructions:   30000001 cycles:   19736898 heartbeat IPC: 1.52013 cumulative IPC: 1.52000 (Simulation time: 0 hr 1 min 1 sec) 
Heartbeat CPU  0 instructions:   31000002 cycles:   20394818 heartbeat IPC: 1.51994 cumulative IPC: 1.51999 (Simulation time: 0 hr 1 min 3 sec) 
Heartbeat CPU  0 instructions:   32000000 cycles:   21052763 heartbeat IPC: 1.51988 cumulative IPC: 1.51999 (Simulation time: 0 hr 1 min 5 sec) 
Heartbeat CPU  0 instructions:   33000003 cycles:   21710778 heartbeat IPC: 1.51973 cumulative IPC: 1.51998 (Simulation time: 0 hr 1 min 7 sec) 
Heartbeat CPU  0 instructions:   34000002 cycles:   22368715 heartbeat IPC: 1.51990 cumulative IPC: 1.51998 (Simulation time: 0 hr 1 min 9 sec) 
Heartbeat CPU  0 instructions:   35000000 cycles:   23026647 heartbeat IPC: 1.51991 cumulative IPC: 1.51998 (Simulation time: 0 hr 1 min 11 sec) 
Heartbeat CPU  0 instructions:   36000000 cycles:   23684609 heartbeat IPC: 1.51984 cumulative IPC: 1.51997 (Simulation time: 0 hr 1 min 13 sec) 
Heartbeat CPU  0 instructions:   37000002 cycles:   24342610 heartbeat IPC: 1.51976 cumulative IPC: 1.51997 (Simulation time: 0 hr 1 min 15 sec) 
Heartbeat CPU  0 instructions:   38000000 cycles:   25000499 heartbeat IPC: 1.52001 cumulative IPC: 1.51997 (Simulation time: 0 hr 1 min 17 sec) 
Heartbeat CPU  0 instructions:   39000000 cycles:   25658529 heartbeat IPC: 1.51969 cumulative IPC: 1.51996 (Simulation time: 0 hr 1 min 19 sec) 
Heartbeat CPU  0 instructions:   40000000 cycles:   26316380 heartbeat IPC: 1.52010 cumulative IPC: 1.51997 (Simulation time: 0 hr 1 min 21 sec) 
Heartbeat CPU  0 instructions:   41000000 cycles:   26974412 heartbeat IPC: 1.51968 cumulative IPC: 1.51996 (Simulation time: 0 hr 1 min 23 sec) 
Heartbeat CPU  0 instructions:   42000003 cycles:   27632380 heartbeat IPC: 1.51984 cumulative IPC: 1.51996 (Simulation time: 0 hr 1 min 25 sec) 
Heartbeat CPU  0 instructions:   43000001 cycles:   28290251 heartbeat IPC: 1.52005 cumulative IPC: 1.51996 (Simulation time: 0 hr 1 min 28 sec) 
Heartbeat CPU  0 instructions:   44000000 cycles:   28948071 heartbeat IPC: 1.52017 cumulative IPC: 1.51996 (Simulation time: 0 hr 1 min 30 sec) 
Heartbeat CPU  0 instructions:   45000000 cycles:   29605946 heartbeat IPC: 1.52005 cumulative IPC: 1.51996 (Simulation time: 0 hr 1 min 32 sec) 
Heartbeat CPU  0 instructions:   46000001 cycles:   30263789 heartbeat IPC: 1.52012 cumulative IPC: 1.51997 (Simulation time: 0 hr 1 min 34 sec) 
Heartbeat CPU  0 instructions:   47000003 cycles:   30921669 heartbeat IPC: 1.52004 cumulative IPC: 1.51997 (Simulation time: 0 hr 1 min 36 sec) 
Heartbeat CPU  0 instructions:   48000000 cycles:   31579361 heartbeat IPC: 1.52046 cumulative IPC: 1.51998 (Simulation time: 0 hr 1 min 38 sec) 
Heartbeat CPU  0 instructions:   49000000 cycles:   32237153 heartbeat IPC: 1.52024 cumulative IPC: 1.51999 (Simulation time: 0 hr 1 min 40 sec) 
Heartbeat CPU  0 instructions:   50000003 cycles:   32895081 heartbeat IPC: 1.51993 cumulative IPC: 1.51998 (Simulation time: 0 hr 1 min 42 sec) 
Heartbeat CPU  0 instructions:   51000000 cycles:   33552927 heartbeat IPC: 1.52011 cumulative IPC: 1.51999 (Simulation time: 0 hr 1 min 44 sec) 
Heartbeat CPU  0 instructions:   52000000 cycles:   34210731 heartbeat IPC: 1.52021 cumulative IPC: 1.51999 (Simulation time: 0 hr 1 min 46 sec) 
Heartbeat CPU  0 instructions:   53000003 cycles:   34868647 heartbeat IPC: 1.51996 cumulative IPC: 1.51999 (Simulation time: 0 hr 1 min 48 sec) 
Heartbeat CPU  0 instructions:   54000001 cycles:   35526531 heartbeat IPC: 1.52002 cumulative IPC: 1.51999 (Simulation time: 0 hr 1 min 50 sec) 
Heartbeat CPU  0 instructions:   55000003 cycles:   36184401 heartbeat IPC: 1.52006 cumulative IPC: 1.51999 (Simulation time: 0 hr 1 min 52 sec) 
Heartbeat CPU  0 instructions:   56000000 cycles:   36842262 heartbeat IPC: 1.52007 cumulative IPC: 1.51999 (Simulation time: 0 hr 1 min 54 sec) 
Heartbeat CPU  0 instructions:   57000001 cycles:   37500006 heartbeat IPC: 1.52035 cumulative IPC: 1.52000 (Simulation time: 0 hr 1 min 56 sec) 
Heartbeat CPU  0 instructions:   58000000 cycles:   38157943 heartbeat IPC: 1.51990 cumulative IPC: 1.52000 (Simulation time: 0 hr 1 min 58 sec) 
Heartbeat CPU  0 instructions:   59000002 cycles:   38815906 heartbeat IPC: 1.51985 cumulative IPC: 1.52000 (Simulation time: 0 hr 2 min 0 sec) 
Heartbeat CPU  0 instructions:   60000000 cycles:   39473699 heartbeat IPC: 1.52023 cumulative IPC: 1.52000 (Simulation time: 0 hr 2 min 2 sec) 
Heartbeat CPU  0 instructions:   61000002 cycles:   40131735 heartbeat IPC: 1.51968 cumulative IPC: 1.51999 (Simulation time: 0 hr 2 min 4 sec) 
Heartbeat CPU  0 instructions:   62000001 cycles:   40789672 heartbeat IPC: 1.51990 cumulative IPC: 1.51999 (Simulation time: 0 hr 2 min 6 sec) 
Heartbeat CPU  0 instructions:   63000002 cycles:   41447624 heartbeat IPC: 1.51987 cumulative IPC: 1.51999 (Simulation time: 0 hr 2 min 8 sec) 
Heartbeat CPU  0 instructions:   64000000 cycles:   42105579 heartbeat IPC: 1.51986 cumulative IPC: 1.51999 (Simulation time: 0 hr 2 min 10 sec) 
Heartbeat CPU  0 instructions:   65000002 cycles:   42763617 heartbeat IPC: 1.51967 cumulative IPC: 1.51998 (Simulation time: 0 hr 2 min 12 sec) 
Heartbeat CPU  0 instructions:   66000002 cycles:   43421548 heartbeat IPC: 1.51992 cumulative IPC: 1.51998 (Simulation time: 0 hr 2 min 14 sec) 
Heartbeat CPU  0 instructions:   67000002 cycles:   44079467 heartbeat IPC: 1.51994 cumulative IPC: 1.51998 (Simulation time: 0 hr 2 min 17 sec) 
Heartbeat CPU  0 instructions:   68000000 cycles:   44737350 heartbeat IPC: 1.52002 cumulative IPC: 1.51998 (Simulation time: 0 hr 2 min 19 sec) 
Heartbeat CPU  0 instructions:   69000000 cycles:   45395369 heartbeat IPC: 1.51971 cumulative IPC: 1.51998 (Simulation time: 0 hr 2 min 21 sec) 
Heartbeat CPU  0 instructions:   70000003 cycles:   46053206 heartbeat IPC: 1.52014 cumulative IPC: 1.51998 (Simulation time: 0 hr 2 min 23 sec) 
Heartbeat CPU  0 instructions:   71000003 cycles:   46711029 heartbeat IPC: 1.52017 cumulative IPC: 1.51998 (Simulation time: 0 hr 2 min 25 sec) 
Heartbeat CPU  0 instructions:   72000000 cycles:   47368906 heartbeat IPC: 1.52004 cumulative IPC: 1.51998 (Simulation time: 0 hr 2 min 27 sec) 
Heartbeat CPU  0 instructions:   73000001 cycles:   48026789 heartbeat IPC: 1.52003 cumulative IPC: 1.51999 (Simulation time: 0 hr 2 min 29 sec) 
Heartbeat CPU  0 instructions:   74000002 cycles:   48684629 heartbeat IPC: 1.52013 cumulative IPC: 1.51999 (Simulation time: 0 hr 2 min 31 sec) 
Heartbeat CPU  0 instructions:   75000001 cycles:   49342512 heartbeat IPC: 1.52003 cumulative IPC: 1.51999 (Simulation time: 0 hr 2 min 33 sec) 
Heartbeat CPU  0 instructions:   76000000 cycles:   50000335 heartbeat IPC: 1.52016 cumulative IPC: 1.51999 (Simulation time: 0 hr 2 min 35 sec) 
Heartbeat CPU  0 instructions:   77000002 cycles:   50658233 heartbeat IPC: 1.52000 cumulative IPC: 1.51999 (Simulation time: 0 hr 2 min 37 sec) 
Heartbeat CPU  0 instructions:   78000000 cycles:   51316207 heartbeat IPC: 1.51981 cumulative IPC: 1.51999 (Simulation time: 0 hr 2 min 39 sec) 
Heartbeat CPU  0 instructions:   79000003 cycles:   51974037 heartbeat IPC: 1.52015 cumulative IPC: 1.51999 (Simulation time: 0 hr 2 min 41 sec) 
Heartbeat CPU  0 instructions:   80000000 cycles:   52631877 heartbeat IPC: 1.52012 cumulative IPC: 1.51999 (Simulation time: 0 hr 2 min 43 sec) 
Heartbeat CPU  0 instructions:   81000001 cycles:   53289849 heartbeat IPC: 1.51982 cumulative IPC: 1.51999 (Simulation time: 0 hr 2 min 45 sec) 
Heartbeat CPU  0 instructions:   82000001 cycles:   53947713 heartbeat IPC: 1.52007 cumulative IPC: 1.51999 (Simulation time: 0 hr 2 min 47 sec) 
Heartbeat CPU  0 instructions:   83000001 cycles:   54605507 heartbeat IPC: 1.52023 cumulative IPC: 1.51999 (Simulation time: 0 hr 2 min 49 sec) 
Heartbeat CPU  0 instructions:   84000000 cycles:   55263311 heartbeat IPC: 1.52021 cumulative IPC: 1.52000 (Simulation time: 0 hr 2 min 51 sec) 
Heartbeat CPU  0 instructions:   85000000 cycles:   55921236 heartbeat IPC: 1.51993 cumulative IPC: 1.51999 (Simulation time: 0 hr 2 min 53 sec) 
Heartbeat CPU  0 instructions:   86000002 cycles:   56579095 heartbeat IPC: 1.52009 cumulative IPC: 1.52000 (Simulation time: 0 hr 2 min 55 sec) 
Heartbeat CPU  0 instructions:   87000001 cycles:   57237064 heartbeat IPC: 1.51983 cumulative IPC: 1.51999 (Simulation time: 0 hr 2 min 57 sec) 
Heartbeat CPU  0 instructions:   88000000 cycles:   57895130 heartbeat IPC: 1.51960 cumulative IPC: 1.51999 (Simulation time: 0 hr 3 min 0 sec) 
Heartbeat CPU  0 instructions:   89000001 cycles:   58553088 heartbeat IPC: 1.51986 cumulative IPC: 1.51999 (Simulation time: 0 hr 3 min 2 sec) 
Heartbeat CPU  0 instructions:   90000003 cycles:   59211057 heartbeat IPC: 1.51983 cumulative IPC: 1.51999 (Simulation time: 0 hr 3 min 4 sec) 
Heartbeat CPU  0 instructions:   91000000 cycles:   59868968 heartbeat IPC: 1.51996 cumulative IPC: 1.51999 (Simulation time: 0 hr 3 min 6 sec) 
Heartbeat CPU  0 instructions:   92000000 cycles:   60526933 heartbeat IPC: 1.51984 cumulative IPC: 1.51998 (Simulation time: 0 hr 3 min 8 sec) 
Heartbeat CPU  0 instructions:   93000001 cycles:   61184862 heartbeat IPC: 1.51992 cumulative IPC: 1.51998 (Simulation time: 0 hr 3 min 10 sec) 
Heartbeat CPU  0 instructions:   94000001 cycles:   61842804 heartbeat IPC: 1.51989 cumulative IPC: 1.51998 (Simulation time: 0 hr 3 min 12 sec) 
Heartbeat CPU  0 instructions:   95000000 cycles:   62500697 heartbeat IPC: 1.52000 cumulative IPC: 1.51998 (Simulation time: 0 hr 3 min 14 sec) 
Heartbeat CPU  0 instructions:   96000000 cycles:   63158549 heartbeat IPC: 1.52010 cumulative IPC: 1.51998 (Simulation time: 0 hr 3 min 16 sec) 
Heartbeat CPU  0 instructions:   97000000 cycles:   63816557 heartbeat IPC: 1.51974 cumulative IPC: 1.51998 (Simulation time: 0 hr 3 min 18 sec) 
Heartbeat CPU  0 instructions:   98000001 cycles:   64474493 heartbeat IPC: 1.51991 cumulative IPC: 1.51998 (Simulation time: 0 hr 3 min 20 sec) 
Heartbeat CPU  0 instructions:   99000003 cycles:   65132391 heartbeat IPC: 1.52000 cumulative IPC: 1.51998 (Simulation time: 0 hr 3 min 22 sec) 
Heartbeat CPU  0 instructions:  100000000 cycles:   65790255 heartbeat IPC: 1.52007 cumulative IPC: 1.51998 (Simulation time: 0 hr 3 min 24 sec) 

Warmup complete CPU  0 instructions:  100000002 cycles:   65790258 (Simulation time: 0 hr 3 min 24 sec) 

Heartbeat CPU  0 instructions:  101000001 cycles:   66747902 heartbeat IPC: 1.04423 cumulative IPC: 1.04423 (Simulation time: 0 hr 3 min 26 sec) 
Heartbeat CPU  0 instructions:  102000000 cycles:   67707159 heartbeat IPC: 1.04247 cumulative IPC: 1.04335 (Simulation time: 0 hr 3 min 29 sec) 
Heartbeat CPU  0 instructions:  103000001 cycles:   68666822 heartbeat IPC: 1.04203 cumulative IPC: 1.04291 (Simulation time: 0 hr 3 min 31 sec) 
Heartbeat CPU  0 instructions:  104000000 cycles:   69626487 heartbeat IPC: 1.04203 cumulative IPC: 1.04269 (Simulation time: 0 hr 3 min 33 sec) 
Heartbeat CPU  0 instructions:  105000002 cycles:   70582592 heartbeat IPC: 1.04591 cumulative IPC: 1.04333 (Simulation time: 0 hr 3 min 36 sec) 
Heartbeat CPU  0 instructions:  106000001 cycles:   71537223 heartbeat IPC: 1.04752 cumulative IPC: 1.04403 (Simulation time: 0 hr 3 min 38 sec) 
Heartbeat CPU  0 instructions:  107000001 cycles:   72501484 heartbeat IPC: 1.03706 cumulative IPC: 1.04303 (Simulation time: 0 hr 3 min 40 sec) 
Heartbeat CPU  0 instructions:  108000000 cycles:   73455073 heartbeat IPC: 1.04867 cumulative IPC: 1.04373 (Simulation time: 0 hr 3 min 43 sec) 
Heartbeat CPU  0 instructions:  109000001 cycles:   74417434 heartbeat IPC: 1.03911 cumulative IPC: 1.04321 (Simulation time: 0 hr 3 min 45 sec) 
Heartbeat CPU  0 instructions:  110000000 cycles:   75374748 heartbeat IPC: 1.04459 cumulative IPC: 1.04335 (Simulation time: 0 hr 3 min 47 sec) 
Heartbeat CPU  0 instructions:  111000000 cycles:   76336821 heartbeat IPC: 1.03942 cumulative IPC: 1.04299 (Simulation time: 0 hr 3 min 50 sec) 
Heartbeat CPU  0 instructions:  112000000 cycles:   77292492 heartbeat IPC: 1.04639 cumulative IPC: 1.04328 (Simulation time: 0 hr 3 min 52 sec) 
Heartbeat CPU  0 instructions:  113000000 cycles:   78249254 heartbeat IPC: 1.04519 cumulative IPC: 1.04342 (Simulation time: 0 hr 3 min 54 sec) 
Heartbeat CPU  0 instructions:  114000002 cycles:   79212769 heartbeat IPC: 1.03787 cumulative IPC: 1.04302 (Simulation time: 0 hr 3 min 57 sec) 
Heartbeat CPU  0 instructions:  115000000 cycles:   80168551 heartbeat IPC: 1.04626 cumulative IPC: 1.04324 (Simulation time: 0 hr 3 min 59 sec) 
Heartbeat CPU  0 instructions:  116000000 cycles:   81135276 heartbeat IPC: 1.03442 cumulative IPC: 1.04268 (Simulation time: 0 hr 4 min 1 sec) 
Heartbeat CPU  0 instructions:  117000003 cycles:   82095562 heartbeat IPC: 1.04136 cumulative IPC: 1.04261 (Simulation time: 0 hr 4 min 3 sec) 
Heartbeat CPU  0 instructions:  118000000 cycles:   83051632 heartbeat IPC: 1.04595 cumulative IPC: 1.04279 (Simulation time: 0 hr 4 min 6 sec) 
Heartbeat CPU  0 instructions:  119000001 cycles:   84004347 heartbeat IPC: 1.04963 cumulative IPC: 1.04315 (Simulation time: 0 hr 4 min 8 sec) 
Heartbeat CPU  0 instructions:  120000000 cycles:   84967917 heartbeat IPC: 1.03781 cumulative IPC: 1.04288 (Simulation time: 0 hr 4 min 10 sec) 
Heartbeat CPU  0 instructions:  121000003 cycles:   85924988 heartbeat IPC: 1.04486 cumulative IPC: 1.04297 (Simulation time: 0 hr 4 min 13 sec) 
Heartbeat CPU  0 instructions:  122000000 cycles:   86890209 heartbeat IPC: 1.03603 cumulative IPC: 1.04266 (Simulation time: 0 hr 4 min 15 sec) 
Heartbeat CPU  0 instructions:  123000002 cycles:   87843525 heartbeat IPC: 1.04897 cumulative IPC: 1.04293 (Simulation time: 0 hr 4 min 17 sec) 
Heartbeat CPU  0 instructions:  124000000 cycles:   88801132 heartbeat IPC: 1.04427 cumulative IPC: 1.04299 (Simulation time: 0 hr 4 min 20 sec) 
Heartbeat CPU  0 instructions:  125000003 cycles:   89755838 heartbeat IPC: 1.04745 cumulative IPC: 1.04316 (Simulation time: 0 hr 4 min 22 sec) 
Heartbeat CPU  0 instructions:  126000002 cycles:   90708961 heartbeat IPC: 1.04918 cumulative IPC: 1.04339 (Simulation time: 0 hr 4 min 24 sec) 
Heartbeat CPU  0 instructions:  127000000 cycles:   91672755 heartbeat IPC: 1.03756 cumulative IPC: 1.04318 (Simulation time: 0 hr 4 min 27 sec) 
Heartbeat CPU  0 instructions:  128000000 cycles:   92631942 heartbeat IPC: 1.04255 cumulative IPC: 1.04315 (Simulation time: 0 hr 4 min 29 sec) 
Heartbeat CPU  0 instructions:  129000000 cycles:   93587083 heartbeat IPC: 1.04697 cumulative IPC: 1.04328 (Simulation time: 0 hr 4 min 31 sec) 
Heartbeat CPU  0 instructions:  130000001 cycles:   94543322 heartbeat IPC: 1.04576 cumulative IPC: 1.04337 (Simulation time: 0 hr 4 min 34 sec) 
Heartbeat CPU  0 instructions:  131000000 cycles:   95500997 heartbeat IPC: 1.04419 cumulative IPC: 1.04339 (Simulation time: 0 hr 4 min 36 sec) 
Heartbeat CPU  0 instructions:  132000000 cycles:   96460256 heartbeat IPC: 1.04247 cumulative IPC: 1.04336 (Simulation time: 0 hr 4 min 38 sec) 
Heartbeat CPU  0 instructions:  133000001 cycles:   97418904 heartbeat IPC: 1.04314 cumulative IPC: 1.04336 (Simulation time: 0 hr 4 min 41 sec) 
Heartbeat CPU  0 instructions:  134000000 cycles:   98379156 heartbeat IPC: 1.04139 cumulative IPC: 1.04330 (Simulation time: 0 hr 4 min 43 sec) 
Heartbeat CPU  0 instructions:  135000002 cycles:   99336771 heartbeat IPC: 1.04426 cumulative IPC: 1.04333 (Simulation time: 0 hr 4 min 45 sec) 
Heartbeat CPU  0 instructions:  136000000 cycles:  100292701 heartbeat IPC: 1.04610 cumulative IPC: 1.04340 (Simulation time: 0 hr 4 min 48 sec) 
Heartbeat CPU  0 instructions:  137000002 cycles:  101257251 heartbeat IPC: 1.03675 cumulative IPC: 1.04322 (Simulation time: 0 hr 4 min 50 sec) 
Heartbeat CPU  0 instructions:  138000000 cycles:  102214392 heartbeat IPC: 1.04478 cumulative IPC: 1.04326 (Simulation time: 0 hr 4 min 52 sec) 
Heartbeat CPU  0 instructions:  139000002 cycles:  103175692 heartbeat IPC: 1.04026 cumulative IPC: 1.04319 (Simulation time: 0 hr 4 min 55 sec) 
Heartbeat CPU  0 instructions:  140000000 cycles:  104138447 heartbeat IPC: 1.03868 cumulative IPC: 1.04307 (Simulation time: 0 hr 4 min 57 sec) 
Heartbeat CPU  0 instructions:  141000003 cycles:  105100631 heartbeat IPC: 1.03931 cumulative IPC: 1.04298 (Simulation time: 0 hr 4 min 59 sec) 
Heartbeat CPU  0 instructions:  142000001 cycles:  106060212 heartbeat IPC: 1.04212 cumulative IPC: 1.04296 (Simulation time: 0 hr 5 min 1 sec) 
Heartbeat CPU  0 instructions:  143000001 cycles:  107021733 heartbeat IPC: 1.04002 cumulative IPC: 1.04289 (Simulation time: 0 hr 5 min 4 sec) 
Heartbeat CPU  0 instructions:  144000000 cycles:  107991471 heartbeat IPC: 1.03121 cumulative IPC: 1.04262 (Simulation time: 0 hr 5 min 6 sec) 
Heartbeat CPU  0 instructions:  145000001 cycles:  108957276 heartbeat IPC: 1.03541 cumulative IPC: 1.04246 (Simulation time: 0 hr 5 min 8 sec) 
Heartbeat CPU  0 instructions:  146000003 cycles:  109914368 heartbeat IPC: 1.04483 cumulative IPC: 1.04251 (Simulation time: 0 hr 5 min 11 sec) 
Heartbeat CPU  0 instructions:  147000002 cycles:  110877430 heartbeat IPC: 1.03835 cumulative IPC: 1.04243 (Simulation time: 0 hr 5 min 13 sec) 
Heartbeat CPU  0 instructions:  148000000 cycles:  111843884 heartbeat IPC: 1.03471 cumulative IPC: 1.04226 (Simulation time: 0 hr 5 min 15 sec) 
Heartbeat CPU  0 instructions:  149000001 cycles:  112796342 heartbeat IPC: 1.04992 cumulative IPC: 1.04242 (Simulation time: 0 hr 5 min 18 sec) 
Heartbeat CPU  0 instructions:  150000002 cycles:  113756934 heartbeat IPC: 1.04103 cumulative IPC: 1.04239 (Simulation time: 0 hr 5 min 20 sec) 
Heartbeat CPU  0 instructions:  151000001 cycles:  114712039 heartbeat IPC: 1.04700 cumulative IPC: 1.04248 (Simulation time: 0 hr 5 min 22 sec) 
Heartbeat CPU  0 instructions:  152000000 cycles:  115674876 heartbeat IPC: 1.03860 cumulative IPC: 1.04241 (Simulation time: 0 hr 5 min 25 sec) 
Heartbeat CPU  0 instructions:  153000002 cycles:  116631359 heartbeat IPC: 1.04550 cumulative IPC: 1.04246 (Simulation time: 0 hr 5 min 27 sec) 
Heartbeat CPU  0 instructions:  154000001 cycles:  117596149 heartbeat IPC: 1.03649 cumulative IPC: 1.04235 (Simulation time: 0 hr 5 min 29 sec) 
Heartbeat CPU  0 instructions:  155000002 cycles:  118553799 heartbeat IPC: 1.04422 cumulative IPC: 1.04239 (Simulation time: 0 hr 5 min 32 sec) 
Heartbeat CPU  0 instructions:  156000000 cycles:  119521171 heartbeat IPC: 1.03373 cumulative IPC: 1.04223 (Simulation time: 0 hr 5 min 34 sec) 
Heartbeat CPU  0 instructions:  157000002 cycles:  120482083 heartbeat IPC: 1.04068 cumulative IPC: 1.04220 (Simulation time: 0 hr 5 min 36 sec) 
Heartbeat CPU  0 instructions:  158000000 cycles:  121441195 heartbeat IPC: 1.04263 cumulative IPC: 1.04221 (Simulation time: 0 hr 5 min 39 sec) 
Heartbeat CPU  0 instructions:  159000000 cycles:  122398905 heartbeat IPC: 1.04416 cumulative IPC: 1.04224 (Simulation time: 0 hr 5 min 41 sec) 
Heartbeat CPU  0 instructions:  160000000 cycles:  123355902 heartbeat IPC: 1.04494 cumulative IPC: 1.04229 (Simulation time: 0 hr 5 min 43 sec) 
Heartbeat CPU  0 instructions:  161000000 cycles:  124319904 heartbeat IPC: 1.03734 cumulative IPC: 1.04221 (Simulation time: 0 hr 5 min 46 sec) 
Heartbeat CPU  0 instructions:  162000000 cycles:  125274544 heartbeat IPC: 1.04752 cumulative IPC: 1.04229 (Simulation time: 0 hr 5 min 48 sec) 
Heartbeat CPU  0 instructions:  163000001 cycles:  126232037 heartbeat IPC: 1.04440 cumulative IPC: 1.04233 (Simulation time: 0 hr 5 min 50 sec) 
Heartbeat CPU  0 instructions:  164000000 cycles:  127194448 heartbeat IPC: 1.03906 cumulative IPC: 1.04227 (Simulation time: 0 hr 5 min 53 sec) 
Heartbeat CPU  0 instructions:  165000001 cycles:  128153496 heartbeat IPC: 1.04270 cumulative IPC: 1.04228 (Simulation time: 0 hr 5 min 55 sec) 
Heartbeat CPU  0 instructions:  166000002 cycles:  129107373 heartbeat IPC: 1.04835 cumulative IPC: 1.04237 (Simulation time: 0 hr 5 min 57 sec) 
Heartbeat CPU  0 instructions:  167000001 cycles:  130067799 heartbeat IPC: 1.04120 cumulative IPC: 1.04235 (Simulation time: 0 hr 5 min 59 sec) 
Heartbeat CPU  0 instructions:  168000000 cycles:  131029518 heartbeat IPC: 1.03980 cumulative IPC: 1.04232 (Simulation time: 0 hr 6 min 2 sec) 
Heartbeat CPU  0 instructions:  169000002 cycles:  131988008 heartbeat IPC: 1.04331 cumulative IPC: 1.04233 (Simulation time: 0 hr 6 min 4 sec) 
Heartbeat CPU  0 instructions:  170000001 cycles:  132954137 heartbeat IPC: 1.03506 cumulative IPC: 1.04223 (Simulation time: 0 hr 6 min 6 sec) 
Heartbeat CPU  0 instructions:  171000000 cycles:  133912026 heartbeat IPC: 1.04396 cumulative IPC: 1.04225 (Simulation time: 0 hr 6 min 9 sec) 
Heartbeat CPU  0 instructions:  172000000 cycles:  134873783 heartbeat IPC: 1.03976 cumulative IPC: 1.04222 (Simulation time: 0 hr 6 min 11 sec) 
Heartbeat CPU  0 instructions:  173000000 cycles:  135827283 heartbeat IPC: 1.04877 cumulative IPC: 1.04231 (Simulation time: 0 hr 6 min 13 sec) 
Heartbeat CPU  0 instructions:  174000000 cycles:  136786036 heartbeat IPC: 1.04302 cumulative IPC: 1.04232 (Simulation time: 0 hr 6 min 16 sec) 
Heartbeat CPU  0 instructions:  175000003 cycles:  137745439 heartbeat IPC: 1.04232 cumulative IPC: 1.04232 (Simulation time: 0 hr 6 min 18 sec) 
Heartbeat CPU  0 instructions:  176000000 cycles:  138706242 heartbeat IPC: 1.04079 cumulative IPC: 1.04230 (Simulation time: 0 hr 6 min 20 sec) 
Heartbeat CPU  0 instructions:  177000000 cycles:  139660666 heartbeat IPC: 1.04775 cumulative IPC: 1.04237 (Simulation time: 0 hr 6 min 23 sec) 
Heartbeat CPU  0 instructions:  178000002 cycles:  140622783 heartbeat IPC: 1.03938 cumulative IPC: 1.04233 (Simulation time: 0 hr 6 min 25 sec) 
Heartbeat CPU  0 instructions:  179000001 cycles:  141586728 heartbeat IPC: 1.03740 cumulative IPC: 1.04226 (Simulation time: 0 hr 6 min 27 sec) 
Heartbeat CPU  0 instructions:  180000000 cycles:  142542987 heartbeat IPC: 1.04574 cumulative IPC: 1.04231 (Simulation time: 0 hr 6 min 30 sec) 
Heartbeat CPU  0 instructions:  181000001 cycles:  143501788 heartbeat IPC: 1.04297 cumulative IPC: 1.04232 (Simulation time: 0 hr 6 min 32 sec) 
Heartbeat CPU  0 instructions:  182000000 cycles:  144457002 heartbeat IPC: 1.04688 cumulative IPC: 1.04237 (Simulation time: 0 hr 6 min 34 sec) 
Heartbeat CPU  0 instructions:  183000002 cycles:  145414544 heartbeat IPC: 1.04434 cumulative IPC: 1.04240 (Simulation time: 0 hr 6 min 37 sec) 
Heartbeat CPU  0 instructions:  184000000 cycles:  146381238 heartbeat IPC: 1.03445 cumulative IPC: 1.04230 (Simulation time: 0 hr 6 min 39 sec) 
Heartbeat CPU  0 instructions:  185000000 cycles:  147335957 heartbeat IPC: 1.04743 cumulative IPC: 1.04236 (Simulation time: 0 hr 6 min 41 sec) 
Heartbeat CPU  0 instructions:  186000000 cycles:  148289652 heartbeat IPC: 1.04855 cumulative IPC: 1.04243 (Simulation time: 0 hr 6 min 44 sec) 
Heartbeat CPU  0 instructions:  187000003 cycles:  149248475 heartbeat IPC: 1.04295 cumulative IPC: 1.04244 (Simulation time: 0 hr 6 min 46 sec) 
Heartbeat CPU  0 instructions:  188000000 cycles:  150202491 heartbeat IPC: 1.04820 cumulative IPC: 1.04250 (Simulation time: 0 hr 6 min 48 sec) 
Heartbeat CPU  0 instructions:  189000000 cycles:  151163042 heartbeat IPC: 1.04107 cumulative IPC: 1.04249 (Simulation time: 0 hr 6 min 51 sec) 
Heartbeat CPU  0 instructions:  190000003 cycles:  152122882 heartbeat IPC: 1.04184 cumulative IPC: 1.04248 (Simulation time: 0 hr 6 min 53 sec) 
Heartbeat CPU  0 instructions:  191000001 cycles:  153088040 heartbeat IPC: 1.03610 cumulative IPC: 1.04241 (Simulation time: 0 hr 6 min 55 sec) 
Heartbeat CPU  0 instructions:  192000000 cycles:  154044346 heartbeat IPC: 1.04569 cumulative IPC: 1.04244 (Simulation time: 0 hr 6 min 58 sec) 
Heartbeat CPU  0 instructions:  193000001 cycles:  155003997 heartbeat IPC: 1.04205 cumulative IPC: 1.04244 (Simulation time: 0 hr 7 min 0 sec) 
Heartbeat CPU  0 instructions:  194000001 cycles:  155959949 heartbeat IPC: 1.04608 cumulative IPC: 1.04248 (Simulation time: 0 hr 7 min 2 sec) 
Heartbeat CPU  0 instructions:  195000002 cycles:  156922330 heartbeat IPC: 1.03909 cumulative IPC: 1.04244 (Simulation time: 0 hr 7 min 5 sec) 
Heartbeat CPU  0 instructions:  196000000 cycles:  157882377 heartbeat IPC: 1.04161 cumulative IPC: 1.04243 (Simulation time: 0 hr 7 min 7 sec) 
Heartbeat CPU  0 instructions:  197000001 cycles:  158836677 heartbeat IPC: 1.04789 cumulative IPC: 1.04249 (Simulation time: 0 hr 7 min 9 sec) 
Heartbeat CPU  0 instructions:  198000002 cycles:  159795522 heartbeat IPC: 1.04292 cumulative IPC: 1.04249 (Simulation time: 0 hr 7 min 11 sec) 
Heartbeat CPU  0 instructions:  199000003 cycles:  160751180 heartbeat IPC: 1.04640 cumulative IPC: 1.04253 (Simulation time: 0 hr 7 min 14 sec) 
Heartbeat CPU  0 instructions:  200000000 cycles:  161706461 heartbeat IPC: 1.04681 cumulative IPC: 1.04258 (Simulation time: 0 hr 7 min 16 sec) 
Heartbeat CPU  0 instructions:  201000002 cycles:  162666083 heartbeat IPC: 1.04208 cumulative IPC: 1.04257 (Simulation time: 0 hr 7 min 18 sec) 
Heartbeat CPU  0 instructions:  202000000 cycles:  163625705 heartbeat IPC: 1.04207 cumulative IPC: 1.04257 (Simulation time: 0 hr 7 min 21 sec) 
Heartbeat CPU  0 instructions:  203000000 cycles:  164590247 heartbeat IPC: 1.03676 cumulative IPC: 1.04251 (Simulation time: 0 hr 7 min 23 sec) 
Heartbeat CPU  0 instructions:  204000000 cycles:  165551043 heartbeat IPC: 1.04080 cumulative IPC: 1.04249 (Simulation time: 0 hr 7 min 25 sec) 
Heartbeat CPU  0 instructions:  205000003 cycles:  166507959 heartbeat IPC: 1.04503 cumulative IPC: 1.04252 (Simulation time: 0 hr 7 min 28 sec) 
Heartbeat CPU  0 instructions:  206000002 cycles:  167470809 heartbeat IPC: 1.03858 cumulative IPC: 1.04248 (Simulation time: 0 hr 7 min 30 sec) 
Heartbeat CPU  0 instructions:  207000000 cycles:  168426885 heartbeat IPC: 1.04594 cumulative IPC: 1.04251 (Simulation time: 0 hr 7 min 32 sec) 
Heartbeat CPU  0 instructions:  208000000 cycles:  169384643 heartbeat IPC: 1.04411 cumulative IPC: 1.04253 (Simulation time: 0 hr 7 min 35 sec) 
Heartbeat CPU  0 instructions:  209000002 cycles:  170342066 heartbeat IPC: 1.04447 cumulative IPC: 1.04255 (Simulation time: 0 hr 7 min 37 sec) 
Heartbeat CPU  0 instructions:  210000001 cycles:  171304479 heartbeat IPC: 1.03905 cumulative IPC: 1.04251 (Simulation time: 0 hr 7 min 39 sec) 
Heartbeat CPU  0 instructions:  211000000 cycles:  172257002 heartbeat IPC: 1.04984 cumulative IPC: 1.04258 (Simulation time: 0 hr 7 min 42 sec) 
Heartbeat CPU  0 instructions:  212000000 cycles:  173218216 heartbeat IPC: 1.04035 cumulative IPC: 1.04256 (Simulation time: 0 hr 7 min 44 sec) 
Heartbeat CPU  0 instructions:  213000001 cycles:  174173531 heartbeat IPC: 1.04678 cumulative IPC: 1.04260 (Simulation time: 0 hr 7 min 46 sec) 
Heartbeat CPU  0 instructions:  214000000 cycles:  175138260 heartbeat IPC: 1.03656 cumulative IPC: 1.04254 (Simulation time: 0 hr 7 min 49 sec) 
Heartbeat CPU  0 instructions:  215000002 cycles:  176092978 heartbeat IPC: 1.04743 cumulative IPC: 1.04259 (Simulation time: 0 hr 7 min 51 sec) 
Heartbeat CPU  0 instructions:  216000000 cycles:  177050156 heartbeat IPC: 1.04474 cumulative IPC: 1.04260 (Simulation time: 0 hr 7 min 53 sec) 
Heartbeat CPU  0 instructions:  217000001 cycles:  178011298 heartbeat IPC: 1.04043 cumulative IPC: 1.04259 (Simulation time: 0 hr 7 min 56 sec) 
Heartbeat CPU  0 instructions:  218000002 cycles:  178970866 heartbeat IPC: 1.04214 cumulative IPC: 1.04258 (Simulation time: 0 hr 7 min 58 sec) 
Heartbeat CPU  0 instructions:  219000001 cycles:  179926578 heartbeat IPC: 1.04634 cumulative IPC: 1.04261 (Simulation time: 0 hr 8 min 0 sec) 
Heartbeat CPU  0 instructions:  220000000 cycles:  180881584 heartbeat IPC: 1.04711 cumulative IPC: 1.04265 (Simulation time: 0 hr 8 min 3 sec) 
Heartbeat CPU  0 instructions:  221000001 cycles:  181837344 heartbeat IPC: 1.04629 cumulative IPC: 1.04268 (Simulation time: 0 hr 8 min 5 sec) 
Heartbeat CPU  0 instructions:  222000002 cycles:  182793301 heartbeat IPC: 1.04607 cumulative IPC: 1.04271 (Simulation time: 0 hr 8 min 7 sec) 
Heartbeat CPU  0 instructions:  223000000 cycles:  183746781 heartbeat IPC: 1.04879 cumulative IPC: 1.04276 (Simulation time: 0 hr 8 min 9 sec) 
Heartbeat CPU  0 instructions:  224000000 cycles:  184714752 heartbeat IPC: 1.03309 cumulative IPC: 1.04268 (Simulation time: 0 hr 8 min 12 sec) 
Heartbeat CPU  0 instructions:  225000002 cycles:  185668406 heartbeat IPC: 1.04860 cumulative IPC: 1.04273 (Simulation time: 0 hr 8 min 14 sec) 
Heartbeat CPU  0 instructions:  226000003 cycles:  186629360 heartbeat IPC: 1.04063 cumulative IPC: 1.04271 (Simulation time: 0 hr 8 min 16 sec) 
Heartbeat CPU  0 instructions:  227000002 cycles:  187586097 heartbeat IPC: 1.04522 cumulative IPC: 1.04273 (Simulation time: 0 hr 8 min 19 sec) 
Heartbeat CPU  0 instructions:  228000000 cycles:  188544547 heartbeat IPC: 1.04335 cumulative IPC: 1.04273 (Simulation time: 0 hr 8 min 21 sec) 
Heartbeat CPU  0 instructions:  229000000 cycles:  189500211 heartbeat IPC: 1.04639 cumulative IPC: 1.04276 (Simulation time: 0 hr 8 min 23 sec) 
Heartbeat CPU  0 instructions:  230000002 cycles:  190459512 heartbeat IPC: 1.04243 cumulative IPC: 1.04276 (Simulation time: 0 hr 8 min 26 sec) 
Heartbeat CPU  0 instructions:  231000001 cycles:  191410067 heartbeat IPC: 1.05202 cumulative IPC: 1.04283 (Simulation time: 0 hr 8 min 28 sec) 
Heartbeat CPU  0 instructions:  232000000 cycles:  192372937 heartbeat IPC: 1.03856 cumulative IPC: 1.04280 (Simulation time: 0 hr 8 min 30 sec) 
Heartbeat CPU  0 instructions:  233000000 cycles:  193337471 heartbeat IPC: 1.03677 cumulative IPC: 1.04275 (Simulation time: 0 hr 8 min 33 sec) 
Heartbeat CPU  0 instructions:  234000001 cycles:  194290920 heartbeat IPC: 1.04882 cumulative IPC: 1.04280 (Simulation time: 0 hr 8 min 35 sec) 
Heartbeat CPU  0 instructions:  235000001 cycles:  195249051 heartbeat IPC: 1.04370 cumulative IPC: 1.04280 (Simulation time: 0 hr 8 min 37 sec) 
Heartbeat CPU  0 instructions:  236000000 cycles:  196210398 heartbeat IPC: 1.04021 cumulative IPC: 1.04278 (Simulation time: 0 hr 8 min 40 sec) 
Heartbeat CPU  0 instructions:  237000000 cycles:  197168009 heartbeat IPC: 1.04427 cumulative IPC: 1.04279 (Simulation time: 0 hr 8 min 42 sec) 
Heartbeat CPU  0 instructions:  238000000 cycles:  198117171 heartbeat IPC: 1.05356 cumulative IPC: 1.04287 (Simulation time: 0 hr 8 min 44 sec) 
Heartbeat CPU  0 instructions:  239000001 cycles:  199080869 heartbeat IPC: 1.03767 cumulative IPC: 1.04283 (Simulation time: 0 hr 8 min 47 sec) 
Heartbeat CPU  0 instructions:  240000000 cycles:  200038765 heartbeat IPC: 1.04395 cumulative IPC: 1.04284 (Simulation time: 0 hr 8 min 49 sec) 
Heartbeat CPU  0 instructions:  241000000 cycles:  200991985 heartbeat IPC: 1.04908 cumulative IPC: 1.04289 (Simulation time: 0 hr 8 min 51 sec) 
Heartbeat CPU  0 instructions:  242000003 cycles:  201951481 heartbeat IPC: 1.04222 cumulative IPC: 1.04288 (Simulation time: 0 hr 8 min 54 sec) 
Heartbeat CPU  0 instructions:  243000000 cycles:  202906228 heartbeat IPC: 1.04739 cumulative IPC: 1.04291 (Simulation time: 0 hr 8 min 56 sec) 
Heartbeat CPU  0 instructions:  244000000 cycles:  203867439 heartbeat IPC: 1.04035 cumulative IPC: 1.04289 (Simulation time: 0 hr 8 min 58 sec) 
Heartbeat CPU  0 instructions:  245000001 cycles:  204823493 heartbeat IPC: 1.04597 cumulative IPC: 1.04292 (Simulation time: 0 hr 9 min 1 sec) 
Heartbeat CPU  0 instructions:  246000001 cycles:  205779718 heartbeat IPC: 1.04578 cumulative IPC: 1.04294 (Simulation time: 0 hr 9 min 3 sec) 
Heartbeat CPU  0 instructions:  247000001 cycles:  206739105 heartbeat IPC: 1.04233 cumulative IPC: 1.04293 (Simulation time: 0 hr 9 min 5 sec) 
Heartbeat CPU  0 instructions:  248000000 cycles:  207692473 heartbeat IPC: 1.04891 cumulative IPC: 1.04297 (Simulation time: 0 hr 9 min 7 sec) 
Heartbeat CPU  0 instructions:  249000003 cycles:  208652319 heartbeat IPC: 1.04184 cumulative IPC: 1.04296 (Simulation time: 0 hr 9 min 10 sec) 
Heartbeat CPU  0 instructions:  250000001 cycles:  209613054 heartbeat IPC: 1.04087 cumulative IPC: 1.04295 (Simulation time: 0 hr 9 min 12 sec) 
Heartbeat CPU  0 instructions:  251000000 cycles:  210568556 heartbeat IPC: 1.04657 cumulative IPC: 1.04297 (Simulation time: 0 hr 9 min 14 sec) 
Heartbeat CPU  0 instructions:  252000000 cycles:  211526533 heartbeat IPC: 1.04387 cumulative IPC: 1.04298 (Simulation time: 0 hr 9 min 17 sec) 
Heartbeat CPU  0 instructions:  253000000 cycles:  212483550 heartbeat IPC: 1.04491 cumulative IPC: 1.04299 (Simulation time: 0 hr 9 min 19 sec) 
Heartbeat CPU  0 instructions:  254000001 cycles:  213441687 heartbeat IPC: 1.04369 cumulative IPC: 1.04300 (Simulation time: 0 hr 9 min 21 sec) 
Heartbeat CPU  0 instructions:  255000000 cycles:  214405438 heartbeat IPC: 1.03761 cumulative IPC: 1.04296 (Simulation time: 0 hr 9 min 24 sec) 
Heartbeat CPU  0 instructions:  256000000 cycles:  215366442 heartbeat IPC: 1.04058 cumulative IPC: 1.04295 (Simulation time: 0 hr 9 min 26 sec) 
Heartbeat CPU  0 instructions:  257000000 cycles:  216321641 heartbeat IPC: 1.04690 cumulative IPC: 1.04297 (Simulation time: 0 hr 9 min 28 sec) 
Heartbeat CPU  0 instructions:  258000003 cycles:  217280746 heartbeat IPC: 1.04264 cumulative IPC: 1.04297 (Simulation time: 0 hr 9 min 31 sec) 
Heartbeat CPU  0 instructions:  259000002 cycles:  218238622 heartbeat IPC: 1.04398 cumulative IPC: 1.04298 (Simulation time: 0 hr 9 min 33 sec) 
Heartbeat CPU  0 instructions:  260000000 cycles:  219195866 heartbeat IPC: 1.04466 cumulative IPC: 1.04299 (Simulation time: 0 hr 9 min 35 sec) 
Heartbeat CPU  0 instructions:  261000003 cycles:  220149470 heartbeat IPC: 1.04866 cumulative IPC: 1.04302 (Simulation time: 0 hr 9 min 38 sec) 
Heartbeat CPU  0 instructions:  262000000 cycles:  221110890 heartbeat IPC: 1.04013 cumulative IPC: 1.04300 (Simulation time: 0 hr 9 min 40 sec) 
Heartbeat CPU  0 instructions:  263000000 cycles:  222072717 heartbeat IPC: 1.03969 cumulative IPC: 1.04298 (Simulation time: 0 hr 9 min 42 sec) 
Heartbeat CPU  0 instructions:  264000000 cycles:  223030065 heartbeat IPC: 1.04455 cumulative IPC: 1.04299 (Simulation time: 0 hr 9 min 45 sec) 
Heartbeat CPU  0 instructions:  265000001 cycles:  223985353 heartbeat IPC: 1.04681 cumulative IPC: 1.04302 (Simulation time: 0 hr 9 min 47 sec) 
Heartbeat CPU  0 instructions:  266000003 cycles:  224944061 heartbeat IPC: 1.04307 cumulative IPC: 1.04302 (Simulation time: 0 hr 9 min 49 sec) 
Heartbeat CPU  0 instructions:  267000003 cycles:  225900677 heartbeat IPC: 1.04535 cumulative IPC: 1.04303 (Simulation time: 0 hr 9 min 52 sec) 
Heartbeat CPU  0 instructions:  268000000 cycles:  226854621 heartbeat IPC: 1.04828 cumulative IPC: 1.04306 (Simulation time: 0 hr 9 min 54 sec) 
Heartbeat CPU  0 instructions:  269000000 cycles:  227813962 heartbeat IPC: 1.04238 cumulative IPC: 1.04306 (Simulation time: 0 hr 9 min 56 sec) 
Heartbeat CPU  0 instructions:  270000001 cycles:  228775647 heartbeat IPC: 1.03984 cumulative IPC: 1.04304 (Simulation time: 0 hr 9 min 58 sec) 
Heartbeat CPU  0 instructions:  271000001 cycles:  229738724 heartbeat IPC: 1.03834 cumulative IPC: 1.04301 (Simulation time: 0 hr 10 min 1 sec) 
Heartbeat CPU  0 instructions:  272000000 cycles:  230705046 heartbeat IPC: 1.03485 cumulative IPC: 1.04296 (Simulation time: 0 hr 10 min 3 sec) 
Heartbeat CPU  0 instructions:  273000003 cycles:  231656910 heartbeat IPC: 1.05057 cumulative IPC: 1.04301 (Simulation time: 0 hr 10 min 5 sec) 
Heartbeat CPU  0 instructions:  274000002 cycles:  232617402 heartbeat IPC: 1.04113 cumulative IPC: 1.04300 (Simulation time: 0 hr 10 min 8 sec) 
Heartbeat CPU  0 instructions:  275000000 cycles:  233577184 heartbeat IPC: 1.04190 cumulative IPC: 1.04299 (Simulation time: 0 hr 10 min 10 sec) 
Heartbeat CPU  0 instructions:  276000000 cycles:  234532112 heartbeat IPC: 1.04720 cumulative IPC: 1.04301 (Simulation time: 0 hr 10 min 12 sec) 
Heartbeat CPU  0 instructions:  277000002 cycles:  235497639 heartbeat IPC: 1.03571 cumulative IPC: 1.04297 (Simulation time: 0 hr 10 min 15 sec) 
Heartbeat CPU  0 instructions:  278000002 cycles:  236453629 heartbeat IPC: 1.04604 cumulative IPC: 1.04299 (Simulation time: 0 hr 10 min 17 sec) 
Heartbeat CPU  0 instructions:  279000001 cycles:  237419949 heartbeat IPC: 1.03485 cumulative IPC: 1.04294 (Simulation time: 0 hr 10 min 19 sec) 
Heartbeat CPU  0 instructions:  280000000 cycles:  238377586 heartbeat IPC: 1.04424 cumulative IPC: 1.04295 (Simulation time: 0 hr 10 min 22 sec) 
Heartbeat CPU  0 instructions:  281000000 cycles:  239339569 heartbeat IPC: 1.03952 cumulative IPC: 1.04293 (Simulation time: 0 hr 10 min 24 sec) 
Heartbeat CPU  0 instructions:  282000000 cycles:  240293885 heartbeat IPC: 1.04787 cumulative IPC: 1.04296 (Simulation time: 0 hr 10 min 26 sec) 
Heartbeat CPU  0 instructions:  283000003 cycles:  241249681 heartbeat IPC: 1.04625 cumulative IPC: 1.04298 (Simulation time: 0 hr 10 min 29 sec) 
Heartbeat CPU  0 instructions:  284000000 cycles:  242208250 heartbeat IPC: 1.04322 cumulative IPC: 1.04298 (Simulation time: 0 hr 10 min 31 sec) 
Heartbeat CPU  0 instructions:  285000000 cycles:  243165160 heartbeat IPC: 1.04503 cumulative IPC: 1.04299 (Simulation time: 0 hr 10 min 33 sec) 
Heartbeat CPU  0 instructions:  286000002 cycles:  244126356 heartbeat IPC: 1.04037 cumulative IPC: 1.04297 (Simulation time: 0 hr 10 min 36 sec) 
Heartbeat CPU  0 instructions:  287000000 cycles:  245084677 heartbeat IPC: 1.04349 cumulative IPC: 1.04298 (Simulation time: 0 hr 10 min 38 sec) 
Heartbeat CPU  0 instructions:  288000000 cycles:  246040457 heartbeat IPC: 1.04627 cumulative IPC: 1.04299 (Simulation time: 0 hr 10 min 40 sec) 
Heartbeat CPU  0 instructions:  289000001 cycles:  247007044 heartbeat IPC: 1.03457 cumulative IPC: 1.04295 (Simulation time: 0 hr 10 min 43 sec) 
Heartbeat CPU  0 instructions:  290000002 cycles:  247965540 heartbeat IPC: 1.04330 cumulative IPC: 1.04295 (Simulation time: 0 hr 10 min 45 sec) 
Heartbeat CPU  0 instructions:  291000002 cycles:  248928473 heartbeat IPC: 1.03849 cumulative IPC: 1.04293 (Simulation time: 0 hr 10 min 47 sec) 
Heartbeat CPU  0 instructions:  292000000 cycles:  249884299 heartbeat IPC: 1.04621 cumulative IPC: 1.04295 (Simulation time: 0 hr 10 min 50 sec) 
Heartbeat CPU  0 instructions:  293000001 cycles:  250837560 heartbeat IPC: 1.04903 cumulative IPC: 1.04298 (Simulation time: 0 hr 10 min 52 sec) 
Heartbeat CPU  0 instructions:  294000000 cycles:  251798043 heartbeat IPC: 1.04114 cumulative IPC: 1.04297 (Simulation time: 0 hr 10 min 54 sec) 
Heartbeat CPU  0 instructions:  295000003 cycles:  252761052 heartbeat IPC: 1.03841 cumulative IPC: 1.04294 (Simulation time: 0 hr 10 min 57 sec) 
Heartbeat CPU  0 instructions:  296000000 cycles:  253713688 heartbeat IPC: 1.04972 cumulative IPC: 1.04298 (Simulation time: 0 hr 10 min 59 sec) 
Heartbeat CPU  0 instructions:  297000001 cycles:  254671111 heartbeat IPC: 1.04447 cumulative IPC: 1.04299 (Simulation time: 0 hr 11 min 1 sec) 
Heartbeat CPU  0 instructions:  298000001 cycles:  255623794 heartbeat IPC: 1.04967 cumulative IPC: 1.04302 (Simulation time: 0 hr 11 min 3 sec) 
Heartbeat CPU  0 instructions:  299000000 cycles:  256575116 heartbeat IPC: 1.05117 cumulative IPC: 1.04306 (Simulation time: 0 hr 11 min 6 sec) 
Heartbeat CPU  0 instructions:  300000000 cycles:  257531356 heartbeat IPC: 1.04576 cumulative IPC: 1.04307 (Simulation time: 0 hr 11 min 8 sec) 
Heartbeat CPU  0 instructions:  301000000 cycles:  258491424 heartbeat IPC: 1.04159 cumulative IPC: 1.04307 (Simulation time: 0 hr 11 min 10 sec) 
Heartbeat CPU  0 instructions:  302000002 cycles:  259448875 heartbeat IPC: 1.04444 cumulative IPC: 1.04307 (Simulation time: 0 hr 11 min 13 sec) 
Heartbeat CPU  0 instructions:  303000000 cycles:  260403108 heartbeat IPC: 1.04796 cumulative IPC: 1.04310 (Simulation time: 0 hr 11 min 15 sec) 
Heartbeat CPU  0 instructions:  304000000 cycles:  261361039 heartbeat IPC: 1.04392 cumulative IPC: 1.04310 (Simulation time: 0 hr 11 min 17 sec) 
Heartbeat CPU  0 instructions:  305000001 cycles:  262318145 heartbeat IPC: 1.04482 cumulative IPC: 1.04311 (Simulation time: 0 hr 11 min 20 sec) 
Heartbeat CPU  0 instructions:  306000001 cycles:  263286817 heartbeat IPC: 1.03234 cumulative IPC: 1.04306 (Simulation time: 0 hr 11 min 22 sec) 
Heartbeat CPU  0 instructions:  307000002 cycles:  264247036 heartbeat IPC: 1.04143 cumulative IPC: 1.04305 (Simulation time: 0 hr 11 min 24 sec) 
Heartbeat CPU  0 instructions:  308000000 cycles:  265202682 heartbeat IPC: 1.04641 cumulative IPC: 1.04306 (Simulation time: 0 hr 11 min 27 sec) 
Heartbeat CPU  0 instructions:  309000002 cycles:  266165097 heartbeat IPC: 1.03905 cumulative IPC: 1.04305 (Simulation time: 0 hr 11 min 29 sec) 
Heartbeat CPU  0 instructions:  310000000 cycles:  267122739 heartbeat IPC: 1.04423 cumulative IPC: 1.04305 (Simulation time: 0 hr 11 min 31 sec) 
Heartbeat CPU  0 instructions:  311000002 cycles:  268074502 heartbeat IPC: 1.05068 cumulative IPC: 1.04309 (Simulation time: 0 hr 11 min 34 sec) 
Heartbeat CPU  0 instructions:  312000000 cycles:  269042879 heartbeat IPC: 1.03265 cumulative IPC: 1.04304 (Simulation time: 0 hr 11 min 36 sec) 
Heartbeat CPU  0 instructions:  313000003 cycles:  270008886 heartbeat IPC: 1.03519 cumulative IPC: 1.04300 (Simulation time: 0 hr 11 min 38 sec) 
Heartbeat CPU  0 instructions:  314000002 cycles:  270965571 heartbeat IPC: 1.04528 cumulative IPC: 1.04301 (Simulation time: 0 hr 11 min 41 sec) 
Heartbeat CPU  0 instructions:  315000000 cycles:  271929802 heartbeat IPC: 1.03709 cumulative IPC: 1.04298 (Simulation time: 0 hr 11 min 43 sec) 
Heartbeat CPU  0 instructions:  316000000 cycles:  272882047 heartbeat IPC: 1.05015 cumulative IPC: 1.04302 (Simulation time: 0 hr 11 min 45 sec) 
Heartbeat CPU  0 instructions:  317000001 cycles:  273848574 heartbeat IPC: 1.03463 cumulative IPC: 1.04298 (Simulation time: 0 hr 11 min 48 sec) 
Heartbeat CPU  0 instructions:  318000001 cycles:  274814221 heartbeat IPC: 1.03558 cumulative IPC: 1.04294 (Simulation time: 0 hr 11 min 50 sec) 
Heartbeat CPU  0 instructions:  319000000 cycles:  275775373 heartbeat IPC: 1.04042 cumulative IPC: 1.04293 (Simulation time: 0 hr 11 min 52 sec) 
Heartbeat CPU  0 instructions:  320000000 cycles:  276732872 heartbeat IPC: 1.04439 cumulative IPC: 1.04294 (Simulation time: 0 hr 11 min 55 sec) 
Heartbeat CPU  0 instructions:  321000000 cycles:  277688964 heartbeat IPC: 1.04592 cumulative IPC: 1.04295 (Simulation time: 0 hr 11 min 57 sec) 
Heartbeat CPU  0 instructions:  322000000 cycles:  278641796 heartbeat IPC: 1.04950 cumulative IPC: 1.04298 (Simulation time: 0 hr 11 min 59 sec) 
Heartbeat CPU  0 instructions:  323000002 cycles:  279602868 heartbeat IPC: 1.04051 cumulative IPC: 1.04297 (Simulation time: 0 hr 12 min 2 sec) 
Heartbeat CPU  0 instructions:  324000000 cycles:  280561730 heartbeat IPC: 1.04290 cumulative IPC: 1.04297 (Simulation time: 0 hr 12 min 4 sec) 
Heartbeat CPU  0 instructions:  325000002 cycles:  281523441 heartbeat IPC: 1.03982 cumulative IPC: 1.04296 (Simulation time: 0 hr 12 min 6 sec) 
Heartbeat CPU  0 instructions:  326000001 cycles:  282480482 heartbeat IPC: 1.04489 cumulative IPC: 1.04296 (Simulation time: 0 hr 12 min 9 sec) 
Heartbeat CPU  0 instructions:  327000000 cycles:  283439660 heartbeat IPC: 1.04256 cumulative IPC: 1.04296 (Simulation time: 0 hr 12 min 11 sec) 
Heartbeat CPU  0 instructions:  328000000 cycles:  284401914 heartbeat IPC: 1.03923 cumulative IPC: 1.04295 (Simulation time: 0 hr 12 min 13 sec) 
Heartbeat CPU  0 instructions:  329000003 cycles:  285356092 heartbeat IPC: 1.04803 cumulative IPC: 1.04297 (Simulation time: 0 hr 12 min 16 sec) 
Heartbeat CPU  0 instructions:  330000000 cycles:  286313025 heartbeat IPC: 1.04500 cumulative IPC: 1.04298 (Simulation time: 0 hr 12 min 18 sec) 
Heartbeat CPU  0 instructions:  331000000 cycles:  287272348 heartbeat IPC: 1.04240 cumulative IPC: 1.04297 (Simulation time: 0 hr 12 min 20 sec) 
Heartbeat CPU  0 instructions:  332000000 cycles:  288229748 heartbeat IPC: 1.04450 cumulative IPC: 1.04298 (Simulation time: 0 hr 12 min 23 sec) 
Heartbeat CPU  0 instructions:  333000002 cycles:  289188050 heartbeat IPC: 1.04351 cumulative IPC: 1.04298 (Simulation time: 0 hr 12 min 25 sec) 
Heartbeat CPU  0 instructions:  334000003 cycles:  290143225 heartbeat IPC: 1.04693 cumulative IPC: 1.04300 (Simulation time: 0 hr 12 min 27 sec) 
Heartbeat CPU  0 instructions:  335000000 cycles:  291102355 heartbeat IPC: 1.04261 cumulative IPC: 1.04300 (Simulation time: 0 hr 12 min 30 sec) 
Heartbeat CPU  0 instructions:  336000000 cycles:  292063445 heartbeat IPC: 1.04049 cumulative IPC: 1.04299 (Simulation time: 0 hr 12 min 32 sec) 
Heartbeat CPU  0 instructions:  337000001 cycles:  293027247 heartbeat IPC: 1.03756 cumulative IPC: 1.04296 (Simulation time: 0 hr 12 min 34 sec) 
Heartbeat CPU  0 instructions:  338000003 cycles:  293987117 heartbeat IPC: 1.04181 cumulative IPC: 1.04296 (Simulation time: 0 hr 12 min 37 sec) 
Heartbeat CPU  0 instructions:  339000001 cycles:  294944105 heartbeat IPC: 1.04494 cumulative IPC: 1.04297 (Simulation time: 0 hr 12 min 39 sec) 
Heartbeat CPU  0 instructions:  340000000 cycles:  295901016 heartbeat IPC: 1.04503 cumulative IPC: 1.04298 (Simulation time: 0 hr 12 min 41 sec) 
Heartbeat CPU  0 instructions:  341000001 cycles:  296859709 heartbeat IPC: 1.04309 cumulative IPC: 1.04298 (Simulation time: 0 hr 12 min 44 sec) 
Heartbeat CPU  0 instructions:  342000003 cycles:  297812708 heartbeat IPC: 1.04932 cumulative IPC: 1.04300 (Simulation time: 0 hr 12 min 46 sec) 
Heartbeat CPU  0 instructions:  343000002 cycles:  298772864 heartbeat IPC: 1.04150 cumulative IPC: 1.04300 (Simulation time: 0 hr 12 min 48 sec) 
Heartbeat CPU  0 instructions:  344000000 cycles:  299725925 heartbeat IPC: 1.04925 cumulative IPC: 1.04302 (Simulation time: 0 hr 12 min 51 sec) 
Heartbeat CPU  0 instructions:  345000001 cycles:  300872536 heartbeat IPC: 0.87214 cumulative IPC: 1.04219 (Simulation time: 0 hr 12 min 53 sec) 
Heartbeat CPU  0 instructions:  346000001 cycles:  301646390 heartbeat IPC: 1.29223 cumulative IPC: 1.04301 (Simulation time: 0 hr 12 min 54 sec) 
Heartbeat CPU  0 instructions:  347000001 cycles:  302420582 heartbeat IPC: 1.29167 cumulative IPC: 1.04382 (Simulation time: 0 hr 12 min 56 sec) 
Heartbeat CPU  0 instructions:  348000000 cycles:  303194979 heartbeat IPC: 1.29133 cumulative IPC: 1.04463 (Simulation time: 0 hr 12 min 58 sec) 
Heartbeat CPU  0 instructions:  349000002 cycles:  303968957 heartbeat IPC: 1.29203 cumulative IPC: 1.04543 (Simulation time: 0 hr 12 min 59 sec) 
Heartbeat CPU  0 instructions:  350000002 cycles:  304743116 heartbeat IPC: 1.29172 cumulative IPC: 1.04623 (Simulation time: 0 hr 13 min 1 sec) 
Heartbeat CPU  0 instructions:  351000001 cycles:  305517681 heartbeat IPC: 1.29105 cumulative IPC: 1.04702 (Simulation time: 0 hr 13 min 3 sec) 
Heartbeat CPU  0 instructions:  352000000 cycles:  306291716 heartbeat IPC: 1.29193 cumulative IPC: 1.04781 (Simulation time: 0 hr 13 min 4 sec) 
Heartbeat CPU  0 instructions:  353000003 cycles:  307065560 heartbeat IPC: 1.29225 cumulative IPC: 1.04859 (Simulation time: 0 hr 13 min 6 sec) 
Heartbeat CPU  0 instructions:  354000000 cycles:  307840006 heartbeat IPC: 1.29124 cumulative IPC: 1.04937 (Simulation time: 0 hr 13 min 8 sec) 
Heartbeat CPU  0 instructions:  355000002 cycles:  308614580 heartbeat IPC: 1.29103 cumulative IPC: 1.05014 (Simulation time: 0 hr 13 min 9 sec) 
Heartbeat CPU  0 instructions:  356000000 cycles:  309388880 heartbeat IPC: 1.29149 cumulative IPC: 1.05091 (Simulation time: 0 hr 13 min 11 sec) 
Heartbeat CPU  0 instructions:  357000003 cycles:  310163470 heartbeat IPC: 1.29101 cumulative IPC: 1.05167 (Simulation time: 0 hr 13 min 12 sec) 
Heartbeat CPU  0 instructions:  358000003 cycles:  310933710 heartbeat IPC: 1.29830 cumulative IPC: 1.05245 (Simulation time: 0 hr 13 min 14 sec) 
Heartbeat CPU  0 instructions:  359000003 cycles:  311735415 heartbeat IPC: 1.24734 cumulative IPC: 1.05308 (Simulation time: 0 hr 13 min 16 sec) 
Heartbeat CPU  0 instructions:  360000000 cycles:  312409569 heartbeat IPC: 1.48334 cumulative IPC: 1.05426 (Simulation time: 0 hr 13 min 18 sec) 
Heartbeat CPU  0 instructions:  361000003 cycles:  313096206 heartbeat IPC: 1.45638 cumulative IPC: 1.05537 (Simulation time: 0 hr 13 min 19 sec) 
Heartbeat CPU  0 instructions:  362000003 cycles:  313780036 heartbeat IPC: 1.46235 cumulative IPC: 1.05650 (Simulation time: 0 hr 13 min 21 sec) 
Heartbeat CPU  0 instructions:  363000000 cycles:  314463479 heartbeat IPC: 1.46318 cumulative IPC: 1.05761 (Simulation time: 0 hr 13 min 23 sec) 
Heartbeat CPU  0 instructions:  364000000 cycles:  315151093 heartbeat IPC: 1.45430 cumulative IPC: 1.05871 (Simulation time: 0 hr 13 min 24 sec) 
Heartbeat CPU  0 instructions:  365000000 cycles:  315837040 heartbeat IPC: 1.45784 cumulative IPC: 1.05980 (Simulation time: 0 hr 13 min 26 sec) 
Heartbeat CPU  0 instructions:  366000003 cycles:  316522642 heartbeat IPC: 1.45858 cumulative IPC: 1.06089 (Simulation time: 0 hr 13 min 28 sec) 
Heartbeat CPU  0 instructions:  367000003 cycles:  317210330 heartbeat IPC: 1.45415 cumulative IPC: 1.06197 (Simulation time: 0 hr 13 min 30 sec) 
Heartbeat CPU  0 instructions:  368000000 cycles:  317893839 heartbeat IPC: 1.46303 cumulative IPC: 1.06306 (Simulation time: 0 hr 13 min 31 sec) 
Heartbeat CPU  0 instructions:  369000002 cycles:  318578534 heartbeat IPC: 1.46051 cumulative IPC: 1.06413 (Simulation time: 0 hr 13 min 33 sec) 
Heartbeat CPU  0 instructions:  370000002 cycles:  319262203 heartbeat IPC: 1.46270 cumulative IPC: 1.06521 (Simulation time: 0 hr 13 min 35 sec) 
Heartbeat CPU  0 instructions:  371000000 cycles:  319947448 heartbeat IPC: 1.45933 cumulative IPC: 1.06627 (Simulation time: 0 hr 13 min 37 sec) 
Heartbeat CPU  0 instructions:  372000000 cycles:  320632234 heartbeat IPC: 1.46031 cumulative IPC: 1.06733 (Simulation time: 0 hr 13 min 38 sec) 
Heartbeat CPU  0 instructions:  373000003 cycles:  321316727 heartbeat IPC: 1.46094 cumulative IPC: 1.06838 (Simulation time: 0 hr 13 min 40 sec) 
Heartbeat CPU  0 instructions:  374000003 cycles:  322001089 heartbeat IPC: 1.46122 cumulative IPC: 1.06943 (Simulation time: 0 hr 13 min 42 sec) 
Heartbeat CPU  0 instructions:  375000000 cycles:  322685545 heartbeat IPC: 1.46101 cumulative IPC: 1.07048 (Simulation time: 0 hr 13 min 44 sec) 
Heartbeat CPU  0 instructions:  376000000 cycles:  323369381 heartbeat IPC: 1.46234 cumulative IPC: 1.07152 (Simulation time: 0 hr 13 min 45 sec) 
Heartbeat CPU  0 instructions:  377000001 cycles:  324368097 heartbeat IPC: 1.00129 cumulative IPC: 1.07124 (Simulation time: 0 hr 13 min 48 sec) 
Heartbeat CPU  0 instructions:  378000001 cycles:  325327716 heartbeat IPC: 1.04208 cumulative IPC: 1.07114 (Simulation time: 0 hr 13 min 50 sec) 
Heartbeat CPU  0 instructions:  379000000 cycles:  326273130 heartbeat IPC: 1.05774 cumulative IPC: 1.07109 (Simulation time: 0 hr 13 min 52 sec) 
Heartbeat CPU  0 instructions:  380000000 cycles:  327218303 heartbeat IPC: 1.05801 cumulative IPC: 1.07104 (Simulation time: 0 hr 13 min 55 sec) 
Heartbeat CPU  0 instructions:  381000003 cycles:  328166324 heartbeat IPC: 1.05483 cumulative IPC: 1.07098 (Simulation time: 0 hr 13 min 57 sec) 
Heartbeat CPU  0 instructions:  382000000 cycles:  329115731 heartbeat IPC: 1.05329 cumulative IPC: 1.07092 (Simulation time: 0 hr 13 min 59 sec) 
Heartbeat CPU  0 instructions:  383000000 cycles:  330075290 heartbeat IPC: 1.04215 cumulative IPC: 1.07081 (Simulation time: 0 hr 14 min 2 sec) 
Heartbeat CPU  0 instructions:  384000000 cycles:  331027699 heartbeat IPC: 1.04997 cumulative IPC: 1.07074 (Simulation time: 0 hr 14 min 4 sec) 
Heartbeat CPU  0 instructions:  385000000 cycles:  331983262 heartbeat IPC: 1.04650 cumulative IPC: 1.07065 (Simulation time: 0 hr 14 min 6 sec) 
Heartbeat CPU  0 instructions:  386000000 cycles:  332940189 heartbeat IPC: 1.04501 cumulative IPC: 1.07056 (Simulation time: 0 hr 14 min 8 sec) 
Heartbeat CPU  0 instructions:  387000003 cycles:  333895816 heartbeat IPC: 1.04644 cumulative IPC: 1.07047 (Simulation time: 0 hr 14 min 11 sec) 
Heartbeat CPU  0 instructions:  388000000 cycles:  334855085 heartbeat IPC: 1.04246 cumulative IPC: 1.07037 (Simulation time: 0 hr 14 min 13 sec) 
Heartbeat CPU  0 instructions:  389000000 cycles:  335808509 heartbeat IPC: 1.04885 cumulative IPC: 1.07030 (Simulation time: 0 hr 14 min 15 sec) 
Heartbeat CPU  0 instructions:  390000000 cycles:  336766496 heartbeat IPC: 1.04386 cumulative IPC: 1.07020 (Simulation time: 0 hr 14 min 18 sec) 
Heartbeat CPU  0 instructions:  391000001 cycles:  337723604 heartbeat IPC: 1.04482 cumulative IPC: 1.07012 (Simulation time: 0 hr 14 min 20 sec) 
Heartbeat CPU  0 instructions:  392000000 cycles:  338673713 heartbeat IPC: 1.05251 cumulative IPC: 1.07005 (Simulation time: 0 hr 14 min 22 sec) 
Heartbeat CPU  0 instructions:  393000000 cycles:  339629707 heartbeat IPC: 1.04603 cumulative IPC: 1.06997 (Simulation time: 0 hr 14 min 25 sec) 
Heartbeat CPU  0 instructions:  394000000 cycles:  340590177 heartbeat IPC: 1.04116 cumulative IPC: 1.06987 (Simulation time: 0 hr 14 min 27 sec) 
Heartbeat CPU  0 instructions:  395000000 cycles:  341555059 heartbeat IPC: 1.03640 cumulative IPC: 1.06975 (Simulation time: 0 hr 14 min 29 sec) 
Heartbeat CPU  0 instructions:  396000000 cycles:  342513035 heartbeat IPC: 1.04387 cumulative IPC: 1.06966 (Simulation time: 0 hr 14 min 32 sec) 
Heartbeat CPU  0 instructions:  397000001 cycles:  343472061 heartbeat IPC: 1.04273 cumulative IPC: 1.06957 (Simulation time: 0 hr 14 min 34 sec) 
Heartbeat CPU  0 instructions:  398000000 cycles:  344434264 heartbeat IPC: 1.03928 cumulative IPC: 1.06946 (Simulation time: 0 hr 14 min 36 sec) 
Heartbeat CPU  0 instructions:  399000000 cycles:  345393734 heartbeat IPC: 1.04224 cumulative IPC: 1.06937 (Simulation time: 0 hr 14 min 39 sec) 
Heartbeat CPU  0 instructions:  400000000 cycles:  346350007 heartbeat IPC: 1.04573 cumulative IPC: 1.06929 (Simulation time: 0 hr 14 min 41 sec) 
Heartbeat CPU  0 instructions:  401000003 cycles:  347312368 heartbeat IPC: 1.03911 cumulative IPC: 1.06919 (Simulation time: 0 hr 14 min 43 sec) 
Heartbeat CPU  0 instructions:  402000003 cycles:  348273592 heartbeat IPC: 1.04034 cumulative IPC: 1.06909 (Simulation time: 0 hr 14 min 46 sec) 
Heartbeat CPU  0 instructions:  403000000 cycles:  349238734 heartbeat IPC: 1.03611 cumulative IPC: 1.06898 (Simulation time: 0 hr 14 min 48 sec) 
Heartbeat CPU  0 instructions:  404000000 cycles:  350200559 heartbeat IPC: 1.03969 cumulative IPC: 1.06888 (Simulation time: 0 hr 14 min 50 sec) 
Heartbeat CPU  0 instructions:  405000000 cycles:  351163045 heartbeat IPC: 1.03898 cumulative IPC: 1.06878 (Simulation time: 0 hr 14 min 52 sec) 
Heartbeat CPU  0 instructions:  406000000 cycles:  352120663 heartbeat IPC: 1.04426 cumulative IPC: 1.06870 (Simulation time: 0 hr 14 min 55 sec) 
Heartbeat CPU  0 instructions:  407000002 cycles:  353092673 heartbeat IPC: 1.02880 cumulative IPC: 1.06856 (Simulation time: 0 hr 14 min 57 sec) 
Heartbeat CPU  0 instructions:  408000000 cycles:  354055305 heartbeat IPC: 1.03882 cumulative IPC: 1.06846 (Simulation time: 0 hr 14 min 59 sec) 
Heartbeat CPU  0 instructions:  409000002 cycles:  355021949 heartbeat IPC: 1.03451 cumulative IPC: 1.06835 (Simulation time: 0 hr 15 min 2 sec) 
Heartbeat CPU  0 instructions:  410000001 cycles:  355988259 heartbeat IPC: 1.03486 cumulative IPC: 1.06824 (Simulation time: 0 hr 15 min 4 sec) 
Heartbeat CPU  0 instructions:  411000000 cycles:  356944423 heartbeat IPC: 1.04584 cumulative IPC: 1.06816 (Simulation time: 0 hr 15 min 6 sec) 
Heartbeat CPU  0 instructions:  412000000 cycles:  357911391 heartbeat IPC: 1.03416 cumulative IPC: 1.06805 (Simulation time: 0 hr 15 min 9 sec) 
Heartbeat CPU  0 instructions:  413000001 cycles:  358868049 heartbeat IPC: 1.04531 cumulative IPC: 1.06798 (Simulation time: 0 hr 15 min 11 sec) 
Heartbeat CPU  0 instructions:  414000000 cycles:  359822966 heartbeat IPC: 1.04721 cumulative IPC: 1.06791 (Simulation time: 0 hr 15 min 13 sec) 
Heartbeat CPU  0 instructions:  415000002 cycles:  360782163 heartbeat IPC: 1.04254 cumulative IPC: 1.06783 (Simulation time: 0 hr 15 min 16 sec) 
Heartbeat CPU  0 instructions:  416000000 cycles:  361747559 heartbeat IPC: 1.03584 cumulative IPC: 1.06772 (Simulation time: 0 hr 15 min 18 sec) 
Heartbeat CPU  0 instructions:  417000000 cycles:  362711230 heartbeat IPC: 1.03770 cumulative IPC: 1.06762 (Simulation time: 0 hr 15 min 20 sec) 
Heartbeat CPU  0 instructions:  418000002 cycles:  363668282 heartbeat IPC: 1.04488 cumulative IPC: 1.06755 (Simulation time: 0 hr 15 min 23 sec) 
Heartbeat CPU  0 instructions:  419000002 cycles:  364632025 heartbeat IPC: 1.03762 cumulative IPC: 1.06745 (Simulation time: 0 hr 15 min 25 sec) 
Heartbeat CPU  0 instructions:  420000000 cycles:  365592341 heartbeat IPC: 1.04132 cumulative IPC: 1.06737 (Simulation time: 0 hr 15 min 27 sec) 
Heartbeat CPU  0 instructions:  421000001 cycles:  366543673 heartbeat IPC: 1.05116 cumulative IPC: 1.06732 (Simulation time: 0 hr 15 min 30 sec) 
Heartbeat CPU  0 instructions:  422000001 cycles:  367512939 heartbeat IPC: 1.03171 cumulative IPC: 1.06721 (Simulation time: 0 hr 15 min 32 sec) 
Heartbeat CPU  0 instructions:  423000000 cycles:  368464989 heartbeat IPC: 1.05036 cumulative IPC: 1.06715 (Simulation time: 0 hr 15 min 34 sec) 
Heartbeat CPU  0 instructions:  424000000 cycles:  369423676 heartbeat IPC: 1.04309 cumulative IPC: 1.06708 (Simulation time: 0 hr 15 min 36 sec) 
Heartbeat CPU  0 instructions:  425000002 cycles:  370383936 heartbeat IPC: 1.04139 cumulative IPC: 1.06700 (Simulation time: 0 hr 15 min 39 sec) 
Heartbeat CPU  0 instructions:  426000003 cycles:  371343330 heartbeat IPC: 1.04233 cumulative IPC: 1.06692 (Simulation time: 0 hr 15 min 41 sec) 
Heartbeat CPU  0 instructions:  427000002 cycles:  372299813 heartbeat IPC: 1.04550 cumulative IPC: 1.06685 (Simulation time: 0 hr 15 min 43 sec) 
Heartbeat CPU  0 instructions:  428000000 cycles:  373255774 heartbeat IPC: 1.04607 cumulative IPC: 1.06679 (Simulation time: 0 hr 15 min 46 sec) 
Heartbeat CPU  0 instructions:  429000000 cycles:  374216521 heartbeat IPC: 1.04086 cumulative IPC: 1.06671 (Simulation time: 0 hr 15 min 48 sec) 
Heartbeat CPU  0 instructions:  430000002 cycles:  375176096 heartbeat IPC: 1.04213 cumulative IPC: 1.06663 (Simulation time: 0 hr 15 min 50 sec) 
Heartbeat CPU  0 instructions:  431000001 cycles:  376135553 heartbeat IPC: 1.04226 cumulative IPC: 1.06655 (Simulation time: 0 hr 15 min 53 sec) 
Heartbeat CPU  0 instructions:  432000000 cycles:  377087756 heartbeat IPC: 1.05020 cumulative IPC: 1.06650 (Simulation time: 0 hr 15 min 55 sec) 
Heartbeat CPU  0 instructions:  433000002 cycles:  378046555 heartbeat IPC: 1.04297 cumulative IPC: 1.06643 (Simulation time: 0 hr 15 min 57 sec) 
Heartbeat CPU  0 instructions:  434000003 cycles:  379006238 heartbeat IPC: 1.04201 cumulative IPC: 1.06636 (Simulation time: 0 hr 16 min 0 sec) 
Heartbeat CPU  0 instructions:  435000001 cycles:  379970796 heartbeat IPC: 1.03674 cumulative IPC: 1.06627 (Simulation time: 0 hr 16 min 2 sec) 
Heartbeat CPU  0 instructions:  436000000 cycles:  380928723 heartbeat IPC: 1.04392 cumulative IPC: 1.06620 (Simulation time: 0 hr 16 min 4 sec) 
Heartbeat CPU  0 instructions:  437000001 cycles:  381890374 heartbeat IPC: 1.03988 cumulative IPC: 1.06612 (Simulation time: 0 hr 16 min 7 sec) 
Heartbeat CPU  0 instructions:  438000001 cycles:  382847176 heartbeat IPC: 1.04515 cumulative IPC: 1.06605 (Simulation time: 0 hr 16 min 9 sec) 
Heartbeat CPU  0 instructions:  439000001 cycles:  383801242 heartbeat IPC: 1.04815 cumulative IPC: 1.06600 (Simulation time: 0 hr 16 min 11 sec) 
Heartbeat CPU  0 instructions:  440000000 cycles:  384763810 heartbeat IPC: 1.03889 cumulative IPC: 1.06592 (Simulation time: 0 hr 16 min 14 sec) 
Heartbeat CPU  0 instructions:  441000000 cycles:  385723178 heartbeat IPC: 1.04235 cumulative IPC: 1.06585 (Simulation time: 0 hr 16 min 16 sec) 
Heartbeat CPU  0 instructions:  442000001 cycles:  386686759 heartbeat IPC: 1.03780 cumulative IPC: 1.06576 (Simulation time: 0 hr 16 min 18 sec) 
Heartbeat CPU  0 instructions:  443000001 cycles:  387653789 heartbeat IPC: 1.03409 cumulative IPC: 1.06567 (Simulation time: 0 hr 16 min 21 sec) 
Heartbeat CPU  0 instructions:  444000000 cycles:  388614894 heartbeat IPC: 1.04047 cumulative IPC: 1.06559 (Simulation time: 0 hr 16 min 23 sec) 
Heartbeat CPU  0 instructions:  445000000 cycles:  389585522 heartbeat IPC: 1.03026 cumulative IPC: 1.06549 (Simulation time: 0 hr 16 min 25 sec) 
Heartbeat CPU  0 instructions:  446000002 cycles:  390540995 heartbeat IPC: 1.04660 cumulative IPC: 1.06543 (Simulation time: 0 hr 16 min 28 sec) 
Heartbeat CPU  0 instructions:  447000000 cycles:  391504481 heartbeat IPC: 1.03790 cumulative IPC: 1.06535 (Simulation time: 0 hr 16 min 30 sec) 
Heartbeat CPU  0 instructions:  448000000 cycles:  392459461 heartbeat IPC: 1.04714 cumulative IPC: 1.06530 (Simulation time: 0 hr 16 min 32 sec) 
Heartbeat CPU  0 instructions:  449000001 cycles:  393423572 heartbeat IPC: 1.03723 cumulative IPC: 1.06522 (Simulation time: 0 hr 16 min 35 sec) 
Heartbeat CPU  0 instructions:  450000001 cycles:  394381832 heartbeat IPC: 1.04356 cumulative IPC: 1.06515 (Simulation time: 0 hr 16 min 37 sec) 
Heartbeat CPU  0 instructions:  451000002 cycles:  395334561 heartbeat IPC: 1.04962 cumulative IPC: 1.06511 (Simulation time: 0 hr 16 min 39 sec) 
Heartbeat CPU  0 instructions:  452000000 cycles:  396294879 heartbeat IPC: 1.04132 cumulative IPC: 1.06504 (Simulation time: 0 hr 16 min 42 sec) 
Heartbeat CPU  0 instructions:  453000001 cycles:  397259312 heartbeat IPC: 1.03688 cumulative IPC: 1.06496 (Simulation time: 0 hr 16 min 44 sec) 
Heartbeat CPU  0 instructions:  454000000 cycles:  398217354 heartbeat IPC: 1.04379 cumulative IPC: 1.06490 (Simulation time: 0 hr 16 min 46 sec) 
Heartbeat CPU  0 instructions:  455000003 cycles:  399169676 heartbeat IPC: 1.05007 cumulative IPC: 1.06485 (Simulation time: 0 hr 16 min 49 sec) 
Heartbeat CPU  0 instructions:  456000000 cycles:  400130590 heartbeat IPC: 1.04067 cumulative IPC: 1.06478 (Simulation time: 0 hr 16 min 51 sec) 
Heartbeat CPU  0 instructions:  457000000 cycles:  401091053 heartbeat IPC: 1.04116 cumulative IPC: 1.06472 (Simulation time: 0 hr 16 min 53 sec) 
Heartbeat CPU  0 instructions:  458000003 cycles:  402055443 heartbeat IPC: 1.03693 cumulative IPC: 1.06464 (Simulation time: 0 hr 16 min 56 sec) 
Heartbeat CPU  0 instructions:  459000002 cycles:  403017603 heartbeat IPC: 1.03933 cumulative IPC: 1.06456 (Simulation time: 0 hr 16 min 58 sec) 
Heartbeat CPU  0 instructions:  460000000 cycles:  403980097 heartbeat IPC: 1.03897 cumulative IPC: 1.06449 (Simulation time: 0 hr 17 min 0 sec) 
Heartbeat CPU  0 instructions:  461000000 cycles:  404937645 heartbeat IPC: 1.04433 cumulative IPC: 1.06443 (Simulation time: 0 hr 17 min 2 sec) 
Heartbeat CPU  0 instructions:  462000000 cycles:  405902238 heartbeat IPC: 1.03671 cumulative IPC: 1.06436 (Simulation time: 0 hr 17 min 5 sec) 
Heartbeat CPU  0 instructions:  463000000 cycles:  406859260 heartbeat IPC: 1.04491 cumulative IPC: 1.06430 (Simulation time: 0 hr 17 min 7 sec) 
Heartbeat CPU  0 instructions:  464000000 cycles:  407823177 heartbeat IPC: 1.03743 cumulative IPC: 1.06423 (Simulation time: 0 hr 17 min 9 sec) 
Heartbeat CPU  0 instructions:  465000001 cycles:  408780008 heartbeat IPC: 1.04512 cumulative IPC: 1.06417 (Simulation time: 0 hr 17 min 12 sec) 
Heartbeat CPU  0 instructions:  466000003 cycles:  409741260 heartbeat IPC: 1.04031 cumulative IPC: 1.06411 (Simulation time: 0 hr 17 min 14 sec) 
Heartbeat CPU  0 instructions:  467000002 cycles:  410695127 heartbeat IPC: 1.04836 cumulative IPC: 1.06406 (Simulation time: 0 hr 17 min 16 sec) 
Heartbeat CPU  0 instructions:  468000000 cycles:  411656705 heartbeat IPC: 1.03996 cumulative IPC: 1.06399 (Simulation time: 0 hr 17 min 19 sec) 
Heartbeat CPU  0 instructions:  469000000 cycles:  412613589 heartbeat IPC: 1.04506 cumulative IPC: 1.06394 (Simulation time: 0 hr 17 min 21 sec) 
Heartbeat CPU  0 instructions:  470000000 cycles:  413575070 heartbeat IPC: 1.04006 cumulative IPC: 1.06388 (Simulation time: 0 hr 17 min 23 sec) 
Heartbeat CPU  0 instructions:  471000003 cycles:  414529002 heartbeat IPC: 1.04830 cumulative IPC: 1.06383 (Simulation time: 0 hr 17 min 26 sec) 
Heartbeat CPU  0 instructions:  472000000 cycles:  415493365 heartbeat IPC: 1.03695 cumulative IPC: 1.06376 (Simulation time: 0 hr 17 min 28 sec) 
Heartbeat CPU  0 instructions:  473000000 cycles:  416448993 heartbeat IPC: 1.04643 cumulative IPC: 1.06371 (Simulation time: 0 hr 17 min 30 sec) 
Heartbeat CPU  0 instructions:  474000001 cycles:  417404107 heartbeat IPC: 1.04700 cumulative IPC: 1.06367 (Simulation time: 0 hr 17 min 33 sec) 
Heartbeat CPU  0 instructions:  475000000 cycles:  418363154 heartbeat IPC: 1.04270 cumulative IPC: 1.06361 (Simulation time: 0 hr 17 min 35 sec) 
Heartbeat CPU  0 instructions:  476000000 cycles:  419321610 heartbeat IPC: 1.04334 cumulative IPC: 1.06355 (Simulation time: 0 hr 17 min 37 sec) 
Heartbeat CPU  0 instructions:  477000002 cycles:  420282703 heartbeat IPC: 1.04048 cumulative IPC: 1.06349 (Simulation time: 0 hr 17 min 40 sec) 
Heartbeat CPU  0 instructions:  478000002 cycles:  421240996 heartbeat IPC: 1.04352 cumulative IPC: 1.06344 (Simulation time: 0 hr 17 min 42 sec) 
Heartbeat CPU  0 instructions:  479000001 cycles:  422198382 heartbeat IPC: 1.04451 cumulative IPC: 1.06339 (Simulation time: 0 hr 17 min 44 sec) 
Heartbeat CPU  0 instructions:  480000000 cycles:  423157049 heartbeat IPC: 1.04311 cumulative IPC: 1.06333 (Simulation time: 0 hr 17 min 47 sec) 
Heartbeat CPU  0 instructions:  481000002 cycles:  424113659 heartbeat IPC: 1.04536 cumulative IPC: 1.06329 (Simulation time: 0 hr 17 min 49 sec) 
Heartbeat CPU  0 instructions:  482000003 cycles:  425072783 heartbeat IPC: 1.04262 cumulative IPC: 1.06323 (Simulation time: 0 hr 17 min 51 sec) 
Heartbeat CPU  0 instructions:  483000002 cycles:  426041648 heartbeat IPC: 1.03213 cumulative IPC: 1.06315 (Simulation time: 0 hr 17 min 54 sec) 
Heartbeat CPU  0 instructions:  484000000 cycles:  427009234 heartbeat IPC: 1.03350 cumulative IPC: 1.06307 (Simulation time: 0 hr 17 min 56 sec) 
Heartbeat CPU  0 instructions:  485000003 cycles:  427967970 heartbeat IPC: 1.04304 cumulative IPC: 1.06301 (Simulation time: 0 hr 17 min 58 sec) 
Heartbeat CPU  0 instructions:  486000001 cycles:  428925645 heartbeat IPC: 1.04419 cumulative IPC: 1.06296 (Simulation time: 0 hr 18 min 1 sec) 
Heartbeat CPU  0 instructions:  487000002 cycles:  429887754 heartbeat IPC: 1.03938 cumulative IPC: 1.06290 (Simulation time: 0 hr 18 min 3 sec) 
Heartbeat CPU  0 instructions:  488000000 cycles:  430845135 heartbeat IPC: 1.04451 cumulative IPC: 1.06285 (Simulation time: 0 hr 18 min 5 sec) 
Heartbeat CPU  0 instructions:  489000003 cycles:  431804787 heartbeat IPC: 1.04205 cumulative IPC: 1.06280 (Simulation time: 0 hr 18 min 8 sec) 
Heartbeat CPU  0 instructions:  490000001 cycles:  432766747 heartbeat IPC: 1.03954 cumulative IPC: 1.06274 (Simulation time: 0 hr 18 min 10 sec) 
Heartbeat CPU  0 instructions:  491000000 cycles:  433727904 heartbeat IPC: 1.04041 cumulative IPC: 1.06268 (Simulation time: 0 hr 18 min 12 sec) 
Heartbeat CPU  0 instructions:  492000000 cycles:  434679902 heartbeat IPC: 1.05042 cumulative IPC: 1.06265 (Simulation time: 0 hr 18 min 15 sec) 
Heartbeat CPU  0 instructions:  493000001 cycles:  435642215 heartbeat IPC: 1.03916 cumulative IPC: 1.06259 (Simulation time: 0 hr 18 min 17 sec) 
Heartbeat CPU  0 instructions:  494000000 cycles:  436601599 heartbeat IPC: 1.04233 cumulative IPC: 1.06253 (Simulation time: 0 hr 18 min 19 sec) 
Heartbeat CPU  0 instructions:  495000003 cycles:  437562074 heartbeat IPC: 1.04115 cumulative IPC: 1.06248 (Simulation time: 0 hr 18 min 22 sec) 
Heartbeat CPU  0 instructions:  496000000 cycles:  438519831 heartbeat IPC: 1.04410 cumulative IPC: 1.06243 (Simulation time: 0 hr 18 min 24 sec) 
Heartbeat CPU  0 instructions:  497000001 cycles:  439479672 heartbeat IPC: 1.04184 cumulative IPC: 1.06238 (Simulation time: 0 hr 18 min 26 sec) 
Heartbeat CPU  0 instructions:  498000003 cycles:  440442488 heartbeat IPC: 1.03862 cumulative IPC: 1.06232 (Simulation time: 0 hr 18 min 28 sec) 
Heartbeat CPU  0 instructions:  499000001 cycles:  441402165 heartbeat IPC: 1.04202 cumulative IPC: 1.06227 (Simulation time: 0 hr 18 min 31 sec) 
Heartbeat CPU  0 instructions:  500000000 cycles:  442366097 heartbeat IPC: 1.03742 cumulative IPC: 1.06220 (Simulation time: 0 hr 18 min 33 sec) 
Heartbeat CPU  0 instructions:  501000003 cycles:  443321484 heartbeat IPC: 1.04670 cumulative IPC: 1.06216 (Simulation time: 0 hr 18 min 35 sec) 
Heartbeat CPU  0 instructions:  502000001 cycles:  444286364 heartbeat IPC: 1.03640 cumulative IPC: 1.06210 (Simulation time: 0 hr 18 min 38 sec) 
Heartbeat CPU  0 instructions:  503000000 cycles:  445239584 heartbeat IPC: 1.04907 cumulative IPC: 1.06207 (Simulation time: 0 hr 18 min 40 sec) 
Heartbeat CPU  0 instructions:  504000000 cycles:  446201253 heartbeat IPC: 1.03986 cumulative IPC: 1.06201 (Simulation time: 0 hr 18 min 42 sec) 
Heartbeat CPU  0 instructions:  505000000 cycles:  447167565 heartbeat IPC: 1.03486 cumulative IPC: 1.06194 (Simulation time: 0 hr 18 min 45 sec) 
Heartbeat CPU  0 instructions:  506000001 cycles:  448124806 heartbeat IPC: 1.04467 cumulative IPC: 1.06190 (Simulation time: 0 hr 18 min 47 sec) 
Heartbeat CPU  0 instructions:  507000000 cycles:  449090934 heartbeat IPC: 1.03506 cumulative IPC: 1.06183 (Simulation time: 0 hr 18 min 49 sec) 
Heartbeat CPU  0 instructions:  508000000 cycles:  450055874 heartbeat IPC: 1.03633 cumulative IPC: 1.06177 (Simulation time: 0 hr 18 min 52 sec) 
Heartbeat CPU  0 instructions:  509000000 cycles:  451010010 heartbeat IPC: 1.04807 cumulative IPC: 1.06173 (Simulation time: 0 hr 18 min 54 sec) 
Heartbeat CPU  0 instructions:  510000001 cycles:  451967204 heartbeat IPC: 1.04472 cumulative IPC: 1.06169 (Simulation time: 0 hr 18 min 56 sec) 
Heartbeat CPU  0 instructions:  511000001 cycles:  452934777 heartbeat IPC: 1.03351 cumulative IPC: 1.06162 (Simulation time: 0 hr 18 min 59 sec) 
Heartbeat CPU  0 instructions:  512000000 cycles:  453892466 heartbeat IPC: 1.04418 cumulative IPC: 1.06158 (Simulation time: 0 hr 19 min 1 sec) 
Heartbeat CPU  0 instructions:  513000003 cycles:  454849702 heartbeat IPC: 1.04468 cumulative IPC: 1.06153 (Simulation time: 0 hr 19 min 3 sec) 
Heartbeat CPU  0 instructions:  514000000 cycles:  455812531 heartbeat IPC: 1.03860 cumulative IPC: 1.06148 (Simulation time: 0 hr 19 min 6 sec) 
Heartbeat CPU  0 instructions:  515000001 cycles:  456767560 heartbeat IPC: 1.04709 cumulative IPC: 1.06144 (Simulation time: 0 hr 19 min 8 sec) 
Heartbeat CPU  0 instructions:  516000000 cycles:  457725970 heartbeat IPC: 1.04339 cumulative IPC: 1.06140 (Simulation time: 0 hr 19 min 10 sec) 
Heartbeat CPU  0 instructions:  517000002 cycles:  458685826 heartbeat IPC: 1.04183 cumulative IPC: 1.06135 (Simulation time: 0 hr 19 min 13 sec) 
Heartbeat CPU  0 instructions:  518000000 cycles:  459651660 heartbeat IPC: 1.03537 cumulative IPC: 1.06129 (Simulation time: 0 hr 19 min 15 sec) 
Heartbeat CPU  0 instructions:  519000003 cycles:  460604404 heartbeat IPC: 1.04960 cumulative IPC: 1.06126 (Simulation time: 0 hr 19 min 17 sec) 
Heartbeat CPU  0 instructions:  520000000 cycles:  461563108 heartbeat IPC: 1.04307 cumulative IPC: 1.06121 (Simulation time: 0 hr 19 min 20 sec) 
Heartbeat CPU  0 instructions:  521000000 cycles:  462517600 heartbeat IPC: 1.04768 cumulative IPC: 1.06118 (Simulation time: 0 hr 19 min 22 sec) 
Heartbeat CPU  0 instructions:  522000000 cycles:  463472523 heartbeat IPC: 1.04720 cumulative IPC: 1.06115 (Simulation time: 0 hr 19 min 24 sec) 
Heartbeat CPU  0 instructions:  523000002 cycles:  464429094 heartbeat IPC: 1.04540 cumulative IPC: 1.06111 (Simulation time: 0 hr 19 min 26 sec) 
Heartbeat CPU  0 instructions:  524000000 cycles:  465386719 heartbeat IPC: 1.04425 cumulative IPC: 1.06107 (Simulation time: 0 hr 19 min 29 sec) 
Heartbeat CPU  0 instructions:  525000000 cycles:  466338848 heartbeat IPC: 1.05028 cumulative IPC: 1.06104 (Simulation time: 0 hr 19 min 31 sec) 
Heartbeat CPU  0 instructions:  526000001 cycles:  467296908 heartbeat IPC: 1.04378 cumulative IPC: 1.06100 (Simulation time: 0 hr 19 min 33 sec) 
Heartbeat CPU  0 instructions:  527000000 cycles:  468256294 heartbeat IPC: 1.04233 cumulative IPC: 1.06096 (Simulation time: 0 hr 19 min 36 sec) 
Heartbeat CPU  0 instructions:  528000000 cycles:  469218656 heartbeat IPC: 1.03911 cumulative IPC: 1.06091 (Simulation time: 0 hr 19 min 38 sec) 
Heartbeat CPU  0 instructions:  529000002 cycles:  470178227 heartbeat IPC: 1.04213 cumulative IPC: 1.06086 (Simulation time: 0 hr 19 min 40 sec) 
Heartbeat CPU  0 instructions:  530000001 cycles:  471138177 heartbeat IPC: 1.04172 cumulative IPC: 1.06082 (Simulation time: 0 hr 19 min 43 sec) 
Heartbeat CPU  0 instructions:  531000003 cycles:  472100235 heartbeat IPC: 1.03944 cumulative IPC: 1.06077 (Simulation time: 0 hr 19 min 45 sec) 
Heartbeat CPU  0 instructions:  532000000 cycles:  473058642 heartbeat IPC: 1.04339 cumulative IPC: 1.06073 (Simulation time: 0 hr 19 min 47 sec) 
Heartbeat CPU  0 instructions:  533000002 cycles:  474020232 heartbeat IPC: 1.03995 cumulative IPC: 1.06068 (Simulation time: 0 hr 19 min 50 sec) 
Heartbeat CPU  0 instructions:  534000000 cycles:  474978658 heartbeat IPC: 1.04338 cumulative IPC: 1.06064 (Simulation time: 0 hr 19 min 52 sec) 
Heartbeat CPU  0 instructions:  535000003 cycles:  475954614 heartbeat IPC: 1.02464 cumulative IPC: 1.06055 (Simulation time: 0 hr 19 min 54 sec) 
Heartbeat CPU  0 instructions:  536000000 cycles:  476921604 heartbeat IPC: 1.03413 cumulative IPC: 1.06049 (Simulation time: 0 hr 19 min 57 sec) 
Heartbeat CPU  0 instructions:  537000000 cycles:  477879271 heartbeat IPC: 1.04420 cumulative IPC: 1.06045 (Simulation time: 0 hr 19 min 59 sec) 
Heartbeat CPU  0 instructions:  538000002 cycles:  478839945 heartbeat IPC: 1.04094 cumulative IPC: 1.06041 (Simulation time: 0 hr 20 min 1 sec) 
Heartbeat CPU  0 instructions:  539000001 cycles:  479804917 heartbeat IPC: 1.03630 cumulative IPC: 1.06035 (Simulation time: 0 hr 20 min 4 sec) 
Heartbeat CPU  0 instructions:  540000000 cycles:  480763804 heartbeat IPC: 1.04287 cumulative IPC: 1.06031 (Simulation time: 0 hr 20 min 6 sec) 
Heartbeat CPU  0 instructions:  541000000 cycles:  481730279 heartbeat IPC: 1.03469 cumulative IPC: 1.06025 (Simulation time: 0 hr 20 min 8 sec) 
Heartbeat CPU  0 instructions:  542000003 cycles:  482685331 heartbeat IPC: 1.04707 cumulative IPC: 1.06022 (Simulation time: 0 hr 20 min 11 sec) 
Heartbeat CPU  0 instructions:  543000001 cycles:  483649889 heartbeat IPC: 1.03674 cumulative IPC: 1.06016 (Simulation time: 0 hr 20 min 13 sec) 
Heartbeat CPU  0 instructions:  544000000 cycles:  484611190 heartbeat IPC: 1.04026 cumulative IPC: 1.06012 (Simulation time: 0 hr 20 min 15 sec) 
Heartbeat CPU  0 instructions:  545000002 cycles:  485572386 heartbeat IPC: 1.04037 cumulative IPC: 1.06007 (Simulation time: 0 hr 20 min 18 sec) 
Heartbeat CPU  0 instructions:  546000000 cycles:  486536494 heartbeat IPC: 1.03723 cumulative IPC: 1.06002 (Simulation time: 0 hr 20 min 20 sec) 
Heartbeat CPU  0 instructions:  547000002 cycles:  487501138 heartbeat IPC: 1.03665 cumulative IPC: 1.05997 (Simulation time: 0 hr 20 min 22 sec) 
Heartbeat CPU  0 instructions:  548000000 cycles:  488460161 heartbeat IPC: 1.04273 cumulative IPC: 1.05993 (Simulation time: 0 hr 20 min 25 sec) 
Heartbeat CPU  0 instructions:  549000003 cycles:  489429085 heartbeat IPC: 1.03208 cumulative IPC: 1.05987 (Simulation time: 0 hr 20 min 27 sec) 
Heartbeat CPU  0 instructions:  550000002 cycles:  490383898 heartbeat IPC: 1.04732 cumulative IPC: 1.05984 (Simulation time: 0 hr 20 min 29 sec) 
Heartbeat CPU  0 instructions:  551000003 cycles:  491340736 heartbeat IPC: 1.04511 cumulative IPC: 1.05980 (Simulation time: 0 hr 20 min 32 sec) 
Heartbeat CPU  0 instructions:  552000000 cycles:  492305549 heartbeat IPC: 1.03647 cumulative IPC: 1.05975 (Simulation time: 0 hr 20 min 34 sec) 
Heartbeat CPU  0 instructions:  553000000 cycles:  493267198 heartbeat IPC: 1.03988 cumulative IPC: 1.05971 (Simulation time: 0 hr 20 min 36 sec) 
Heartbeat CPU  0 instructions:  554000000 cycles:  494219285 heartbeat IPC: 1.05032 cumulative IPC: 1.05969 (Simulation time: 0 hr 20 min 39 sec) 
Heartbeat CPU  0 instructions:  555000001 cycles:  495179757 heartbeat IPC: 1.04116 cumulative IPC: 1.05964 (Simulation time: 0 hr 20 min 41 sec) 
Heartbeat CPU  0 instructions:  556000000 cycles:  496144392 heartbeat IPC: 1.03666 cumulative IPC: 1.05959 (Simulation time: 0 hr 20 min 43 sec) 
Heartbeat CPU  0 instructions:  557000001 cycles:  497100581 heartbeat IPC: 1.04582 cumulative IPC: 1.05956 (Simulation time: 0 hr 20 min 46 sec) 
Heartbeat CPU  0 instructions:  558000001 cycles:  498064629 heartbeat IPC: 1.03729 cumulative IPC: 1.05951 (Simulation time: 0 hr 20 min 48 sec) 
Heartbeat CPU  0 instructions:  559000002 cycles:  499028071 heartbeat IPC: 1.03795 cumulative IPC: 1.05946 (Simulation time: 0 hr 20 min 50 sec) 
Heartbeat CPU  0 instructions:  560000000 cycles:  499991261 heartbeat IPC: 1.03821 cumulative IPC: 1.05942 (Simulation time: 0 hr 20 min 53 sec) 
Heartbeat CPU  0 instructions:  561000001 cycles:  500951065 heartbeat IPC: 1.04188 cumulative IPC: 1.05938 (Simulation time: 0 hr 20 min 55 sec) 
Heartbeat CPU  0 instructions:  562000002 cycles:  501919370 heartbeat IPC: 1.03273 cumulative IPC: 1.05932 (Simulation time: 0 hr 20 min 57 sec) 
Heartbeat CPU  0 instructions:  563000002 cycles:  502874910 heartbeat IPC: 1.04653 cumulative IPC: 1.05929 (Simulation time: 0 hr 20 min 59 sec) 
Heartbeat CPU  0 instructions:  564000000 cycles:  503836279 heartbeat IPC: 1.04018 cumulative IPC: 1.05925 (Simulation time: 0 hr 21 min 2 sec) 
Heartbeat CPU  0 instructions:  565000002 cycles:  504797318 heartbeat IPC: 1.04054 cumulative IPC: 1.05921 (Simulation time: 0 hr 21 min 4 sec) 
Heartbeat CPU  0 instructions:  566000001 cycles:  505756248 heartbeat IPC: 1.04283 cumulative IPC: 1.05917 (Simulation time: 0 hr 21 min 6 sec) 
Heartbeat CPU  0 instructions:  567000000 cycles:  506715018 heartbeat IPC: 1.04300 cumulative IPC: 1.05914 (Simulation time: 0 hr 21 min 9 sec) 
Heartbeat CPU  0 instructions:  568000000 cycles:  507678028 heartbeat IPC: 1.03841 cumulative IPC: 1.05909 (Simulation time: 0 hr 21 min 11 sec) 
Heartbeat CPU  0 instructions:  569000002 cycles:  508639432 heartbeat IPC: 1.04015 cumulative IPC: 1.05905 (Simulation time: 0 hr 21 min 14 sec) 
Heartbeat CPU  0 instructions:  570000000 cycles:  509607814 heartbeat IPC: 1.03265 cumulative IPC: 1.05899 (Simulation time: 0 hr 21 min 16 sec) 
Heartbeat CPU  0 instructions:  571000003 cycles:  510562452 heartbeat IPC: 1.04752 cumulative IPC: 1.05897 (Simulation time: 0 hr 21 min 18 sec) 
Heartbeat CPU  0 instructions:  572000000 cycles:  511527364 heartbeat IPC: 1.03636 cumulative IPC: 1.05892 (Simulation time: 0 hr 21 min 21 sec) 
Heartbeat CPU  0 instructions:  573000000 cycles:  512486067 heartbeat IPC: 1.04308 cumulative IPC: 1.05889 (Simulation time: 0 hr 21 min 23 sec) 
Heartbeat CPU  0 instructions:  574000000 cycles:  513439551 heartbeat IPC: 1.04879 cumulative IPC: 1.05886 (Simulation time: 0 hr 21 min 25 sec) 
Heartbeat CPU  0 instructions:  575000002 cycles:  514409926 heartbeat IPC: 1.03053 cumulative IPC: 1.05880 (Simulation time: 0 hr 21 min 28 sec) 
Heartbeat CPU  0 instructions:  576000000 cycles:  515363960 heartbeat IPC: 1.04818 cumulative IPC: 1.05878 (Simulation time: 0 hr 21 min 30 sec) 
Heartbeat CPU  0 instructions:  577000000 cycles:  516326004 heartbeat IPC: 1.03945 cumulative IPC: 1.05874 (Simulation time: 0 hr 21 min 32 sec) 
Heartbeat CPU  0 instructions:  578000001 cycles:  517280126 heartbeat IPC: 1.04809 cumulative IPC: 1.05872 (Simulation time: 0 hr 21 min 34 sec) 
Heartbeat CPU  0 instructions:  579000002 cycles:  518240050 heartbeat IPC: 1.04175 cumulative IPC: 1.05868 (Simulation time: 0 hr 21 min 37 sec) 
Heartbeat CPU  0 instructions:  580000000 cycles:  519195798 heartbeat IPC: 1.04630 cumulative IPC: 1.05865 (Simulation time: 0 hr 21 min 39 sec) 
Heartbeat CPU  0 instructions:  581000000 cycles:  520161548 heartbeat IPC: 1.03546 cumulative IPC: 1.05861 (Simulation time: 0 hr 21 min 41 sec) 
Heartbeat CPU  0 instructions:  582000001 cycles:  521122970 heartbeat IPC: 1.04013 cumulative IPC: 1.05857 (Simulation time: 0 hr 21 min 44 sec) 
Heartbeat CPU  0 instructions:  583000001 cycles:  522085807 heartbeat IPC: 1.03860 cumulative IPC: 1.05852 (Simulation time: 0 hr 21 min 46 sec) 
Heartbeat CPU  0 instructions:  584000000 cycles:  523046556 heartbeat IPC: 1.04085 cumulative IPC: 1.05849 (Simulation time: 0 hr 21 min 48 sec) 
Heartbeat CPU  0 instructions:  585000000 cycles:  524003494 heartbeat IPC: 1.04500 cumulative IPC: 1.05846 (Simulation time: 0 hr 21 min 51 sec) 
Heartbeat CPU  0 instructions:  586000000 cycles:  524965168 heartbeat IPC: 1.03985 cumulative IPC: 1.05842 (Simulation time: 0 hr 21 min 53 sec) 
Heartbeat CPU  0 instructions:  587000001 cycles:  525931962 heartbeat IPC: 1.03435 cumulative IPC: 1.05837 (Simulation time: 0 hr 21 min 55 sec) 
Heartbeat CPU  0 instructions:  588000000 cycles:  526888466 heartbeat IPC: 1.04547 cumulative IPC: 1.05834 (Simulation time: 0 hr 21 min 58 sec) 
Heartbeat CPU  0 instructions:  589000000 cycles:  527852016 heartbeat IPC: 1.03783 cumulative IPC: 1.05830 (Simulation time: 0 hr 22 min 0 sec) 
Heartbeat CPU  0 instructions:  590000001 cycles:  528810808 heartbeat IPC: 1.04298 cumulative IPC: 1.05827 (Simulation time: 0 hr 22 min 2 sec) 
Heartbeat CPU  0 instructions:  591000002 cycles:  529772030 heartbeat IPC: 1.04034 cumulative IPC: 1.05823 (Simulation time: 0 hr 22 min 5 sec) 
Heartbeat CPU  0 instructions:  592000000 cycles:  530731557 heartbeat IPC: 1.04218 cumulative IPC: 1.05820 (Simulation time: 0 hr 22 min 7 sec) 
Heartbeat CPU  0 instructions:  593000003 cycles:  531687077 heartbeat IPC: 1.04655 cumulative IPC: 1.05817 (Simulation time: 0 hr 22 min 9 sec) 
Heartbeat CPU  0 instructions:  594000000 cycles:  532652076 heartbeat IPC: 1.03627 cumulative IPC: 1.05813 (Simulation time: 0 hr 22 min 12 sec) 
Heartbeat CPU  0 instructions:  595000001 cycles:  533608546 heartbeat IPC: 1.04551 cumulative IPC: 1.05810 (Simulation time: 0 hr 22 min 14 sec) 
Heartbeat CPU  0 instructions:  596000000 cycles:  534567281 heartbeat IPC: 1.04304 cumulative IPC: 1.05807 (Simulation time: 0 hr 22 min 16 sec) 
Heartbeat CPU  0 instructions:  597000002 cycles:  535523878 heartbeat IPC: 1.04537 cumulative IPC: 1.05805 (Simulation time: 0 hr 22 min 19 sec) 
Heartbeat CPU  0 instructions:  598000001 cycles:  536485088 heartbeat IPC: 1.04035 cumulative IPC: 1.05801 (Simulation time: 0 hr 22 min 21 sec) 
Heartbeat CPU  0 instructions:  599000000 cycles:  537447577 heartbeat IPC: 1.03897 cumulative IPC: 1.05797 (Simulation time: 0 hr 22 min 23 sec) 
Heartbeat CPU  0 instructions:  600000000 cycles:  538409378 heartbeat IPC: 1.03972 cumulative IPC: 1.05793 (Simulation time: 0 hr 22 min 26 sec) 
Finished CPU 0 instructions: 500000000 cycles: 472619139 cumulative IPC: 1.05793 (Simulation time: 0 hr 22 min 26 sec) 

ChampSim completed all CPUs

[ROI Statistics]
Core_0_instructions 500000000
Core_0_cycles 472619139
Core_0_IPC 1.05793

Core_0_branch_prediction_accuracy 97.89350
Core_0_branch_MPKI 0.73267
Core_0_average_ROB_occupancy_at_mispredict 252.52853

Core_0_L1D_total_access 235768885
Core_0_L1D_total_hit 225577679
Core_0_L1D_total_miss 10191206
Core_0_L1D_loads 199711151
Core_0_L1D_load_hit 189783050
Core_0_L1D_load_miss 9928101
Core_0_L1D_RFOs 36057734
Core_0_L1D_RFO_hit 35794629
Core_0_L1D_RFO_miss 263105
Core_0_L1D_prefetches 0
Core_0_L1D_prefetch_hit 0
Core_0_L1D_prefetch_miss 0
Core_0_L1D_writebacks 0
Core_0_L1D_writeback_hit 0
Core_0_L1D_writeback_miss 0
Core_0_L1D_prefetch_requested 0
Core_0_L1D_prefetch_dropped 0
Core_0_L1D_prefetch_issued 0
Core_0_L1D_prefetch_filled 0
Core_0_L1D_prefetch_useful 0
Core_0_L1D_prefetch_useless 0
Core_0_L1D_prefetch_late 0
Core_0_L1D_average_miss_latency 57.05034

Core_0_L1D_rq_access 254237828
Core_0_L1D_rq_forward 0
Core_0_L1D_rq_merged 53125655
Core_0_L1D_rq_to_cache 201112173
Core_0_L1D_rq_full 0

Core_0_L1D_wq_access 36392435
Core_0_L1D_wq_forward 0
Core_0_L1D_wq_merged 0
Core_0_L1D_wq_to_cache 36392435
Core_0_L1D_wq_full 0

Core_0_L1D_pq_access 0
Core_0_L1D_pq_forward 0
Core_0_L1D_pq_merged 0
Core_0_L1D_pq_to_cache 0
Core_0_L1D_pq_full 0

Core_0_L1D_acc_epochs 512086
Core_0_L1D_acc_level_0 512086
Core_0_L1D_acc_level_1 0
Core_0_L1D_acc_level_2 0
Core_0_L1D_acc_level_3 0
Core_0_L1D_acc_level_4 0
Core_0_L1D_acc_level_5 0
Core_0_L1D_acc_level_6 0
Core_0_L1D_acc_level_7 0
Core_0_L1D_acc_level_8 0
Core_0_L1D_acc_level_9 0

Core_0_L1I_total_access 114807091
Core_0_L1I_total_hit 114807037
Core_0_L1I_total_miss 54
Core_0_L1I_loads 114807091
Core_0_L1I_load_hit 114807037
Core_0_L1I_load_miss 54
Core_0_L1I_RFOs 0
Core_0_L1I_RFO_hit 0
Core_0_L1I_RFO_miss 0
Core_0_L1I_prefetches 0
Core_0_L1I_prefetch_hit 0
Core_0_L1I_prefetch_miss 0
Core_0_L1I_writebacks 0
Core_0_L1I_writeback_hit 0
Core_0_L1I_writeback_miss 0
Core_0_L1I_prefetch_requested 0
Core_0_L1I_prefetch_dropped 0
Core_0_L1I_prefetch_issued 0
Core_0_L1I_prefetch_filled 0
Core_0_L1I_prefetch_useful 0
Core_0_L1I_prefetch_useless 0
Core_0_L1I_prefetch_late 0
Core_0_L1I_average_miss_latency 225.12963

Core_0_L1I_rq_access 500000250
Core_0_L1I_rq_forward 0
Core_0_L1I_rq_merged 385193147
Core_0_L1I_rq_to_cache 114807103
Core_0_L1I_rq_full 0

Core_0_L1I_wq_access 0
Core_0_L1I_wq_forward 0
Core_0_L1I_wq_merged 0
Core_0_L1I_wq_to_cache 0
Core_0_L1I_wq_full 0

Core_0_L1I_pq_access 0
Core_0_L1I_pq_forward 0
Core_0_L1I_pq_merged 0
Core_0_L1I_pq_to_cache 0
Core_0_L1I_pq_full 0

Core_0_L1I_acc_epochs 512086
Core_0_L1I_acc_level_0 512086
Core_0_L1I_acc_level_1 0
Core_0_L1I_acc_level_2 0
Core_0_L1I_acc_level_3 0
Core_0_L1I_acc_level_4 0
Core_0_L1I_acc_level_5 0
Core_0_L1I_acc_level_6 0
Core_0_L1I_acc_level_7 0
Core_0_L1I_acc_level_8 0
Core_0_L1I_acc_level_9 0

Core_0_L2C_total_access 18394504
Core_0_L2C_total_hit 9124038
Core_0_L2C_total_miss 9270466
Core_0_L2C_loads 9924479
Core_0_L2C_load_hit 8600962
Core_0_L2C_load_miss 1323517
Core_0_L2C_RFOs 259760
Core_0_L2C_RFO_hit 39532
Core_0_L2C_RFO_miss 220228
Core_0_L2C_prefetches 7740027
Core_0_L2C_prefetch_hit 15840
Core_0_L2C_prefetch_miss 7724187
Core_0_L2C_writebacks 470238
Core_0_L2C_writeback_hit 467704
Core_0_L2C_writeback_miss 2534
Core_0_L2C_prefetch_requested 9622108
Core_0_L2C_prefetch_dropped 0
Core_0_L2C_prefetch_issued 9622108
Core_0_L2C_prefetch_filled 9416016
Core_0_L2C_prefetch_useful 9414618
Core_0_L2C_prefetch_useless 1247
Core_0_L2C_prefetch_late 139482
Core_0_L2C_average_miss_latency 232.37768

Core_0_L2C_rq_access 10191260
Core_0_L2C_rq_forward 0
Core_0_L2C_rq_merged 0
Core_0_L2C_rq_to_cache 10184239
Core_0_L2C_rq_full 0

Core_0_L2C_wq_access 470238
Core_0_L2C_wq_forward 7022
Core_0_L2C_wq_merged 0
Core_0_L2C_wq_to_cache 470238
Core_0_L2C_wq_full 0

Core_0_L2C_pq_access 9622108
Core_0_L2C_pq_forward 0
Core_0_L2C_pq_merged 0
Core_0_L2C_pq_to_cache 9622107
Core_0_L2C_pq_full 0

Core_0_L2C_acc_epochs 512086
Core_0_L2C_acc_level_0 138990
Core_0_L2C_acc_level_1 93998
Core_0_L2C_acc_level_2 63675
Core_0_L2C_acc_level_3 41954
Core_0_L2C_acc_level_4 28660
Core_0_L2C_acc_level_5 18230
Core_0_L2C_acc_level_6 12383
Core_0_L2C_acc_level_7 12109
Core_0_L2C_acc_level_8 8363
Core_0_L2C_acc_level_9 93724

Core_0_LLC_total_access 9661109
Core_0_LLC_total_hit 44399
Core_0_LLC_total_miss 9616710
Core_0_LLC_loads 1184340
Core_0_LLC_load_hit 3135
Core_0_LLC_load_miss 1181205
Core_0_LLC_RFOs 220227
Core_0_LLC_RFO_hit 0
Core_0_LLC_RFO_miss 220227
Core_0_LLC_prefetches 7863377
Core_0_LLC_prefetch_hit 30842
Core_0_LLC_prefetch_miss 7832535
Core_0_LLC_writebacks 393165
Core_0_LLC_writeback_hit 10422
Core_0_LLC_writeback_miss 382743
Core_0_LLC_prefetch_requested 0
Core_0_LLC_prefetch_dropped 0
Core_0_LLC_prefetch_issued 0
Core_0_LLC_prefetch_filled 9522139
Core_0_LLC_prefetch_useful 96
Core_0_LLC_prefetch_useless 9520334
Core_0_LLC_prefetch_late 0
Core_0_LLC_average_miss_latency 194.17043

Core_0_LLC_rq_access 1404568
Core_0_LLC_rq_forward 0
Core_0_LLC_rq_merged 0
Core_0_LLC_rq_to_cache 1404567
Core_0_LLC_rq_full 0

Core_0_LLC_wq_access 393165
Core_0_LLC_wq_forward 1
Core_0_LLC_wq_merged 0
Core_0_LLC_wq_to_cache 393165
Core_0_LLC_wq_full 0

Core_0_LLC_pq_access 9555511
Core_0_LLC_pq_forward 0
Core_0_LLC_pq_merged 0
Core_0_LLC_pq_to_cache 9555511
Core_0_LLC_pq_full 0

Core_0_LLC_acc_epochs 525791
Core_0_LLC_acc_level_0 525785
Core_0_LLC_acc_level_1 2
Core_0_LLC_acc_level_2 2
Core_0_LLC_acc_level_3 0
Core_0_LLC_acc_level_4 0
Core_0_LLC_acc_level_5 2
Core_0_LLC_acc_level_6 0
Core_0_LLC_acc_level_7 0
Core_0_LLC_acc_level_8 0
Core_0_LLC_acc_level_9 0

Core_0_major_page_fault 0
Core_0_minor_page_fault 104619

[Bingo] PHT Access: 343036
[Bingo] PHT Hit PC+Addr: 5024
[Bingo] PHT Hit PC+Offs: 337217
[Bingo] PHT Miss: 795
[Bingo] Prefetch PC+Addr: 0
[Bingo] Prefetch PC+Offs: 0
[Bingo] Useful PC+Addr: 0
[Bingo] Useful PC+Offs: 0
[Bingo] Useless PC+Addr: 0
[Bingo] Useless PC+Offs: 0
[Bingo] L1 Prefetch per Region: 0.00000
[Bingo] L2 Prefetch per Region: 31.69009
[Bingo] L3 Prefetch per Region: 0.00004
[Bingo] No Prefetch per Region: 0.30988
[Bingo] Number of Voters Mean: 15.97731
[Bingo] Number of Voters SD: 0.39470

Channel_0_RQ_row_buffer_hit 7951839
Channel_0_RQ_row_buffer_miss 1282128
Channel_0_WQ_row_buffer_hit 205897
Channel_0_WQ_row_buffer_miss 181998
Channel_0_WQ_full 10726
Channel_0_dbus_congested 2304109

avg_congested_cycle 4

DRAM_bw_pochs 2103162
DRAM_bw_level_0 1516249
DRAM_bw_level_1 257133
DRAM_bw_level_2 108577
DRAM_bw_level_3 221203
