*************************************************
   ChampSim Multicore Out-of-Order Simulator
   Last compiled: Dec 11 2024 17:59:53
*************************************************
parsing config file: /home/functionmain/桌面/Pythia/config/mlop.ini

trace_0 /home/functionmain/桌面/Pythia/traces/410.bwaves-1963B.champsimtrace.xz
adding L2C_PREFETCHER: MLOP
Initialize SHIP state
warmup_instructions 100000000
simulation_instructions 500000000
champsim_seed 277
measure_ipc 0
measure_ipc_epoch 1000
measure_dram_bw 1
measure_dram_bw_epoch 256
measure_cache_acc 1
measure_cache_acc_epoch 1024
l1d_perfect 0
l2c_perfect 0
llc_perfect 0
l1d_semi_perfect 0
l2c_semi_perfect 0
llc_semi_perfect 0
semi_perfect_cache_page_buffer_size 64

num_cpus 1
cpu_freq 4000
dram_io_freq 600
page_size 4096
block_size 64
max_read_per_cycle 8
max_fill_per_cycle 1
dram_channels 1
log2_dram_channels 0
dram_ranks 1
dram_banks 8
dram_rows 65536
dram_columns 128
dram_row_size 8
dram_size 4096
dram_pages 1048576

fetch_width 6
decode_width 6
exec_width 4
lq_width 2
sq_width 2
retire_width 4
scheduler_size 128
branch_mispredict_penalty 20
rob_size 256
lq_size 72
sq_size 56
num_instr_destinations_sparc 4
num_instr_destinations 2
num_instr_sources 4

itlb_set 16
itlb_way 8
itlb_rq_size 16
itlb_wq_size 16
itlb_pq_size 0
itlb_mshr_size 8
itlb_latency 1

dtlb_set 16
dtlb_way 4
dtlb_rq_size 16
dtlb_wq_size 16
dtlb_pq_size 0
dtlb_mshr_size 8
dtlb_latency 1

stlb_set 128
stlb_way 12
stlb_rq_size 32
stlb_wq_size 32
stlb_pq_size 0
stlb_mshr_size 16
stlb_latency 8

l1i_size 32
l1i_set 64
l1i_way 8
l1i_rq_size 64
l1i_wq_size 64
l1i_pq_size 8
l1i_mshr_size 8
l1i_latency 1

l1d_size 32
l1d_set 64
l1d_way 8
l1d_rq_size 64
l1d_wq_size 64
l1d_pq_size 8
l1d_mshr_size 16
l1d_latency 4

l2c_size 256
l2c_set 512
l2c_way 8
l2c_rq_size 32
l2c_wq_size 32
l2c_pq_size 32
l2c_mshr_size 32
l2c_latency 10

llc_size 2048
llc_set 2048
llc_way 16
llc_rq_size 32
llc_wq_size 32
llc_pq_size 32
llc_mshr_size 64
llc_latency 20

dram_channel_width 8
dram_wq_size 64
dram_rq_size 64
tRP 15
tRCD 15
tCAS 12.5
dram_dbus_turn_around_time 30
dram_write_high_wm 56
dram_write_low_wm 48
min_dram_writes_per_switch 16
dram_mtps 600
dram_dbus_return_time 53

mlop_pref_degree 16
mlop_num_updates 500
mlop_l1d_thresh 2
mlop_l2c_thresh 0.75
mlop_llc_thresh 0.3
mlop_debug_level 0
mlop_blocks_in_cache 4096
mlop_blocks_in_zone 64
mlop_amt_size 2048
mlop_PF_DEGREE 16
mlop_NUM_UPDATES 500
mlop_L1D_THRESH 1000
mlop_L2C_THRESH 375
mlop_LLC_THRESH 150
mlop_ORIGIN 63
mlop_MAX_OFFSET 63
mlop_MIN_OFFSET -63
mlop_ORIGIN 63
mlop_NUM_OFFSETS 127


Heartbeat CPU  0 instructions:    1000002 cycles:     658272 heartbeat IPC: 1.51913 cumulative IPC: 1.51913 (Simulation time: 0 hr 0 min 2 sec) 
Heartbeat CPU  0 instructions:    2000002 cycles:    1316172 heartbeat IPC: 1.51999 cumulative IPC: 1.51956 (Simulation time: 0 hr 0 min 4 sec) 
Heartbeat CPU  0 instructions:    3000002 cycles:    1974143 heartbeat IPC: 1.51982 cumulative IPC: 1.51965 (Simulation time: 0 hr 0 min 6 sec) 
Heartbeat CPU  0 instructions:    4000000 cycles:    2632031 heartbeat IPC: 1.52001 cumulative IPC: 1.51974 (Simulation time: 0 hr 0 min 8 sec) 
Heartbeat CPU  0 instructions:    5000002 cycles:    3290086 heartbeat IPC: 1.51963 cumulative IPC: 1.51972 (Simulation time: 0 hr 0 min 10 sec) 
Heartbeat CPU  0 instructions:    6000002 cycles:    3948023 heartbeat IPC: 1.51990 cumulative IPC: 1.51975 (Simulation time: 0 hr 0 min 12 sec) 
Heartbeat CPU  0 instructions:    7000000 cycles:    4605979 heartbeat IPC: 1.51986 cumulative IPC: 1.51976 (Simulation time: 0 hr 0 min 14 sec) 
Heartbeat CPU  0 instructions:    8000000 cycles:    5263863 heartbeat IPC: 1.52002 cumulative IPC: 1.51980 (Simulation time: 0 hr 0 min 16 sec) 
Heartbeat CPU  0 instructions:    9000001 cycles:    5921754 heartbeat IPC: 1.52001 cumulative IPC: 1.51982 (Simulation time: 0 hr 0 min 19 sec) 
Heartbeat CPU  0 instructions:   10000002 cycles:    6579668 heartbeat IPC: 1.51996 cumulative IPC: 1.51983 (Simulation time: 0 hr 0 min 21 sec) 
Heartbeat CPU  0 instructions:   11000001 cycles:    7237598 heartbeat IPC: 1.51992 cumulative IPC: 1.51984 (Simulation time: 0 hr 0 min 23 sec) 
Heartbeat CPU  0 instructions:   12000000 cycles:    7895410 heartbeat IPC: 1.52019 cumulative IPC: 1.51987 (Simulation time: 0 hr 0 min 25 sec) 
Heartbeat CPU  0 instructions:   13000001 cycles:    8553398 heartbeat IPC: 1.51979 cumulative IPC: 1.51986 (Simulation time: 0 hr 0 min 27 sec) 
Heartbeat CPU  0 instructions:   14000001 cycles:    9211191 heartbeat IPC: 1.52024 cumulative IPC: 1.51989 (Simulation time: 0 hr 0 min 29 sec) 
Heartbeat CPU  0 instructions:   15000000 cycles:    9868977 heartbeat IPC: 1.52025 cumulative IPC: 1.51991 (Simulation time: 0 hr 0 min 31 sec) 
Heartbeat CPU  0 instructions:   16000000 cycles:   10526811 heartbeat IPC: 1.52014 cumulative IPC: 1.51993 (Simulation time: 0 hr 0 min 33 sec) 
Heartbeat CPU  0 instructions:   17000002 cycles:   11184715 heartbeat IPC: 1.51998 cumulative IPC: 1.51993 (Simulation time: 0 hr 0 min 35 sec) 
Heartbeat CPU  0 instructions:   18000000 cycles:   11842555 heartbeat IPC: 1.52012 cumulative IPC: 1.51994 (Simulation time: 0 hr 0 min 37 sec) 
Heartbeat CPU  0 instructions:   19000001 cycles:   12500385 heartbeat IPC: 1.52015 cumulative IPC: 1.51995 (Simulation time: 0 hr 0 min 39 sec) 
Heartbeat CPU  0 instructions:   20000000 cycles:   13158191 heartbeat IPC: 1.52020 cumulative IPC: 1.51997 (Simulation time: 0 hr 0 min 41 sec) 
Heartbeat CPU  0 instructions:   21000003 cycles:   13816082 heartbeat IPC: 1.52001 cumulative IPC: 1.51997 (Simulation time: 0 hr 0 min 43 sec) 
Heartbeat CPU  0 instructions:   22000001 cycles:   14473847 heartbeat IPC: 1.52030 cumulative IPC: 1.51998 (Simulation time: 0 hr 0 min 46 sec) 
Heartbeat CPU  0 instructions:   23000001 cycles:   15131663 heartbeat IPC: 1.52018 cumulative IPC: 1.51999 (Simulation time: 0 hr 0 min 48 sec) 
Heartbeat CPU  0 instructions:   24000000 cycles:   15789388 heartbeat IPC: 1.52039 cumulative IPC: 1.52001 (Simulation time: 0 hr 0 min 50 sec) 
Heartbeat CPU  0 instructions:   25000001 cycles:   16447359 heartbeat IPC: 1.51983 cumulative IPC: 1.52000 (Simulation time: 0 hr 0 min 52 sec) 
Heartbeat CPU  0 instructions:   26000003 cycles:   17105030 heartbeat IPC: 1.52052 cumulative IPC: 1.52002 (Simulation time: 0 hr 0 min 54 sec) 
Heartbeat CPU  0 instructions:   27000000 cycles:   17762873 heartbeat IPC: 1.52012 cumulative IPC: 1.52002 (Simulation time: 0 hr 0 min 56 sec) 
Heartbeat CPU  0 instructions:   28000000 cycles:   18420655 heartbeat IPC: 1.52026 cumulative IPC: 1.52003 (Simulation time: 0 hr 0 min 58 sec) 
Heartbeat CPU  0 instructions:   29000000 cycles:   19078570 heartbeat IPC: 1.51995 cumulative IPC: 1.52003 (Simulation time: 0 hr 1 min 0 sec) 
Heartbeat CPU  0 instructions:   30000001 cycles:   19736367 heartbeat IPC: 1.52023 cumulative IPC: 1.52004 (Simulation time: 0 hr 1 min 2 sec) 
Heartbeat CPU  0 instructions:   31000002 cycles:   20394296 heartbeat IPC: 1.51992 cumulative IPC: 1.52003 (Simulation time: 0 hr 1 min 4 sec) 
Heartbeat CPU  0 instructions:   32000000 cycles:   21052224 heartbeat IPC: 1.51992 cumulative IPC: 1.52003 (Simulation time: 0 hr 1 min 6 sec) 
Heartbeat CPU  0 instructions:   33000000 cycles:   21710232 heartbeat IPC: 1.51974 cumulative IPC: 1.52002 (Simulation time: 0 hr 1 min 8 sec) 
Heartbeat CPU  0 instructions:   34000002 cycles:   22368157 heartbeat IPC: 1.51993 cumulative IPC: 1.52002 (Simulation time: 0 hr 1 min 10 sec) 
Heartbeat CPU  0 instructions:   35000000 cycles:   23026071 heartbeat IPC: 1.51995 cumulative IPC: 1.52002 (Simulation time: 0 hr 1 min 12 sec) 
Heartbeat CPU  0 instructions:   36000000 cycles:   23684015 heartbeat IPC: 1.51989 cumulative IPC: 1.52001 (Simulation time: 0 hr 1 min 15 sec) 
Heartbeat CPU  0 instructions:   37000002 cycles:   24342002 heartbeat IPC: 1.51979 cumulative IPC: 1.52001 (Simulation time: 0 hr 1 min 17 sec) 
Heartbeat CPU  0 instructions:   38000000 cycles:   24999899 heartbeat IPC: 1.51999 cumulative IPC: 1.52001 (Simulation time: 0 hr 1 min 19 sec) 
Heartbeat CPU  0 instructions:   39000000 cycles:   25657926 heartbeat IPC: 1.51969 cumulative IPC: 1.52000 (Simulation time: 0 hr 1 min 21 sec) 
Heartbeat CPU  0 instructions:   40000000 cycles:   26315772 heartbeat IPC: 1.52011 cumulative IPC: 1.52000 (Simulation time: 0 hr 1 min 23 sec) 
Heartbeat CPU  0 instructions:   41000000 cycles:   26973778 heartbeat IPC: 1.51974 cumulative IPC: 1.51999 (Simulation time: 0 hr 1 min 25 sec) 
Heartbeat CPU  0 instructions:   42000003 cycles:   27631728 heartbeat IPC: 1.51988 cumulative IPC: 1.51999 (Simulation time: 0 hr 1 min 27 sec) 
Heartbeat CPU  0 instructions:   43000001 cycles:   28289606 heartbeat IPC: 1.52004 cumulative IPC: 1.51999 (Simulation time: 0 hr 1 min 29 sec) 
Heartbeat CPU  0 instructions:   44000000 cycles:   28947411 heartbeat IPC: 1.52021 cumulative IPC: 1.52000 (Simulation time: 0 hr 1 min 31 sec) 
Heartbeat CPU  0 instructions:   45000000 cycles:   29605277 heartbeat IPC: 1.52007 cumulative IPC: 1.52000 (Simulation time: 0 hr 1 min 33 sec) 
Heartbeat CPU  0 instructions:   46000001 cycles:   30263116 heartbeat IPC: 1.52013 cumulative IPC: 1.52000 (Simulation time: 0 hr 1 min 35 sec) 
Heartbeat CPU  0 instructions:   47000003 cycles:   30920970 heartbeat IPC: 1.52010 cumulative IPC: 1.52000 (Simulation time: 0 hr 1 min 37 sec) 
Heartbeat CPU  0 instructions:   48000000 cycles:   31578649 heartbeat IPC: 1.52049 cumulative IPC: 1.52001 (Simulation time: 0 hr 1 min 39 sec) 
Heartbeat CPU  0 instructions:   49000000 cycles:   32236428 heartbeat IPC: 1.52027 cumulative IPC: 1.52002 (Simulation time: 0 hr 1 min 41 sec) 
Heartbeat CPU  0 instructions:   50000003 cycles:   32894359 heartbeat IPC: 1.51992 cumulative IPC: 1.52002 (Simulation time: 0 hr 1 min 44 sec) 
Heartbeat CPU  0 instructions:   51000000 cycles:   33552183 heartbeat IPC: 1.52016 cumulative IPC: 1.52002 (Simulation time: 0 hr 1 min 46 sec) 
Heartbeat CPU  0 instructions:   52000000 cycles:   34209986 heartbeat IPC: 1.52021 cumulative IPC: 1.52002 (Simulation time: 0 hr 1 min 48 sec) 
Heartbeat CPU  0 instructions:   53000003 cycles:   34867879 heartbeat IPC: 1.52001 cumulative IPC: 1.52002 (Simulation time: 0 hr 1 min 50 sec) 
Heartbeat CPU  0 instructions:   54000001 cycles:   35525759 heartbeat IPC: 1.52003 cumulative IPC: 1.52002 (Simulation time: 0 hr 1 min 52 sec) 
Heartbeat CPU  0 instructions:   55000003 cycles:   36183620 heartbeat IPC: 1.52008 cumulative IPC: 1.52002 (Simulation time: 0 hr 1 min 54 sec) 
Heartbeat CPU  0 instructions:   56000000 cycles:   36841488 heartbeat IPC: 1.52006 cumulative IPC: 1.52003 (Simulation time: 0 hr 1 min 56 sec) 
Heartbeat CPU  0 instructions:   57000001 cycles:   37499225 heartbeat IPC: 1.52037 cumulative IPC: 1.52003 (Simulation time: 0 hr 1 min 58 sec) 
Heartbeat CPU  0 instructions:   58000000 cycles:   38157158 heartbeat IPC: 1.51991 cumulative IPC: 1.52003 (Simulation time: 0 hr 2 min 0 sec) 
Heartbeat CPU  0 instructions:   59000002 cycles:   38815126 heartbeat IPC: 1.51983 cumulative IPC: 1.52003 (Simulation time: 0 hr 2 min 2 sec) 
Heartbeat CPU  0 instructions:   60000000 cycles:   39472883 heartbeat IPC: 1.52032 cumulative IPC: 1.52003 (Simulation time: 0 hr 2 min 4 sec) 
Heartbeat CPU  0 instructions:   61000002 cycles:   40130931 heartbeat IPC: 1.51965 cumulative IPC: 1.52002 (Simulation time: 0 hr 2 min 6 sec) 
Heartbeat CPU  0 instructions:   62000001 cycles:   40788860 heartbeat IPC: 1.51992 cumulative IPC: 1.52002 (Simulation time: 0 hr 2 min 8 sec) 
Heartbeat CPU  0 instructions:   63000002 cycles:   41446807 heartbeat IPC: 1.51988 cumulative IPC: 1.52002 (Simulation time: 0 hr 2 min 10 sec) 
Heartbeat CPU  0 instructions:   64000000 cycles:   42104738 heartbeat IPC: 1.51991 cumulative IPC: 1.52002 (Simulation time: 0 hr 2 min 13 sec) 
Heartbeat CPU  0 instructions:   65000002 cycles:   42762759 heartbeat IPC: 1.51971 cumulative IPC: 1.52001 (Simulation time: 0 hr 2 min 15 sec) 
Heartbeat CPU  0 instructions:   66000002 cycles:   43420679 heartbeat IPC: 1.51994 cumulative IPC: 1.52001 (Simulation time: 0 hr 2 min 17 sec) 
Heartbeat CPU  0 instructions:   67000002 cycles:   44078592 heartbeat IPC: 1.51996 cumulative IPC: 1.52001 (Simulation time: 0 hr 2 min 19 sec) 
Heartbeat CPU  0 instructions:   68000000 cycles:   44736473 heartbeat IPC: 1.52003 cumulative IPC: 1.52001 (Simulation time: 0 hr 2 min 21 sec) 
Heartbeat CPU  0 instructions:   69000000 cycles:   45394472 heartbeat IPC: 1.51976 cumulative IPC: 1.52001 (Simulation time: 0 hr 2 min 23 sec) 
Heartbeat CPU  0 instructions:   70000003 cycles:   46052298 heartbeat IPC: 1.52016 cumulative IPC: 1.52001 (Simulation time: 0 hr 2 min 25 sec) 
Heartbeat CPU  0 instructions:   71000003 cycles:   46710114 heartbeat IPC: 1.52018 cumulative IPC: 1.52001 (Simulation time: 0 hr 2 min 27 sec) 
Heartbeat CPU  0 instructions:   72000000 cycles:   47367970 heartbeat IPC: 1.52008 cumulative IPC: 1.52001 (Simulation time: 0 hr 2 min 29 sec) 
Heartbeat CPU  0 instructions:   73000001 cycles:   48025860 heartbeat IPC: 1.52001 cumulative IPC: 1.52001 (Simulation time: 0 hr 2 min 31 sec) 
Heartbeat CPU  0 instructions:   74000002 cycles:   48683683 heartbeat IPC: 1.52017 cumulative IPC: 1.52002 (Simulation time: 0 hr 2 min 33 sec) 
Heartbeat CPU  0 instructions:   75000001 cycles:   49341585 heartbeat IPC: 1.51998 cumulative IPC: 1.52002 (Simulation time: 0 hr 2 min 35 sec) 
Heartbeat CPU  0 instructions:   76000000 cycles:   49999404 heartbeat IPC: 1.52017 cumulative IPC: 1.52002 (Simulation time: 0 hr 2 min 37 sec) 
Heartbeat CPU  0 instructions:   77000002 cycles:   50657276 heartbeat IPC: 1.52006 cumulative IPC: 1.52002 (Simulation time: 0 hr 2 min 40 sec) 
Heartbeat CPU  0 instructions:   78000000 cycles:   51315254 heartbeat IPC: 1.51980 cumulative IPC: 1.52002 (Simulation time: 0 hr 2 min 42 sec) 
Heartbeat CPU  0 instructions:   79000003 cycles:   51973059 heartbeat IPC: 1.52021 cumulative IPC: 1.52002 (Simulation time: 0 hr 2 min 44 sec) 
Heartbeat CPU  0 instructions:   80000000 cycles:   52630889 heartbeat IPC: 1.52015 cumulative IPC: 1.52002 (Simulation time: 0 hr 2 min 46 sec) 
Heartbeat CPU  0 instructions:   81000001 cycles:   53288824 heartbeat IPC: 1.51991 cumulative IPC: 1.52002 (Simulation time: 0 hr 2 min 48 sec) 
Heartbeat CPU  0 instructions:   82000001 cycles:   53946679 heartbeat IPC: 1.52009 cumulative IPC: 1.52002 (Simulation time: 0 hr 2 min 50 sec) 
Heartbeat CPU  0 instructions:   83000001 cycles:   54604443 heartbeat IPC: 1.52030 cumulative IPC: 1.52002 (Simulation time: 0 hr 2 min 52 sec) 
Heartbeat CPU  0 instructions:   84000000 cycles:   55262262 heartbeat IPC: 1.52017 cumulative IPC: 1.52002 (Simulation time: 0 hr 2 min 54 sec) 
Heartbeat CPU  0 instructions:   85000000 cycles:   55920181 heartbeat IPC: 1.51994 cumulative IPC: 1.52002 (Simulation time: 0 hr 2 min 56 sec) 
Heartbeat CPU  0 instructions:   86000002 cycles:   56578038 heartbeat IPC: 1.52009 cumulative IPC: 1.52002 (Simulation time: 0 hr 2 min 58 sec) 
Heartbeat CPU  0 instructions:   87000001 cycles:   57236004 heartbeat IPC: 1.51983 cumulative IPC: 1.52002 (Simulation time: 0 hr 3 min 0 sec) 
Heartbeat CPU  0 instructions:   88000000 cycles:   57894057 heartbeat IPC: 1.51963 cumulative IPC: 1.52002 (Simulation time: 0 hr 3 min 2 sec) 
Heartbeat CPU  0 instructions:   89000001 cycles:   58551988 heartbeat IPC: 1.51992 cumulative IPC: 1.52002 (Simulation time: 0 hr 3 min 4 sec) 
Heartbeat CPU  0 instructions:   90000003 cycles:   59209941 heartbeat IPC: 1.51987 cumulative IPC: 1.52002 (Simulation time: 0 hr 3 min 7 sec) 
Heartbeat CPU  0 instructions:   91000000 cycles:   59867835 heartbeat IPC: 1.52000 cumulative IPC: 1.52001 (Simulation time: 0 hr 3 min 9 sec) 
Heartbeat CPU  0 instructions:   92000000 cycles:   60525792 heartbeat IPC: 1.51986 cumulative IPC: 1.52001 (Simulation time: 0 hr 3 min 11 sec) 
Heartbeat CPU  0 instructions:   93000001 cycles:   61183694 heartbeat IPC: 1.51998 cumulative IPC: 1.52001 (Simulation time: 0 hr 3 min 13 sec) 
Heartbeat CPU  0 instructions:   94000001 cycles:   61841623 heartbeat IPC: 1.51992 cumulative IPC: 1.52001 (Simulation time: 0 hr 3 min 15 sec) 
Heartbeat CPU  0 instructions:   95000000 cycles:   62499493 heartbeat IPC: 1.52006 cumulative IPC: 1.52001 (Simulation time: 0 hr 3 min 17 sec) 
Heartbeat CPU  0 instructions:   96000000 cycles:   63157352 heartbeat IPC: 1.52008 cumulative IPC: 1.52001 (Simulation time: 0 hr 3 min 19 sec) 
Heartbeat CPU  0 instructions:   97000000 cycles:   63815355 heartbeat IPC: 1.51975 cumulative IPC: 1.52001 (Simulation time: 0 hr 3 min 21 sec) 
Heartbeat CPU  0 instructions:   98000001 cycles:   64473294 heartbeat IPC: 1.51990 cumulative IPC: 1.52001 (Simulation time: 0 hr 3 min 23 sec) 
Heartbeat CPU  0 instructions:   99000003 cycles:   65131194 heartbeat IPC: 1.51999 cumulative IPC: 1.52001 (Simulation time: 0 hr 3 min 25 sec) 
Heartbeat CPU  0 instructions:  100000000 cycles:   65789031 heartbeat IPC: 1.52013 cumulative IPC: 1.52001 (Simulation time: 0 hr 3 min 27 sec) 

Warmup complete CPU  0 instructions:  100000002 cycles:   65789034 (Simulation time: 0 hr 3 min 27 sec) 

Heartbeat CPU  0 instructions:  101000001 cycles:   66941608 heartbeat IPC: 0.86762 cumulative IPC: 0.86762 (Simulation time: 0 hr 3 min 30 sec) 
Heartbeat CPU  0 instructions:  102000000 cycles:   68115820 heartbeat IPC: 0.85163 cumulative IPC: 0.85955 (Simulation time: 0 hr 3 min 33 sec) 
Heartbeat CPU  0 instructions:  103000001 cycles:   69275716 heartbeat IPC: 0.86215 cumulative IPC: 0.86042 (Simulation time: 0 hr 3 min 35 sec) 
Heartbeat CPU  0 instructions:  104000000 cycles:   70423011 heartbeat IPC: 0.87161 cumulative IPC: 0.86319 (Simulation time: 0 hr 3 min 38 sec) 
Heartbeat CPU  0 instructions:  105000002 cycles:   71626713 heartbeat IPC: 0.83077 cumulative IPC: 0.85650 (Simulation time: 0 hr 3 min 40 sec) 
Heartbeat CPU  0 instructions:  106000001 cycles:   72792637 heartbeat IPC: 0.85769 cumulative IPC: 0.85670 (Simulation time: 0 hr 3 min 43 sec) 
Heartbeat CPU  0 instructions:  107000001 cycles:   73958453 heartbeat IPC: 0.85777 cumulative IPC: 0.85685 (Simulation time: 0 hr 3 min 45 sec) 
Heartbeat CPU  0 instructions:  108000000 cycles:   75126315 heartbeat IPC: 0.85626 cumulative IPC: 0.85678 (Simulation time: 0 hr 3 min 48 sec) 
Heartbeat CPU  0 instructions:  109000001 cycles:   76296277 heartbeat IPC: 0.85473 cumulative IPC: 0.85655 (Simulation time: 0 hr 3 min 51 sec) 
Heartbeat CPU  0 instructions:  110000000 cycles:   77467458 heartbeat IPC: 0.85384 cumulative IPC: 0.85628 (Simulation time: 0 hr 3 min 53 sec) 
Heartbeat CPU  0 instructions:  111000000 cycles:   78644382 heartbeat IPC: 0.84967 cumulative IPC: 0.85567 (Simulation time: 0 hr 3 min 56 sec) 
Heartbeat CPU  0 instructions:  112000000 cycles:   79818104 heartbeat IPC: 0.85199 cumulative IPC: 0.85537 (Simulation time: 0 hr 3 min 58 sec) 
Heartbeat CPU  0 instructions:  113000000 cycles:   80992730 heartbeat IPC: 0.85133 cumulative IPC: 0.85506 (Simulation time: 0 hr 4 min 1 sec) 
Heartbeat CPU  0 instructions:  114000002 cycles:   82164843 heartbeat IPC: 0.85316 cumulative IPC: 0.85492 (Simulation time: 0 hr 4 min 3 sec) 
Heartbeat CPU  0 instructions:  115000000 cycles:   83332892 heartbeat IPC: 0.85613 cumulative IPC: 0.85500 (Simulation time: 0 hr 4 min 6 sec) 
Heartbeat CPU  0 instructions:  116000000 cycles:   84512431 heartbeat IPC: 0.84779 cumulative IPC: 0.85455 (Simulation time: 0 hr 4 min 8 sec) 
Heartbeat CPU  0 instructions:  117000003 cycles:   85686657 heartbeat IPC: 0.85163 cumulative IPC: 0.85437 (Simulation time: 0 hr 4 min 11 sec) 
Heartbeat CPU  0 instructions:  118000000 cycles:   86874032 heartbeat IPC: 0.84219 cumulative IPC: 0.85369 (Simulation time: 0 hr 4 min 14 sec) 
Heartbeat CPU  0 instructions:  119000001 cycles:   88044203 heartbeat IPC: 0.85458 cumulative IPC: 0.85373 (Simulation time: 0 hr 4 min 16 sec) 
Heartbeat CPU  0 instructions:  120000000 cycles:   89234806 heartbeat IPC: 0.83991 cumulative IPC: 0.85303 (Simulation time: 0 hr 4 min 19 sec) 
Heartbeat CPU  0 instructions:  121000003 cycles:   90416423 heartbeat IPC: 0.84630 cumulative IPC: 0.85271 (Simulation time: 0 hr 4 min 21 sec) 
Heartbeat CPU  0 instructions:  122000000 cycles:   91625252 heartbeat IPC: 0.82724 cumulative IPC: 0.85152 (Simulation time: 0 hr 4 min 24 sec) 
Heartbeat CPU  0 instructions:  123000002 cycles:   92809601 heartbeat IPC: 0.84435 cumulative IPC: 0.85120 (Simulation time: 0 hr 4 min 26 sec) 
Heartbeat CPU  0 instructions:  124000000 cycles:   93993949 heartbeat IPC: 0.84434 cumulative IPC: 0.85092 (Simulation time: 0 hr 4 min 29 sec) 
Heartbeat CPU  0 instructions:  125000003 cycles:   95179730 heartbeat IPC: 0.84333 cumulative IPC: 0.85061 (Simulation time: 0 hr 4 min 31 sec) 
Heartbeat CPU  0 instructions:  126000002 cycles:   96358958 heartbeat IPC: 0.84801 cumulative IPC: 0.85051 (Simulation time: 0 hr 4 min 34 sec) 
Heartbeat CPU  0 instructions:  127000000 cycles:   97550455 heartbeat IPC: 0.83928 cumulative IPC: 0.85009 (Simulation time: 0 hr 4 min 37 sec) 
Heartbeat CPU  0 instructions:  128000000 cycles:   98727083 heartbeat IPC: 0.84989 cumulative IPC: 0.85008 (Simulation time: 0 hr 4 min 39 sec) 
Heartbeat CPU  0 instructions:  129000000 cycles:   99894745 heartbeat IPC: 0.85641 cumulative IPC: 0.85030 (Simulation time: 0 hr 4 min 42 sec) 
Heartbeat CPU  0 instructions:  130000001 cycles:  101062468 heartbeat IPC: 0.85637 cumulative IPC: 0.85050 (Simulation time: 0 hr 4 min 44 sec) 
Heartbeat CPU  0 instructions:  131000000 cycles:  102250170 heartbeat IPC: 0.84196 cumulative IPC: 0.85022 (Simulation time: 0 hr 4 min 47 sec) 
Heartbeat CPU  0 instructions:  132000000 cycles:  103425915 heartbeat IPC: 0.85052 cumulative IPC: 0.85023 (Simulation time: 0 hr 4 min 49 sec) 
Heartbeat CPU  0 instructions:  133000001 cycles:  104603980 heartbeat IPC: 0.84885 cumulative IPC: 0.85019 (Simulation time: 0 hr 4 min 52 sec) 
Heartbeat CPU  0 instructions:  134000000 cycles:  105789417 heartbeat IPC: 0.84357 cumulative IPC: 0.84999 (Simulation time: 0 hr 4 min 54 sec) 
Heartbeat CPU  0 instructions:  135000002 cycles:  106976732 heartbeat IPC: 0.84224 cumulative IPC: 0.84977 (Simulation time: 0 hr 4 min 57 sec) 
Heartbeat CPU  0 instructions:  136000000 cycles:  108144936 heartbeat IPC: 0.85601 cumulative IPC: 0.84994 (Simulation time: 0 hr 5 min 0 sec) 
Heartbeat CPU  0 instructions:  137000002 cycles:  109318314 heartbeat IPC: 0.85224 cumulative IPC: 0.85000 (Simulation time: 0 hr 5 min 2 sec) 
Heartbeat CPU  0 instructions:  138000000 cycles:  110510075 heartbeat IPC: 0.83909 cumulative IPC: 0.84971 (Simulation time: 0 hr 5 min 5 sec) 
Heartbeat CPU  0 instructions:  139000002 cycles:  111698453 heartbeat IPC: 0.84148 cumulative IPC: 0.84950 (Simulation time: 0 hr 5 min 7 sec) 
Heartbeat CPU  0 instructions:  140000000 cycles:  112879588 heartbeat IPC: 0.84664 cumulative IPC: 0.84943 (Simulation time: 0 hr 5 min 10 sec) 
Heartbeat CPU  0 instructions:  141000003 cycles:  114071588 heartbeat IPC: 0.83893 cumulative IPC: 0.84917 (Simulation time: 0 hr 5 min 12 sec) 
Heartbeat CPU  0 instructions:  142000001 cycles:  115249206 heartbeat IPC: 0.84917 cumulative IPC: 0.84917 (Simulation time: 0 hr 5 min 15 sec) 
Heartbeat CPU  0 instructions:  143000001 cycles:  116470802 heartbeat IPC: 0.81860 cumulative IPC: 0.84843 (Simulation time: 0 hr 5 min 18 sec) 
Heartbeat CPU  0 instructions:  144000000 cycles:  117682983 heartbeat IPC: 0.82496 cumulative IPC: 0.84788 (Simulation time: 0 hr 5 min 20 sec) 
Heartbeat CPU  0 instructions:  145000001 cycles:  118880202 heartbeat IPC: 0.83527 cumulative IPC: 0.84760 (Simulation time: 0 hr 5 min 23 sec) 
Heartbeat CPU  0 instructions:  146000003 cycles:  120062872 heartbeat IPC: 0.84555 cumulative IPC: 0.84755 (Simulation time: 0 hr 5 min 25 sec) 
Heartbeat CPU  0 instructions:  147000002 cycles:  121233319 heartbeat IPC: 0.85437 cumulative IPC: 0.84770 (Simulation time: 0 hr 5 min 28 sec) 
Heartbeat CPU  0 instructions:  148000000 cycles:  122414276 heartbeat IPC: 0.84677 cumulative IPC: 0.84768 (Simulation time: 0 hr 5 min 30 sec) 
Heartbeat CPU  0 instructions:  149000001 cycles:  123601432 heartbeat IPC: 0.84235 cumulative IPC: 0.84757 (Simulation time: 0 hr 5 min 33 sec) 
Heartbeat CPU  0 instructions:  150000002 cycles:  124779609 heartbeat IPC: 0.84877 cumulative IPC: 0.84759 (Simulation time: 0 hr 5 min 35 sec) 
Heartbeat CPU  0 instructions:  151000001 cycles:  125961254 heartbeat IPC: 0.84628 cumulative IPC: 0.84757 (Simulation time: 0 hr 5 min 38 sec) 
Heartbeat CPU  0 instructions:  152000000 cycles:  127127779 heartbeat IPC: 0.85725 cumulative IPC: 0.84775 (Simulation time: 0 hr 5 min 41 sec) 
Heartbeat CPU  0 instructions:  153000002 cycles:  128318785 heartbeat IPC: 0.83963 cumulative IPC: 0.84760 (Simulation time: 0 hr 5 min 43 sec) 
Heartbeat CPU  0 instructions:  154000001 cycles:  129498926 heartbeat IPC: 0.84736 cumulative IPC: 0.84759 (Simulation time: 0 hr 5 min 46 sec) 
Heartbeat CPU  0 instructions:  155000002 cycles:  130686379 heartbeat IPC: 0.84214 cumulative IPC: 0.84749 (Simulation time: 0 hr 5 min 48 sec) 
Heartbeat CPU  0 instructions:  156000000 cycles:  131871033 heartbeat IPC: 0.84413 cumulative IPC: 0.84743 (Simulation time: 0 hr 5 min 51 sec) 
Heartbeat CPU  0 instructions:  157000002 cycles:  133049207 heartbeat IPC: 0.84877 cumulative IPC: 0.84746 (Simulation time: 0 hr 5 min 53 sec) 
Heartbeat CPU  0 instructions:  158000000 cycles:  134227894 heartbeat IPC: 0.84840 cumulative IPC: 0.84747 (Simulation time: 0 hr 5 min 56 sec) 
Heartbeat CPU  0 instructions:  159000000 cycles:  135420906 heartbeat IPC: 0.83821 cumulative IPC: 0.84731 (Simulation time: 0 hr 5 min 59 sec) 
Heartbeat CPU  0 instructions:  160000000 cycles:  136595473 heartbeat IPC: 0.85138 cumulative IPC: 0.84738 (Simulation time: 0 hr 6 min 1 sec) 
Heartbeat CPU  0 instructions:  161000000 cycles:  137791831 heartbeat IPC: 0.83587 cumulative IPC: 0.84719 (Simulation time: 0 hr 6 min 4 sec) 
Heartbeat CPU  0 instructions:  162000000 cycles:  138960687 heartbeat IPC: 0.85554 cumulative IPC: 0.84732 (Simulation time: 0 hr 6 min 6 sec) 
Heartbeat CPU  0 instructions:  163000001 cycles:  140134110 heartbeat IPC: 0.85221 cumulative IPC: 0.84740 (Simulation time: 0 hr 6 min 9 sec) 
Heartbeat CPU  0 instructions:  164000000 cycles:  141324014 heartbeat IPC: 0.84040 cumulative IPC: 0.84729 (Simulation time: 0 hr 6 min 11 sec) 
Heartbeat CPU  0 instructions:  165000001 cycles:  142486799 heartbeat IPC: 0.86001 cumulative IPC: 0.84748 (Simulation time: 0 hr 6 min 14 sec) 
Heartbeat CPU  0 instructions:  166000002 cycles:  143677967 heartbeat IPC: 0.83951 cumulative IPC: 0.84736 (Simulation time: 0 hr 6 min 16 sec) 
Heartbeat CPU  0 instructions:  167000001 cycles:  144861588 heartbeat IPC: 0.84486 cumulative IPC: 0.84732 (Simulation time: 0 hr 6 min 19 sec) 
Heartbeat CPU  0 instructions:  168000000 cycles:  146039768 heartbeat IPC: 0.84877 cumulative IPC: 0.84734 (Simulation time: 0 hr 6 min 21 sec) 
Heartbeat CPU  0 instructions:  169000002 cycles:  147247664 heartbeat IPC: 0.82789 cumulative IPC: 0.84706 (Simulation time: 0 hr 6 min 24 sec) 
Heartbeat CPU  0 instructions:  170000001 cycles:  148420206 heartbeat IPC: 0.85285 cumulative IPC: 0.84714 (Simulation time: 0 hr 6 min 27 sec) 
Heartbeat CPU  0 instructions:  171000000 cycles:  149598520 heartbeat IPC: 0.84867 cumulative IPC: 0.84716 (Simulation time: 0 hr 6 min 29 sec) 
Heartbeat CPU  0 instructions:  172000000 cycles:  150779536 heartbeat IPC: 0.84673 cumulative IPC: 0.84715 (Simulation time: 0 hr 6 min 32 sec) 
Heartbeat CPU  0 instructions:  173000000 cycles:  151965279 heartbeat IPC: 0.84335 cumulative IPC: 0.84710 (Simulation time: 0 hr 6 min 34 sec) 
Heartbeat CPU  0 instructions:  174000000 cycles:  153130942 heartbeat IPC: 0.85788 cumulative IPC: 0.84725 (Simulation time: 0 hr 6 min 37 sec) 
Heartbeat CPU  0 instructions:  175000003 cycles:  154298384 heartbeat IPC: 0.85658 cumulative IPC: 0.84737 (Simulation time: 0 hr 6 min 39 sec) 
Heartbeat CPU  0 instructions:  176000000 cycles:  155480222 heartbeat IPC: 0.84614 cumulative IPC: 0.84735 (Simulation time: 0 hr 6 min 42 sec) 
Heartbeat CPU  0 instructions:  177000000 cycles:  156652256 heartbeat IPC: 0.85322 cumulative IPC: 0.84743 (Simulation time: 0 hr 6 min 44 sec) 
Heartbeat CPU  0 instructions:  178000002 cycles:  157840233 heartbeat IPC: 0.84177 cumulative IPC: 0.84735 (Simulation time: 0 hr 6 min 47 sec) 
Heartbeat CPU  0 instructions:  179000001 cycles:  159045804 heartbeat IPC: 0.82948 cumulative IPC: 0.84712 (Simulation time: 0 hr 6 min 50 sec) 
Heartbeat CPU  0 instructions:  180000000 cycles:  160232248 heartbeat IPC: 0.84285 cumulative IPC: 0.84707 (Simulation time: 0 hr 6 min 52 sec) 
Heartbeat CPU  0 instructions:  181000001 cycles:  161420251 heartbeat IPC: 0.84175 cumulative IPC: 0.84700 (Simulation time: 0 hr 6 min 55 sec) 
Heartbeat CPU  0 instructions:  182000000 cycles:  162616802 heartbeat IPC: 0.83573 cumulative IPC: 0.84686 (Simulation time: 0 hr 6 min 57 sec) 
Heartbeat CPU  0 instructions:  183000002 cycles:  163803202 heartbeat IPC: 0.84289 cumulative IPC: 0.84682 (Simulation time: 0 hr 7 min 0 sec) 
Heartbeat CPU  0 instructions:  184000000 cycles:  164977653 heartbeat IPC: 0.85146 cumulative IPC: 0.84687 (Simulation time: 0 hr 7 min 2 sec) 
Heartbeat CPU  0 instructions:  185000000 cycles:  166157540 heartbeat IPC: 0.84754 cumulative IPC: 0.84688 (Simulation time: 0 hr 7 min 5 sec) 
Heartbeat CPU  0 instructions:  186000000 cycles:  167370396 heartbeat IPC: 0.82450 cumulative IPC: 0.84661 (Simulation time: 0 hr 7 min 7 sec) 
Heartbeat CPU  0 instructions:  187000003 cycles:  168548379 heartbeat IPC: 0.84891 cumulative IPC: 0.84664 (Simulation time: 0 hr 7 min 10 sec) 
Heartbeat CPU  0 instructions:  188000000 cycles:  169737286 heartbeat IPC: 0.84111 cumulative IPC: 0.84658 (Simulation time: 0 hr 7 min 13 sec) 
Heartbeat CPU  0 instructions:  189000000 cycles:  170927689 heartbeat IPC: 0.84005 cumulative IPC: 0.84650 (Simulation time: 0 hr 7 min 15 sec) 
Heartbeat CPU  0 instructions:  190000003 cycles:  172102847 heartbeat IPC: 0.85095 cumulative IPC: 0.84655 (Simulation time: 0 hr 7 min 18 sec) 
Heartbeat CPU  0 instructions:  191000001 cycles:  173281163 heartbeat IPC: 0.84867 cumulative IPC: 0.84657 (Simulation time: 0 hr 7 min 20 sec) 
Heartbeat CPU  0 instructions:  192000000 cycles:  174455519 heartbeat IPC: 0.85153 cumulative IPC: 0.84663 (Simulation time: 0 hr 7 min 23 sec) 
Heartbeat CPU  0 instructions:  193000001 cycles:  175619259 heartbeat IPC: 0.85930 cumulative IPC: 0.84676 (Simulation time: 0 hr 7 min 25 sec) 
Heartbeat CPU  0 instructions:  194000001 cycles:  176785490 heartbeat IPC: 0.85746 cumulative IPC: 0.84687 (Simulation time: 0 hr 7 min 28 sec) 
Heartbeat CPU  0 instructions:  195000002 cycles:  177970845 heartbeat IPC: 0.84363 cumulative IPC: 0.84684 (Simulation time: 0 hr 7 min 30 sec) 
Heartbeat CPU  0 instructions:  196000000 cycles:  179154481 heartbeat IPC: 0.84485 cumulative IPC: 0.84682 (Simulation time: 0 hr 7 min 33 sec) 
Heartbeat CPU  0 instructions:  197000001 cycles:  180330933 heartbeat IPC: 0.85001 cumulative IPC: 0.84685 (Simulation time: 0 hr 7 min 36 sec) 
Heartbeat CPU  0 instructions:  198000002 cycles:  181498699 heartbeat IPC: 0.85634 cumulative IPC: 0.84695 (Simulation time: 0 hr 7 min 38 sec) 
Heartbeat CPU  0 instructions:  199000003 cycles:  182665935 heartbeat IPC: 0.85673 cumulative IPC: 0.84705 (Simulation time: 0 hr 7 min 41 sec) 
Heartbeat CPU  0 instructions:  200000000 cycles:  183831617 heartbeat IPC: 0.85786 cumulative IPC: 0.84715 (Simulation time: 0 hr 7 min 43 sec) 
Heartbeat CPU  0 instructions:  201000002 cycles:  185006446 heartbeat IPC: 0.85119 cumulative IPC: 0.84719 (Simulation time: 0 hr 7 min 46 sec) 
Heartbeat CPU  0 instructions:  202000000 cycles:  186183762 heartbeat IPC: 0.84939 cumulative IPC: 0.84721 (Simulation time: 0 hr 7 min 48 sec) 
Heartbeat CPU  0 instructions:  203000000 cycles:  187358680 heartbeat IPC: 0.85112 cumulative IPC: 0.84725 (Simulation time: 0 hr 7 min 51 sec) 
Heartbeat CPU  0 instructions:  204000000 cycles:  188536725 heartbeat IPC: 0.84886 cumulative IPC: 0.84727 (Simulation time: 0 hr 7 min 53 sec) 
Heartbeat CPU  0 instructions:  205000003 cycles:  189718736 heartbeat IPC: 0.84602 cumulative IPC: 0.84725 (Simulation time: 0 hr 7 min 56 sec) 
Heartbeat CPU  0 instructions:  206000002 cycles:  190898199 heartbeat IPC: 0.84784 cumulative IPC: 0.84726 (Simulation time: 0 hr 7 min 59 sec) 
Heartbeat CPU  0 instructions:  207000000 cycles:  192072352 heartbeat IPC: 0.85168 cumulative IPC: 0.84730 (Simulation time: 0 hr 8 min 1 sec) 
Heartbeat CPU  0 instructions:  208000000 cycles:  193273104 heartbeat IPC: 0.83281 cumulative IPC: 0.84716 (Simulation time: 0 hr 8 min 4 sec) 
Heartbeat CPU  0 instructions:  209000002 cycles:  194454860 heartbeat IPC: 0.84620 cumulative IPC: 0.84716 (Simulation time: 0 hr 8 min 6 sec) 
Heartbeat CPU  0 instructions:  210000001 cycles:  195637375 heartbeat IPC: 0.84565 cumulative IPC: 0.84714 (Simulation time: 0 hr 8 min 9 sec) 
Heartbeat CPU  0 instructions:  211000000 cycles:  196810534 heartbeat IPC: 0.85240 cumulative IPC: 0.84719 (Simulation time: 0 hr 8 min 11 sec) 
Heartbeat CPU  0 instructions:  212000000 cycles:  197986488 heartbeat IPC: 0.85037 cumulative IPC: 0.84722 (Simulation time: 0 hr 8 min 14 sec) 
Heartbeat CPU  0 instructions:  213000001 cycles:  199175733 heartbeat IPC: 0.84087 cumulative IPC: 0.84716 (Simulation time: 0 hr 8 min 17 sec) 
Heartbeat CPU  0 instructions:  214000000 cycles:  200346900 heartbeat IPC: 0.85385 cumulative IPC: 0.84722 (Simulation time: 0 hr 8 min 19 sec) 
Heartbeat CPU  0 instructions:  215000002 cycles:  201515433 heartbeat IPC: 0.85578 cumulative IPC: 0.84729 (Simulation time: 0 hr 8 min 22 sec) 
Heartbeat CPU  0 instructions:  216000000 cycles:  202692645 heartbeat IPC: 0.84946 cumulative IPC: 0.84731 (Simulation time: 0 hr 8 min 24 sec) 
Heartbeat CPU  0 instructions:  217000001 cycles:  203896890 heartbeat IPC: 0.83040 cumulative IPC: 0.84716 (Simulation time: 0 hr 8 min 27 sec) 
Heartbeat CPU  0 instructions:  218000002 cycles:  205068796 heartbeat IPC: 0.85331 cumulative IPC: 0.84722 (Simulation time: 0 hr 8 min 29 sec) 
Heartbeat CPU  0 instructions:  219000001 cycles:  206262080 heartbeat IPC: 0.83802 cumulative IPC: 0.84714 (Simulation time: 0 hr 8 min 32 sec) 
Heartbeat CPU  0 instructions:  220000000 cycles:  207456496 heartbeat IPC: 0.83723 cumulative IPC: 0.84705 (Simulation time: 0 hr 8 min 34 sec) 
Heartbeat CPU  0 instructions:  221000001 cycles:  208626310 heartbeat IPC: 0.85484 cumulative IPC: 0.84712 (Simulation time: 0 hr 8 min 37 sec) 
Heartbeat CPU  0 instructions:  222000002 cycles:  209808061 heartbeat IPC: 0.84620 cumulative IPC: 0.84711 (Simulation time: 0 hr 8 min 39 sec) 
Heartbeat CPU  0 instructions:  223000000 cycles:  210976620 heartbeat IPC: 0.85575 cumulative IPC: 0.84718 (Simulation time: 0 hr 8 min 42 sec) 
Heartbeat CPU  0 instructions:  224000000 cycles:  212192089 heartbeat IPC: 0.82273 cumulative IPC: 0.84698 (Simulation time: 0 hr 8 min 45 sec) 
Heartbeat CPU  0 instructions:  225000002 cycles:  213415690 heartbeat IPC: 0.81726 cumulative IPC: 0.84673 (Simulation time: 0 hr 8 min 47 sec) 
Heartbeat CPU  0 instructions:  226000003 cycles:  214605576 heartbeat IPC: 0.84042 cumulative IPC: 0.84668 (Simulation time: 0 hr 8 min 50 sec) 
Heartbeat CPU  0 instructions:  227000002 cycles:  215785051 heartbeat IPC: 0.84783 cumulative IPC: 0.84669 (Simulation time: 0 hr 8 min 52 sec) 
Heartbeat CPU  0 instructions:  228000000 cycles:  216955295 heartbeat IPC: 0.85452 cumulative IPC: 0.84675 (Simulation time: 0 hr 8 min 55 sec) 
Heartbeat CPU  0 instructions:  229000000 cycles:  218168299 heartbeat IPC: 0.82440 cumulative IPC: 0.84657 (Simulation time: 0 hr 8 min 57 sec) 
Heartbeat CPU  0 instructions:  230000002 cycles:  219348641 heartbeat IPC: 0.84721 cumulative IPC: 0.84658 (Simulation time: 0 hr 9 min 0 sec) 
Heartbeat CPU  0 instructions:  231000001 cycles:  220521026 heartbeat IPC: 0.85296 cumulative IPC: 0.84663 (Simulation time: 0 hr 9 min 3 sec) 
Heartbeat CPU  0 instructions:  232000000 cycles:  221697714 heartbeat IPC: 0.84984 cumulative IPC: 0.84665 (Simulation time: 0 hr 9 min 5 sec) 
Heartbeat CPU  0 instructions:  233000000 cycles:  222917614 heartbeat IPC: 0.81974 cumulative IPC: 0.84644 (Simulation time: 0 hr 9 min 8 sec) 
Heartbeat CPU  0 instructions:  234000001 cycles:  224132266 heartbeat IPC: 0.82328 cumulative IPC: 0.84626 (Simulation time: 0 hr 9 min 10 sec) 
Heartbeat CPU  0 instructions:  235000001 cycles:  225321651 heartbeat IPC: 0.84077 cumulative IPC: 0.84622 (Simulation time: 0 hr 9 min 13 sec) 
Heartbeat CPU  0 instructions:  236000000 cycles:  226541671 heartbeat IPC: 0.81966 cumulative IPC: 0.84602 (Simulation time: 0 hr 9 min 15 sec) 
Heartbeat CPU  0 instructions:  237000000 cycles:  227726664 heartbeat IPC: 0.84389 cumulative IPC: 0.84600 (Simulation time: 0 hr 9 min 18 sec) 
Heartbeat CPU  0 instructions:  238000000 cycles:  228902667 heartbeat IPC: 0.85034 cumulative IPC: 0.84604 (Simulation time: 0 hr 9 min 21 sec) 
Heartbeat CPU  0 instructions:  239000001 cycles:  230087504 heartbeat IPC: 0.84400 cumulative IPC: 0.84602 (Simulation time: 0 hr 9 min 23 sec) 
Heartbeat CPU  0 instructions:  240000000 cycles:  231270396 heartbeat IPC: 0.84538 cumulative IPC: 0.84602 (Simulation time: 0 hr 9 min 26 sec) 
Heartbeat CPU  0 instructions:  241000000 cycles:  232452075 heartbeat IPC: 0.84625 cumulative IPC: 0.84602 (Simulation time: 0 hr 9 min 28 sec) 
Heartbeat CPU  0 instructions:  242000003 cycles:  233661781 heartbeat IPC: 0.82665 cumulative IPC: 0.84588 (Simulation time: 0 hr 9 min 31 sec) 
Heartbeat CPU  0 instructions:  243000000 cycles:  234862764 heartbeat IPC: 0.83265 cumulative IPC: 0.84578 (Simulation time: 0 hr 9 min 33 sec) 
Heartbeat CPU  0 instructions:  244000000 cycles:  236047848 heartbeat IPC: 0.84382 cumulative IPC: 0.84577 (Simulation time: 0 hr 9 min 36 sec) 
Heartbeat CPU  0 instructions:  245000001 cycles:  237220540 heartbeat IPC: 0.85274 cumulative IPC: 0.84582 (Simulation time: 0 hr 9 min 38 sec) 
Heartbeat CPU  0 instructions:  246000001 cycles:  238409100 heartbeat IPC: 0.84135 cumulative IPC: 0.84579 (Simulation time: 0 hr 9 min 41 sec) 
Heartbeat CPU  0 instructions:  247000001 cycles:  239589443 heartbeat IPC: 0.84721 cumulative IPC: 0.84580 (Simulation time: 0 hr 9 min 44 sec) 
Heartbeat CPU  0 instructions:  248000000 cycles:  240758387 heartbeat IPC: 0.85547 cumulative IPC: 0.84586 (Simulation time: 0 hr 9 min 46 sec) 
Heartbeat CPU  0 instructions:  249000003 cycles:  241935677 heartbeat IPC: 0.84941 cumulative IPC: 0.84589 (Simulation time: 0 hr 9 min 49 sec) 
Heartbeat CPU  0 instructions:  250000001 cycles:  243116685 heartbeat IPC: 0.84673 cumulative IPC: 0.84589 (Simulation time: 0 hr 9 min 51 sec) 
Heartbeat CPU  0 instructions:  251000000 cycles:  244344704 heartbeat IPC: 0.81432 cumulative IPC: 0.84567 (Simulation time: 0 hr 9 min 54 sec) 
Heartbeat CPU  0 instructions:  252000000 cycles:  245544954 heartbeat IPC: 0.83316 cumulative IPC: 0.84559 (Simulation time: 0 hr 9 min 56 sec) 
Heartbeat CPU  0 instructions:  253000000 cycles:  246720772 heartbeat IPC: 0.85047 cumulative IPC: 0.84562 (Simulation time: 0 hr 9 min 59 sec) 
Heartbeat CPU  0 instructions:  254000001 cycles:  247924047 heartbeat IPC: 0.83107 cumulative IPC: 0.84553 (Simulation time: 0 hr 10 min 2 sec) 
Heartbeat CPU  0 instructions:  255000000 cycles:  249094810 heartbeat IPC: 0.85414 cumulative IPC: 0.84558 (Simulation time: 0 hr 10 min 4 sec) 
Heartbeat CPU  0 instructions:  256000000 cycles:  250274319 heartbeat IPC: 0.84781 cumulative IPC: 0.84560 (Simulation time: 0 hr 10 min 7 sec) 
Heartbeat CPU  0 instructions:  257000000 cycles:  251487555 heartbeat IPC: 0.82424 cumulative IPC: 0.84546 (Simulation time: 0 hr 10 min 9 sec) 
Heartbeat CPU  0 instructions:  258000003 cycles:  252666419 heartbeat IPC: 0.84828 cumulative IPC: 0.84547 (Simulation time: 0 hr 10 min 12 sec) 
Heartbeat CPU  0 instructions:  259000002 cycles:  253855026 heartbeat IPC: 0.84132 cumulative IPC: 0.84545 (Simulation time: 0 hr 10 min 14 sec) 
Heartbeat CPU  0 instructions:  260000000 cycles:  255057392 heartbeat IPC: 0.83169 cumulative IPC: 0.84536 (Simulation time: 0 hr 10 min 17 sec) 
Heartbeat CPU  0 instructions:  261000003 cycles:  256224547 heartbeat IPC: 0.85679 cumulative IPC: 0.84543 (Simulation time: 0 hr 10 min 19 sec) 
Heartbeat CPU  0 instructions:  262000000 cycles:  257397875 heartbeat IPC: 0.85227 cumulative IPC: 0.84547 (Simulation time: 0 hr 10 min 22 sec) 
Heartbeat CPU  0 instructions:  263000000 cycles:  258602170 heartbeat IPC: 0.83036 cumulative IPC: 0.84538 (Simulation time: 0 hr 10 min 25 sec) 
Heartbeat CPU  0 instructions:  264000000 cycles:  259816112 heartbeat IPC: 0.82376 cumulative IPC: 0.84524 (Simulation time: 0 hr 10 min 27 sec) 
Heartbeat CPU  0 instructions:  265000002 cycles:  260999439 heartbeat IPC: 0.84508 cumulative IPC: 0.84524 (Simulation time: 0 hr 10 min 30 sec) 
Heartbeat CPU  0 instructions:  266000003 cycles:  262175137 heartbeat IPC: 0.85056 cumulative IPC: 0.84527 (Simulation time: 0 hr 10 min 32 sec) 
Heartbeat CPU  0 instructions:  267000003 cycles:  263356176 heartbeat IPC: 0.84671 cumulative IPC: 0.84528 (Simulation time: 0 hr 10 min 35 sec) 
Heartbeat CPU  0 instructions:  268000000 cycles:  264533149 heartbeat IPC: 0.84963 cumulative IPC: 0.84531 (Simulation time: 0 hr 10 min 37 sec) 
Heartbeat CPU  0 instructions:  269000000 cycles:  265734869 heartbeat IPC: 0.83214 cumulative IPC: 0.84523 (Simulation time: 0 hr 10 min 40 sec) 
Heartbeat CPU  0 instructions:  270000001 cycles:  266909286 heartbeat IPC: 0.85149 cumulative IPC: 0.84527 (Simulation time: 0 hr 10 min 42 sec) 
Heartbeat CPU  0 instructions:  271000001 cycles:  268117433 heartbeat IPC: 0.82771 cumulative IPC: 0.84516 (Simulation time: 0 hr 10 min 45 sec) 
Heartbeat CPU  0 instructions:  272000000 cycles:  269369967 heartbeat IPC: 0.79838 cumulative IPC: 0.84487 (Simulation time: 0 hr 10 min 48 sec) 
Heartbeat CPU  0 instructions:  273000003 cycles:  270553416 heartbeat IPC: 0.84499 cumulative IPC: 0.84487 (Simulation time: 0 hr 10 min 50 sec) 
Heartbeat CPU  0 instructions:  274000002 cycles:  271767690 heartbeat IPC: 0.82354 cumulative IPC: 0.84475 (Simulation time: 0 hr 10 min 53 sec) 
Heartbeat CPU  0 instructions:  275000000 cycles:  272953926 heartbeat IPC: 0.84300 cumulative IPC: 0.84474 (Simulation time: 0 hr 10 min 55 sec) 
Heartbeat CPU  0 instructions:  276000000 cycles:  274126215 heartbeat IPC: 0.85303 cumulative IPC: 0.84478 (Simulation time: 0 hr 10 min 58 sec) 
Heartbeat CPU  0 instructions:  277000002 cycles:  275298717 heartbeat IPC: 0.85288 cumulative IPC: 0.84483 (Simulation time: 0 hr 11 min 0 sec) 
Heartbeat CPU  0 instructions:  278000002 cycles:  276494751 heartbeat IPC: 0.83610 cumulative IPC: 0.84478 (Simulation time: 0 hr 11 min 3 sec) 
Heartbeat CPU  0 instructions:  279000001 cycles:  277675330 heartbeat IPC: 0.84704 cumulative IPC: 0.84479 (Simulation time: 0 hr 11 min 6 sec) 
Heartbeat CPU  0 instructions:  280000000 cycles:  278859776 heartbeat IPC: 0.84428 cumulative IPC: 0.84479 (Simulation time: 0 hr 11 min 8 sec) 
Heartbeat CPU  0 instructions:  281000000 cycles:  280039796 heartbeat IPC: 0.84744 cumulative IPC: 0.84480 (Simulation time: 0 hr 11 min 11 sec) 
Heartbeat CPU  0 instructions:  282000000 cycles:  281209499 heartbeat IPC: 0.85492 cumulative IPC: 0.84486 (Simulation time: 0 hr 11 min 13 sec) 
Heartbeat CPU  0 instructions:  283000003 cycles:  282382074 heartbeat IPC: 0.85283 cumulative IPC: 0.84490 (Simulation time: 0 hr 11 min 16 sec) 
Heartbeat CPU  0 instructions:  284000000 cycles:  283565589 heartbeat IPC: 0.84494 cumulative IPC: 0.84490 (Simulation time: 0 hr 11 min 18 sec) 
Heartbeat CPU  0 instructions:  285000000 cycles:  284741902 heartbeat IPC: 0.85011 cumulative IPC: 0.84493 (Simulation time: 0 hr 11 min 21 sec) 
Heartbeat CPU  0 instructions:  286000002 cycles:  285927879 heartbeat IPC: 0.84319 cumulative IPC: 0.84492 (Simulation time: 0 hr 11 min 23 sec) 
Heartbeat CPU  0 instructions:  287000000 cycles:  287108063 heartbeat IPC: 0.84732 cumulative IPC: 0.84493 (Simulation time: 0 hr 11 min 26 sec) 
Heartbeat CPU  0 instructions:  288000000 cycles:  288289204 heartbeat IPC: 0.84664 cumulative IPC: 0.84494 (Simulation time: 0 hr 11 min 29 sec) 
Heartbeat CPU  0 instructions:  289000001 cycles:  289470399 heartbeat IPC: 0.84660 cumulative IPC: 0.84495 (Simulation time: 0 hr 11 min 31 sec) 
Heartbeat CPU  0 instructions:  290000002 cycles:  290640048 heartbeat IPC: 0.85496 cumulative IPC: 0.84500 (Simulation time: 0 hr 11 min 34 sec) 
Heartbeat CPU  0 instructions:  291000002 cycles:  291816620 heartbeat IPC: 0.84993 cumulative IPC: 0.84503 (Simulation time: 0 hr 11 min 36 sec) 
Heartbeat CPU  0 instructions:  292000000 cycles:  292987118 heartbeat IPC: 0.85434 cumulative IPC: 0.84508 (Simulation time: 0 hr 11 min 39 sec) 
Heartbeat CPU  0 instructions:  293000001 cycles:  294158973 heartbeat IPC: 0.85335 cumulative IPC: 0.84512 (Simulation time: 0 hr 11 min 41 sec) 
Heartbeat CPU  0 instructions:  294000000 cycles:  295328596 heartbeat IPC: 0.85498 cumulative IPC: 0.84517 (Simulation time: 0 hr 11 min 44 sec) 
Heartbeat CPU  0 instructions:  295000003 cycles:  296515235 heartbeat IPC: 0.84272 cumulative IPC: 0.84516 (Simulation time: 0 hr 11 min 46 sec) 
Heartbeat CPU  0 instructions:  296000000 cycles:  297680772 heartbeat IPC: 0.85797 cumulative IPC: 0.84522 (Simulation time: 0 hr 11 min 49 sec) 
Heartbeat CPU  0 instructions:  297000001 cycles:  298858095 heartbeat IPC: 0.84939 cumulative IPC: 0.84524 (Simulation time: 0 hr 11 min 51 sec) 
Heartbeat CPU  0 instructions:  298000001 cycles:  300043705 heartbeat IPC: 0.84345 cumulative IPC: 0.84523 (Simulation time: 0 hr 11 min 54 sec) 
Heartbeat CPU  0 instructions:  299000000 cycles:  301207890 heartbeat IPC: 0.85897 cumulative IPC: 0.84530 (Simulation time: 0 hr 11 min 57 sec) 
Heartbeat CPU  0 instructions:  300000000 cycles:  302384292 heartbeat IPC: 0.85005 cumulative IPC: 0.84533 (Simulation time: 0 hr 11 min 59 sec) 
Heartbeat CPU  0 instructions:  301000000 cycles:  303568359 heartbeat IPC: 0.84455 cumulative IPC: 0.84532 (Simulation time: 0 hr 12 min 2 sec) 
Heartbeat CPU  0 instructions:  302000002 cycles:  304744471 heartbeat IPC: 0.85026 cumulative IPC: 0.84535 (Simulation time: 0 hr 12 min 4 sec) 
Heartbeat CPU  0 instructions:  303000000 cycles:  305916566 heartbeat IPC: 0.85317 cumulative IPC: 0.84538 (Simulation time: 0 hr 12 min 7 sec) 
Heartbeat CPU  0 instructions:  304000000 cycles:  307086420 heartbeat IPC: 0.85481 cumulative IPC: 0.84543 (Simulation time: 0 hr 12 min 9 sec) 
Heartbeat CPU  0 instructions:  305000001 cycles:  308264568 heartbeat IPC: 0.84879 cumulative IPC: 0.84545 (Simulation time: 0 hr 12 min 12 sec) 
Heartbeat CPU  0 instructions:  306000001 cycles:  309434546 heartbeat IPC: 0.85472 cumulative IPC: 0.84549 (Simulation time: 0 hr 12 min 14 sec) 
Heartbeat CPU  0 instructions:  307000002 cycles:  310614349 heartbeat IPC: 0.84760 cumulative IPC: 0.84550 (Simulation time: 0 hr 12 min 17 sec) 
Heartbeat CPU  0 instructions:  308000000 cycles:  311794969 heartbeat IPC: 0.84701 cumulative IPC: 0.84551 (Simulation time: 0 hr 12 min 20 sec) 
Heartbeat CPU  0 instructions:  309000002 cycles:  312974691 heartbeat IPC: 0.84766 cumulative IPC: 0.84552 (Simulation time: 0 hr 12 min 22 sec) 
Heartbeat CPU  0 instructions:  310000000 cycles:  314156021 heartbeat IPC: 0.84650 cumulative IPC: 0.84552 (Simulation time: 0 hr 12 min 25 sec) 
Heartbeat CPU  0 instructions:  311000002 cycles:  315342517 heartbeat IPC: 0.84282 cumulative IPC: 0.84551 (Simulation time: 0 hr 12 min 27 sec) 
Heartbeat CPU  0 instructions:  312000000 cycles:  316523966 heartbeat IPC: 0.84642 cumulative IPC: 0.84551 (Simulation time: 0 hr 12 min 30 sec) 
Heartbeat CPU  0 instructions:  313000003 cycles:  317708694 heartbeat IPC: 0.84408 cumulative IPC: 0.84551 (Simulation time: 0 hr 12 min 32 sec) 
Heartbeat CPU  0 instructions:  314000002 cycles:  318917490 heartbeat IPC: 0.82727 cumulative IPC: 0.84542 (Simulation time: 0 hr 12 min 35 sec) 
Heartbeat CPU  0 instructions:  315000000 cycles:  320098917 heartbeat IPC: 0.84643 cumulative IPC: 0.84543 (Simulation time: 0 hr 12 min 37 sec) 
Heartbeat CPU  0 instructions:  316000000 cycles:  321274093 heartbeat IPC: 0.85094 cumulative IPC: 0.84545 (Simulation time: 0 hr 12 min 40 sec) 
Heartbeat CPU  0 instructions:  317000001 cycles:  322465436 heartbeat IPC: 0.83939 cumulative IPC: 0.84542 (Simulation time: 0 hr 12 min 43 sec) 
Heartbeat CPU  0 instructions:  318000001 cycles:  323665523 heartbeat IPC: 0.83327 cumulative IPC: 0.84537 (Simulation time: 0 hr 12 min 45 sec) 
Heartbeat CPU  0 instructions:  319000000 cycles:  324848251 heartbeat IPC: 0.84550 cumulative IPC: 0.84537 (Simulation time: 0 hr 12 min 48 sec) 
Heartbeat CPU  0 instructions:  320000000 cycles:  326032993 heartbeat IPC: 0.84407 cumulative IPC: 0.84536 (Simulation time: 0 hr 12 min 50 sec) 
Heartbeat CPU  0 instructions:  321000000 cycles:  327221197 heartbeat IPC: 0.84161 cumulative IPC: 0.84534 (Simulation time: 0 hr 12 min 53 sec) 
Heartbeat CPU  0 instructions:  322000000 cycles:  328394615 heartbeat IPC: 0.85221 cumulative IPC: 0.84537 (Simulation time: 0 hr 12 min 55 sec) 
Heartbeat CPU  0 instructions:  323000002 cycles:  329573195 heartbeat IPC: 0.84848 cumulative IPC: 0.84539 (Simulation time: 0 hr 12 min 58 sec) 
Heartbeat CPU  0 instructions:  324000000 cycles:  330749436 heartbeat IPC: 0.85016 cumulative IPC: 0.84541 (Simulation time: 0 hr 13 min 0 sec) 
Heartbeat CPU  0 instructions:  325000002 cycles:  331935277 heartbeat IPC: 0.84329 cumulative IPC: 0.84540 (Simulation time: 0 hr 13 min 3 sec) 
Heartbeat CPU  0 instructions:  326000001 cycles:  333115043 heartbeat IPC: 0.84762 cumulative IPC: 0.84541 (Simulation time: 0 hr 13 min 6 sec) 
Heartbeat CPU  0 instructions:  327000000 cycles:  334285477 heartbeat IPC: 0.85438 cumulative IPC: 0.84545 (Simulation time: 0 hr 13 min 8 sec) 
Heartbeat CPU  0 instructions:  328000000 cycles:  335473739 heartbeat IPC: 0.84157 cumulative IPC: 0.84543 (Simulation time: 0 hr 13 min 11 sec) 
Heartbeat CPU  0 instructions:  329000003 cycles:  336665559 heartbeat IPC: 0.83906 cumulative IPC: 0.84540 (Simulation time: 0 hr 13 min 13 sec) 
Heartbeat CPU  0 instructions:  330000000 cycles:  337864875 heartbeat IPC: 0.83381 cumulative IPC: 0.84535 (Simulation time: 0 hr 13 min 16 sec) 
Heartbeat CPU  0 instructions:  331000000 cycles:  339042579 heartbeat IPC: 0.84911 cumulative IPC: 0.84537 (Simulation time: 0 hr 13 min 18 sec) 
Heartbeat CPU  0 instructions:  332000000 cycles:  340239738 heartbeat IPC: 0.83531 cumulative IPC: 0.84532 (Simulation time: 0 hr 13 min 21 sec) 
Heartbeat CPU  0 instructions:  333000002 cycles:  341437820 heartbeat IPC: 0.83467 cumulative IPC: 0.84528 (Simulation time: 0 hr 13 min 23 sec) 
Heartbeat CPU  0 instructions:  334000003 cycles:  342644872 heartbeat IPC: 0.82847 cumulative IPC: 0.84521 (Simulation time: 0 hr 13 min 26 sec) 
Heartbeat CPU  0 instructions:  335000000 cycles:  343830811 heartbeat IPC: 0.84321 cumulative IPC: 0.84520 (Simulation time: 0 hr 13 min 29 sec) 
Heartbeat CPU  0 instructions:  336000000 cycles:  345059854 heartbeat IPC: 0.81364 cumulative IPC: 0.84506 (Simulation time: 0 hr 13 min 31 sec) 
Heartbeat CPU  0 instructions:  337000001 cycles:  346284244 heartbeat IPC: 0.81673 cumulative IPC: 0.84493 (Simulation time: 0 hr 13 min 34 sec) 
Heartbeat CPU  0 instructions:  338000002 cycles:  347462188 heartbeat IPC: 0.84894 cumulative IPC: 0.84495 (Simulation time: 0 hr 13 min 36 sec) 
Heartbeat CPU  0 instructions:  339000001 cycles:  348631024 heartbeat IPC: 0.85555 cumulative IPC: 0.84499 (Simulation time: 0 hr 13 min 39 sec) 
Heartbeat CPU  0 instructions:  340000000 cycles:  349812811 heartbeat IPC: 0.84618 cumulative IPC: 0.84500 (Simulation time: 0 hr 13 min 41 sec) 
Heartbeat CPU  0 instructions:  341000001 cycles:  350981302 heartbeat IPC: 0.85581 cumulative IPC: 0.84504 (Simulation time: 0 hr 13 min 44 sec) 
Heartbeat CPU  0 instructions:  342000003 cycles:  352148102 heartbeat IPC: 0.85705 cumulative IPC: 0.84509 (Simulation time: 0 hr 13 min 47 sec) 
Heartbeat CPU  0 instructions:  343000002 cycles:  353319444 heartbeat IPC: 0.85372 cumulative IPC: 0.84513 (Simulation time: 0 hr 13 min 49 sec) 
Heartbeat CPU  0 instructions:  344000000 cycles:  354521644 heartbeat IPC: 0.83181 cumulative IPC: 0.84507 (Simulation time: 0 hr 13 min 52 sec) 
Heartbeat CPU  0 instructions:  345000001 cycles:  355799864 heartbeat IPC: 0.78234 cumulative IPC: 0.84480 (Simulation time: 0 hr 13 min 54 sec) 
Heartbeat CPU  0 instructions:  346000001 cycles:  357054154 heartbeat IPC: 0.79726 cumulative IPC: 0.84459 (Simulation time: 0 hr 13 min 56 sec) 
Heartbeat CPU  0 instructions:  347000001 cycles:  358279452 heartbeat IPC: 0.81613 cumulative IPC: 0.84447 (Simulation time: 0 hr 13 min 58 sec) 
Heartbeat CPU  0 instructions:  348000000 cycles:  359503747 heartbeat IPC: 0.81680 cumulative IPC: 0.84436 (Simulation time: 0 hr 14 min 0 sec) 
Heartbeat CPU  0 instructions:  349000002 cycles:  360729568 heartbeat IPC: 0.81578 cumulative IPC: 0.84424 (Simulation time: 0 hr 14 min 2 sec) 
Heartbeat CPU  0 instructions:  350000002 cycles:  361954178 heartbeat IPC: 0.81659 cumulative IPC: 0.84412 (Simulation time: 0 hr 14 min 4 sec) 
Heartbeat CPU  0 instructions:  351000001 cycles:  363180565 heartbeat IPC: 0.81540 cumulative IPC: 0.84401 (Simulation time: 0 hr 14 min 6 sec) 
Heartbeat CPU  0 instructions:  352000000 cycles:  364407285 heartbeat IPC: 0.81518 cumulative IPC: 0.84389 (Simulation time: 0 hr 14 min 8 sec) 
Heartbeat CPU  0 instructions:  353000003 cycles:  365631576 heartbeat IPC: 0.81680 cumulative IPC: 0.84378 (Simulation time: 0 hr 14 min 10 sec) 
Heartbeat CPU  0 instructions:  354000000 cycles:  366859554 heartbeat IPC: 0.81434 cumulative IPC: 0.84366 (Simulation time: 0 hr 14 min 12 sec) 
Heartbeat CPU  0 instructions:  355000002 cycles:  368084390 heartbeat IPC: 0.81644 cumulative IPC: 0.84355 (Simulation time: 0 hr 14 min 14 sec) 
Heartbeat CPU  0 instructions:  356000000 cycles:  369308756 heartbeat IPC: 0.81675 cumulative IPC: 0.84344 (Simulation time: 0 hr 14 min 16 sec) 
Heartbeat CPU  0 instructions:  357000003 cycles:  370530835 heartbeat IPC: 0.81828 cumulative IPC: 0.84334 (Simulation time: 0 hr 14 min 18 sec) 
Heartbeat CPU  0 instructions:  358000001 cycles:  371704476 heartbeat IPC: 0.85205 cumulative IPC: 0.84337 (Simulation time: 0 hr 14 min 20 sec) 
Heartbeat CPU  0 instructions:  359000003 cycles:  372743158 heartbeat IPC: 0.96276 cumulative IPC: 0.84377 (Simulation time: 0 hr 14 min 22 sec) 
Heartbeat CPU  0 instructions:  360000000 cycles:  373845229 heartbeat IPC: 0.90738 cumulative IPC: 0.84400 (Simulation time: 0 hr 14 min 24 sec) 
Heartbeat CPU  0 instructions:  361000003 cycles:  375209618 heartbeat IPC: 0.73293 cumulative IPC: 0.84351 (Simulation time: 0 hr 14 min 26 sec) 
Heartbeat CPU  0 instructions:  362000001 cycles:  376814940 heartbeat IPC: 0.62293 cumulative IPC: 0.84237 (Simulation time: 0 hr 14 min 29 sec) 
Heartbeat CPU  0 instructions:  363000000 cycles:  378441323 heartbeat IPC: 0.61486 cumulative IPC: 0.84119 (Simulation time: 0 hr 14 min 31 sec) 
Heartbeat CPU  0 instructions:  364000000 cycles:  380104337 heartbeat IPC: 0.60132 cumulative IPC: 0.83992 (Simulation time: 0 hr 14 min 33 sec) 
Heartbeat CPU  0 instructions:  365000000 cycles:  381799183 heartbeat IPC: 0.59002 cumulative IPC: 0.83858 (Simulation time: 0 hr 14 min 35 sec) 
Heartbeat CPU  0 instructions:  366000003 cycles:  383542672 heartbeat IPC: 0.57356 cumulative IPC: 0.83713 (Simulation time: 0 hr 14 min 38 sec) 
Heartbeat CPU  0 instructions:  367000003 cycles:  385383775 heartbeat IPC: 0.54315 cumulative IPC: 0.83543 (Simulation time: 0 hr 14 min 40 sec) 
Heartbeat CPU  0 instructions:  368000000 cycles:  387187380 heartbeat IPC: 0.55444 cumulative IPC: 0.83386 (Simulation time: 0 hr 14 min 43 sec) 
Heartbeat CPU  0 instructions:  369000002 cycles:  389012601 heartbeat IPC: 0.54788 cumulative IPC: 0.83224 (Simulation time: 0 hr 14 min 45 sec) 
Heartbeat CPU  0 instructions:  370000002 cycles:  390836216 heartbeat IPC: 0.54836 cumulative IPC: 0.83065 (Simulation time: 0 hr 14 min 47 sec) 
Heartbeat CPU  0 instructions:  371000000 cycles:  392672205 heartbeat IPC: 0.54466 cumulative IPC: 0.82904 (Simulation time: 0 hr 14 min 50 sec) 
Heartbeat CPU  0 instructions:  372000000 cycles:  394512398 heartbeat IPC: 0.54342 cumulative IPC: 0.82744 (Simulation time: 0 hr 14 min 52 sec) 
Heartbeat CPU  0 instructions:  373000003 cycles:  396352440 heartbeat IPC: 0.54347 cumulative IPC: 0.82586 (Simulation time: 0 hr 14 min 54 sec) 
Heartbeat CPU  0 instructions:  374000003 cycles:  398198369 heartbeat IPC: 0.54173 cumulative IPC: 0.82428 (Simulation time: 0 hr 14 min 57 sec) 
Heartbeat CPU  0 instructions:  375000000 cycles:  400022253 heartbeat IPC: 0.54828 cumulative IPC: 0.82278 (Simulation time: 0 hr 14 min 59 sec) 
Heartbeat CPU  0 instructions:  376000000 cycles:  401844450 heartbeat IPC: 0.54879 cumulative IPC: 0.82129 (Simulation time: 0 hr 15 min 2 sec) 
Heartbeat CPU  0 instructions:  377000001 cycles:  403395778 heartbeat IPC: 0.64461 cumulative IPC: 0.82048 (Simulation time: 0 hr 15 min 4 sec) 
Heartbeat CPU  0 instructions:  378000001 cycles:  404590984 heartbeat IPC: 0.83668 cumulative IPC: 0.82054 (Simulation time: 0 hr 15 min 7 sec) 
Heartbeat CPU  0 instructions:  379000000 cycles:  405791421 heartbeat IPC: 0.83303 cumulative IPC: 0.82058 (Simulation time: 0 hr 15 min 9 sec) 
Heartbeat CPU  0 instructions:  380000000 cycles:  407022947 heartbeat IPC: 0.81200 cumulative IPC: 0.82055 (Simulation time: 0 hr 15 min 12 sec) 
Heartbeat CPU  0 instructions:  381000003 cycles:  408235611 heartbeat IPC: 0.82463 cumulative IPC: 0.82057 (Simulation time: 0 hr 15 min 15 sec) 
Heartbeat CPU  0 instructions:  382000000 cycles:  409465066 heartbeat IPC: 0.81337 cumulative IPC: 0.82054 (Simulation time: 0 hr 15 min 17 sec) 
Heartbeat CPU  0 instructions:  383000000 cycles:  410692079 heartbeat IPC: 0.81499 cumulative IPC: 0.82052 (Simulation time: 0 hr 15 min 20 sec) 
Heartbeat CPU  0 instructions:  384000000 cycles:  411894471 heartbeat IPC: 0.83168 cumulative IPC: 0.82056 (Simulation time: 0 hr 15 min 22 sec) 
Heartbeat CPU  0 instructions:  385000000 cycles:  413118816 heartbeat IPC: 0.81676 cumulative IPC: 0.82055 (Simulation time: 0 hr 15 min 25 sec) 
Heartbeat CPU  0 instructions:  386000000 cycles:  414312796 heartbeat IPC: 0.83753 cumulative IPC: 0.82060 (Simulation time: 0 hr 15 min 28 sec) 
Heartbeat CPU  0 instructions:  387000003 cycles:  415505184 heartbeat IPC: 0.83866 cumulative IPC: 0.82067 (Simulation time: 0 hr 15 min 30 sec) 
Heartbeat CPU  0 instructions:  388000000 cycles:  416698870 heartbeat IPC: 0.83774 cumulative IPC: 0.82072 (Simulation time: 0 hr 15 min 33 sec) 
Heartbeat CPU  0 instructions:  389000000 cycles:  417888519 heartbeat IPC: 0.84058 cumulative IPC: 0.82079 (Simulation time: 0 hr 15 min 35 sec) 
Heartbeat CPU  0 instructions:  390000000 cycles:  419076912 heartbeat IPC: 0.84147 cumulative IPC: 0.82086 (Simulation time: 0 hr 15 min 38 sec) 
Heartbeat CPU  0 instructions:  391000001 cycles:  420239962 heartbeat IPC: 0.85981 cumulative IPC: 0.82099 (Simulation time: 0 hr 15 min 40 sec) 
Heartbeat CPU  0 instructions:  392000000 cycles:  421405696 heartbeat IPC: 0.85783 cumulative IPC: 0.82111 (Simulation time: 0 hr 15 min 43 sec) 
Heartbeat CPU  0 instructions:  393000000 cycles:  422578652 heartbeat IPC: 0.85255 cumulative IPC: 0.82121 (Simulation time: 0 hr 15 min 46 sec) 
Heartbeat CPU  0 instructions:  394000000 cycles:  423758199 heartbeat IPC: 0.84778 cumulative IPC: 0.82130 (Simulation time: 0 hr 15 min 48 sec) 
Heartbeat CPU  0 instructions:  395000000 cycles:  424937669 heartbeat IPC: 0.84784 cumulative IPC: 0.82139 (Simulation time: 0 hr 15 min 51 sec) 
Heartbeat CPU  0 instructions:  396000000 cycles:  426103997 heartbeat IPC: 0.85739 cumulative IPC: 0.82150 (Simulation time: 0 hr 15 min 53 sec) 
Heartbeat CPU  0 instructions:  397000001 cycles:  427286839 heartbeat IPC: 0.84542 cumulative IPC: 0.82158 (Simulation time: 0 hr 15 min 56 sec) 
Heartbeat CPU  0 instructions:  398000000 cycles:  428453723 heartbeat IPC: 0.85698 cumulative IPC: 0.82170 (Simulation time: 0 hr 15 min 58 sec) 
Heartbeat CPU  0 instructions:  399000000 cycles:  429626189 heartbeat IPC: 0.85290 cumulative IPC: 0.82180 (Simulation time: 0 hr 16 min 1 sec) 
Heartbeat CPU  0 instructions:  400000000 cycles:  430789890 heartbeat IPC: 0.85933 cumulative IPC: 0.82192 (Simulation time: 0 hr 16 min 3 sec) 
Heartbeat CPU  0 instructions:  401000003 cycles:  431955231 heartbeat IPC: 0.85812 cumulative IPC: 0.82203 (Simulation time: 0 hr 16 min 6 sec) 
Heartbeat CPU  0 instructions:  402000003 cycles:  433126668 heartbeat IPC: 0.85365 cumulative IPC: 0.82213 (Simulation time: 0 hr 16 min 9 sec) 
Heartbeat CPU  0 instructions:  403000000 cycles:  434306768 heartbeat IPC: 0.84738 cumulative IPC: 0.82221 (Simulation time: 0 hr 16 min 11 sec) 
Heartbeat CPU  0 instructions:  404000000 cycles:  435474951 heartbeat IPC: 0.85603 cumulative IPC: 0.82232 (Simulation time: 0 hr 16 min 14 sec) 
Heartbeat CPU  0 instructions:  405000000 cycles:  436644039 heartbeat IPC: 0.85537 cumulative IPC: 0.82242 (Simulation time: 0 hr 16 min 16 sec) 
Heartbeat CPU  0 instructions:  406000000 cycles:  437815428 heartbeat IPC: 0.85369 cumulative IPC: 0.82252 (Simulation time: 0 hr 16 min 19 sec) 
Heartbeat CPU  0 instructions:  407000002 cycles:  438989522 heartbeat IPC: 0.85172 cumulative IPC: 0.82261 (Simulation time: 0 hr 16 min 21 sec) 
Heartbeat CPU  0 instructions:  408000000 cycles:  440158400 heartbeat IPC: 0.85552 cumulative IPC: 0.82272 (Simulation time: 0 hr 16 min 24 sec) 
Heartbeat CPU  0 instructions:  409000002 cycles:  441340843 heartbeat IPC: 0.84571 cumulative IPC: 0.82279 (Simulation time: 0 hr 16 min 27 sec) 
Heartbeat CPU  0 instructions:  410000001 cycles:  442508551 heartbeat IPC: 0.85638 cumulative IPC: 0.82289 (Simulation time: 0 hr 16 min 29 sec) 
Heartbeat CPU  0 instructions:  411000000 cycles:  443675769 heartbeat IPC: 0.85674 cumulative IPC: 0.82300 (Simulation time: 0 hr 16 min 32 sec) 
Heartbeat CPU  0 instructions:  412000000 cycles:  444868845 heartbeat IPC: 0.83817 cumulative IPC: 0.82305 (Simulation time: 0 hr 16 min 34 sec) 
Heartbeat CPU  0 instructions:  413000001 cycles:  446031241 heartbeat IPC: 0.86029 cumulative IPC: 0.82316 (Simulation time: 0 hr 16 min 37 sec) 
Heartbeat CPU  0 instructions:  414000000 cycles:  447192934 heartbeat IPC: 0.86081 cumulative IPC: 0.82327 (Simulation time: 0 hr 16 min 39 sec) 
Heartbeat CPU  0 instructions:  415000002 cycles:  448364934 heartbeat IPC: 0.85324 cumulative IPC: 0.82337 (Simulation time: 0 hr 16 min 42 sec) 
Heartbeat CPU  0 instructions:  416000000 cycles:  449543016 heartbeat IPC: 0.84884 cumulative IPC: 0.82344 (Simulation time: 0 hr 16 min 44 sec) 
Heartbeat CPU  0 instructions:  417000000 cycles:  450700944 heartbeat IPC: 0.86361 cumulative IPC: 0.82357 (Simulation time: 0 hr 16 min 47 sec) 
Heartbeat CPU  0 instructions:  418000002 cycles:  451871422 heartbeat IPC: 0.85435 cumulative IPC: 0.82366 (Simulation time: 0 hr 16 min 50 sec) 
Heartbeat CPU  0 instructions:  419000002 cycles:  453037531 heartbeat IPC: 0.85755 cumulative IPC: 0.82376 (Simulation time: 0 hr 16 min 52 sec) 
Heartbeat CPU  0 instructions:  420000000 cycles:  454223910 heartbeat IPC: 0.84290 cumulative IPC: 0.82382 (Simulation time: 0 hr 16 min 55 sec) 
Heartbeat CPU  0 instructions:  421000001 cycles:  455375975 heartbeat IPC: 0.86801 cumulative IPC: 0.82395 (Simulation time: 0 hr 16 min 57 sec) 
Heartbeat CPU  0 instructions:  422000001 cycles:  456529976 heartbeat IPC: 0.86655 cumulative IPC: 0.82408 (Simulation time: 0 hr 17 min 0 sec) 
Heartbeat CPU  0 instructions:  423000000 cycles:  457714610 heartbeat IPC: 0.84414 cumulative IPC: 0.82414 (Simulation time: 0 hr 17 min 2 sec) 
Heartbeat CPU  0 instructions:  424000000 cycles:  458878734 heartbeat IPC: 0.85902 cumulative IPC: 0.82424 (Simulation time: 0 hr 17 min 5 sec) 
Heartbeat CPU  0 instructions:  425000002 cycles:  460042534 heartbeat IPC: 0.85926 cumulative IPC: 0.82434 (Simulation time: 0 hr 17 min 7 sec) 
Heartbeat CPU  0 instructions:  426000003 cycles:  461213140 heartbeat IPC: 0.85426 cumulative IPC: 0.82443 (Simulation time: 0 hr 17 min 10 sec) 
Heartbeat CPU  0 instructions:  427000002 cycles:  462377455 heartbeat IPC: 0.85887 cumulative IPC: 0.82453 (Simulation time: 0 hr 17 min 12 sec) 
Heartbeat CPU  0 instructions:  428000000 cycles:  463546330 heartbeat IPC: 0.85552 cumulative IPC: 0.82462 (Simulation time: 0 hr 17 min 15 sec) 
Heartbeat CPU  0 instructions:  429000000 cycles:  464714216 heartbeat IPC: 0.85625 cumulative IPC: 0.82472 (Simulation time: 0 hr 17 min 18 sec) 
Heartbeat CPU  0 instructions:  430000002 cycles:  465872670 heartbeat IPC: 0.86322 cumulative IPC: 0.82483 (Simulation time: 0 hr 17 min 20 sec) 
Heartbeat CPU  0 instructions:  431000001 cycles:  467049701 heartbeat IPC: 0.84959 cumulative IPC: 0.82490 (Simulation time: 0 hr 17 min 23 sec) 
Heartbeat CPU  0 instructions:  432000000 cycles:  468214604 heartbeat IPC: 0.85844 cumulative IPC: 0.82500 (Simulation time: 0 hr 17 min 25 sec) 
Heartbeat CPU  0 instructions:  433000002 cycles:  469373050 heartbeat IPC: 0.86323 cumulative IPC: 0.82511 (Simulation time: 0 hr 17 min 28 sec) 
Heartbeat CPU  0 instructions:  434000003 cycles:  470539872 heartbeat IPC: 0.85703 cumulative IPC: 0.82520 (Simulation time: 0 hr 17 min 30 sec) 
Heartbeat CPU  0 instructions:  435000001 cycles:  471706521 heartbeat IPC: 0.85715 cumulative IPC: 0.82529 (Simulation time: 0 hr 17 min 33 sec) 
Heartbeat CPU  0 instructions:  436000000 cycles:  472870184 heartbeat IPC: 0.85935 cumulative IPC: 0.82539 (Simulation time: 0 hr 17 min 35 sec) 
Heartbeat CPU  0 instructions:  437000001 cycles:  474048717 heartbeat IPC: 0.84851 cumulative IPC: 0.82546 (Simulation time: 0 hr 17 min 38 sec) 
Heartbeat CPU  0 instructions:  438000001 cycles:  475226356 heartbeat IPC: 0.84916 cumulative IPC: 0.82552 (Simulation time: 0 hr 17 min 41 sec) 
Heartbeat CPU  0 instructions:  439000001 cycles:  476385899 heartbeat IPC: 0.86241 cumulative IPC: 0.82563 (Simulation time: 0 hr 17 min 43 sec) 
Heartbeat CPU  0 instructions:  440000000 cycles:  477560406 heartbeat IPC: 0.85142 cumulative IPC: 0.82570 (Simulation time: 0 hr 17 min 46 sec) 
Heartbeat CPU  0 instructions:  441000000 cycles:  478724468 heartbeat IPC: 0.85906 cumulative IPC: 0.82579 (Simulation time: 0 hr 17 min 48 sec) 
Heartbeat CPU  0 instructions:  442000001 cycles:  479880767 heartbeat IPC: 0.86483 cumulative IPC: 0.82590 (Simulation time: 0 hr 17 min 51 sec) 
Heartbeat CPU  0 instructions:  443000001 cycles:  481061766 heartbeat IPC: 0.84674 cumulative IPC: 0.82596 (Simulation time: 0 hr 17 min 53 sec) 
Heartbeat CPU  0 instructions:  444000000 cycles:  482231688 heartbeat IPC: 0.85476 cumulative IPC: 0.82604 (Simulation time: 0 hr 17 min 56 sec) 
Heartbeat CPU  0 instructions:  445000000 cycles:  483392534 heartbeat IPC: 0.86144 cumulative IPC: 0.82614 (Simulation time: 0 hr 17 min 58 sec) 
Heartbeat CPU  0 instructions:  446000002 cycles:  484560701 heartbeat IPC: 0.85604 cumulative IPC: 0.82623 (Simulation time: 0 hr 18 min 1 sec) 
Heartbeat CPU  0 instructions:  447000000 cycles:  485725775 heartbeat IPC: 0.85831 cumulative IPC: 0.82631 (Simulation time: 0 hr 18 min 4 sec) 
Heartbeat CPU  0 instructions:  448000000 cycles:  486899796 heartbeat IPC: 0.85177 cumulative IPC: 0.82639 (Simulation time: 0 hr 18 min 6 sec) 
Heartbeat CPU  0 instructions:  449000001 cycles:  488073399 heartbeat IPC: 0.85208 cumulative IPC: 0.82646 (Simulation time: 0 hr 18 min 9 sec) 
Heartbeat CPU  0 instructions:  450000001 cycles:  489231250 heartbeat IPC: 0.86367 cumulative IPC: 0.82656 (Simulation time: 0 hr 18 min 11 sec) 
Heartbeat CPU  0 instructions:  451000002 cycles:  490393784 heartbeat IPC: 0.86019 cumulative IPC: 0.82665 (Simulation time: 0 hr 18 min 14 sec) 
Heartbeat CPU  0 instructions:  452000000 cycles:  491565109 heartbeat IPC: 0.85373 cumulative IPC: 0.82673 (Simulation time: 0 hr 18 min 16 sec) 
Heartbeat CPU  0 instructions:  453000001 cycles:  492727695 heartbeat IPC: 0.86015 cumulative IPC: 0.82682 (Simulation time: 0 hr 18 min 19 sec) 
Heartbeat CPU  0 instructions:  454000000 cycles:  493888842 heartbeat IPC: 0.86122 cumulative IPC: 0.82691 (Simulation time: 0 hr 18 min 21 sec) 
Heartbeat CPU  0 instructions:  455000003 cycles:  495053199 heartbeat IPC: 0.85885 cumulative IPC: 0.82700 (Simulation time: 0 hr 18 min 24 sec) 
Heartbeat CPU  0 instructions:  456000000 cycles:  496216296 heartbeat IPC: 0.85977 cumulative IPC: 0.82709 (Simulation time: 0 hr 18 min 27 sec) 
Heartbeat CPU  0 instructions:  457000000 cycles:  497391132 heartbeat IPC: 0.85118 cumulative IPC: 0.82715 (Simulation time: 0 hr 18 min 29 sec) 
Heartbeat CPU  0 instructions:  458000003 cycles:  498587511 heartbeat IPC: 0.83586 cumulative IPC: 0.82717 (Simulation time: 0 hr 18 min 32 sec) 
Heartbeat CPU  0 instructions:  459000002 cycles:  499759122 heartbeat IPC: 0.85352 cumulative IPC: 0.82725 (Simulation time: 0 hr 18 min 34 sec) 
Heartbeat CPU  0 instructions:  460000000 cycles:  500939238 heartbeat IPC: 0.84737 cumulative IPC: 0.82730 (Simulation time: 0 hr 18 min 37 sec) 
Heartbeat CPU  0 instructions:  461000000 cycles:  502113863 heartbeat IPC: 0.85134 cumulative IPC: 0.82737 (Simulation time: 0 hr 18 min 39 sec) 
Heartbeat CPU  0 instructions:  462000000 cycles:  503285135 heartbeat IPC: 0.85377 cumulative IPC: 0.82744 (Simulation time: 0 hr 18 min 42 sec) 
Heartbeat CPU  0 instructions:  463000000 cycles:  504446644 heartbeat IPC: 0.86095 cumulative IPC: 0.82752 (Simulation time: 0 hr 18 min 45 sec) 
Heartbeat CPU  0 instructions:  464000000 cycles:  505610636 heartbeat IPC: 0.85911 cumulative IPC: 0.82761 (Simulation time: 0 hr 18 min 47 sec) 
Heartbeat CPU  0 instructions:  465000001 cycles:  506767673 heartbeat IPC: 0.86428 cumulative IPC: 0.82770 (Simulation time: 0 hr 18 min 50 sec) 
Heartbeat CPU  0 instructions:  466000003 cycles:  507943388 heartbeat IPC: 0.85055 cumulative IPC: 0.82777 (Simulation time: 0 hr 18 min 52 sec) 
Heartbeat CPU  0 instructions:  467000002 cycles:  509111082 heartbeat IPC: 0.85639 cumulative IPC: 0.82784 (Simulation time: 0 hr 18 min 55 sec) 
Heartbeat CPU  0 instructions:  468000000 cycles:  510356516 heartbeat IPC: 0.80293 cumulative IPC: 0.82777 (Simulation time: 0 hr 18 min 57 sec) 
Heartbeat CPU  0 instructions:  469000000 cycles:  511558488 heartbeat IPC: 0.83197 cumulative IPC: 0.82778 (Simulation time: 0 hr 19 min 0 sec) 
Heartbeat CPU  0 instructions:  470000000 cycles:  512783973 heartbeat IPC: 0.81600 cumulative IPC: 0.82775 (Simulation time: 0 hr 19 min 3 sec) 
Heartbeat CPU  0 instructions:  471000003 cycles:  514026350 heartbeat IPC: 0.80491 cumulative IPC: 0.82769 (Simulation time: 0 hr 19 min 5 sec) 
Heartbeat CPU  0 instructions:  472000000 cycles:  515206066 heartbeat IPC: 0.84766 cumulative IPC: 0.82774 (Simulation time: 0 hr 19 min 8 sec) 
Heartbeat CPU  0 instructions:  473000000 cycles:  516362976 heartbeat IPC: 0.86437 cumulative IPC: 0.82783 (Simulation time: 0 hr 19 min 10 sec) 
Heartbeat CPU  0 instructions:  474000001 cycles:  517549208 heartbeat IPC: 0.84301 cumulative IPC: 0.82787 (Simulation time: 0 hr 19 min 13 sec) 
Heartbeat CPU  0 instructions:  475000000 cycles:  518710668 heartbeat IPC: 0.86098 cumulative IPC: 0.82796 (Simulation time: 0 hr 19 min 15 sec) 
Heartbeat CPU  0 instructions:  476000000 cycles:  519876786 heartbeat IPC: 0.85755 cumulative IPC: 0.82803 (Simulation time: 0 hr 19 min 18 sec) 
Heartbeat CPU  0 instructions:  477000002 cycles:  521045687 heartbeat IPC: 0.85551 cumulative IPC: 0.82810 (Simulation time: 0 hr 19 min 20 sec) 
Heartbeat CPU  0 instructions:  478000002 cycles:  522266062 heartbeat IPC: 0.81942 cumulative IPC: 0.82808 (Simulation time: 0 hr 19 min 23 sec) 
Heartbeat CPU  0 instructions:  479000001 cycles:  523491388 heartbeat IPC: 0.81611 cumulative IPC: 0.82805 (Simulation time: 0 hr 19 min 26 sec) 
Heartbeat CPU  0 instructions:  480000000 cycles:  524721358 heartbeat IPC: 0.81303 cumulative IPC: 0.82801 (Simulation time: 0 hr 19 min 28 sec) 
Heartbeat CPU  0 instructions:  481000002 cycles:  525917683 heartbeat IPC: 0.83589 cumulative IPC: 0.82803 (Simulation time: 0 hr 19 min 31 sec) 
Heartbeat CPU  0 instructions:  482000003 cycles:  527089564 heartbeat IPC: 0.85333 cumulative IPC: 0.82809 (Simulation time: 0 hr 19 min 33 sec) 
Heartbeat CPU  0 instructions:  483000002 cycles:  528258920 heartbeat IPC: 0.85517 cumulative IPC: 0.82816 (Simulation time: 0 hr 19 min 36 sec) 
Heartbeat CPU  0 instructions:  484000000 cycles:  529422984 heartbeat IPC: 0.85906 cumulative IPC: 0.82824 (Simulation time: 0 hr 19 min 38 sec) 
Heartbeat CPU  0 instructions:  485000003 cycles:  530601424 heartbeat IPC: 0.84858 cumulative IPC: 0.82829 (Simulation time: 0 hr 19 min 41 sec) 
Heartbeat CPU  0 instructions:  486000001 cycles:  531773179 heartbeat IPC: 0.85342 cumulative IPC: 0.82835 (Simulation time: 0 hr 19 min 44 sec) 
Heartbeat CPU  0 instructions:  487000002 cycles:  532944155 heartbeat IPC: 0.85399 cumulative IPC: 0.82842 (Simulation time: 0 hr 19 min 46 sec) 
Heartbeat CPU  0 instructions:  488000000 cycles:  534105005 heartbeat IPC: 0.86144 cumulative IPC: 0.82850 (Simulation time: 0 hr 19 min 49 sec) 
Heartbeat CPU  0 instructions:  489000003 cycles:  535283617 heartbeat IPC: 0.84846 cumulative IPC: 0.82855 (Simulation time: 0 hr 19 min 51 sec) 
Heartbeat CPU  0 instructions:  490000001 cycles:  536458636 heartbeat IPC: 0.85105 cumulative IPC: 0.82861 (Simulation time: 0 hr 19 min 54 sec) 
Heartbeat CPU  0 instructions:  491000000 cycles:  537631087 heartbeat IPC: 0.85291 cumulative IPC: 0.82867 (Simulation time: 0 hr 19 min 56 sec) 
Heartbeat CPU  0 instructions:  492000000 cycles:  538777572 heartbeat IPC: 0.87223 cumulative IPC: 0.82877 (Simulation time: 0 hr 19 min 59 sec) 
Heartbeat CPU  0 instructions:  493000001 cycles:  539939372 heartbeat IPC: 0.86073 cumulative IPC: 0.82885 (Simulation time: 0 hr 20 min 1 sec) 
Heartbeat CPU  0 instructions:  494000000 cycles:  541115586 heartbeat IPC: 0.85018 cumulative IPC: 0.82890 (Simulation time: 0 hr 20 min 4 sec) 
Heartbeat CPU  0 instructions:  495000003 cycles:  542276716 heartbeat IPC: 0.86123 cumulative IPC: 0.82898 (Simulation time: 0 hr 20 min 7 sec) 
Heartbeat CPU  0 instructions:  496000000 cycles:  543436560 heartbeat IPC: 0.86218 cumulative IPC: 0.82906 (Simulation time: 0 hr 20 min 9 sec) 
Heartbeat CPU  0 instructions:  497000001 cycles:  544628698 heartbeat IPC: 0.83883 cumulative IPC: 0.82909 (Simulation time: 0 hr 20 min 12 sec) 
Heartbeat CPU  0 instructions:  498000003 cycles:  545798482 heartbeat IPC: 0.85486 cumulative IPC: 0.82915 (Simulation time: 0 hr 20 min 14 sec) 
Heartbeat CPU  0 instructions:  499000001 cycles:  546965309 heartbeat IPC: 0.85702 cumulative IPC: 0.82922 (Simulation time: 0 hr 20 min 17 sec) 
Heartbeat CPU  0 instructions:  500000000 cycles:  548126608 heartbeat IPC: 0.86110 cumulative IPC: 0.82929 (Simulation time: 0 hr 20 min 19 sec) 
Heartbeat CPU  0 instructions:  501000003 cycles:  549294775 heartbeat IPC: 0.85604 cumulative IPC: 0.82936 (Simulation time: 0 hr 20 min 22 sec) 
Heartbeat CPU  0 instructions:  502000001 cycles:  550467938 heartbeat IPC: 0.85239 cumulative IPC: 0.82942 (Simulation time: 0 hr 20 min 25 sec) 
Heartbeat CPU  0 instructions:  503000000 cycles:  551628201 heartbeat IPC: 0.86187 cumulative IPC: 0.82949 (Simulation time: 0 hr 20 min 27 sec) 
Heartbeat CPU  0 instructions:  504000000 cycles:  552789964 heartbeat IPC: 0.86076 cumulative IPC: 0.82957 (Simulation time: 0 hr 20 min 30 sec) 
Heartbeat CPU  0 instructions:  505000000 cycles:  553958305 heartbeat IPC: 0.85591 cumulative IPC: 0.82963 (Simulation time: 0 hr 20 min 32 sec) 
Heartbeat CPU  0 instructions:  506000001 cycles:  555120328 heartbeat IPC: 0.86057 cumulative IPC: 0.82970 (Simulation time: 0 hr 20 min 35 sec) 
Heartbeat CPU  0 instructions:  507000000 cycles:  556293920 heartbeat IPC: 0.85208 cumulative IPC: 0.82976 (Simulation time: 0 hr 20 min 37 sec) 
Heartbeat CPU  0 instructions:  508000000 cycles:  557458715 heartbeat IPC: 0.85852 cumulative IPC: 0.82983 (Simulation time: 0 hr 20 min 40 sec) 
Heartbeat CPU  0 instructions:  509000000 cycles:  558622459 heartbeat IPC: 0.85930 cumulative IPC: 0.82990 (Simulation time: 0 hr 20 min 42 sec) 
Heartbeat CPU  0 instructions:  510000001 cycles:  559791397 heartbeat IPC: 0.85548 cumulative IPC: 0.82996 (Simulation time: 0 hr 20 min 45 sec) 
Heartbeat CPU  0 instructions:  511000001 cycles:  560965158 heartbeat IPC: 0.85196 cumulative IPC: 0.83001 (Simulation time: 0 hr 20 min 47 sec) 
Heartbeat CPU  0 instructions:  512000000 cycles:  562133182 heartbeat IPC: 0.85615 cumulative IPC: 0.83007 (Simulation time: 0 hr 20 min 50 sec) 
Heartbeat CPU  0 instructions:  513000003 cycles:  563296247 heartbeat IPC: 0.85980 cumulative IPC: 0.83014 (Simulation time: 0 hr 20 min 53 sec) 
Heartbeat CPU  0 instructions:  514000000 cycles:  564471357 heartbeat IPC: 0.85098 cumulative IPC: 0.83019 (Simulation time: 0 hr 20 min 55 sec) 
Heartbeat CPU  0 instructions:  515000001 cycles:  565648591 heartbeat IPC: 0.84945 cumulative IPC: 0.83023 (Simulation time: 0 hr 20 min 58 sec) 
Heartbeat CPU  0 instructions:  516000000 cycles:  566813652 heartbeat IPC: 0.85832 cumulative IPC: 0.83030 (Simulation time: 0 hr 21 min 0 sec) 
Heartbeat CPU  0 instructions:  517000002 cycles:  567988463 heartbeat IPC: 0.85120 cumulative IPC: 0.83035 (Simulation time: 0 hr 21 min 3 sec) 
Heartbeat CPU  0 instructions:  518000000 cycles:  569164585 heartbeat IPC: 0.85025 cumulative IPC: 0.83039 (Simulation time: 0 hr 21 min 5 sec) 
Heartbeat CPU  0 instructions:  519000003 cycles:  570334717 heartbeat IPC: 0.85461 cumulative IPC: 0.83045 (Simulation time: 0 hr 21 min 8 sec) 
Heartbeat CPU  0 instructions:  520000000 cycles:  571522235 heartbeat IPC: 0.84209 cumulative IPC: 0.83048 (Simulation time: 0 hr 21 min 11 sec) 
Heartbeat CPU  0 instructions:  521000000 cycles:  572683930 heartbeat IPC: 0.86081 cumulative IPC: 0.83055 (Simulation time: 0 hr 21 min 13 sec) 
Heartbeat CPU  0 instructions:  522000000 cycles:  573843922 heartbeat IPC: 0.86207 cumulative IPC: 0.83062 (Simulation time: 0 hr 21 min 16 sec) 
Heartbeat CPU  0 instructions:  523000002 cycles:  575010769 heartbeat IPC: 0.85701 cumulative IPC: 0.83068 (Simulation time: 0 hr 21 min 18 sec) 
Heartbeat CPU  0 instructions:  524000000 cycles:  576180238 heartbeat IPC: 0.85509 cumulative IPC: 0.83074 (Simulation time: 0 hr 21 min 21 sec) 
Heartbeat CPU  0 instructions:  525000000 cycles:  577349744 heartbeat IPC: 0.85506 cumulative IPC: 0.83079 (Simulation time: 0 hr 21 min 23 sec) 
Heartbeat CPU  0 instructions:  526000001 cycles:  578531726 heartbeat IPC: 0.84604 cumulative IPC: 0.83083 (Simulation time: 0 hr 21 min 26 sec) 
Heartbeat CPU  0 instructions:  527000000 cycles:  579699093 heartbeat IPC: 0.85663 cumulative IPC: 0.83088 (Simulation time: 0 hr 21 min 28 sec) 
Heartbeat CPU  0 instructions:  528000000 cycles:  580879920 heartbeat IPC: 0.84686 cumulative IPC: 0.83092 (Simulation time: 0 hr 21 min 31 sec) 
[...]
Core_0_L1I_acc_level_4 0
Core_0_L1I_acc_level_5 0
Core_0_L1I_acc_level_6 0
Core_0_L1I_acc_level_7 0
Core_0_L1I_acc_level_8 0
Core_0_L1I_acc_level_9 0

Core_0_L2C_total_access 19000352
Core_0_L2C_total_hit 9727063
Core_0_L2C_total_miss 9273289
Core_0_L2C_loads 9903436
Core_0_L2C_load_hit 9241168
Core_0_L2C_load_miss 662268
Core_0_L2C_RFOs 248906
Core_0_L2C_RFO_hit 28680
Core_0_L2C_RFO_miss 220226
Core_0_L2C_prefetches 8389036
Core_0_L2C_prefetch_hit 166
Core_0_L2C_prefetch_miss 8388870
Core_0_L2C_writebacks 458974
Core_0_L2C_writeback_hit 457049
Core_0_L2C_writeback_miss 1925
Core_0_L2C_prefetch_requested 11838879
Core_0_L2C_prefetch_dropped 0
Core_0_L2C_prefetch_issued 11838879
Core_0_L2C_prefetch_filled 10135572
Core_0_L2C_prefetch_useful 10132366
Core_0_L2C_prefetch_useless 3101
Core_0_L2C_prefetch_late 194306
Core_0_L2C_average_miss_latency 1018.65561

Core_0_L2C_rq_access 10159079
Core_0_L2C_rq_forward 0
Core_0_L2C_rq_merged 0
Core_0_L2C_rq_to_cache 10152342
Core_0_L2C_rq_full 0

Core_0_L2C_wq_access 458974
Core_0_L2C_wq_forward 6742
Core_0_L2C_wq_merged 0
Core_0_L2C_wq_to_cache 458974
Core_0_L2C_wq_full 0

Core_0_L2C_pq_access 11838879
Core_0_L2C_pq_forward 0
Core_0_L2C_pq_merged 18286
Core_0_L2C_pq_to_cache 11820588
Core_0_L2C_pq_full 0

Core_0_L2C_acc_epochs 636477
Core_0_L2C_acc_level_0 510
Core_0_L2C_acc_level_1 6689
Core_0_L2C_acc_level_2 16991
Core_0_L2C_acc_level_3 22874
Core_0_L2C_acc_level_4 27368
Core_0_L2C_acc_level_5 33923
Core_0_L2C_acc_level_6 30405
Core_0_L2C_acc_level_7 29080
Core_0_L2C_acc_level_8 34336
Core_0_L2C_acc_level_9 434301

Core_0_LLC_total_access 10042307
Core_0_LLC_total_hit 476029
Core_0_LLC_total_miss 9566278
Core_0_LLC_loads 468077
Core_0_LLC_load_hit 6708
Core_0_LLC_load_miss 461369
Core_0_LLC_RFOs 220226
Core_0_LLC_RFO_hit 0
Core_0_LLC_RFO_miss 220226
Core_0_LLC_prefetches 8959930
Core_0_LLC_prefetch_hit 459624
Core_0_LLC_prefetch_miss 8500306
Core_0_LLC_writebacks 394074
Core_0_LLC_writeback_hit 9697
Core_0_LLC_writeback_miss 384377
Core_0_LLC_prefetch_requested 0
Core_0_LLC_prefetch_dropped 0
Core_0_LLC_prefetch_issued 0
Core_0_LLC_prefetch_filled 10227612
Core_0_LLC_prefetch_useful 5853
Core_0_LLC_prefetch_useless 10195707
Core_0_LLC_prefetch_late 4
Core_0_LLC_average_miss_latency 1055.97242

Core_0_LLC_rq_access 688303
Core_0_LLC_rq_forward 0
Core_0_LLC_rq_merged 0
Core_0_LLC_rq_to_cache 688303
Core_0_LLC_rq_full 0

Core_0_LLC_wq_access 394074
Core_0_LLC_wq_forward 1
Core_0_LLC_wq_merged 0
Core_0_LLC_wq_to_cache 394074
Core_0_LLC_wq_full 0

Core_0_LLC_pq_access 11791820
Core_0_LLC_pq_forward 0
Core_0_LLC_pq_merged 28143
Core_0_LLC_pq_to_cache 11763676
Core_0_LLC_pq_full 0

Core_0_LLC_acc_epochs 650181
Core_0_LLC_acc_level_0 648632
Core_0_LLC_acc_level_1 656
Core_0_LLC_acc_level_2 467
Core_0_LLC_acc_level_3 98
Core_0_LLC_acc_level_4 5
Core_0_LLC_acc_level_5 263
Core_0_LLC_acc_level_6 44
Core_0_LLC_acc_level_7 14
Core_0_LLC_acc_level_8 2
Core_0_LLC_acc_level_9 0

Core_0_major_page_fault 0
Core_0_minor_page_fault 104619

[MLOP] History of tracked zone:
IIIIIIIIIIIIIIIIIIIIIIIIIIIIIIIIIIIIIIIIIIIIIIIIIIIIIIIIIIIIIIII
A2IIIIIIIIIIIIIIIIIIIIIIIIIIIIIIIIIIIIIIIIIIIIIIIIIIIIIIIIIIIIII
AA2222222222222222IIIIIIIIIIIIIIIIIIIIIIIIIIIIIIIIIIIIIIIIIIIIII
AAA2222222222222222IIIIIIIIIIIIIIIIIIIIIIIIIIIIIIIIIIIIIIIIIIIII
AAAA2222222222222222IIIIIIIIIIIIIIIIIIIIIIIIIIIIIIIIIIIIIIIIIIII
AAAAA2222222222222222IIIIIIIIIIIIIIIIIIIIIIIIIIIIIIIIIIIIIIIIIII
AAAAAA2222222222222222IIIIIIIIIIIIIIIIIIIIIIIIIIIIIIIIIIIIIIIIII
AAAAAAA2222222222222222IIIIIIIIIIIIIIIIIIIIIIIIIIIIIIIIIIIIIIIII
AAAAAAAA2222222222222222IIIIIIIIIIIIIIIIIIIIIIIIIIIIIIIIIIIIIIII
AAAAAAAAA2222222222222222IIIIIIIIIIIIIIIIIIIIIIIIIIIIIIIIIIIIIII
AAAAAAAAAA2222222222222222IIIIIIIIIIIIIIIIIIIIIIIIIIIIIIIIIIIIII
AAAAAAAAAAA2222222222222222IIIIIIIIIIIIIIIIIIIIIIIIIIIIIIIIIIIII
AAAAAAAAAAAA2222222222222222IIIIIIIIIIIIIIIIIIIIIIIIIIIIIIIIIIII
AAAAAAAAAAAAA2222222222222222IIIIIIIIIIIIIIIIIIIIIIIIIIIIIIIIIII
AAAAAAAAAAAAAA2222222222222222IIIIIIIIIIIIIIIIIIIIIIIIIIIIIIIIII
AAAAAAAAAAAAAAA2222222222222222IIIIIIIIIIIIIIIIIIIIIIIIIIIIIIIII
AAAAAAAAAAAAAAAA2222222222222222IIIIIIIIIIIIIIIIIIIIIIIIIIIIIIII
AAAAAAAAAAAAAAAAA2222222222222222IIIIIIIIIIIIIIIIIIIIIIIIIIIIIII
AAAAAAAAAAAAAAAAAA2222222222222222IIIIIIIIIIIIIIIIIIIIIIIIIIIIII
AAAAAAAAAAAAAAAAAAA2222222222222222IIIIIIIIIIIIIIIIIIIIIIIIIIIII
AAAAAAAAAAAAAAAAAAAA2222222222222222IIIIIIIIIIIIIIIIIIIIIIIIIIII
AAAAAAAAAAAAAAAAAAAAA2222222222222222IIIIIIIIIIIIIIIIIIIIIIIIIII
AAAAAAAAAAAAAAAAAAAAAA2222222222222222IIIIIIIIIIIIIIIIIIIIIIIIII
AAAAAAAAAAAAAAAAAAAAAAA2222222222222222IIIIIIIIIIIIIIIIIIIIIIIII
AAAAAAAAAAAAAAAAAAAAAAAA2222222222222222IIIIIIIIIIIIIIIIIIIIIIII
AAAAAAAAAAAAAAAAAAAAAAAAA2222222222222222IIIIIIIIIIIIIIIIIIIIIII
AAAAAAAAAAAAAAAAAAAAAAAAAA2222222222222222IIIIIIIIIIIIIIIIIIIIII
AAAAAAAAAAAAAAAAAAAAAAAAAAA2222222222222222IIIIIIIIIIIIIIIIIIIII
AAAAAAAAAAAAAAAAAAAAAAAAAAAA2222222222222222IIIIIIIIIIIIIIIIIIII
AAAAAAAAAAAAAAAAAAAAAAAAAAAAA2222222222222222IIIIIIIIIIIIIIIIIII
AAAAAAAAAAAAAAAAAAAAAAAAAAAAAA2222222222222222IIIIIIIIIIIIIIIIII
AAAAAAAAAAAAAAAAAAAAAAAAAAAAAAA2222222222222222IIIIIIIIIIIIIIIII
AAAAAAAAAAAAAAAAAAAAAAAAAAAAAAAA2222222222222222IIIIIIIIIIIIIIII
AAAAAAAAAAAAAAAAAAAAAAAAAAAAAAAAA2222222222222222IIIIIIIIIIIIIII
AAAAAAAAAAAAAAAAAAAAAAAAAAAAAAAAAA2222222222222222IIIIIIIIIIIIII
AAAAAAAAAAAAAAAAAAAAAAAAAAAAAAAAAAA2222222222222222IIIIIIIIIIIII
AAAAAAAAAAAAAAAAAAAAAAAAAAAAAAAAAAAA2222222222222222IIIIIIIIIIII
AAAAAAAAAAAAAAAAAAAAAAAAAAAAAAAAAAAAA2222222222222222IIIIIIIIIII
AAAAAAAAAAAAAAAAAAAAAAAAAAAAAAAAAAAAAA2222222222222222IIIIIIIIII
AAAAAAAAAAAAAAAAAAAAAAAAAAAAAAAAAAAAAAA2222222222222222IIIIIIIII
AAAAAAAAAAAAAAAAAAAAAAAAAAAAAAAAAAAAAAAA2222222222222222IIIIIIII
AAAAAAAAAAAAAAAAAAAAAAAAAAAAAAAAAAAAAAAAA2222222222222222IIIIIII
AAAAAAAAAAAAAAAAAAAAAAAAAAAAAAAAAAAAAAAAAA2222222222222222IIIIII
AAAAAAAAAAAAAAAAAAAAAAAAAAAAAAAAAAAAAAAAAAA2222222222222222IIIII
AAAAAAAAAAAAAAAAAAAAAAAAAAAAAAAAAAAAAAAAAAAA2222222222222222IIII
AAAAAAAAAAAAAAAAAAAAAAAAAAAAAAAAAAAAAAAAAAAAA2222222222222222III
AAAAAAAAAAAAAAAAAAAAAAAAAAAAAAAAAAAAAAAAAAAAAA2222222222222222II
AAAAAAAAAAAAAAAAAAAAAAAAAAAAAAAAAAAAAAAAAAAAAAA2222222222222222I
AAAAAAAAAAAAAAAAAAAAAAAAAAAAAAAAAAAAAAAAAAAAAAAA2222222222222222
AAAAAAAAAAAAAAAAAAAAAAAAAAAAAAAAAAAAAAAAAAAAAAAAA222222222222222
AAAAAAAAAAAAAAAAAAAAAAAAAAAAAAAAAAAAAAAAAAAAAAAAAA22222222222222
AAAAAAAAAAAAAAAAAAAAAAAAAAAAAAAAAAAAAAAAAAAAAAAAAAA2222222222222
AAAAAAAAAAAAAAAAAAAAAAAAAAAAAAAAAAAAAAAAAAAAAAAAAAAA222222222222
AAAAAAAAAAAAAAAAAAAAAAAAAAAAAAAAAAAAAAAAAAAAAAAAAAAAA22222222222
AAAAAAAAAAAAAAAAAAAAAAAAAAAAAAAAAAAAAAAAAAAAAAAAAAAAAA2222222222
AAAAAAAAAAAAAAAAAAAAAAAAAAAAAAAAAAAAAAAAAAAAAAAAAAAAAAA222222222
AAAAAAAAAAAAAAAAAAAAAAAAAAAAAAAAAAAAAAAAAAAAAAAAAAAAAAAA22222222
AAAAAAAAAAAAAAAAAAAAAAAAAAAAAAAAAAAAAAAAAAAAAAAAAAAAAAAAA2222222
AAAAAAAAAAAAAAAAAAAAAAAAAAAAAAAAAAAAAAAAAAAAAAAAAAAAAAAAAA222222
AAAAAAAAAAAAAAAAAAAAAAAAAAAAAAAAAAAAAAAAAAAAAAAAAAAAAAAAAAA22222
AAAAAAAAAAAAAAAAAAAAAAAAAAAAAAAAAAAAAAAAAAAAAAAAAAAAAAAAAAAA2222
AAAAAAAAAAAAAAAAAAAAAAAAAAAAAAAAAAAAAAAAAAAAAAAAAAAAAAAAAAAAA222
AAAAAAAAAAAAAAAAAAAAAAAAAAAAAAAAAAAAAAAAAAAAAAAAAAAAAAAAAAAAAA22
AAAAAAAAAAAAAAAAAAAAAAAAAAAAAAAAAAAAAAAAAAAAAAAAAAAAAAAAAAAAAAA2
AAAAAAAAAAAAAAAAAAAAAAAAAAAAAAAAAAAAAAAAAAAAAAAAAAAAAAAAAAAAAAAA
AAAAAAAAAAAAAAAAAAAAAAAAAAAAAAAAAAAAAAAAAAAAAAAAAIAAAAAAAAAAAAAA
AAAAAAAAAAAAAAAAAAAAAAAAAAAAAAAAAAAAAAAAAAAAAAAAAIIAAAAAAAAAAAAA
AAAAAAAAAAAAAAAAAAAAAAAAAAAAAAAAAAAAAAAAAAAAAAAAAIIIAAAAAAAAAAAA
AAAAAAAAAAAAAAAAAAAAAAAAAAAAAAAAAAAAAAAAAAAAAAAAAIIIIAAAAAAAAAAA
AAAAAAAAAAAAAAAAAAAAAAAAAAAAAAAAAAAAAAAAAAAAAAAAAIIIIIAAAAAAAAAA
AAAAAAAAAAAAAAAAAAAAAAAAAAAAAAAAAAAAAAAAAAAAAAAAAIIIIIIAAAAAAAAA
AAAAAAAAAAAAAAAAAAAAAAAAAAAAAAAAAAAAAAAAAAAAAAAAAIIIIIIIAAAAAAAA
AAAAAAAAAAAAAAAAAAAAAAAAAAAAAAAAAAAAAAAAAAAAAAAAAIIIIIIIIAAAAAAA
AAAAAAAAAAAAAAAAAAAAAAAAAAAAAAAAAAAAAAAAAAAAAAAAAIIIIIIIIIAAAAAA
AAAAAAAAAAAAAAAAAAAAAAAAAAAAAAAAAAAAAAAAAAAAAAAAAIIIIIIIIIIAAAAA
AAAAAAAAAAAAAAAAAAAAAAAAAAAAAAAAAAAAAAAAAAAAAAAAAIIIIIIIIIIIAAAA
AAAAAAAAAAAAAAAAAAAAAAAAAAAAAAAAAAAAAAAAAAAAAAAAAIIIIIIIIIIIIAAA
AAAAAAAAAAAAAAAAAAAAAAAAAAAAAAAAAAAAAAAAAAAAAAAAAIIIIIIIIIIIIIAA
AAAAAAAAAAAAAAAAAAAAAAAAAAAAAAAAAAAAAAAAAAAAAAAAAIIIIIIIIIIIIIIA
AAAAAAAAAAAAAAAAAAAAAAAAAAAAAAAAAAAAAAAAAAAAAAAAAIIIIIIIIIIIIIII
AAIAAAAAAAAAAAAAAAAAAAAAAAAAAAAAAAAAAAAAAAAAAAAAAIIIIIIIIIIIIIII
AAIAAIAAAAAAAAAAAAAAAAAAAAAAAAAAAAAAAAAAAAAAAAAAAIIIIIIIIIIIIIII
AAIAAIIAAAAAAAAAAAAAAAAAAAAAAAAAAAAAAAAAAAAAAAAAAIIIIIIIIIIIIIII
AAIAAIIIAAAAAAAAAAAAAAAAAAAAAAAAAAAAAAAAAAAAAAAAAIIIIIIIIIIIIIII
AAIAAIIIIAAAAAAAAAAAAAAAAAAAAAAAAAAAAAAAAAAAAAAAAIIIIIIIIIIIIIII
AAIAAIIIIIAAAAAAAAAAAAAAAAAAAAAAAAAAAAAAAAAAAAAAAIIIIIIIIIIIIIII
AAIAAIIIIIIAAAAAAAAAAAAAAAAAAAAAAAAAAAAAAAAAAAAAAIIIIIIIIIIIIIII
AAIAAIIIIIIIAAAAAAAAAAAAAAAAAAAAAAAAAAAAAAAAAAAAAIIIIIIIIIIIIIII
AAIAAIIIIIIIIAAAAAAAAAAAAAAAAAAAAAAAAAAAAAAAAAAAAIIIIIIIIIIIIIII
AAIAAIIIIIIIIIAAAAAAAAAAAAAAAAAAAAAAAAAAAAAAAAAAAIIIIIIIIIIIIIII
AAIAAIIIIIIIIIIAAAAAAAAAAAAAAAAAAAAAAAAAAAAAAAAAAIIIIIIIIIIIIIII
AAIIAIIIIIIIIIIAAAAAAAAAAAAAAAAAAAAAAAAAAAAAAAAAAIIIIIIIIIIIIIII
AAIIIIIIIIIIIIIAAAAAAAAAAAAAAAAAAAAAAAAAAAAAAAAAAIIIIIIIIIIIIIII
AAIIIIIIIIIIIIIIAAAAAAAAAAAAAAAAAAAAAAAAAAAAAAAAAIIIIIIIIIIIIIII
AAIIIIIIIIIIIIIIIAAAAAAAAAAAAAAAAAAAAAAAAAAAAAAAAIIIIIIIIIIIIIII
AAIIIIIIIIIIIIIIIIAAAAAAAAAAAAAAAAAAAAAAAAAAAAAAAIIIIIIIIIIIIIII
AAIIIIIIIIIIIIIIIIIAAAAAAAAAAAAAAAAAAAAAAAAAAAAAAIIIIIIIIIIIIIII
AAIIIIIIIIIIIIIIIIIIAAAAAAAAAAAAAAAAAAAAAAAAAAAAAIIIIIIIIIIIIIII
AAIIIIIIIIIIIIIIIIIIIAAAAAAAAAAAAAAAAAAAAAAAAAAAAIIIIIIIIIIIIIII
AAIIIIIIIIIIIIIIIIIIIIAAAAAAAAAAAAAAAAAAAAAAAAAAAIIIIIIIIIIIIIII
AAIIIIIIIIIIIIIIIIIIIIIAAAAAAAAAAAAAAAAAAAAAAAAAAIIIIIIIIIIIIIII
AAIIIIIIIIIIIIIIIIIIIIIIAAAAAAAAAAAAAAAAAAAAAAAAAIIIIIIIIIIIIIII
AAIIIIIIIIIIIIIIIIIIIIIIIAAAAAAAAAAAAAAAAAAAAAAAAIIIIIIIIIIIIIII
AAIIIIIIIIIIIIIIIIIIIIIIIIAAAAAAAAAAAAAAAAAAAAAAAIIIIIIIIIIIIIII
AAIIIIIIIIIIIIIIIIIIIIIIIIIAAAAAAAAAAAAAAAAAAAAAAIIIIIIIIIIIIIII
AAIIIIIIIIIIIIIIIIIIIIIIIIIIAAAAAAAAAAAAAAAAAAAAAIIIIIIIIIIIIIII
AAIIIIIIIIIIIIIIIIIIIIIIIIIIIAAAAAAAAAAAAAAAAAAAAIIIIIIIIIIIIIII
AAIIIIIIIIIIIIIIIIIIIIIIIIIIIIAAAAAAAAAAAAAAAAAAAIIIIIIIIIIIIIII
AAIIIIIIIIIIIIIIIIIIIIIIIIIIIIIAAAAAAAAAAAAAAAAAAIIIIIIIIIIIIIII
AAIIIIIIIIIIIIIIIIIIIIIIIIIIIIIIAAAAAAAAAAAAAAAAAIIIIIIIIIIIIIII
AAIIIIIIIIIIIIIIIIIIIIIIIIIIIIIIIAAAAAAAAAAAAAAAAIIIIIIIIIIIIIII
AAIIIIIIIIIIIIIIIIIIIIIIIIIIIIIIIIAAAAAAAAAAAAAAAIIIIIIIIIIIIIII
AAIIIIIIIIIIIIIIIIIIIIIIIIIIIIIIIIIAAAAAAAAAAAAAAIIIIIIIIIIIIIII
AAIIIIIIIIIIIIIIIIIIIIIIIIIIIIIIIIIIAAAAAAAAAAAAAIIIIIIIIIIIIIII
AAIIIIIIIIIIIIIIIIIIIIIIIIIIIIIIIIIIIAAAAAAAAAAAAIIIIIIIIIIIIIII
AAIIIIIIIIIIIIIIIIIIIIIIIIIIIIIIIIIIIIAAAAAAAAAAAIIIIIIIIIIIIIII
AAIIIIIIIIIIIIIIIIIIIIIIIIIIIIIIIIIIIIIAAAAAAAAAAIIIIIIIIIIIIIII
AAIIIIIIIIIIIIIIIIIIIIIIIIIIIIIIIIIIIIIIAAAAAAAAAIIIIIIIIIIIIIII
AAIIIIIIIIIIIIIIIIIIIIIIIIIIIIIIIIIIIIIIIAAAAAAAAIIIIIIIIIIIIIII
AAIIIIIIIIIIIIIIIIIIIIIIIIIIIIIIIIIIIIIIIIAAAAAAAIIIIIIIIIIIIIII
AAIIIIIIIIIIIIIIIIIIIIIIIIIIIIIIIIIIIIIIIIIAAAAAAIIIIIIIIIIIIIII
AAIIIIIIIIIIIIIIIIIIIIIIIIIIIIIIIIIIIIIIIIIIAAAAAIIIIIIIIIIIIIII
AAIIIIIIIIIIIIIIIIIIIIIIIIIIIIIIIIIIIIIIIIIIIAAAAIIIIIIIIIIIIIII
AAIIIIIIIIIIIIIIIIIIIIIIIIIIIIIIIIIIIIIIIIIIIIAAAIIIIIIIIIIIIIII
AAIIIIIIIIIIIIIIIIIIIIIIIIIIIIIIIIIIIIIIIIIIIIIAAIIIIIIIIIIIIIII
AAIIIIIIIIIIIIIIIIIIIIIIIIIIIIIIIIIIIIIIIIIIIIIIAIIIIIIIIIIIIIII
AAIIIIIIIIIIIIIIIIIIIIIIIIIIIIIIIIIIIIIIIIIIIIIIIIIIIIIIIIIIIIII
A2222222222222222IIIIIIIIIIIIIIIIIIIIIIIIIIIIIIIIIIIIIIIIIIIIIII
AA2222222222222222IIIIIIIIIIIIIIIIIIIIIIIIIIIIIIIIIIIIIIIIIIIIII
AAA222222222222222IIIIIIIIIIIIIIIIIIIIIIIIIIIIIIIIIIIIIIIIIIIIII
AAAA22222222222222IIIIIIIIIIIIIIIIIIIIIIIIIIIIIIIIIIIIIIIIIIIIII
AAAAA2222222222222222IIIIIIIIIIIIIIIIIIIIIIIIIIIIIIIIIIIIIIIIIII
AAAAAA2222222222222222IIIIIIIIIIIIIIIIIIIIIIIIIIIIIIIIIIIIIIIIII
AAAAAAA2222222222222222IIIIIIIIIIIIIIIIIIIIIIIIIIIIIIIIIIIIIIIII
AAAAAAAA2222222222222222IIIIIIIIIIIIIIIIIIIIIIIIIIIIIIIIIIIIIIII
AAAAAAAAA2222222222222222IIIIIIIIIIIIIIIIIIIIIIIIIIIIIIIIIIIIIII
AAAAAAAAAA2222222222222222IIIIIIIIIIIIIIIIIIIIIIIIIIIIIIIIIIIIII
AAAAAAAAAAA222222222222222IIIIIIIIIIIIIIIIIIIIIIIIIIIIIIIIIIIIII
AAAAAAAAAAAA2222222222222222IIIIIIIIIIIIIIIIIIIIIIIIIIIIIIIIIIII
AAAAAAAAAAAAA222222222222222IIIIIIIIIIIIIIIIIIIIIIIIIIIIIIIIIIII
AAAAAAAAAAAAAA22222222222222IIIIIIIIIIIIIIIIIIIIIIIIIIIIIIIIIIII
AAAAAAAAAAAAAAA2222222222222222IIIIIIIIIIIIIIIIIIIIIIIIIIIIIIIII
AAAAAAAAAAAAAAAA222222222222222IIIIIIIIIIIIIIIIIIIIIIIIIIIIIIIII
AAAAAAAAAAAAAAAAA222222222222222IIIIIIIIIIIIIIIIIIIIIIIIIIIIIIII
AAAAAAAAAAAAAAAAAA2222222222222222IIIIIIIIIIIIIIIIIIIIIIIIIIIIII
AAAAAAAAAAAAAAAAAAA222222222222222IIIIIIIIIIIIIIIIIIIIIIIIIIIIII
AAAAAAAAAAAAAAAAAAAA22222222222222IIIIIIIIIIIIIIIIIIIIIIIIIIIIII
AAAAAAAAAAAAAAAAAAAAA2222222222222222IIIIIIIIIIIIIIIIIIIIIIIIIII
AAAAAAAAAAAAAAAAAAAAAA2222222222222222IIIIIIIIIIIIIIIIIIIIIIIIII
AAAAAAAAAAAAAAAAAAAAAAA2222222222222222IIIIIIIIIIIIIIIIIIIIIIIII
AAAAAAAAAAAAAAAAAAAAAAAA222222222222222IIIIIIIIIIIIIIIIIIIIIIIII
AAAAAAAAAAAAAAAAAAAAAAAAA22222222222222IIIIIIIIIIIIIIIIIIIIIIIII
AAAAAAAAAAAAAAAAAAAAAAAAAA22222222222222IIIIIIIIIIIIIIIIIIIIIIII
AAAAAAAAAAAAAAAAAAAAAAAAAAA222222222222222IIIIIIIIIIIIIIIIIIIIII
AAAAAAAAAAAAAAAAAAAAAAAAAAAA2222222222222222IIIIIIIIIIIIIIIIIIII
AAAAAAAAAAAAAAAAAAAAAAAAAAAAA222222222222222IIIIIIIIIIIIIIIIIIII
AAAAAAAAAAAAAAAAAAAAAAAAAAAAAA22222222222222IIIIIIIIIIIIIIIIIIII
AAAAAAAAAAAAAAAAAAAAAAAAAAAAAAA2222222222222222IIIIIIIIIIIIIIIII
AAAAAAAAAAAAAAAAAAAAAAAAAAAAAAAA222222222222222IIIIIIIIIIIIIIIII
AAAAAAAAAAAAAAAAAAAAAAAAAAAAAAAAA222222222222222IIIIIIIIIIIIIIII
AAAAAAAAAAAAAAAAAAAAAAAAAAAAAAAAAA2222222222222222IIIIIIIIIIIIII
AAAAAAAAAAAAAAAAAAAAAAAAAAAAAAAAAAA222222222222222IIIIIIIIIIIIII
AAAAAAAAAAAAAAAAAAAAAAAAAAAAAAAAAAAA22222222222222IIIIIIIIIIIIII
AAAAAAAAAAAAAAAAAAAAAAAAAAAAAAAAAAAAA2222222222222222IIIIIIIIIII
AAAAAAAAAAAAAAAAAAAAAAAAAAAAAAAAAAAAAA222222222222222IIIIIIIIIII
AAAAAAAAAAAAAAAAAAAAAAAAAAAAAAAAAAAAAAA22222222222222IIIIIIIIIII
AAAAAAAAAAAAAAAAAAAAAAAAAAAAAAAAAAAAAAAA2222222222222222IIIIIIII
AAAAAAAAAAAAAAAAAAAAAAAAAAAAAAAAAAAAAAAAA222222222222222IIIIIIII
AAAAAAAAAAAAAAAAAAAAAAAAAAAAAAAAAAAAAAAAAA2222222222222222IIIIII
AAAAAAAAAAAAAAAAAAAAAAAAAAAAAAAAAAAAAAAAAAA2222222222222222IIIII
AAAAAAAAAAAAAAAAAAAAAAAAAAAAAAAAAAAAAAAAAAAA2222222222222222IIII
AAAAAAAAAAAAAAAAAAAAAAAAAAAAAAAAAAAAAAAAAAAAA222222222222222IIII
AAAAAAAAAAAAAAAAAAAAAAAAAAAAAAAAAAAAAAAAAAAAAA2222222222222222II
AAAAAAAAAAAAAAAAAAAAAAAAAAAAAAAAAAAAAAAAAAAAAAA2222222222222222I
AAAAAAAAAAAAAAAAAAAAAAAAAAAAAAAAAAAAAAAAAAAAAAAA222222222222222I
AAAAAAAAAAAAAAAAAAAAAAAAAAAAAAAAAAAAAAAAAAAAAAAAA222222222222222
AAAAAAAAAAAAAAAAAAAAAAAAAAAAAAAAAAAAAAAAAAAAAAAAAA22222222222222
AAAAAAAAAAAAAAAAAAAAAAAAAAAAAAAAAAAAAAAAAAAAAAAAAAA2222222222222
AAAAAAAAAAAAAAAAAAAAAAAAAAAAAAAAAAAAAAAAAAAAAAAAAAAA222222222222
AAAAAAAAAAAAAAAAAAAAAAAAAAAAAAAAAAAAAAAAAAAAAAAAAAAAA22222222222
AAAAAAAAAAAAAAAAAAAAAAAAAAAAAAAAAAAAAAAAAAAAAAAAAAAAAA2222222222
AAAAAAAAAAAAAAAAAAAAAAAAAAAAAAAAAAAAAAAAAAAAAAAAAAAAAAA222222222
AAAAAAAAAAAAAAAAAAAAAAAAAAAAAAAAAAAAAAAAAAAAAAAAAAAAAAAA22222222
AAAAAAAAAAAAAAAAAAAAAAAAAAAAAAAAAAAAAAAAAAAAAAAAAAAAAAAAA2222222
AAAAAAAAAAAAAAAAAAAAAAAAAAAAAAAAAAAAAAAAAAAAAAAAAAAAAAAAAA222222
AAAAAAAAAAAAAAAAAAAAAAAAAAAAAAAAAAAAAAAAAAAAAAAAAAAAAAAAAAA22222
AAAAAAAAAAAAAAAAAAAAAAAAAAAAAAAAAAAAAAAAAAAAAAAAAAAAAAAAAAAA2222
AAAAAAAAAAAAAAAAAAAAAAAAAAAAAAAAAAAAAAAAAAAAAAAAAAAAAAAAAAAAA222
AAAAAAAAAAAAAAAAAAAAAAAAAAAAAAAAAAAAAAAAAAAAAAAAAAAAAAAAAAAAAA22
AAAAAAAAAAAAAAAAAAAAAAAAAAAAAAAAAAAAAAAAAAAAAAAAAAAAAAAAAAAAAAA2
AAAAAAAAAAAAAAAAAAAAAAAAAAAAAAAAAAAAAAAAAAAAAAAAAAAAAAAAAAAAAAAA
AAAIAAAAAAAAAAAAAAAAAAAAAAAAAAAAAAAAAAAAAAAAAAAAAAAAAAAAAAAAAAAA
AAAIIAAAAAAAAAAAAAAAAAAAAAAAAAAAAAAAAAAAAAAAAAAAAAAAAAAAAAAAAAAA
AAAIIIAAAAAAAAAAAAAAAAAAAAAAAAAAAAAAAAAAAAAAAAAAAAAAAAAAAAAAAAAA
AAAIIIIAAAAAAAAAAAAAAAAAAAAAAAAAAAAAAAAAAAAAAAAAAAAAAAAAAAAAAAAA
AAAIIIIIAAAAAAAAAAAAAAAAAAAAAAAAAAAAAAAAAAAAAAAAAAAAAAAAAAAAAAAA
AAAIIIIIIAAAAAAAAAAAAAAAAAAAAAAAAAAAAAAAAAAAAAAAAAAAAAAAAAAAAAAA
AAAIIIIIIAAIAAAAAAAAAAAAAAAAAAAAAAAAAAAAAAAAAAAAAAAAAAAAAAAAAAAA
AAAIIIIIIAAIIAAAAAAAAAAAAAAAAAAAAAAAAAAAAAAAAAAAAAAAAAAAAAAAAAAA
AAAIIIIIIAAIIIAAAAAAAAAAAAAAAAAAAAAAAAAAAAAAAAAAAAAAAAAAAAAAAAAA
AAAIIIIIIAAIIIIAAAAAAAAAAAAAAAAAAAAAAAAAAAAAAAAAAAAAAAAAAAAAAAAA
AAAIIIIIIAAIIIIIAAAAAAAAAAAAAAAAAAAAAAAAAAAAAAAAAAAAAAAAAAAAAAAA
AAAIIIIIIAAIIIIIIAAAAAAAAAAAAAAAAAAAAAAAAAAAAAAAAAAAAAAAAAAAAAAA
AAAIIIIIIAIIIIIIIAAAAAAAAAAAAAAAAAAAAAAAAAAAAAAAAAAAAAAAAAAAAAAA
AAAIIIIIIIIIIIIIIAAAAAAAAAAAAAAAAAAAAAAAAAAAAAAAAAAAAAAAAAAAAAAA
AAAIIIIIIIIIIIIIIIAAAAAAAAAAAAAAAAAAAAAAAAAAAAAAAAAAAAAAAAAAAAAA
AAAIIIIIIIIIIIIIIIIAAAAAAAAAAAAAAAAAAAAAAAAAAAAAAAAAAAAAAAAAAAAA
AAAIIIIIIIIIIIIIIIIIAAAAAAAAAAAAAAAAAAAAAAAAAAAAAAAAAAAAAAAAAAAA
AAAIIIIIIIIIIIIIIIIIIAAAAAAAAAAAAAAAAAAAAAAAAAAAAAAAAAAAAAAAAAAA
AAAIIIIIIIIIIIIIIIIIIIAAAAAAAAAAAAAAAAAAAAAAAAAAAAAAAAAAAAAAAAAA
AAAIIIIIIIIIIIIIIIIIIIIAAAAAAAAAAAAAAAAAAAAAAAAAAAAAAAAAAAAAAAAA
AAAIIIIIIIIIIIIIIIIIIIIIAAAAAAAAAAAAAAAAAAAAAAAAAAAAAAAAAAAAAAAA
AAAIIIIIIIIIIIIIIIIIIIIIIAAAAAAAAAAAAAAAAAAAAAAAAAAAAAAAAAAAAAAA
AAAIIIIIIIIIIIIIIIIIIIIIIIAAAAAAAAAAAAAAAAAAAAAAAAAAAAAAAAAAAAAA
AAAIIIIIIIIIIIIIIIIIIIIIIIIAAAAAAAAAAAAAAAAAAAAAAAAAAAAAAAAAAAAA
AAAIIIIIIIIIIIIIIIIIIIIIIIIAAIAAAAAAAAAAAAAAAAAAAAAAAAAAAAAAAAAA
AAAIIIIIIIIIIIIIIIIIIIIIIIIIAIAAAAAAAAAAAAAAAAAAAAAAAAAAAAAAAAAA
AAAIIIIIIIIIIIIIIIIIIIIIIIIIAIIAAAAAAAAAAAAAAAAAAAAAAAAAAAAAAAAA
AAAIIIIIIIIIIIIIIIIIIIIIIIIIIIIAAAAAAAAAAAAAAAAAAAAAAAAAAAAAAAAA
AAAIIIIIIIIIIIIIIIIIIIIIIIIIIIIIAAAAAAAAAAAAAAAAAAAAAAAAAAAAAAAA
AAAIIIIIIIIIIIIIIIIIIIIIIIIIIIIIIAAAAAAAAAAAAAAAAAAAAAAAAAAAAAAA
AAAIIIIIIIIIIIIIIIIIIIIIIIIIIIIIIAAAIAAAAAAAAAAAAAAAAAAAAAAAAAAA
AAAIIIIIIIIIIIIIIIIIIIIIIIIIIIIIIIAAIAAAAAAAAAAAAAAAAAAAAAAAAAAA
AAAIIIIIIIIIIIIIIIIIIIIIIIIIIIIIIIIAIAAAAAAAAAAAAAAAAAAAAAAAAAAA
AAAIIIIIIIIIIIIIIIIIIIIIIIIIIIIIIIIIIAAAAAAAAAAAAAAAAAAAAAAAAAAA
AAAIIIIIIIIIIIIIIIIIIIIIIIIIIIIIIIIIIIAAAAAAAAAAAAAAAAAAAAAAAAAA
AAAIIIIIIIIIIIIIIIIIIIIIIIIIIIIIIIIIIIIAAAAAAAAAAAAAAAAAAAAAAAAA
AAAIIIIIIIIIIIIIIIIIIIIIIIIIIIIIIIIIIIIIAAAAAAAAAAAAAAAAAAAAAAAA
AAAIIIIIIIIIIIIIIIIIIIIIIIIIIIIIIIIIIIIIIAAAAAAAAAAAAAAAAAAAAAAA
AAAIIIIIIIIIIIIIIIIIIIIIIIIIIIIIIIIIIIIIIIAAAAAAAAAAAAAAAAAAAAAA
AAAIIIIIIIIIIIIIIIIIIIIIIIIIIIIIIIIIIIIIIIIAAAAAAAAAAAAAAAAAAAAA
AAAIIIIIIIIIIIIIIIIIIIIIIIIIIIIIIIIIIIIIIIIIAAAAAAAAAAAAAAAAAAAA
AAAIIIIIIIIIIIIIIIIIIIIIIIIIIIIIIIIIIIIIIIIIAAIAAAAAAAAAAAAAAAAA
AAAIIIIIIIIIIIIIIIIIIIIIIIIIIIIIIIIIIIIIIIIIIAIAAAAAAAAAAAAAAAAA
AAAIIIIIIIIIIIIIIIIIIIIIIIIIIIIIIIIIIIIIIIIIIIIAAAAAAAAAAAAAAAAA
AAAIIIIIIIIIIIIIIIIIIIIIIIIIIIIIIIIIIIIIIIIIIIIIAAAAAAAAAAAAAAAA
AAAIIIIIIIIIIIIIIIIIIIIIIIIIIIIIIIIIIIIIIIIIIIIIAIAAAAAAAAAAAAAA
AAAIIIIIIIIIIIIIIIIIIIIIIIIIIIIIIIIIIIIIIIIIIIIIIIAAAAAAAAAAAAAA
AAAIIIIIIIIIIIIIIIIIIIIIIIIIIIIIIIIIIIIIIIIIIIIIIIIAAAAAAAAAAAAA
AAAIIIIIIIIIIIIIIIIIIIIIIIIIIIIIIIIIIIIIIIIIIIIIIIIAIAAAAAAAAAAA
AAAIIIIIIIIIIIIIIIIIIIIIIIIIIIIIIIIIIIIIIIIIIIIIIIIAIIAAAAAAAAAA
AAAIIIIIIIIIIIIIIIIIIIIIIIIIIIIIIIIIIIIIIIIIIIIIIIIIIIAAAAAAAAAA
AAAIIIIIIIIIIIIIIIIIIIIIIIIIIIIIIIIIIIIIIIIIIIIIIIIIIIAIAAAAAAAA
AAAIIIIIIIIIIIIIIIIIIIIIIIIIIIIIIIIIIIIIIIIIIIIIIIIIIIIIAAAAAAAA
AAAIIIIIIIIIIIIIIIIIIIIIIIIIIIIIIIIIIIIIIIIIIIIIIIIIIIIIIAAAAAAA
AAAIIIIIIIIIIIIIIIIIIIIIIIIIIIIIIIIIIIIIIIIIIIIIIIIIIIIIIIAAAAAA
AAAIIIIIIIIIIIIIIIIIIIIIIIIIIIIIIIIIIIIIIIIIIIIIIIIIIIIIIIIAAAAA
AAAIIIIIIIIIIIIIIIIIIIIIIIIIIIIIIIIIIIIIIIIIIIIIIIIIIIIIIIIAIAAA
AAAIIIIIIIIIIIIIIIIIIIIIIIIIIIIIIIIIIIIIIIIIIIIIIIIIIIIIIIIIIAAA
AAAIIIIIIIIIIIIIIIIIIIIIIIIIIIIIIIIIIIIIIIIIIIIIIIIIIIIIIIIIIIAA
AAAIIIIIIIIIIIIIIIIIIIIIIIIIIIIIIIIIIIIIIIIIIIIIIIIIIIIIIIIIIIIA
AAAIIIIIIIIIIIIIIIIIIIIIIIIIIIIIIIIIIIIIIIIIIIIIIIIIIIIIIIIIIIII
[MLOP] Prefetch Degree Mean: 15.90531
[MLOP] Prefetch Degree SD: 0.32377
[MLOP] Max Score Left Mean (%): 76.12033
[MLOP] Max Score Left SD (%): 2.09471
[MLOP] Max Score Right Mean (%): 99.98436
[MLOP] Max Score Right SD (%): 0.07061

Channel_0_RQ_row_buffer_hit 7104604
Channel_0_RQ_row_buffer_miss 2077260
Channel_0_WQ_row_buffer_hit 79318
Channel_0_WQ_row_buffer_miss 305833
Channel_0_WQ_full 388
Channel_0_dbus_congested 9230211

avg_congested_cycle 50

DRAM_bw_pochs 2600724
DRAM_bw_level_0 944477
DRAM_bw_level_1 187994
DRAM_bw_level_2 130083
DRAM_bw_level_3 1338170
