*************************************************
   ChampSim Multicore Out-of-Order Simulator
   Last compiled: Dec 11 2024 17:59:53
*************************************************
parsing config file: /home/functionmain/桌面/Pythia/config/spp_dev2.ini

trace_0 /home/functionmain/桌面/Pythia/traces/410.bwaves-1963B.champsimtrace.xz
adding L2C_PREFETCHER: SPP_dev2
Initialize SIGNATURE TABLE
ST_SET: 1
ST_WAY: 256
ST_TAG_BIT: 16
ST_TAG_MASK: ffff

Initialize PATTERN TABLE
PT_SET: 512
PT_WAY: 4
SIG_DELTA_BIT: 7
C_SIG_BIT: 4
C_DELTA_BIT: 4

Initialize PREFETCH FILTER
FILTER_SET: 1024
fill_threshold: 90
pf_threshold: 40

Initialize SHIP state
warmup_instructions 100000000
simulation_instructions 500000000
champsim_seed 277
measure_ipc 0
measure_ipc_epoch 1000
measure_dram_bw 1
measure_dram_bw_epoch 256
measure_cache_acc 1
measure_cache_acc_epoch 1024
l1d_perfect 0
l2c_perfect 0
llc_perfect 0
l1d_semi_perfect 0
l2c_semi_perfect 0
llc_semi_perfect 0
semi_perfect_cache_page_buffer_size 64

num_cpus 1
cpu_freq 4000
dram_io_freq 150
page_size 4096
block_size 64
max_read_per_cycle 8
max_fill_per_cycle 1
dram_channels 1
log2_dram_channels 0
dram_ranks 1
dram_banks 8
dram_rows 65536
dram_columns 128
dram_row_size 8
dram_size 4096
dram_pages 1048576

fetch_width 6
decode_width 6
exec_width 4
lq_width 2
sq_width 2
retire_width 4
scheduler_size 128
branch_mispredict_penalty 20
rob_size 256
lq_size 72
sq_size 56
num_instr_destinations_sparc 4
num_instr_destinations 2
num_instr_sources 4

itlb_set 16
itlb_way 8
itlb_rq_size 16
itlb_wq_size 16
itlb_pq_size 0
itlb_mshr_size 8
itlb_latency 1

dtlb_set 16
dtlb_way 4
dtlb_rq_size 16
dtlb_wq_size 16
dtlb_pq_size 0
dtlb_mshr_size 8
dtlb_latency 1

stlb_set 128
stlb_way 12
stlb_rq_size 32
stlb_wq_size 32
stlb_pq_size 0
stlb_mshr_size 16
stlb_latency 8

l1i_size 32
l1i_set 64
l1i_way 8
l1i_rq_size 64
l1i_wq_size 64
l1i_pq_size 8
l1i_mshr_size 8
l1i_latency 1

l1d_size 32
l1d_set 64
l1d_way 8
l1d_rq_size 64
l1d_wq_size 64
l1d_pq_size 8
l1d_mshr_size 16
l1d_latency 4

l2c_size 256
l2c_set 512
l2c_way 8
l2c_rq_size 32
l2c_wq_size 32
l2c_pq_size 32
l2c_mshr_size 32
l2c_latency 10

llc_size 2048
llc_set 2048
llc_way 16
llc_rq_size 32
llc_wq_size 32
llc_pq_size 32
llc_mshr_size 64
llc_latency 20

dram_channel_width 8
dram_wq_size 64
dram_rq_size 64
tRP 15
tRCD 15
tCAS 12.5
dram_dbus_turn_around_time 30
dram_write_high_wm 56
dram_write_low_wm 48
min_dram_writes_per_switch 16
dram_mtps 150
dram_dbus_return_time 213


Heartbeat CPU  0 instructions:    1000002 cycles:     658411 heartbeat IPC: 1.51881 cumulative IPC: 1.51881 (Simulation time: 0 hr 0 min 2 sec) 
Heartbeat CPU  0 instructions:    2000002 cycles:    1316367 heartbeat IPC: 1.51986 cumulative IPC: 1.51933 (Simulation time: 0 hr 0 min 5 sec) 
Heartbeat CPU  0 instructions:    3000002 cycles:    1974413 heartbeat IPC: 1.51965 cumulative IPC: 1.51944 (Simulation time: 0 hr 0 min 7 sec) 
Heartbeat CPU  0 instructions:    4000000 cycles:    2632403 heartbeat IPC: 1.51978 cumulative IPC: 1.51952 (Simulation time: 0 hr 0 min 9 sec) 
Heartbeat CPU  0 instructions:    5000002 cycles:    3290501 heartbeat IPC: 1.51953 cumulative IPC: 1.51953 (Simulation time: 0 hr 0 min 12 sec) 
Heartbeat CPU  0 instructions:    6000002 cycles:    3948480 heartbeat IPC: 1.51981 cumulative IPC: 1.51957 (Simulation time: 0 hr 0 min 14 sec) 
Heartbeat CPU  0 instructions:    7000000 cycles:    4606470 heartbeat IPC: 1.51978 cumulative IPC: 1.51960 (Simulation time: 0 hr 0 min 17 sec) 
Heartbeat CPU  0 instructions:    8000000 cycles:    5264470 heartbeat IPC: 1.51976 cumulative IPC: 1.51962 (Simulation time: 0 hr 0 min 19 sec) 
Heartbeat CPU  0 instructions:    9000001 cycles:    5922513 heartbeat IPC: 1.51966 cumulative IPC: 1.51963 (Simulation time: 0 hr 0 min 21 sec) 
Heartbeat CPU  0 instructions:   10000002 cycles:    6580559 heartbeat IPC: 1.51965 cumulative IPC: 1.51963 (Simulation time: 0 hr 0 min 24 sec) 
Heartbeat CPU  0 instructions:   11000001 cycles:    7238570 heartbeat IPC: 1.51973 cumulative IPC: 1.51964 (Simulation time: 0 hr 0 min 26 sec) 
Heartbeat CPU  0 instructions:   12000000 cycles:    7896578 heartbeat IPC: 1.51974 cumulative IPC: 1.51965 (Simulation time: 0 hr 0 min 29 sec) 
Heartbeat CPU  0 instructions:   13000001 cycles:    8554695 heartbeat IPC: 1.51949 cumulative IPC: 1.51963 (Simulation time: 0 hr 0 min 31 sec) 
Heartbeat CPU  0 instructions:   14000001 cycles:    9212544 heartbeat IPC: 1.52011 cumulative IPC: 1.51967 (Simulation time: 0 hr 0 min 33 sec) 
Heartbeat CPU  0 instructions:   15000000 cycles:    9870393 heartbeat IPC: 1.52010 cumulative IPC: 1.51970 (Simulation time: 0 hr 0 min 36 sec) 
Heartbeat CPU  0 instructions:   16000000 cycles:   10528312 heartbeat IPC: 1.51994 cumulative IPC: 1.51971 (Simulation time: 0 hr 0 min 38 sec) 
Heartbeat CPU  0 instructions:   17000002 cycles:   11186301 heartbeat IPC: 1.51979 cumulative IPC: 1.51972 (Simulation time: 0 hr 0 min 41 sec) 
Heartbeat CPU  0 instructions:   18000000 cycles:   11844219 heartbeat IPC: 1.51994 cumulative IPC: 1.51973 (Simulation time: 0 hr 0 min 43 sec) 
Heartbeat CPU  0 instructions:   19000001 cycles:   12502127 heartbeat IPC: 1.51997 cumulative IPC: 1.51974 (Simulation time: 0 hr 0 min 46 sec) 
Heartbeat CPU  0 instructions:   20000000 cycles:   13160094 heartbeat IPC: 1.51983 cumulative IPC: 1.51975 (Simulation time: 0 hr 0 min 48 sec) 
Heartbeat CPU  0 instructions:   21000003 cycles:   13818105 heartbeat IPC: 1.51974 cumulative IPC: 1.51975 (Simulation time: 0 hr 0 min 50 sec) 
Heartbeat CPU  0 instructions:   22000001 cycles:   14475930 heartbeat IPC: 1.52016 cumulative IPC: 1.51976 (Simulation time: 0 hr 0 min 53 sec) 
Heartbeat CPU  0 instructions:   23000001 cycles:   15133922 heartbeat IPC: 1.51978 cumulative IPC: 1.51976 (Simulation time: 0 hr 0 min 55 sec) 
Heartbeat CPU  0 instructions:   24000000 cycles:   15791763 heartbeat IPC: 1.52012 cumulative IPC: 1.51978 (Simulation time: 0 hr 0 min 58 sec) 
Heartbeat CPU  0 instructions:   25000001 cycles:   16449795 heartbeat IPC: 1.51968 cumulative IPC: 1.51978 (Simulation time: 0 hr 1 min 0 sec) 
Heartbeat CPU  0 instructions:   26000003 cycles:   17107522 heartbeat IPC: 1.52039 cumulative IPC: 1.51980 (Simulation time: 0 hr 1 min 2 sec) 
Heartbeat CPU  0 instructions:   27000000 cycles:   17765447 heartbeat IPC: 1.51993 cumulative IPC: 1.51980 (Simulation time: 0 hr 1 min 5 sec) 
Heartbeat CPU  0 instructions:   28000000 cycles:   18423280 heartbeat IPC: 1.52014 cumulative IPC: 1.51982 (Simulation time: 0 hr 1 min 7 sec) 
Heartbeat CPU  0 instructions:   29000000 cycles:   19081246 heartbeat IPC: 1.51984 cumulative IPC: 1.51982 (Simulation time: 0 hr 1 min 10 sec) 
Heartbeat CPU  0 instructions:   30000001 cycles:   19739091 heartbeat IPC: 1.52012 cumulative IPC: 1.51983 (Simulation time: 0 hr 1 min 12 sec) 
Heartbeat CPU  0 instructions:   31000002 cycles:   20397155 heartbeat IPC: 1.51961 cumulative IPC: 1.51982 (Simulation time: 0 hr 1 min 15 sec) 
Heartbeat CPU  0 instructions:   32000000 cycles:   21055192 heartbeat IPC: 1.51967 cumulative IPC: 1.51982 (Simulation time: 0 hr 1 min 17 sec) 
Heartbeat CPU  0 instructions:   33000000 cycles:   21713313 heartbeat IPC: 1.51948 cumulative IPC: 1.51980 (Simulation time: 0 hr 1 min 19 sec) 
Heartbeat CPU  0 instructions:   34000002 cycles:   22371351 heartbeat IPC: 1.51967 cumulative IPC: 1.51980 (Simulation time: 0 hr 1 min 22 sec) 
Heartbeat CPU  0 instructions:   35000001 cycles:   23029401 heartbeat IPC: 1.51964 cumulative IPC: 1.51980 (Simulation time: 0 hr 1 min 24 sec) 
Heartbeat CPU  0 instructions:   36000000 cycles:   23687417 heartbeat IPC: 1.51972 cumulative IPC: 1.51979 (Simulation time: 0 hr 1 min 27 sec) 
Heartbeat CPU  0 instructions:   37000002 cycles:   24345459 heartbeat IPC: 1.51966 cumulative IPC: 1.51979 (Simulation time: 0 hr 1 min 29 sec) 
Heartbeat CPU  0 instructions:   38000000 cycles:   25003361 heartbeat IPC: 1.51998 cumulative IPC: 1.51980 (Simulation time: 0 hr 1 min 31 sec) 
Heartbeat CPU  0 instructions:   39000000 cycles:   25661414 heartbeat IPC: 1.51963 cumulative IPC: 1.51979 (Simulation time: 0 hr 1 min 34 sec) 
Heartbeat CPU  0 instructions:   40000000 cycles:   26319331 heartbeat IPC: 1.51995 cumulative IPC: 1.51980 (Simulation time: 0 hr 1 min 36 sec) 
Heartbeat CPU  0 instructions:   41000000 cycles:   26977417 heartbeat IPC: 1.51956 cumulative IPC: 1.51979 (Simulation time: 0 hr 1 min 39 sec) 
Heartbeat CPU  0 instructions:   42000003 cycles:   27635476 heartbeat IPC: 1.51963 cumulative IPC: 1.51979 (Simulation time: 0 hr 1 min 41 sec) 
Heartbeat CPU  0 instructions:   43000001 cycles:   28293470 heartbeat IPC: 1.51977 cumulative IPC: 1.51979 (Simulation time: 0 hr 1 min 44 sec) 
Heartbeat CPU  0 instructions:   44000000 cycles:   28951362 heartbeat IPC: 1.52000 cumulative IPC: 1.51979 (Simulation time: 0 hr 1 min 46 sec) 
Heartbeat CPU  0 instructions:   45000000 cycles:   29609286 heartbeat IPC: 1.51993 cumulative IPC: 1.51979 (Simulation time: 0 hr 1 min 48 sec) 
Heartbeat CPU  0 instructions:   46000001 cycles:   30267281 heartbeat IPC: 1.51977 cumulative IPC: 1.51979 (Simulation time: 0 hr 1 min 51 sec) 
Heartbeat CPU  0 instructions:   47000003 cycles:   30925209 heartbeat IPC: 1.51993 cumulative IPC: 1.51980 (Simulation time: 0 hr 1 min 53 sec) 
Heartbeat CPU  0 instructions:   48000000 cycles:   31582916 heartbeat IPC: 1.52043 cumulative IPC: 1.51981 (Simulation time: 0 hr 1 min 56 sec) 
Heartbeat CPU  0 instructions:   49000000 cycles:   32240800 heartbeat IPC: 1.52002 cumulative IPC: 1.51981 (Simulation time: 0 hr 1 min 58 sec) 
Heartbeat CPU  0 instructions:   50000003 cycles:   32898789 heartbeat IPC: 1.51979 cumulative IPC: 1.51981 (Simulation time: 0 hr 2 min 0 sec) 
Heartbeat CPU  0 instructions:   51000000 cycles:   33556662 heartbeat IPC: 1.52005 cumulative IPC: 1.51982 (Simulation time: 0 hr 2 min 3 sec) 
Heartbeat CPU  0 instructions:   52000000 cycles:   34214523 heartbeat IPC: 1.52008 cumulative IPC: 1.51982 (Simulation time: 0 hr 2 min 5 sec) 
Heartbeat CPU  0 instructions:   53000003 cycles:   34872486 heartbeat IPC: 1.51985 cumulative IPC: 1.51982 (Simulation time: 0 hr 2 min 8 sec) 
Heartbeat CPU  0 instructions:   54000001 cycles:   35530453 heartbeat IPC: 1.51983 cumulative IPC: 1.51982 (Simulation time: 0 hr 2 min 10 sec) 
Heartbeat CPU  0 instructions:   55000003 cycles:   36188384 heartbeat IPC: 1.51992 cumulative IPC: 1.51982 (Simulation time: 0 hr 2 min 13 sec) 
Heartbeat CPU  0 instructions:   56000000 cycles:   36846314 heartbeat IPC: 1.51991 cumulative IPC: 1.51983 (Simulation time: 0 hr 2 min 15 sec) 
Heartbeat CPU  0 instructions:   57000001 cycles:   37504139 heartbeat IPC: 1.52016 cumulative IPC: 1.51983 (Simulation time: 0 hr 2 min 17 sec) 
Heartbeat CPU  0 instructions:   58000000 cycles:   38162157 heartbeat IPC: 1.51971 cumulative IPC: 1.51983 (Simulation time: 0 hr 2 min 20 sec) 
Heartbeat CPU  0 instructions:   59000002 cycles:   38820129 heartbeat IPC: 1.51982 cumulative IPC: 1.51983 (Simulation time: 0 hr 2 min 22 sec) 
Heartbeat CPU  0 instructions:   60000000 cycles:   39477965 heartbeat IPC: 1.52013 cumulative IPC: 1.51984 (Simulation time: 0 hr 2 min 25 sec) 
Heartbeat CPU  0 instructions:   61000002 cycles:   40136073 heartbeat IPC: 1.51951 cumulative IPC: 1.51983 (Simulation time: 0 hr 2 min 27 sec) 
Heartbeat CPU  0 instructions:   62000001 cycles:   40794061 heartbeat IPC: 1.51978 cumulative IPC: 1.51983 (Simulation time: 0 hr 2 min 29 sec) 
Heartbeat CPU  0 instructions:   63000002 cycles:   41452110 heartbeat IPC: 1.51965 cumulative IPC: 1.51983 (Simulation time: 0 hr 2 min 32 sec) 
Heartbeat CPU  0 instructions:   64000000 cycles:   42110133 heartbeat IPC: 1.51970 cumulative IPC: 1.51982 (Simulation time: 0 hr 2 min 34 sec) 
Heartbeat CPU  0 instructions:   65000002 cycles:   42768266 heartbeat IPC: 1.51945 cumulative IPC: 1.51982 (Simulation time: 0 hr 2 min 37 sec) 
Heartbeat CPU  0 instructions:   66000002 cycles:   43426298 heartbeat IPC: 1.51968 cumulative IPC: 1.51982 (Simulation time: 0 hr 2 min 39 sec) 
Heartbeat CPU  0 instructions:   67000002 cycles:   44084297 heartbeat IPC: 1.51976 cumulative IPC: 1.51982 (Simulation time: 0 hr 2 min 41 sec) 
Heartbeat CPU  0 instructions:   68000000 cycles:   44742293 heartbeat IPC: 1.51976 cumulative IPC: 1.51981 (Simulation time: 0 hr 2 min 44 sec) 
Heartbeat CPU  0 instructions:   69000000 cycles:   45400488 heartbeat IPC: 1.51931 cumulative IPC: 1.51981 (Simulation time: 0 hr 2 min 46 sec) 
Heartbeat CPU  0 instructions:   70000003 cycles:   46058395 heartbeat IPC: 1.51998 cumulative IPC: 1.51981 (Simulation time: 0 hr 2 min 49 sec) 
Heartbeat CPU  0 instructions:   71000003 cycles:   46716245 heartbeat IPC: 1.52010 cumulative IPC: 1.51981 (Simulation time: 0 hr 2 min 51 sec) 
Heartbeat CPU  0 instructions:   72000000 cycles:   47374207 heartbeat IPC: 1.51984 cumulative IPC: 1.51981 (Simulation time: 0 hr 2 min 54 sec) 
Heartbeat CPU  0 instructions:   73000001 cycles:   48032115 heartbeat IPC: 1.51997 cumulative IPC: 1.51982 (Simulation time: 0 hr 2 min 56 sec) 
Heartbeat CPU  0 instructions:   74000002 cycles:   48690015 heartbeat IPC: 1.51999 cumulative IPC: 1.51982 (Simulation time: 0 hr 2 min 58 sec) 
Heartbeat CPU  0 instructions:   75000001 cycles:   49347987 heartbeat IPC: 1.51982 cumulative IPC: 1.51982 (Simulation time: 0 hr 3 min 1 sec) 
Heartbeat CPU  0 instructions:   76000000 cycles:   50005874 heartbeat IPC: 1.52002 cumulative IPC: 1.51982 (Simulation time: 0 hr 3 min 3 sec) 
Heartbeat CPU  0 instructions:   77000002 cycles:   50663870 heartbeat IPC: 1.51977 cumulative IPC: 1.51982 (Simulation time: 0 hr 3 min 6 sec) 
Heartbeat CPU  0 instructions:   78000000 cycles:   51321970 heartbeat IPC: 1.51952 cumulative IPC: 1.51982 (Simulation time: 0 hr 3 min 8 sec) 
Heartbeat CPU  0 instructions:   79000003 cycles:   51979882 heartbeat IPC: 1.51996 cumulative IPC: 1.51982 (Simulation time: 0 hr 3 min 10 sec) 
Heartbeat CPU  0 instructions:   80000000 cycles:   52637828 heartbeat IPC: 1.51988 cumulative IPC: 1.51982 (Simulation time: 0 hr 3 min 13 sec) 
Heartbeat CPU  0 instructions:   81000001 cycles:   53295824 heartbeat IPC: 1.51977 cumulative IPC: 1.51982 (Simulation time: 0 hr 3 min 15 sec) 
Heartbeat CPU  0 instructions:   82000001 cycles:   53953733 heartbeat IPC: 1.51997 cumulative IPC: 1.51982 (Simulation time: 0 hr 3 min 18 sec) 
Heartbeat CPU  0 instructions:   83000001 cycles:   54611585 heartbeat IPC: 1.52010 cumulative IPC: 1.51982 (Simulation time: 0 hr 3 min 20 sec) 
Heartbeat CPU  0 instructions:   84000000 cycles:   55269444 heartbeat IPC: 1.52008 cumulative IPC: 1.51983 (Simulation time: 0 hr 3 min 23 sec) 
Heartbeat CPU  0 instructions:   85000000 cycles:   55927426 heartbeat IPC: 1.51980 cumulative IPC: 1.51983 (Simulation time: 0 hr 3 min 25 sec) 
Heartbeat CPU  0 instructions:   86000002 cycles:   56585336 heartbeat IPC: 1.51997 cumulative IPC: 1.51983 (Simulation time: 0 hr 3 min 28 sec) 
Heartbeat CPU  0 instructions:   87000001 cycles:   57243438 heartbeat IPC: 1.51952 cumulative IPC: 1.51982 (Simulation time: 0 hr 3 min 30 sec) 
Heartbeat CPU  0 instructions:   88000000 cycles:   57901557 heartbeat IPC: 1.51948 cumulative IPC: 1.51982 (Simulation time: 0 hr 3 min 33 sec) 
Heartbeat CPU  0 instructions:   89000001 cycles:   58559571 heartbeat IPC: 1.51973 cumulative IPC: 1.51982 (Simulation time: 0 hr 3 min 35 sec) 
Heartbeat CPU  0 instructions:   90000003 cycles:   59217662 heartbeat IPC: 1.51955 cumulative IPC: 1.51982 (Simulation time: 0 hr 3 min 37 sec) 
Heartbeat CPU  0 instructions:   91000000 cycles:   59875621 heartbeat IPC: 1.51985 cumulative IPC: 1.51982 (Simulation time: 0 hr 3 min 40 sec) 
Heartbeat CPU  0 instructions:   92000000 cycles:   60533642 heartbeat IPC: 1.51971 cumulative IPC: 1.51982 (Simulation time: 0 hr 3 min 42 sec) 
Heartbeat CPU  0 instructions:   93000001 cycles:   61191588 heartbeat IPC: 1.51988 cumulative IPC: 1.51982 (Simulation time: 0 hr 3 min 45 sec) 
Heartbeat CPU  0 instructions:   94000001 cycles:   61849625 heartbeat IPC: 1.51967 cumulative IPC: 1.51982 (Simulation time: 0 hr 3 min 47 sec) 
Heartbeat CPU  0 instructions:   95000000 cycles:   62507591 heartbeat IPC: 1.51983 cumulative IPC: 1.51982 (Simulation time: 0 hr 3 min 49 sec) 
Heartbeat CPU  0 instructions:   96000000 cycles:   63165454 heartbeat IPC: 1.52007 cumulative IPC: 1.51982 (Simulation time: 0 hr 3 min 52 sec) 
Heartbeat CPU  0 instructions:   97000000 cycles:   63823499 heartbeat IPC: 1.51965 cumulative IPC: 1.51982 (Simulation time: 0 hr 3 min 54 sec) 
Heartbeat CPU  0 instructions:   98000001 cycles:   64481513 heartbeat IPC: 1.51973 cumulative IPC: 1.51982 (Simulation time: 0 hr 3 min 57 sec) 
Heartbeat CPU  0 instructions:   99000003 cycles:   65139500 heartbeat IPC: 1.51979 cumulative IPC: 1.51982 (Simulation time: 0 hr 3 min 59 sec) 
Heartbeat CPU  0 instructions:  100000000 cycles:   65797403 heartbeat IPC: 1.51998 cumulative IPC: 1.51982 (Simulation time: 0 hr 4 min 1 sec) 

Warmup complete CPU  0 instructions:  100000002 cycles:   65797406 (Simulation time: 0 hr 4 min 1 sec) 

Heartbeat CPU  0 instructions:  101000001 cycles:   69789085 heartbeat IPC: 0.25052 cumulative IPC: 0.25052 (Simulation time: 0 hr 4 min 6 sec) 
Heartbeat CPU  0 instructions:  102000000 cycles:   73829813 heartbeat IPC: 0.24748 cumulative IPC: 0.24899 (Simulation time: 0 hr 4 min 11 sec) 
Heartbeat CPU  0 instructions:  103000001 cycles:   77854199 heartbeat IPC: 0.24849 cumulative IPC: 0.24882 (Simulation time: 0 hr 4 min 15 sec) 
Heartbeat CPU  0 instructions:  104000000 cycles:   81851569 heartbeat IPC: 0.25016 cumulative IPC: 0.24916 (Simulation time: 0 hr 4 min 20 sec) 
Heartbeat CPU  0 instructions:  105000002 cycles:   85871379 heartbeat IPC: 0.24877 cumulative IPC: 0.24908 (Simulation time: 0 hr 4 min 25 sec) 
Heartbeat CPU  0 instructions:  106000000 cycles:   89879359 heartbeat IPC: 0.24950 cumulative IPC: 0.24915 (Simulation time: 0 hr 4 min 29 sec) 
Heartbeat CPU  0 instructions:  107000001 cycles:   93907339 heartbeat IPC: 0.24826 cumulative IPC: 0.24902 (Simulation time: 0 hr 4 min 34 sec) 
Heartbeat CPU  0 instructions:  108000000 cycles:   97929161 heartbeat IPC: 0.24864 cumulative IPC: 0.24897 (Simulation time: 0 hr 4 min 39 sec) 
Heartbeat CPU  0 instructions:  109000001 cycles:  101937990 heartbeat IPC: 0.24945 cumulative IPC: 0.24903 (Simulation time: 0 hr 4 min 43 sec) 
Heartbeat CPU  0 instructions:  110000001 cycles:  105962624 heartbeat IPC: 0.24847 cumulative IPC: 0.24897 (Simulation time: 0 hr 4 min 48 sec) 
Heartbeat CPU  0 instructions:  111000000 cycles:  109978687 heartbeat IPC: 0.24900 cumulative IPC: 0.24897 (Simulation time: 0 hr 4 min 53 sec) 
Heartbeat CPU  0 instructions:  112000000 cycles:  114008862 heartbeat IPC: 0.24813 cumulative IPC: 0.24890 (Simulation time: 0 hr 4 min 57 sec) 
Heartbeat CPU  0 instructions:  113000000 cycles:  118036226 heartbeat IPC: 0.24830 cumulative IPC: 0.24886 (Simulation time: 0 hr 5 min 2 sec) 
Heartbeat CPU  0 instructions:  114000002 cycles:  122057771 heartbeat IPC: 0.24866 cumulative IPC: 0.24884 (Simulation time: 0 hr 5 min 7 sec) 
Heartbeat CPU  0 instructions:  115000000 cycles:  126065363 heartbeat IPC: 0.24953 cumulative IPC: 0.24889 (Simulation time: 0 hr 5 min 11 sec) 
Heartbeat CPU  0 instructions:  116000000 cycles:  130075009 heartbeat IPC: 0.24940 cumulative IPC: 0.24892 (Simulation time: 0 hr 5 min 16 sec) 
Heartbeat CPU  0 instructions:  117000003 cycles:  134111473 heartbeat IPC: 0.24774 cumulative IPC: 0.24885 (Simulation time: 0 hr 5 min 20 sec) 
Heartbeat CPU  0 instructions:  118000000 cycles:  138132363 heartbeat IPC: 0.24870 cumulative IPC: 0.24884 (Simulation time: 0 hr 5 min 25 sec) 
Heartbeat CPU  0 instructions:  119000001 cycles:  142141470 heartbeat IPC: 0.24943 cumulative IPC: 0.24887 (Simulation time: 0 hr 5 min 30 sec) 
Heartbeat CPU  0 instructions:  120000000 cycles:  146161261 heartbeat IPC: 0.24877 cumulative IPC: 0.24887 (Simulation time: 0 hr 5 min 34 sec) 
Heartbeat CPU  0 instructions:  121000003 cycles:  150180439 heartbeat IPC: 0.24881 cumulative IPC: 0.24887 (Simulation time: 0 hr 5 min 39 sec) 
Heartbeat CPU  0 instructions:  122000000 cycles:  154201965 heartbeat IPC: 0.24866 cumulative IPC: 0.24886 (Simulation time: 0 hr 5 min 44 sec) 
Heartbeat CPU  0 instructions:  123000002 cycles:  158211597 heartbeat IPC: 0.24940 cumulative IPC: 0.24888 (Simulation time: 0 hr 5 min 48 sec) 
Heartbeat CPU  0 instructions:  124000000 cycles:  162235763 heartbeat IPC: 0.24850 cumulative IPC: 0.24886 (Simulation time: 0 hr 5 min 53 sec) 
Heartbeat CPU  0 instructions:  125000003 cycles:  166267361 heartbeat IPC: 0.24804 cumulative IPC: 0.24883 (Simulation time: 0 hr 5 min 58 sec) 
Heartbeat CPU  0 instructions:  126000002 cycles:  170268278 heartbeat IPC: 0.24994 cumulative IPC: 0.24887 (Simulation time: 0 hr 6 min 2 sec) 
Heartbeat CPU  0 instructions:  127000000 cycles:  174296289 heartbeat IPC: 0.24826 cumulative IPC: 0.24885 (Simulation time: 0 hr 6 min 7 sec) 
Heartbeat CPU  0 instructions:  128000000 cycles:  178308236 heartbeat IPC: 0.24926 cumulative IPC: 0.24886 (Simulation time: 0 hr 6 min 11 sec) 
Heartbeat CPU  0 instructions:  129000000 cycles:  182327862 heartbeat IPC: 0.24878 cumulative IPC: 0.24886 (Simulation time: 0 hr 6 min 16 sec) 
Heartbeat CPU  0 instructions:  130000001 cycles:  186359015 heartbeat IPC: 0.24807 cumulative IPC: 0.24884 (Simulation time: 0 hr 6 min 21 sec) 
Heartbeat CPU  0 instructions:  131000000 cycles:  190376323 heartbeat IPC: 0.24892 cumulative IPC: 0.24884 (Simulation time: 0 hr 6 min 25 sec) 
Heartbeat CPU  0 instructions:  132000000 cycles:  194407019 heartbeat IPC: 0.24810 cumulative IPC: 0.24881 (Simulation time: 0 hr 6 min 30 sec) 
Heartbeat CPU  0 instructions:  133000001 cycles:  198428394 heartbeat IPC: 0.24867 cumulative IPC: 0.24881 (Simulation time: 0 hr 6 min 35 sec) 
Heartbeat CPU  0 instructions:  134000000 cycles:  202448452 heartbeat IPC: 0.24875 cumulative IPC: 0.24881 (Simulation time: 0 hr 6 min 39 sec) 
Heartbeat CPU  0 instructions:  135000002 cycles:  206464094 heartbeat IPC: 0.24903 cumulative IPC: 0.24882 (Simulation time: 0 hr 6 min 44 sec) 
Heartbeat CPU  0 instructions:  136000000 cycles:  210470919 heartbeat IPC: 0.24957 cumulative IPC: 0.24884 (Simulation time: 0 hr 6 min 48 sec) 
Heartbeat CPU  0 instructions:  137000002 cycles:  214492998 heartbeat IPC: 0.24863 cumulative IPC: 0.24883 (Simulation time: 0 hr 6 min 53 sec) 
Heartbeat CPU  0 instructions:  138000000 cycles:  218513490 heartbeat IPC: 0.24873 cumulative IPC: 0.24883 (Simulation time: 0 hr 6 min 58 sec) 
Heartbeat CPU  0 instructions:  139000002 cycles:  222535519 heartbeat IPC: 0.24863 cumulative IPC: 0.24882 (Simulation time: 0 hr 7 min 2 sec) 
Heartbeat CPU  0 instructions:  140000000 cycles:  226547893 heartbeat IPC: 0.24923 cumulative IPC: 0.24883 (Simulation time: 0 hr 7 min 7 sec) 
Heartbeat CPU  0 instructions:  141000003 cycles:  230580676 heartbeat IPC: 0.24797 cumulative IPC: 0.24881 (Simulation time: 0 hr 7 min 12 sec) 
Heartbeat CPU  0 instructions:  142000001 cycles:  234585789 heartbeat IPC: 0.24968 cumulative IPC: 0.24883 (Simulation time: 0 hr 7 min 16 sec) 
Heartbeat CPU  0 instructions:  143000001 cycles:  238592713 heartbeat IPC: 0.24957 cumulative IPC: 0.24885 (Simulation time: 0 hr 7 min 21 sec) 
Heartbeat CPU  0 instructions:  144000000 cycles:  242623202 heartbeat IPC: 0.24811 cumulative IPC: 0.24883 (Simulation time: 0 hr 7 min 25 sec) 
Heartbeat CPU  0 instructions:  145000001 cycles:  246652380 heartbeat IPC: 0.24819 cumulative IPC: 0.24882 (Simulation time: 0 hr 7 min 30 sec) 
Heartbeat CPU  0 instructions:  146000003 cycles:  250668813 heartbeat IPC: 0.24898 cumulative IPC: 0.24882 (Simulation time: 0 hr 7 min 35 sec) 
Heartbeat CPU  0 instructions:  147000002 cycles:  254708706 heartbeat IPC: 0.24753 cumulative IPC: 0.24879 (Simulation time: 0 hr 7 min 39 sec) 
Heartbeat CPU  0 instructions:  148000000 cycles:  258709676 heartbeat IPC: 0.24994 cumulative IPC: 0.24882 (Simulation time: 0 hr 7 min 44 sec) 
Heartbeat CPU  0 instructions:  149000001 cycles:  262736827 heartbeat IPC: 0.24831 cumulative IPC: 0.24881 (Simulation time: 0 hr 7 min 48 sec) 
Heartbeat CPU  0 instructions:  150000002 cycles:  266753449 heartbeat IPC: 0.24897 cumulative IPC: 0.24881 (Simulation time: 0 hr 7 min 52 sec) 
Heartbeat CPU  0 instructions:  151000001 cycles:  270763054 heartbeat IPC: 0.24940 cumulative IPC: 0.24882 (Simulation time: 0 hr 7 min 57 sec) 
Heartbeat CPU  0 instructions:  152000000 cycles:  274782967 heartbeat IPC: 0.24876 cumulative IPC: 0.24882 (Simulation time: 0 hr 8 min 1 sec) 
Heartbeat CPU  0 instructions:  153000002 cycles:  278800175 heartbeat IPC: 0.24893 cumulative IPC: 0.24882 (Simulation time: 0 hr 8 min 6 sec) 
Heartbeat CPU  0 instructions:  154000001 cycles:  282823160 heartbeat IPC: 0.24857 cumulative IPC: 0.24882 (Simulation time: 0 hr 8 min 10 sec) 
Heartbeat CPU  0 instructions:  155000002 cycles:  286834923 heartbeat IPC: 0.24927 cumulative IPC: 0.24883 (Simulation time: 0 hr 8 min 15 sec) 
Heartbeat CPU  0 instructions:  156000000 cycles:  290862390 heartbeat IPC: 0.24829 cumulative IPC: 0.24882 (Simulation time: 0 hr 8 min 19 sec) 
Heartbeat CPU  0 instructions:  157000002 cycles:  294886921 heartbeat IPC: 0.24848 cumulative IPC: 0.24881 (Simulation time: 0 hr 8 min 23 sec) 
Heartbeat CPU  0 instructions:  158000000 cycles:  298908426 heartbeat IPC: 0.24866 cumulative IPC: 0.24881 (Simulation time: 0 hr 8 min 28 sec) 
Heartbeat CPU  0 instructions:  159000000 cycles:  302921535 heartbeat IPC: 0.24918 cumulative IPC: 0.24881 (Simulation time: 0 hr 8 min 33 sec) 
Heartbeat CPU  0 instructions:  160000000 cycles:  306941364 heartbeat IPC: 0.24877 cumulative IPC: 0.24881 (Simulation time: 0 hr 8 min 38 sec) 
Heartbeat CPU  0 instructions:  161000000 cycles:  310959773 heartbeat IPC: 0.24885 cumulative IPC: 0.24881 (Simulation time: 0 hr 8 min 42 sec) 
Heartbeat CPU  0 instructions:  162000000 cycles:  314982607 heartbeat IPC: 0.24858 cumulative IPC: 0.24881 (Simulation time: 0 hr 8 min 47 sec) 
Heartbeat CPU  0 instructions:  163000001 cycles:  319006986 heartbeat IPC: 0.24849 cumulative IPC: 0.24881 (Simulation time: 0 hr 8 min 51 sec) 
Heartbeat CPU  0 instructions:  164000000 cycles:  323010652 heartbeat IPC: 0.24977 cumulative IPC: 0.24882 (Simulation time: 0 hr 8 min 56 sec) 
Heartbeat CPU  0 instructions:  165000001 cycles:  327036574 heartbeat IPC: 0.24839 cumulative IPC: 0.24881 (Simulation time: 0 hr 9 min 0 sec) 
Heartbeat CPU  0 instructions:  166000002 cycles:  331061122 heartbeat IPC: 0.24848 cumulative IPC: 0.24881 (Simulation time: 0 hr 9 min 4 sec) 
Heartbeat CPU  0 instructions:  167000001 cycles:  335067370 heartbeat IPC: 0.24961 cumulative IPC: 0.24882 (Simulation time: 0 hr 9 min 9 sec) 
Heartbeat CPU  0 instructions:  168000000 cycles:  339097706 heartbeat IPC: 0.24812 cumulative IPC: 0.24881 (Simulation time: 0 hr 9 min 13 sec) 
Heartbeat CPU  0 instructions:  169000002 cycles:  343100834 heartbeat IPC: 0.24981 cumulative IPC: 0.24882 (Simulation time: 0 hr 9 min 18 sec) 
Heartbeat CPU  0 instructions:  170000001 cycles:  347139747 heartbeat IPC: 0.24759 cumulative IPC: 0.24881 (Simulation time: 0 hr 9 min 22 sec) 
Heartbeat CPU  0 instructions:  171000000 cycles:  351156722 heartbeat IPC: 0.24894 cumulative IPC: 0.24881 (Simulation time: 0 hr 9 min 26 sec) 
Heartbeat CPU  0 instructions:  172000000 cycles:  355172165 heartbeat IPC: 0.24904 cumulative IPC: 0.24881 (Simulation time: 0 hr 9 min 31 sec) 
Heartbeat CPU  0 instructions:  173000000 cycles:  359191888 heartbeat IPC: 0.24877 cumulative IPC: 0.24881 (Simulation time: 0 hr 9 min 35 sec) 
Heartbeat CPU  0 instructions:  174000000 cycles:  363210627 heartbeat IPC: 0.24883 cumulative IPC: 0.24881 (Simulation time: 0 hr 9 min 40 sec) 
Heartbeat CPU  0 instructions:  175000003 cycles:  367233797 heartbeat IPC: 0.24856 cumulative IPC: 0.24881 (Simulation time: 0 hr 9 min 44 sec) 
Heartbeat CPU  0 instructions:  176000000 cycles:  371241551 heartbeat IPC: 0.24952 cumulative IPC: 0.24882 (Simulation time: 0 hr 9 min 48 sec) 
Heartbeat CPU  0 instructions:  177000000 cycles:  375268830 heartbeat IPC: 0.24831 cumulative IPC: 0.24881 (Simulation time: 0 hr 9 min 53 sec) 
Heartbeat CPU  0 instructions:  178000003 cycles:  379298078 heartbeat IPC: 0.24819 cumulative IPC: 0.24880 (Simulation time: 0 hr 9 min 57 sec) 
Heartbeat CPU  0 instructions:  179000001 cycles:  383319173 heartbeat IPC: 0.24869 cumulative IPC: 0.24880 (Simulation time: 0 hr 10 min 2 sec) 
Heartbeat CPU  0 instructions:  180000000 cycles:  387331264 heartbeat IPC: 0.24925 cumulative IPC: 0.24881 (Simulation time: 0 hr 10 min 6 sec) 
Heartbeat CPU  0 instructions:  181000001 cycles:  391350483 heartbeat IPC: 0.24880 cumulative IPC: 0.24881 (Simulation time: 0 hr 10 min 11 sec) 
Heartbeat CPU  0 instructions:  182000000 cycles:  395366403 heartbeat IPC: 0.24901 cumulative IPC: 0.24881 (Simulation time: 0 hr 10 min 15 sec) 
Heartbeat CPU  0 instructions:  183000002 cycles:  399403035 heartbeat IPC: 0.24773 cumulative IPC: 0.24880 (Simulation time: 0 hr 10 min 19 sec) 
Heartbeat CPU  0 instructions:  184000000 cycles:  403402125 heartbeat IPC: 0.25006 cumulative IPC: 0.24881 (Simulation time: 0 hr 10 min 23 sec) 
Heartbeat CPU  0 instructions:  185000000 cycles:  407423877 heartbeat IPC: 0.24865 cumulative IPC: 0.24881 (Simulation time: 0 hr 10 min 28 sec) 
Heartbeat CPU  0 instructions:  186000000 cycles:  411437722 heartbeat IPC: 0.24914 cumulative IPC: 0.24881 (Simulation time: 0 hr 10 min 33 sec) 
Heartbeat CPU  0 instructions:  187000003 cycles:  415462160 heartbeat IPC: 0.24848 cumulative IPC: 0.24881 (Simulation time: 0 hr 10 min 38 sec) 
Heartbeat CPU  0 instructions:  188000000 cycles:  419496403 heartbeat IPC: 0.24788 cumulative IPC: 0.24880 (Simulation time: 0 hr 10 min 42 sec) 
Heartbeat CPU  0 instructions:  189000000 cycles:  423507755 heartbeat IPC: 0.24929 cumulative IPC: 0.24880 (Simulation time: 0 hr 10 min 47 sec) 
Heartbeat CPU  0 instructions:  190000003 cycles:  427520882 heartbeat IPC: 0.24918 cumulative IPC: 0.24881 (Simulation time: 0 hr 10 min 51 sec) 
Heartbeat CPU  0 instructions:  191000001 cycles:  431542081 heartbeat IPC: 0.24868 cumulative IPC: 0.24881 (Simulation time: 0 hr 10 min 55 sec) 
Heartbeat CPU  0 instructions:  192000000 cycles:  435568957 heartbeat IPC: 0.24833 cumulative IPC: 0.24880 (Simulation time: 0 hr 11 min 0 sec) 
Heartbeat CPU  0 instructions:  193000001 cycles:  439583688 heartbeat IPC: 0.24908 cumulative IPC: 0.24881 (Simulation time: 0 hr 11 min 4 sec) 
Heartbeat CPU  0 instructions:  194000001 cycles:  443601375 heartbeat IPC: 0.24890 cumulative IPC: 0.24881 (Simulation time: 0 hr 11 min 8 sec) 
Heartbeat CPU  0 instructions:  195000002 cycles:  447619140 heartbeat IPC: 0.24889 cumulative IPC: 0.24881 (Simulation time: 0 hr 11 min 13 sec) 
Heartbeat CPU  0 instructions:  196000000 cycles:  451641943 heartbeat IPC: 0.24858 cumulative IPC: 0.24880 (Simulation time: 0 hr 11 min 17 sec) 
Heartbeat CPU  0 instructions:  197000001 cycles:  455665320 heartbeat IPC: 0.24855 cumulative IPC: 0.24880 (Simulation time: 0 hr 11 min 21 sec) 
Heartbeat CPU  0 instructions:  198000002 cycles:  459692228 heartbeat IPC: 0.24833 cumulative IPC: 0.24880 (Simulation time: 0 hr 11 min 25 sec) 
Heartbeat CPU  0 instructions:  199000003 cycles:  463703921 heartbeat IPC: 0.24927 cumulative IPC: 0.24880 (Simulation time: 0 hr 11 min 29 sec) 
Heartbeat CPU  0 instructions:  200000000 cycles:  467725785 heartbeat IPC: 0.24864 cumulative IPC: 0.24880 (Simulation time: 0 hr 11 min 33 sec) 
Heartbeat CPU  0 instructions:  201000002 cycles:  471748244 heartbeat IPC: 0.24860 cumulative IPC: 0.24880 (Simulation time: 0 hr 11 min 38 sec) 
Heartbeat CPU  0 instructions:  202000000 cycles:  475776841 heartbeat IPC: 0.24822 cumulative IPC: 0.24879 (Simulation time: 0 hr 11 min 42 sec) 
Heartbeat CPU  0 instructions:  203000000 cycles:  479798349 heartbeat IPC: 0.24866 cumulative IPC: 0.24879 (Simulation time: 0 hr 11 min 46 sec) 
Heartbeat CPU  0 instructions:  204000000 cycles:  483802703 heartbeat IPC: 0.24973 cumulative IPC: 0.24880 (Simulation time: 0 hr 11 min 50 sec) 
Heartbeat CPU  0 instructions:  205000003 cycles:  487856218 heartbeat IPC: 0.24670 cumulative IPC: 0.24878 (Simulation time: 0 hr 11 min 54 sec) 
Heartbeat CPU  0 instructions:  206000002 cycles:  491847694 heartbeat IPC: 0.25053 cumulative IPC: 0.24880 (Simulation time: 0 hr 11 min 58 sec) 
Heartbeat CPU  0 instructions:  207000000 cycles:  495881885 heartbeat IPC: 0.24788 cumulative IPC: 0.24879 (Simulation time: 0 hr 12 min 2 sec) 
Heartbeat CPU  0 instructions:  208000000 cycles:  499885721 heartbeat IPC: 0.24976 cumulative IPC: 0.24880 (Simulation time: 0 hr 12 min 6 sec) 
Heartbeat CPU  0 instructions:  209000002 cycles:  503911619 heartbeat IPC: 0.24839 cumulative IPC: 0.24879 (Simulation time: 0 hr 12 min 10 sec) 
Heartbeat CPU  0 instructions:  210000001 cycles:  507918870 heartbeat IPC: 0.24955 cumulative IPC: 0.24880 (Simulation time: 0 hr 12 min 14 sec) 
Heartbeat CPU  0 instructions:  211000000 cycles:  511962531 heartbeat IPC: 0.24730 cumulative IPC: 0.24879 (Simulation time: 0 hr 12 min 18 sec) 
Heartbeat CPU  0 instructions:  212000000 cycles:  515967487 heartbeat IPC: 0.24969 cumulative IPC: 0.24879 (Simulation time: 0 hr 12 min 22 sec) 
Heartbeat CPU  0 instructions:  213000001 cycles:  519982481 heartbeat IPC: 0.24907 cumulative IPC: 0.24880 (Simulation time: 0 hr 12 min 26 sec) 
Heartbeat CPU  0 instructions:  214000000 cycles:  524013233 heartbeat IPC: 0.24809 cumulative IPC: 0.24879 (Simulation time: 0 hr 12 min 30 sec) 
Heartbeat CPU  0 instructions:  215000002 cycles:  528020229 heartbeat IPC: 0.24956 cumulative IPC: 0.24880 (Simulation time: 0 hr 12 min 34 sec) 
Heartbeat CPU  0 instructions:  216000000 cycles:  532047856 heartbeat IPC: 0.24828 cumulative IPC: 0.24879 (Simulation time: 0 hr 12 min 38 sec) 
Heartbeat CPU  0 instructions:  217000001 cycles:  536059911 heartbeat IPC: 0.24925 cumulative IPC: 0.24880 (Simulation time: 0 hr 12 min 42 sec) 
Heartbeat CPU  0 instructions:  218000002 cycles:  540077192 heartbeat IPC: 0.24892 cumulative IPC: 0.24880 (Simulation time: 0 hr 12 min 46 sec) 
Heartbeat CPU  0 instructions:  219000001 cycles:  544113568 heartbeat IPC: 0.24775 cumulative IPC: 0.24879 (Simulation time: 0 hr 12 min 50 sec) 
Heartbeat CPU  0 instructions:  220000000 cycles:  548124852 heartbeat IPC: 0.24930 cumulative IPC: 0.24879 (Simulation time: 0 hr 12 min 54 sec) 
Heartbeat CPU  0 instructions:  221000001 cycles:  552145356 heartbeat IPC: 0.24873 cumulative IPC: 0.24879 (Simulation time: 0 hr 12 min 58 sec) 
Heartbeat CPU  0 instructions:  222000002 cycles:  556165364 heartbeat IPC: 0.24876 cumulative IPC: 0.24879 (Simulation time: 0 hr 13 min 2 sec) 
Heartbeat CPU  0 instructions:  223000000 cycles:  560176415 heartbeat IPC: 0.24931 cumulative IPC: 0.24880 (Simulation time: 0 hr 13 min 6 sec) 
Heartbeat CPU  0 instructions:  224000000 cycles:  564193185 heartbeat IPC: 0.24896 cumulative IPC: 0.24880 (Simulation time: 0 hr 13 min 10 sec) 
Heartbeat CPU  0 instructions:  225000002 cycles:  568217767 heartbeat IPC: 0.24847 cumulative IPC: 0.24880 (Simulation time: 0 hr 13 min 14 sec) 
Heartbeat CPU  0 instructions:  226000003 cycles:  572244984 heartbeat IPC: 0.24831 cumulative IPC: 0.24879 (Simulation time: 0 hr 13 min 18 sec) 
Heartbeat CPU  0 instructions:  227000002 cycles:  576260693 heartbeat IPC: 0.24902 cumulative IPC: 0.24879 (Simulation time: 0 hr 13 min 22 sec) 
Heartbeat CPU  0 instructions:  228000000 cycles:  580277675 heartbeat IPC: 0.24894 cumulative IPC: 0.24879 (Simulation time: 0 hr 13 min 26 sec) 
Heartbeat CPU  0 instructions:  229000001 cycles:  584287990 heartbeat IPC: 0.24936 cumulative IPC: 0.24880 (Simulation time: 0 hr 13 min 30 sec) 
Heartbeat CPU  0 instructions:  230000002 cycles:  588314026 heartbeat IPC: 0.24838 cumulative IPC: 0.24880 (Simulation time: 0 hr 13 min 34 sec) 
Heartbeat CPU  0 instructions:  231000001 cycles:  592319595 heartbeat IPC: 0.24965 cumulative IPC: 0.24880 (Simulation time: 0 hr 13 min 38 sec) 
Heartbeat CPU  0 instructions:  232000000 cycles:  596355233 heartbeat IPC: 0.24779 cumulative IPC: 0.24879 (Simulation time: 0 hr 13 min 42 sec) 
Heartbeat CPU  0 instructions:  233000000 cycles:  600375404 heartbeat IPC: 0.24875 cumulative IPC: 0.24879 (Simulation time: 0 hr 13 min 47 sec) 
Heartbeat CPU  0 instructions:  234000001 cycles:  604385705 heartbeat IPC: 0.24936 cumulative IPC: 0.24880 (Simulation time: 0 hr 13 min 52 sec) 
Heartbeat CPU  0 instructions:  235000001 cycles:  608418563 heartbeat IPC: 0.24796 cumulative IPC: 0.24879 (Simulation time: 0 hr 13 min 57 sec) 
Heartbeat CPU  0 instructions:  236000000 cycles:  612431550 heartbeat IPC: 0.24919 cumulative IPC: 0.24880 (Simulation time: 0 hr 14 min 2 sec) 
Heartbeat CPU  0 instructions:  237000000 cycles:  616447711 heartbeat IPC: 0.24899 cumulative IPC: 0.24880 (Simulation time: 0 hr 14 min 7 sec) 
Heartbeat CPU  0 instructions:  238000000 cycles:  620466447 heartbeat IPC: 0.24883 cumulative IPC: 0.24880 (Simulation time: 0 hr 14 min 12 sec) 
Heartbeat CPU  0 instructions:  239000001 cycles:  624483668 heartbeat IPC: 0.24893 cumulative IPC: 0.24880 (Simulation time: 0 hr 14 min 16 sec) 
Heartbeat CPU  0 instructions:  240000000 cycles:  628515594 heartbeat IPC: 0.24802 cumulative IPC: 0.24879 (Simulation time: 0 hr 14 min 21 sec) 
Heartbeat CPU  0 instructions:  241000000 cycles:  632534308 heartbeat IPC: 0.24884 cumulative IPC: 0.24879 (Simulation time: 0 hr 14 min 25 sec) 
Heartbeat CPU  0 instructions:  242000003 cycles:  636547451 heartbeat IPC: 0.24918 cumulative IPC: 0.24880 (Simulation time: 0 hr 14 min 30 sec) 
Heartbeat CPU  0 instructions:  243000000 cycles:  640576720 heartbeat IPC: 0.24818 cumulative IPC: 0.24879 (Simulation time: 0 hr 14 min 34 sec) 
Heartbeat CPU  0 instructions:  244000000 cycles:  644591565 heartbeat IPC: 0.24908 cumulative IPC: 0.24879 (Simulation time: 0 hr 14 min 39 sec) 
Heartbeat CPU  0 instructions:  245000001 cycles:  648612397 heartbeat IPC: 0.24870 cumulative IPC: 0.24879 (Simulation time: 0 hr 14 min 43 sec) 
Heartbeat CPU  0 instructions:  246000001 cycles:  652638539 heartbeat IPC: 0.24838 cumulative IPC: 0.24879 (Simulation time: 0 hr 14 min 47 sec) 
Heartbeat CPU  0 instructions:  247000001 cycles:  656643084 heartbeat IPC: 0.24972 cumulative IPC: 0.24880 (Simulation time: 0 hr 14 min 52 sec) 
Heartbeat CPU  0 instructions:  248000000 cycles:  660670859 heartbeat IPC: 0.24828 cumulative IPC: 0.24879 (Simulation time: 0 hr 14 min 56 sec) 
Heartbeat CPU  0 instructions:  249000003 cycles:  664675252 heartbeat IPC: 0.24973 cumulative IPC: 0.24880 (Simulation time: 0 hr 15 min 0 sec) 
Heartbeat CPU  0 instructions:  250000001 cycles:  668703721 heartbeat IPC: 0.24823 cumulative IPC: 0.24879 (Simulation time: 0 hr 15 min 5 sec) 
Heartbeat CPU  0 instructions:  251000000 cycles:  672716313 heartbeat IPC: 0.24922 cumulative IPC: 0.24880 (Simulation time: 0 hr 15 min 9 sec) 
Heartbeat CPU  0 instructions:  252000000 cycles:  676745423 heartbeat IPC: 0.24819 cumulative IPC: 0.24879 (Simulation time: 0 hr 15 min 13 sec) 
Heartbeat CPU  0 instructions:  253000000 cycles:  680747816 heartbeat IPC: 0.24985 cumulative IPC: 0.24880 (Simulation time: 0 hr 15 min 18 sec) 
Heartbeat CPU  0 instructions:  254000001 cycles:  684799392 heartbeat IPC: 0.24682 cumulative IPC: 0.24879 (Simulation time: 0 hr 15 min 22 sec) 
Heartbeat CPU  0 instructions:  255000000 cycles:  688793294 heartbeat IPC: 0.25038 cumulative IPC: 0.24880 (Simulation time: 0 hr 15 min 26 sec) 
Heartbeat CPU  0 instructions:  256000000 cycles:  692826194 heartbeat IPC: 0.24796 cumulative IPC: 0.24879 (Simulation time: 0 hr 15 min 30 sec) 
Heartbeat CPU  0 instructions:  257000000 cycles:  696835881 heartbeat IPC: 0.24940 cumulative IPC: 0.24880 (Simulation time: 0 hr 15 min 35 sec) 
Heartbeat CPU  0 instructions:  258000003 cycles:  700864291 heartbeat IPC: 0.24824 cumulative IPC: 0.24879 (Simulation time: 0 hr 15 min 39 sec) 
Heartbeat CPU  0 instructions:  259000002 cycles:  704873351 heartbeat IPC: 0.24943 cumulative IPC: 0.24880 (Simulation time: 0 hr 15 min 43 sec) 
Heartbeat CPU  0 instructions:  260000000 cycles:  708907732 heartbeat IPC: 0.24787 cumulative IPC: 0.24879 (Simulation time: 0 hr 15 min 47 sec) 
Heartbeat CPU  0 instructions:  261000003 cycles:  712927064 heartbeat IPC: 0.24880 cumulative IPC: 0.24879 (Simulation time: 0 hr 15 min 52 sec) 
Heartbeat CPU  0 instructions:  262000000 cycles:  716942228 heartbeat IPC: 0.24906 cumulative IPC: 0.24879 (Simulation time: 0 hr 15 min 56 sec) 
Heartbeat CPU  0 instructions:  263000000 cycles:  720952659 heartbeat IPC: 0.24935 cumulative IPC: 0.24880 (Simulation time: 0 hr 16 min 0 sec) 
Heartbeat CPU  0 instructions:  264000000 cycles:  724980962 heartbeat IPC: 0.24824 cumulative IPC: 0.24879 (Simulation time: 0 hr 16 min 5 sec) 
Heartbeat CPU  0 instructions:  265000002 cycles:  728993081 heartbeat IPC: 0.24925 cumulative IPC: 0.24880 (Simulation time: 0 hr 16 min 9 sec) 
Heartbeat CPU  0 instructions:  266000003 cycles:  733023777 heartbeat IPC: 0.24810 cumulative IPC: 0.24879 (Simulation time: 0 hr 16 min 13 sec) 
Heartbeat CPU  0 instructions:  267000003 cycles:  737048095 heartbeat IPC: 0.24849 cumulative IPC: 0.24879 (Simulation time: 0 hr 16 min 17 sec) 
Heartbeat CPU  0 instructions:  268000000 cycles:  741057998 heartbeat IPC: 0.24938 cumulative IPC: 0.24879 (Simulation time: 0 hr 16 min 22 sec) 
Heartbeat CPU  0 instructions:  269000000 cycles:  745091924 heartbeat IPC: 0.24790 cumulative IPC: 0.24879 (Simulation time: 0 hr 16 min 26 sec) 
Heartbeat CPU  0 instructions:  270000001 cycles:  749093269 heartbeat IPC: 0.24992 cumulative IPC: 0.24879 (Simulation time: 0 hr 16 min 31 sec) 
Heartbeat CPU  0 instructions:  271000001 cycles:  753124101 heartbeat IPC: 0.24809 cumulative IPC: 0.24879 (Simulation time: 0 hr 16 min 35 sec) 
Heartbeat CPU  0 instructions:  272000000 cycles:  757137862 heartbeat IPC: 0.24914 cumulative IPC: 0.24879 (Simulation time: 0 hr 16 min 39 sec) 
Heartbeat CPU  0 instructions:  273000003 cycles:  761157607 heartbeat IPC: 0.24877 cumulative IPC: 0.24879 (Simulation time: 0 hr 16 min 43 sec) 
Heartbeat CPU  0 instructions:  274000002 cycles:  765176427 heartbeat IPC: 0.24883 cumulative IPC: 0.24879 (Simulation time: 0 hr 16 min 47 sec) 
Heartbeat CPU  0 instructions:  275000000 cycles:  769201767 heartbeat IPC: 0.24843 cumulative IPC: 0.24879 (Simulation time: 0 hr 16 min 52 sec) 
Heartbeat CPU  0 instructions:  276000000 cycles:  773223495 heartbeat IPC: 0.24865 cumulative IPC: 0.24879 (Simulation time: 0 hr 16 min 56 sec) 
Heartbeat CPU  0 instructions:  277000002 cycles:  777235640 heartbeat IPC: 0.24924 cumulative IPC: 0.24879 (Simulation time: 0 hr 17 min 0 sec) 
Heartbeat CPU  0 instructions:  278000000 cycles:  781264876 heartbeat IPC: 0.24819 cumulative IPC: 0.24879 (Simulation time: 0 hr 17 min 4 sec) 
Heartbeat CPU  0 instructions:  279000001 cycles:  785285031 heartbeat IPC: 0.24875 cumulative IPC: 0.24879 (Simulation time: 0 hr 17 min 8 sec) 
Heartbeat CPU  0 instructions:  280000000 cycles:  789299611 heartbeat IPC: 0.24909 cumulative IPC: 0.24879 (Simulation time: 0 hr 17 min 13 sec) 
Heartbeat CPU  0 instructions:  281000000 cycles:  793307867 heartbeat IPC: 0.24949 cumulative IPC: 0.24879 (Simulation time: 0 hr 17 min 17 sec) 
Heartbeat CPU  0 instructions:  282000000 cycles:  797333332 heartbeat IPC: 0.24842 cumulative IPC: 0.24879 (Simulation time: 0 hr 17 min 21 sec) 
Heartbeat CPU  0 instructions:  283000003 cycles:  801344479 heartbeat IPC: 0.24931 cumulative IPC: 0.24879 (Simulation time: 0 hr 17 min 25 sec) 
Heartbeat CPU  0 instructions:  284000000 cycles:  805369202 heartbeat IPC: 0.24846 cumulative IPC: 0.24879 (Simulation time: 0 hr 17 min 29 sec) 
Heartbeat CPU  0 instructions:  285000000 cycles:  809391947 heartbeat IPC: 0.24859 cumulative IPC: 0.24879 (Simulation time: 0 hr 17 min 34 sec) 
Heartbeat CPU  0 instructions:  286000002 cycles:  813413008 heartbeat IPC: 0.24869 cumulative IPC: 0.24879 (Simulation time: 0 hr 17 min 38 sec) 
Heartbeat CPU  0 instructions:  287000000 cycles:  817423673 heartbeat IPC: 0.24933 cumulative IPC: 0.24879 (Simulation time: 0 hr 17 min 42 sec) 
Heartbeat CPU  0 instructions:  288000000 cycles:  821453091 heartbeat IPC: 0.24817 cumulative IPC: 0.24879 (Simulation time: 0 hr 17 min 46 sec) 
Heartbeat CPU  0 instructions:  289000001 cycles:  825466237 heartbeat IPC: 0.24918 cumulative IPC: 0.24879 (Simulation time: 0 hr 17 min 50 sec) 
Heartbeat CPU  0 instructions:  290000002 cycles:  829494647 heartbeat IPC: 0.24824 cumulative IPC: 0.24879 (Simulation time: 0 hr 17 min 54 sec) 
Heartbeat CPU  0 instructions:  291000002 cycles:  833507686 heartbeat IPC: 0.24919 cumulative IPC: 0.24879 (Simulation time: 0 hr 17 min 59 sec) 
Heartbeat CPU  0 instructions:  292000000 cycles:  837521835 heartbeat IPC: 0.24912 cumulative IPC: 0.24879 (Simulation time: 0 hr 18 min 3 sec) 
Heartbeat CPU  0 instructions:  293000001 cycles:  841554506 heartbeat IPC: 0.24797 cumulative IPC: 0.24879 (Simulation time: 0 hr 18 min 7 sec) 
Heartbeat CPU  0 instructions:  294000000 cycles:  845555982 heartbeat IPC: 0.24991 cumulative IPC: 0.24879 (Simulation time: 0 hr 18 min 11 sec) 
Heartbeat CPU  0 instructions:  295000003 cycles:  849589653 heartbeat IPC: 0.24791 cumulative IPC: 0.24879 (Simulation time: 0 hr 18 min 15 sec) 
Heartbeat CPU  0 instructions:  296000000 cycles:  853598339 heartbeat IPC: 0.24946 cumulative IPC: 0.24879 (Simulation time: 0 hr 18 min 19 sec) 
Heartbeat CPU  0 instructions:  297000001 cycles:  857614273 heartbeat IPC: 0.24901 cumulative IPC: 0.24879 (Simulation time: 0 hr 18 min 24 sec) 
Heartbeat CPU  0 instructions:  298000001 cycles:  861644088 heartbeat IPC: 0.24815 cumulative IPC: 0.24879 (Simulation time: 0 hr 18 min 28 sec) 
Heartbeat CPU  0 instructions:  299000000 cycles:  865662494 heartbeat IPC: 0.24885 cumulative IPC: 0.24879 (Simulation time: 0 hr 18 min 32 sec) 
Heartbeat CPU  0 instructions:  300000000 cycles:  869673888 heartbeat IPC: 0.24929 cumulative IPC: 0.24879 (Simulation time: 0 hr 18 min 36 sec) 
Heartbeat CPU  0 instructions:  301000000 cycles:  873702774 heartbeat IPC: 0.24821 cumulative IPC: 0.24879 (Simulation time: 0 hr 18 min 40 sec) 
Heartbeat CPU  0 instructions:  302000002 cycles:  877722189 heartbeat IPC: 0.24879 cumulative IPC: 0.24879 (Simulation time: 0 hr 18 min 44 sec) 
Heartbeat CPU  0 instructions:  303000000 cycles:  881739319 heartbeat IPC: 0.24893 cumulative IPC: 0.24879 (Simulation time: 0 hr 18 min 48 sec) 
Heartbeat CPU  0 instructions:  304000000 cycles:  885757697 heartbeat IPC: 0.24886 cumulative IPC: 0.24879 (Simulation time: 0 hr 18 min 52 sec) 
Heartbeat CPU  0 instructions:  305000001 cycles:  889774639 heartbeat IPC: 0.24895 cumulative IPC: 0.24879 (Simulation time: 0 hr 18 min 57 sec) 
Heartbeat CPU  0 instructions:  306000001 cycles:  893789931 heartbeat IPC: 0.24905 cumulative IPC: 0.24879 (Simulation time: 0 hr 19 min 1 sec) 
Heartbeat CPU  0 instructions:  307000002 cycles:  897815640 heartbeat IPC: 0.24840 cumulative IPC: 0.24879 (Simulation time: 0 hr 19 min 5 sec) 
Heartbeat CPU  0 instructions:  308000000 cycles:  901845525 heartbeat IPC: 0.24815 cumulative IPC: 0.24879 (Simulation time: 0 hr 19 min 9 sec) 
Heartbeat CPU  0 instructions:  309000002 cycles:  905865248 heartbeat IPC: 0.24877 cumulative IPC: 0.24879 (Simulation time: 0 hr 19 min 13 sec) 
Heartbeat CPU  0 instructions:  310000000 cycles:  909867760 heartbeat IPC: 0.24984 cumulative IPC: 0.24879 (Simulation time: 0 hr 19 min 17 sec) 
Heartbeat CPU  0 instructions:  311000002 cycles:  913903813 heartbeat IPC: 0.24777 cumulative IPC: 0.24879 (Simulation time: 0 hr 19 min 21 sec) 
Heartbeat CPU  0 instructions:  312000000 cycles:  917918576 heartbeat IPC: 0.24908 cumulative IPC: 0.24879 (Simulation time: 0 hr 19 min 25 sec) 
Heartbeat CPU  0 instructions:  313000003 cycles:  921941605 heartbeat IPC: 0.24857 cumulative IPC: 0.24879 (Simulation time: 0 hr 19 min 30 sec) 
Heartbeat CPU  0 instructions:  314000002 cycles:  925950724 heartbeat IPC: 0.24943 cumulative IPC: 0.24879 (Simulation time: 0 hr 19 min 34 sec) 
Heartbeat CPU  0 instructions:  315000000 cycles:  929985768 heartbeat IPC: 0.24783 cumulative IPC: 0.24879 (Simulation time: 0 hr 19 min 38 sec) 
Heartbeat CPU  0 instructions:  316000000 cycles:  933984247 heartbeat IPC: 0.25010 cumulative IPC: 0.24879 (Simulation time: 0 hr 19 min 42 sec) 
Heartbeat CPU  0 instructions:  317000001 cycles:  938012095 heartbeat IPC: 0.24827 cumulative IPC: 0.24879 (Simulation time: 0 hr 19 min 46 sec) 
Heartbeat CPU  0 instructions:  318000001 cycles:  942025814 heartbeat IPC: 0.24915 cumulative IPC: 0.24879 (Simulation time: 0 hr 19 min 50 sec) 
Heartbeat CPU  0 instructions:  319000000 cycles:  946051687 heartbeat IPC: 0.24839 cumulative IPC: 0.24879 (Simulation time: 0 hr 19 min 54 sec) 
Heartbeat CPU  0 instructions:  320000000 cycles:  950072469 heartbeat IPC: 0.24871 cumulative IPC: 0.24879 (Simulation time: 0 hr 19 min 58 sec) 
Heartbeat CPU  0 instructions:  321000000 cycles:  954099244 heartbeat IPC: 0.24834 cumulative IPC: 0.24879 (Simulation time: 0 hr 20 min 2 sec) 
Heartbeat CPU  0 instructions:  322000000 cycles:  958123157 heartbeat IPC: 0.24851 cumulative IPC: 0.24879 (Simulation time: 0 hr 20 min 6 sec) 
Heartbeat CPU  0 instructions:  323000002 cycles:  962129923 heartbeat IPC: 0.24958 cumulative IPC: 0.24879 (Simulation time: 0 hr 20 min 10 sec) 
Heartbeat CPU  0 instructions:  324000000 cycles:  966145805 heartbeat IPC: 0.24901 cumulative IPC: 0.24879 (Simulation time: 0 hr 20 min 14 sec) 
Heartbeat CPU  0 instructions:  325000002 cycles:  970169883 heartbeat IPC: 0.24850 cumulative IPC: 0.24879 (Simulation time: 0 hr 20 min 18 sec) 
Heartbeat CPU  0 instructions:  326000001 cycles:  974186322 heartbeat IPC: 0.24898 cumulative IPC: 0.24879 (Simulation time: 0 hr 20 min 22 sec) 
Heartbeat CPU  0 instructions:  327000000 cycles:  978208884 heartbeat IPC: 0.24860 cumulative IPC: 0.24879 (Simulation time: 0 hr 20 min 26 sec) 
Heartbeat CPU  0 instructions:  328000000 cycles:  982229892 heartbeat IPC: 0.24869 cumulative IPC: 0.24879 (Simulation time: 0 hr 20 min 30 sec) 
Heartbeat CPU  0 instructions:  329000003 cycles:  986265769 heartbeat IPC: 0.24778 cumulative IPC: 0.24879 (Simulation time: 0 hr 20 min 34 sec) 
Heartbeat CPU  0 instructions:  330000000 cycles:  990271659 heartbeat IPC: 0.24963 cumulative IPC: 0.24879 (Simulation time: 0 hr 20 min 38 sec) 
Heartbeat CPU  0 instructions:  331000000 cycles:  994287353 heartbeat IPC: 0.24902 cumulative IPC: 0.24879 (Simulation time: 0 hr 20 min 42 sec) 
Heartbeat CPU  0 instructions:  332000000 cycles:  998300367 heartbeat IPC: 0.24919 cumulative IPC: 0.24879 (Simulation time: 0 hr 20 min 46 sec) 
Heartbeat CPU  0 instructions:  333000002 cycles: 1002327418 heartbeat IPC: 0.24832 cumulative IPC: 0.24879 (Simulation time: 0 hr 20 min 49 sec) 
Heartbeat CPU  0 instructions:  334000003 cycles: 1006349743 heartbeat IPC: 0.24861 cumulative IPC: 0.24879 (Simulation time: 0 hr 20 min 53 sec) 
Heartbeat CPU  0 instructions:  335000000 cycles: 1010359865 heartbeat IPC: 0.24937 cumulative IPC: 0.24879 (Simulation time: 0 hr 20 min 57 sec) 
Heartbeat CPU  0 instructions:  336000000 cycles: 1014388700 heartbeat IPC: 0.24821 cumulative IPC: 0.24879 (Simulation time: 0 hr 21 min 1 sec) 
Heartbeat CPU  0 instructions:  337000001 cycles: 1018404508 heartbeat IPC: 0.24902 cumulative IPC: 0.24879 (Simulation time: 0 hr 21 min 5 sec) 
Heartbeat CPU  0 instructions:  338000003 cycles: 1022426655 heartbeat IPC: 0.24862 cumulative IPC: 0.24879 (Simulation time: 0 hr 21 min 9 sec) 
Heartbeat CPU  0 instructions:  339000001 cycles: 1026426723 heartbeat IPC: 0.25000 cumulative IPC: 0.24880 (Simulation time: 0 hr 21 min 13 sec) 
Heartbeat CPU  0 instructions:  340000000 cycles: 1030470725 heartbeat IPC: 0.24728 cumulative IPC: 0.24879 (Simulation time: 0 hr 21 min 17 sec) 
Heartbeat CPU  0 instructions:  341000001 cycles: 1034473294 heartbeat IPC: 0.24984 cumulative IPC: 0.24879 (Simulation time: 0 hr 21 min 21 sec) 
Heartbeat CPU  0 instructions:  342000003 cycles: 1038511921 heartbeat IPC: 0.24761 cumulative IPC: 0.24879 (Simulation time: 0 hr 21 min 25 sec) 
Heartbeat CPU  0 instructions:  343000002 cycles: 1042522040 heartbeat IPC: 0.24937 cumulative IPC: 0.24879 (Simulation time: 0 hr 21 min 29 sec) 
Heartbeat CPU  0 instructions:  344000000 cycles: 1046556463 heartbeat IPC: 0.24787 cumulative IPC: 0.24879 (Simulation time: 0 hr 21 min 33 sec) 
Heartbeat CPU  0 instructions:  345000001 cycles: 1051506722 heartbeat IPC: 0.20201 cumulative IPC: 0.24855 (Simulation time: 0 hr 21 min 37 sec) 
Heartbeat CPU  0 instructions:  346000001 cycles: 1056434611 heartbeat IPC: 0.20293 cumulative IPC: 0.24833 (Simulation time: 0 hr 21 min 40 sec) 
Heartbeat CPU  0 instructions:  347000003 cycles: 1061363591 heartbeat IPC: 0.20288 cumulative IPC: 0.24810 (Simulation time: 0 hr 21 min 44 sec) 
Heartbeat CPU  0 instructions:  348000000 cycles: 1066290802 heartbeat IPC: 0.20295 cumulative IPC: 0.24788 (Simulation time: 0 hr 21 min 47 sec) 
Heartbeat CPU  0 instructions:  349000002 cycles: 1071214000 heartbeat IPC: 0.20312 cumulative IPC: 0.24766 (Simulation time: 0 hr 21 min 51 sec) 
Heartbeat CPU  0 instructions:  350000000 cycles: 1076140176 heartbeat IPC: 0.20300 cumulative IPC: 0.24744 (Simulation time: 0 hr 21 min 55 sec) 
Heartbeat CPU  0 instructions:  351000003 cycles: 1081063680 heartbeat IPC: 0.20311 cumulative IPC: 0.24723 (Simulation time: 0 hr 21 min 58 sec) 
Heartbeat CPU  0 instructions:  352000000 cycles: 1085992214 heartbeat IPC: 0.20290 cumulative IPC: 0.24701 (Simulation time: 0 hr 22 min 2 sec) 
Heartbeat CPU  0 instructions:  353000001 cycles: 1090919408 heartbeat IPC: 0.20296 cumulative IPC: 0.24680 (Simulation time: 0 hr 22 min 5 sec) 
Heartbeat CPU  0 instructions:  354000002 cycles: 1095846605 heartbeat IPC: 0.20296 cumulative IPC: 0.24659 (Simulation time: 0 hr 22 min 9 sec) 
Heartbeat CPU  0 instructions:  355000002 cycles: 1100772053 heartbeat IPC: 0.20303 cumulative IPC: 0.24638 (Simulation time: 0 hr 22 min 12 sec) 
Heartbeat CPU  0 instructions:  356000000 cycles: 1105697970 heartbeat IPC: 0.20301 cumulative IPC: 0.24618 (Simulation time: 0 hr 22 min 16 sec) 
Heartbeat CPU  0 instructions:  357000003 cycles: 1110615980 heartbeat IPC: 0.20333 cumulative IPC: 0.24598 (Simulation time: 0 hr 22 min 19 sec) 
Heartbeat CPU  0 instructions:  358000001 cycles: 1115532864 heartbeat IPC: 0.20338 cumulative IPC: 0.24578 (Simulation time: 0 hr 22 min 23 sec) 
Heartbeat CPU  0 instructions:  359000001 cycles: 1120254330 heartbeat IPC: 0.21180 cumulative IPC: 0.24562 (Simulation time: 0 hr 22 min 27 sec) 
Heartbeat CPU  0 instructions:  360000000 cycles: 1124683654 heartbeat IPC: 0.22577 cumulative IPC: 0.24554 (Simulation time: 0 hr 22 min 30 sec) 
Heartbeat CPU  0 instructions:  361000003 cycles: 1130004530 heartbeat IPC: 0.18794 cumulative IPC: 0.24525 (Simulation time: 0 hr 22 min 34 sec) 
Heartbeat CPU  0 instructions:  362000003 cycles: 1136314523 heartbeat IPC: 0.15848 cumulative IPC: 0.24474 (Simulation time: 0 hr 22 min 38 sec) 
Heartbeat CPU  0 instructions:  363000000 cycles: 1142616176 heartbeat IPC: 0.15869 cumulative IPC: 0.24424 (Simulation time: 0 hr 22 min 42 sec) 
Heartbeat CPU  0 instructions:  364000000 cycles: 1148829501 heartbeat IPC: 0.16094 cumulative IPC: 0.24376 (Simulation time: 0 hr 22 min 46 sec) 
Heartbeat CPU  0 instructions:  365000000 cycles: 1155000495 heartbeat IPC: 0.16205 cumulative IPC: 0.24330 (Simulation time: 0 hr 22 min 51 sec) 
Heartbeat CPU  0 instructions:  366000001 cycles: 1161303884 heartbeat IPC: 0.15864 cumulative IPC: 0.24281 (Simulation time: 0 hr 22 min 55 sec) 
Heartbeat CPU  0 instructions:  367000001 cycles: 1167632380 heartbeat IPC: 0.15802 cumulative IPC: 0.24232 (Simulation time: 0 hr 22 min 59 sec) 
Heartbeat CPU  0 instructions:  368000000 cycles: 1173935813 heartbeat IPC: 0.15864 cumulative IPC: 0.24185 (Simulation time: 0 hr 23 min 3 sec) 
Heartbeat CPU  0 instructions:  369000002 cycles: 1180300599 heartbeat IPC: 0.15711 cumulative IPC: 0.24136 (Simulation time: 0 hr 23 min 7 sec) 
Heartbeat CPU  0 instructions:  370000002 cycles: 1186532780 heartbeat IPC: 0.16046 cumulative IPC: 0.24091 (Simulation time: 0 hr 23 min 12 sec) 
Heartbeat CPU  0 instructions:  371000000 cycles: 1192837194 heartbeat IPC: 0.15862 cumulative IPC: 0.24045 (Simulation time: 0 hr 23 min 16 sec) 
Heartbeat CPU  0 instructions:  372000000 cycles: 1199205768 heartbeat IPC: 0.15702 cumulative IPC: 0.23998 (Simulation time: 0 hr 23 min 20 sec) 
Heartbeat CPU  0 instructions:  373000003 cycles: 1205532655 heartbeat IPC: 0.15806 cumulative IPC: 0.23953 (Simulation time: 0 hr 23 min 24 sec) 
Heartbeat CPU  0 instructions:  374000003 cycles: 1211859472 heartbeat IPC: 0.15806 cumulative IPC: 0.23908 (Simulation time: 0 hr 23 min 29 sec) 
Heartbeat CPU  0 instructions:  375000000 cycles: 1218167130 heartbeat IPC: 0.15854 cumulative IPC: 0.23864 (Simulation time: 0 hr 23 min 33 sec) 
Heartbeat CPU  0 instructions:  376000000 cycles: 1224449318 heartbeat IPC: 0.15918 cumulative IPC: 0.23821 (Simulation time: 0 hr 23 min 37 sec) 
Heartbeat CPU  0 instructions:  377000001 cycles: 1230168633 heartbeat IPC: 0.17485 cumulative IPC: 0.23790 (Simulation time: 0 hr 23 min 42 sec) 
Heartbeat CPU  0 instructions:  378000001 cycles: 1235580802 heartbeat IPC: 0.18477 cumulative IPC: 0.23765 (Simulation time: 0 hr 23 min 46 sec) 
Heartbeat CPU  0 instructions:  379000000 cycles: 1239851839 heartbeat IPC: 0.23413 cumulative IPC: 0.23764 (Simulation time: 0 hr 23 min 51 sec) 
Heartbeat CPU  0 instructions:  380000000 cycles: 1243941921 heartbeat IPC: 0.24449 cumulative IPC: 0.23766 (Simulation time: 0 hr 23 min 55 sec) 
Heartbeat CPU  0 instructions:  381000003 cycles: 1247977623 heartbeat IPC: 0.24779 cumulative IPC: 0.23770 (Simulation time: 0 hr 23 min 59 sec) 
Heartbeat CPU  0 instructions:  382000000 cycles: 1252002754 heartbeat IPC: 0.24844 cumulative IPC: 0.23773 (Simulation time: 0 hr 24 min 2 sec) 
Heartbeat CPU  0 instructions:  383000000 cycles: 1256031953 heartbeat IPC: 0.24819 cumulative IPC: 0.23777 (Simulation time: 0 hr 24 min 6 sec) 
Heartbeat CPU  0 instructions:  384000000 cycles: 1260038913 heartbeat IPC: 0.24957 cumulative IPC: 0.23781 (Simulation time: 0 hr 24 min 10 sec) 
Heartbeat CPU  0 instructions:  385000000 cycles: 1264063427 heartbeat IPC: 0.24848 cumulative IPC: 0.23784 (Simulation time: 0 hr 24 min 14 sec) 
Heartbeat CPU  0 instructions:  386000000 cycles: 1268082848 heartbeat IPC: 0.24879 cumulative IPC: 0.23788 (Simulation time: 0 hr 24 min 18 sec) 
Heartbeat CPU  0 instructions:  387000003 cycles: 1272108630 heartbeat IPC: 0.24840 cumulative IPC: 0.23792 (Simulation time: 0 hr 24 min 22 sec) 
Heartbeat CPU  0 instructions:  388000000 cycles: 1276122084 heartbeat IPC: 0.24916 cumulative IPC: 0.23795 (Simulation time: 0 hr 24 min 26 sec) 
Heartbeat CPU  0 instructions:  389000000 cycles: 1280137554 heartbeat IPC: 0.24904 cumulative IPC: 0.23799 (Simulation time: 0 hr 24 min 30 sec) 
Heartbeat CPU  0 instructions:  390000000 cycles: 1284157614 heartbeat IPC: 0.24875 cumulative IPC: 0.23802 (Simulation time: 0 hr 24 min 34 sec) 
Heartbeat CPU  0 instructions:  391000001 cycles: 1288175461 heartbeat IPC: 0.24889 cumulative IPC: 0.23806 (Simulation time: 0 hr 24 min 38 sec) 
Heartbeat CPU  0 instructions:  392000000 cycles: 1292195706 heartbeat IPC: 0.24874 cumulative IPC: 0.23810 (Simulation time: 0 hr 24 min 42 sec) 
Heartbeat CPU  0 instructions:  393000000 cycles: 1296214819 heartbeat IPC: 0.24881 cumulative IPC: 0.23813 (Simulation time: 0 hr 24 min 46 sec) 
Heartbeat CPU  0 instructions:  394000000 cycles: 1300231548 heartbeat IPC: 0.24896 cumulative IPC: 0.23817 (Simulation time: 0 hr 24 min 50 sec) 
Heartbeat CPU  0 instructions:  395000000 cycles: 1304257452 heartbeat IPC: 0.24839 cumulative IPC: 0.23820 (Simulation time: 0 hr 24 min 54 sec) 
Heartbeat CPU  0 instructions:  396000000 cycles: 1308264081 heartbeat IPC: 0.24959 cumulative IPC: 0.23824 (Simulation time: 0 hr 24 min 58 sec) 
Heartbeat CPU  0 instructions:  397000001 cycles: 1312293273 heartbeat IPC: 0.24819 cumulative IPC: 0.23827 (Simulation time: 0 hr 25 min 2 sec) 
Heartbeat CPU  0 instructions:  398000000 cycles: 1316309576 heartbeat IPC: 0.24898 cumulative IPC: 0.23830 (Simulation time: 0 hr 25 min 6 sec) 
Heartbeat CPU  0 instructions:  399000000 cycles: 1320338809 heartbeat IPC: 0.24819 cumulative IPC: 0.23833 (Simulation time: 0 hr 25 min 10 sec) 
Heartbeat CPU  0 instructions:  400000000 cycles: 1324358231 heartbeat IPC: 0.24879 cumulative IPC: 0.23837 (Simulation time: 0 hr 25 min 14 sec) 
Heartbeat CPU  0 instructions:  401000003 cycles: 1328370497 heartbeat IPC: 0.24924 cumulative IPC: 0.23840 (Simulation time: 0 hr 25 min 18 sec) 
Heartbeat CPU  0 instructions:  402000003 cycles: 1332383989 heartbeat IPC: 0.24916 cumulative IPC: 0.23844 (Simulation time: 0 hr 25 min 22 sec) 
Heartbeat CPU  0 instructions:  403000000 cycles: 1336415443 heartbeat IPC: 0.24805 cumulative IPC: 0.23847 (Simulation time: 0 hr 25 min 26 sec) 
Heartbeat CPU  0 instructions:  404000000 cycles: 1340423740 heartbeat IPC: 0.24948 cumulative IPC: 0.23850 (Simulation time: 0 hr 25 min 30 sec) 
Heartbeat CPU  0 instructions:  405000000 cycles: 1344457575 heartbeat IPC: 0.24790 cumulative IPC: 0.23853 (Simulation time: 0 hr 25 min 34 sec) 
Heartbeat CPU  0 instructions:  406000000 cycles: 1348464559 heartbeat IPC: 0.24956 cumulative IPC: 0.23857 (Simulation time: 0 hr 25 min 38 sec) 
Heartbeat CPU  0 instructions:  407000001 cycles: 1352476126 heartbeat IPC: 0.24928 cumulative IPC: 0.23860 (Simulation time: 0 hr 25 min 42 sec) 
Heartbeat CPU  0 instructions:  408000000 cycles: 1356519605 heartbeat IPC: 0.24731 cumulative IPC: 0.23863 (Simulation time: 0 hr 25 min 46 sec) 
Heartbeat CPU  0 instructions:  409000002 cycles: 1360538324 heartbeat IPC: 0.24884 cumulative IPC: 0.23866 (Simulation time: 0 hr 25 min 50 sec) 
Heartbeat CPU  0 instructions:  410000001 cycles: 1364569678 heartbeat IPC: 0.24806 cumulative IPC: 0.23869 (Simulation time: 0 hr 25 min 54 sec) 
Heartbeat CPU  0 instructions:  411000000 cycles: 1368590786 heartbeat IPC: 0.24869 cumulative IPC: 0.23872 (Simulation time: 0 hr 25 min 58 sec) 
Heartbeat CPU  0 instructions:  412000000 cycles: 1372597685 heartbeat IPC: 0.24957 cumulative IPC: 0.23875 (Simulation time: 0 hr 26 min 2 sec) 
Heartbeat CPU  0 instructions:  413000001 cycles: 1376629295 heartbeat IPC: 0.24804 cumulative IPC: 0.23878 (Simulation time: 0 hr 26 min 6 sec) 
Heartbeat CPU  0 instructions:  414000000 cycles: 1380665903 heartbeat IPC: 0.24773 cumulative IPC: 0.23881 (Simulation time: 0 hr 26 min 9 sec) 
Heartbeat CPU  0 instructions:  415000002 cycles: 1384679104 heartbeat IPC: 0.24918 cumulative IPC: 0.23884 (Simulation time: 0 hr 26 min 13 sec) 
Heartbeat CPU  0 instructions:  416000000 cycles: 1388703472 heartbeat IPC: 0.24849 cumulative IPC: 0.23887 (Simulation time: 0 hr 26 min 17 sec) 
Heartbeat CPU  0 instructions:  417000000 cycles: 1392708358 heartbeat IPC: 0.24970 cumulative IPC: 0.23890 (Simulation time: 0 hr 26 min 21 sec) 
Heartbeat CPU  0 instructions:  418000002 cycles: 1396739909 heartbeat IPC: 0.24804 cumulative IPC: 0.23893 (Simulation time: 0 hr 26 min 25 sec) 
Heartbeat CPU  0 instructions:  419000002 cycles: 1400755371 heartbeat IPC: 0.24904 cumulative IPC: 0.23896 (Simulation time: 0 hr 26 min 29 sec) 
Heartbeat CPU  0 instructions:  420000000 cycles: 1404767730 heartbeat IPC: 0.24923 cumulative IPC: 0.23899 (Simulation time: 0 hr 26 min 33 sec) 
Heartbeat CPU  0 instructions:  421000001 cycles: 1408785114 heartbeat IPC: 0.24892 cumulative IPC: 0.23902 (Simulation time: 0 hr 26 min 37 sec) 
Heartbeat CPU  0 instructions:  422000001 cycles: 1412805668 heartbeat IPC: 0.24872 cumulative IPC: 0.23905 (Simulation time: 0 hr 26 min 41 sec) 
Heartbeat CPU  0 instructions:  423000000 cycles: 1416818219 heartbeat IPC: 0.24922 cumulative IPC: 0.23908 (Simulation time: 0 hr 26 min 45 sec) 
Heartbeat CPU  0 instructions:  424000000 cycles: 1420835309 heartbeat IPC: 0.24894 cumulative IPC: 0.23911 (Simulation time: 0 hr 26 min 49 sec) 
Heartbeat CPU  0 instructions:  425000002 cycles: 1424857906 heartbeat IPC: 0.24860 cumulative IPC: 0.23914 (Simulation time: 0 hr 26 min 53 sec) 
Heartbeat CPU  0 instructions:  426000003 cycles: 1428876640 heartbeat IPC: 0.24883 cumulative IPC: 0.23916 (Simulation time: 0 hr 26 min 57 sec) 
Heartbeat CPU  0 instructions:  427000002 cycles: 1432886882 heartbeat IPC: 0.24936 cumulative IPC: 0.23919 (Simulation time: 0 hr 27 min 1 sec) 
Heartbeat CPU  0 instructions:  428000000 cycles: 1436924322 heartbeat IPC: 0.24768 cumulative IPC: 0.23922 (Simulation time: 0 hr 27 min 5 sec) 
Heartbeat CPU  0 instructions:  429000000 cycles: 1440939898 heartbeat IPC: 0.24903 cumulative IPC: 0.23925 (Simulation time: 0 hr 27 min 9 sec) 
Heartbeat CPU  0 instructions:  430000002 cycles: 1444958072 heartbeat IPC: 0.24887 cumulative IPC: 0.23928 (Simulation time: 0 hr 27 min 13 sec) 
Heartbeat CPU  0 instructions:  431000001 cycles: 1448971567 heartbeat IPC: 0.24916 cumulative IPC: 0.23930 (Simulation time: 0 hr 27 min 17 sec) 
Heartbeat CPU  0 instructions:  432000000 cycles: 1452995393 heartbeat IPC: 0.24852 cumulative IPC: 0.23933 (Simulation time: 0 hr 27 min 21 sec) 
Heartbeat CPU  0 instructions:  433000002 cycles: 1457025845 heartbeat IPC: 0.24811 cumulative IPC: 0.23936 (Simulation time: 0 hr 27 min 25 sec) 
Heartbeat CPU  0 instructions:  434000003 cycles: 1461043570 heartbeat IPC: 0.24890 cumulative IPC: 0.23938 (Simulation time: 0 hr 27 min 28 sec) 
Heartbeat CPU  0 instructions:  435000001 cycles: 1465066594 heartbeat IPC: 0.24857 cumulative IPC: 0.23941 (Simulation time: 0 hr 27 min 32 sec) 
Heartbeat CPU  0 instructions:  436000000 cycles: 1469081904 heartbeat IPC: 0.24905 cumulative IPC: 0.23944 (Simulation time: 0 hr 27 min 36 sec) 
Heartbeat CPU  0 instructions:  437000001 cycles: 1473090843 heartbeat IPC: 0.24944 cumulative IPC: 0.23947 (Simulation time: 0 hr 27 min 40 sec) 
Heartbeat CPU  0 instructions:  438000001 cycles: 1477116064 heartbeat IPC: 0.24843 cumulative IPC: 0.23949 (Simulation time: 0 hr 27 min 44 sec) 
Heartbeat CPU  0 instructions:  439000001 cycles: 1481144777 heartbeat IPC: 0.24822 cumulative IPC: 0.23952 (Simulation time: 0 hr 27 min 48 sec) 
Heartbeat CPU  0 instructions:  440000000 cycles: 1485155613 heartbeat IPC: 0.24932 cumulative IPC: 0.23954 (Simulation time: 0 hr 27 min 52 sec) 
Heartbeat CPU  0 instructions:  441000000 cycles: 1489187149 heartbeat IPC: 0.24804 cumulative IPC: 0.23957 (Simulation time: 0 hr 27 min 56 sec) 
Heartbeat CPU  0 instructions:  442000001 cycles: 1493195771 heartbeat IPC: 0.24946 cumulative IPC: 0.23960 (Simulation time: 0 hr 28 min 0 sec) 
Heartbeat CPU  0 instructions:  443000001 cycles: 1497226060 heartbeat IPC: 0.24812 cumulative IPC: 0.23962 (Simulation time: 0 hr 28 min 4 sec) 
Heartbeat CPU  0 instructions:  444000000 cycles: 1501225982 heartbeat IPC: 0.25000 cumulative IPC: 0.23965 (Simulation time: 0 hr 28 min 8 sec) 
Heartbeat CPU  0 instructions:  445000000 cycles: 1505246676 heartbeat IPC: 0.24871 cumulative IPC: 0.23968 (Simulation time: 0 hr 28 min 12 sec) 
Heartbeat CPU  0 instructions:  446000002 cycles: 1509273210 heartbeat IPC: 0.24835 cumulative IPC: 0.23970 (Simulation time: 0 hr 28 min 16 sec) 
Heartbeat CPU  0 instructions:  447000000 cycles: 1513287189 heartbeat IPC: 0.24913 cumulative IPC: 0.23973 (Simulation time: 0 hr 28 min 20 sec) 
Heartbeat CPU  0 instructions:  448000000 cycles: 1517310204 heartbeat IPC: 0.24857 cumulative IPC: 0.23975 (Simulation time: 0 hr 28 min 24 sec) 
Heartbeat CPU  0 instructions:  449000001 cycles: 1521352694 heartbeat IPC: 0.24737 cumulative IPC: 0.23977 (Simulation time: 0 hr 28 min 28 sec) 
Heartbeat CPU  0 instructions:  450000001 cycles: 1525368791 heartbeat IPC: 0.24900 cumulative IPC: 0.23980 (Simulation time: 0 hr 28 min 32 sec) 
Heartbeat CPU  0 instructions:  451000002 cycles: 1529369947 heartbeat IPC: 0.24993 cumulative IPC: 0.23982 (Simulation time: 0 hr 28 min 36 sec) 
Heartbeat CPU  0 instructions:  452000000 cycles: 1533393115 heartbeat IPC: 0.24856 cumulative IPC: 0.23985 (Simulation time: 0 hr 28 min 40 sec) 
Heartbeat CPU  0 instructions:  453000001 cycles: 1537397536 heartbeat IPC: 0.24972 cumulative IPC: 0.23987 (Simulation time: 0 hr 28 min 43 sec) 
Heartbeat CPU  0 instructions:  454000000 cycles: 1541437210 heartbeat IPC: 0.24754 cumulative IPC: 0.23990 (Simulation time: 0 hr 28 min 47 sec) 
Heartbeat CPU  0 instructions:  455000003 cycles: 1545450430 heartbeat IPC: 0.24918 cumulative IPC: 0.23992 (Simulation time: 0 hr 28 min 51 sec) 
Heartbeat CPU  0 instructions:  456000000 cycles: 1549467111 heartbeat IPC: 0.24896 cumulative IPC: 0.23995 (Simulation time: 0 hr 28 min 55 sec) 
Heartbeat CPU  0 instructions:  457000000 cycles: 1553497622 heartbeat IPC: 0.24811 cumulative IPC: 0.23997 (Simulation time: 0 hr 28 min 59 sec) 
Heartbeat CPU  0 instructions:  458000003 cycles: 1557507737 heartbeat IPC: 0.24937 cumulative IPC: 0.23999 (Simulation time: 0 hr 29 min 3 sec) 
Heartbeat CPU  0 instructions:  459000002 cycles: 1561517913 heartbeat IPC: 0.24937 cumulative IPC: 0.24002 (Simulation time: 0 hr 29 min 7 sec) 
Heartbeat CPU  0 instructions:  460000000 cycles: 1565545091 heartbeat IPC: 0.24831 cumulative IPC: 0.24004 (Simulation time: 0 hr 29 min 11 sec) 
Heartbeat CPU  0 instructions:  461000000 cycles: 1569573908 heartbeat IPC: 0.24821 cumulative IPC: 0.24006 (Simulation time: 0 hr 29 min 15 sec) 
Heartbeat CPU  0 instructions:  462000000 cycles: 1573602847 heartbeat IPC: 0.24820 cumulative IPC: 0.24008 (Simulation time: 0 hr 29 min 19 sec) 
Heartbeat CPU  0 instructions:  463000000 cycles: 1577627041 heartbeat IPC: 0.24850 cumulative IPC: 0.24011 (Simulation time: 0 hr 29 min 23 sec) 
Heartbeat CPU  0 instructions:  464000000 cycles: 1581635498 heartbeat IPC: 0.24947 cumulative IPC: 0.24013 (Simulation time: 0 hr 29 min 27 sec) 
Heartbeat CPU  0 instructions:  465000001 cycles: 1585658861 heartbeat IPC: 0.24855 cumulative IPC: 0.24015 (Simulation time: 0 hr 29 min 31 sec) 
Heartbeat CPU  0 instructions:  466000003 cycles: 1589679722 heartbeat IPC: 0.24870 cumulative IPC: 0.24018 (Simulation time: 0 hr 29 min 35 sec) 
Heartbeat CPU  0 instructions:  467000002 cycles: 1593697847 heartbeat IPC: 0.24887 cumulative IPC: 0.24020 (Simulation time: 0 hr 29 min 39 sec) 
Heartbeat CPU  0 instructions:  468000000 cycles: 1597719413 heartbeat IPC: 0.24866 cumulative IPC: 0.24022 (Simulation time: 0 hr 29 min 43 sec) 
Heartbeat CPU  0 instructions:  469000000 cycles: 1601736491 heartbeat IPC: 0.24894 cumulative IPC: 0.24024 (Simulation time: 0 hr 29 min 47 sec) 
Heartbeat CPU  0 instructions:  470000000 cycles: 1605759780 heartbeat IPC: 0.24855 cumulative IPC: 0.24027 (Simulation time: 0 hr 29 min 50 sec) 
Heartbeat CPU  0 instructions:  471000003 cycles: 1609766403 heartbeat IPC: 0.24959 cumulative IPC: 0.24029 (Simulation time: 0 hr 29 min 54 sec) 
Heartbeat CPU  0 instructions:  472000000 cycles: 1613798184 heartbeat IPC: 0.24803 cumulative IPC: 0.24031 (Simulation time: 0 hr 29 min 58 sec) 
Heartbeat CPU  0 instructions:  473000000 cycles: 1617813012 heartbeat IPC: 0.24908 cumulative IPC: 0.24033 (Simulation time: 0 hr 30 min 2 sec) 
Heartbeat CPU  0 instructions:  474000001 cycles: 1621829644 heartbeat IPC: 0.24897 cumulative IPC: 0.24035 (Simulation time: 0 hr 30 min 7 sec) 
Heartbeat CPU  0 instructions:  475000000 cycles: 1625850077 heartbeat IPC: 0.24873 cumulative IPC: 0.24038 (Simulation time: 0 hr 30 min 12 sec) 
Heartbeat CPU  0 instructions:  476000000 cycles: 1629871382 heartbeat IPC: 0.24868 cumulative IPC: 0.24040 (Simulation time: 0 hr 30 min 17 sec) 
Heartbeat CPU  0 instructions:  477000002 cycles: 1633898217 heartbeat IPC: 0.24833 cumulative IPC: 0.24042 (Simulation time: 0 hr 30 min 22 sec) 
Heartbeat CPU  0 instructions:  478000002 cycles: 1637908247 heartbeat IPC: 0.24937 cumulative IPC: 0.24044 (Simulation time: 0 hr 30 min 26 sec) 
Heartbeat CPU  0 instructions:  479000001 cycles: 1641923282 heartbeat IPC: 0.24906 cumulative IPC: 0.24046 (Simulation time: 0 hr 30 min 31 sec) 
Heartbeat CPU  0 instructions:  480000000 cycles: 1645950240 heartbeat IPC: 0.24833 cumulative IPC: 0.24048 (Simulation time: 0 hr 30 min 35 sec) 
Heartbeat CPU  0 instructions:  481000002 cycles: 1649961729 heartbeat IPC: 0.24928 cumulative IPC: 0.24051 (Simulation time: 0 hr 30 min 40 sec) 
Heartbeat CPU  0 instructions:  482000003 cycles: 1653988428 heartbeat IPC: 0.24834 cumulative IPC: 0.24053 (Simulation time: 0 hr 30 min 44 sec) 
Heartbeat CPU  0 instructions:  483000002 cycles: 1658002798 heartbeat IPC: 0.24910 cumulative IPC: 0.24055 (Simulation time: 0 hr 30 min 48 sec) 
Heartbeat CPU  0 instructions:  484000000 cycles: 1662041622 heartbeat IPC: 0.24760 cumulative IPC: 0.24056 (Simulation time: 0 hr 30 min 53 sec) 
Heartbeat CPU  0 instructions:  485000003 cycles: 1666046328 heartbeat IPC: 0.24971 cumulative IPC: 0.24059 (Simulation time: 0 hr 30 min 57 sec) 
Heartbeat CPU  0 instructions:  486000001 cycles: 1670063939 heartbeat IPC: 0.24890 cumulative IPC: 0.24061 (Simulation time: 0 hr 31 min 1 sec) 
Heartbeat CPU  0 instructions:  487000002 cycles: 1674104013 heartbeat IPC: 0.24752 cumulative IPC: 0.24063 (Simulation time: 0 hr 31 min 6 sec) 
Heartbeat CPU  0 instructions:  488000000 cycles: 1678114873 heartbeat IPC: 0.24932 cumulative IPC: 0.24065 (Simulation time: 0 hr 31 min 10 sec) 
Heartbeat CPU  0 instructions:  489000003 cycles: 1682136316 heartbeat IPC: 0.24867 cumulative IPC: 0.24067 (Simulation time: 0 hr 31 min 14 sec) 
Heartbeat CPU  0 instructions:  490000001 cycles: 1686159203 heartbeat IPC: 0.24858 cumulative IPC: 0.24069 (Simulation time: 0 hr 31 min 18 sec) 
Heartbeat CPU  0 instructions:  491000000 cycles: 1690173940 heartbeat IPC: 0.24908 cumulative IPC: 0.24071 (Simulation time: 0 hr 31 min 23 sec) 
Heartbeat CPU  0 instructions:  492000000 cycles: 1694190491 heartbeat IPC: 0.24897 cumulative IPC: 0.24073 (Simulation time: 0 hr 31 min 27 sec) 
Heartbeat CPU  0 instructions:  493000001 cycles: 1698211766 heartbeat IPC: 0.24868 cumulative IPC: 0.24075 (Simulation time: 0 hr 31 min 31 sec) 
Heartbeat CPU  0 instructions:  494000000 cycles: 1702231803 heartbeat IPC: 0.24875 cumulative IPC: 0.24077 (Simulation time: 0 hr 31 min 35 sec) 
Heartbeat CPU  0 instructions:  495000003 cycles: 1706242003 heartbeat IPC: 0.24936 cumulative IPC: 0.24079 (Simulation time: 0 hr 31 min 39 sec) 
Heartbeat CPU  0 instructions:  496000000 cycles: 1710258381 heartbeat IPC: 0.24898 cumulative IPC: 0.24081 (Simulation time: 0 hr 31 min 43 sec) 
Heartbeat CPU  0 instructions:  497000001 cycles: 1714281931 heartbeat IPC: 0.24854 cumulative IPC: 0.24083 (Simulation time: 0 hr 31 min 48 sec) 
Heartbeat CPU  0 instructions:  498000003 cycles: 1718293996 heartbeat IPC: 0.24925 cumulative IPC: 0.24085 (Simulation time: 0 hr 31 min 52 sec) 
Heartbeat CPU  0 instructions:  499000001 cycles: 1722339831 heartbeat IPC: 0.24717 cumulative IPC: 0.24086 (Simulation time: 0 hr 31 min 56 sec) 
Heartbeat CPU  0 instructions:  500000000 cycles: 1726342274 heartbeat IPC: 0.24985 cumulative IPC: 0.24088 (Simulation time: 0 hr 32 min 0 sec) 
Heartbeat CPU  0 instructions:  501000003 cycles: 1730369274 heartbeat IPC: 0.24832 cumulative IPC: 0.24090 (Simulation time: 0 hr 32 min 4 sec) 
Heartbeat CPU  0 instructions:  502000001 cycles: 1734390860 heartbeat IPC: 0.24866 cumulative IPC: 0.24092 (Simulation time: 0 hr 32 min 8 sec) 
Heartbeat CPU  0 instructions:  503000000 cycles: 1738402656 heartbeat IPC: 0.24926 cumulative IPC: 0.24094 (Simulation time: 0 hr 32 min 13 sec) 
Heartbeat CPU  0 instructions:  504000000 cycles: 1742412310 heartbeat IPC: 0.24940 cumulative IPC: 0.24096 (Simulation time: 0 hr 32 min 17 sec) 
Heartbeat CPU  0 instructions:  505000000 cycles: 1746426534 heartbeat IPC: 0.24911 cumulative IPC: 0.24098 (Simulation time: 0 hr 32 min 21 sec) 
Heartbeat CPU  0 instructions:  506000001 cycles: 1750448633 heartbeat IPC: 0.24863 cumulative IPC: 0.24100 (Simulation time: 0 hr 32 min 25 sec) 
Heartbeat CPU  0 instructions:  507000000 cycles: 1754468679 heartbeat IPC: 0.24875 cumulative IPC: 0.24102 (Simulation time: 0 hr 32 min 29 sec) 
Heartbeat CPU  0 instructions:  508000000 cycles: 1758509702 heartbeat IPC: 0.24746 cumulative IPC: 0.24103 (Simulation time: 0 hr 32 min 33 sec) 
Heartbeat CPU  0 instructions:  509000000 cycles: 1762516515 heartbeat IPC: 0.24957 cumulative IPC: 0.24105 (Simulation time: 0 hr 32 min 38 sec) 
Heartbeat CPU  0 instructions:  510000001 cycles: 1766534086 heartbeat IPC: 0.24891 cumulative IPC: 0.24107 (Simulation time: 0 hr 32 min 42 sec) 
Heartbeat CPU  0 instructions:  511000001 cycles: 1770558537 heartbeat IPC: 0.24848 cumulative IPC: 0.24109 (Simulation time: 0 hr 32 min 46 sec) 
Heartbeat CPU  0 instructions:  512000000 cycles: 1774579135 heartbeat IPC: 0.24872 cumulative IPC: 0.24111 (Simulation time: 0 hr 32 min 50 sec) 
Heartbeat CPU  0 instructions:  513000003 cycles: 1778588714 heartbeat IPC: 0.24940 cumulative IPC: 0.24113 (Simulation time: 0 hr 32 min 54 sec) 
Heartbeat CPU  0 instructions:  514000000 cycles: 1782613219 heartbeat IPC: 0.24848 cumulative IPC: 0.24114 (Simulation time: 0 hr 32 min 59 sec) 
Heartbeat CPU  0 instructions:  515000001 cycles: 1786649848 heartbeat IPC: 0.24773 cumulative IPC: 0.24116 (Simulation time: 0 hr 33 min 3 sec) 
Heartbeat CPU  0 instructions:  516000000 cycles: 1790662897 heartbeat IPC: 0.24919 cumulative IPC: 0.24118 (Simulation time: 0 hr 33 min 8 sec) 
Heartbeat CPU  0 instructions:  517000002 cycles: 1794679758 heartbeat IPC: 0.24895 cumulative IPC: 0.24120 (Simulation time: 0 hr 33 min 12 sec) 
Heartbeat CPU  0 instructions:  518000000 cycles: 1798709620 heartbeat IPC: 0.24815 cumulative IPC: 0.24121 (Simulation time: 0 hr 33 min 17 sec) 
Heartbeat CPU  0 instructions:  519000003 cycles: 1802714552 heartbeat IPC: 0.24969 cumulative IPC: 0.24123 (Simulation time: 0 hr 33 min 21 sec) 
Heartbeat CPU  0 instructions:  520000000 cycles: 1806742974 heartbeat IPC: 0.24824 cumulative IPC: 0.24125 (Simulation time: 0 hr 33 min 25 sec) 
Heartbeat CPU  0 instructions:  521000000 cycles: 1810758704 heartbeat IPC: 0.24902 cumulative IPC: 0.24127 (Simulation time: 0 hr 33 min 30 sec) 
Heartbeat CPU  0 instructions:  522000000 cycles: 1814783887 heartbeat IPC: 0.24844 cumulative IPC: 0.24128 (Simulation time: 0 hr 33 min 34 sec) 
Heartbeat CPU  0 instructions:  523000002 cycles: 1818791862 heartbeat IPC: 0.24950 cumulative IPC: 0.24130 (Simulation time: 0 hr 33 min 38 sec) 
Heartbeat CPU  0 instructions:  524000000 cycles: 1822808943 heartbeat IPC: 0.24894 cumulative IPC: 0.24132 (Simulation time: 0 hr 33 min 43 sec) 
Heartbeat CPU  0 instructions:  525000000 cycles: 1826840172 heartbeat IPC: 0.24806 cumulative IPC: 0.24133 (Simulation time: 0 hr 33 min 48 sec) 
Heartbeat CPU  0 instructions:  526000001 cycles: 1830845570 heartbeat IPC: 0.24966 cumulative IPC: 0.24135 (Simulation time: 0 hr 33 min 52 sec) 
Heartbeat CPU  0 instructions:  527000000 cycles: 1834874635 heartbeat IPC: 0.24820 cumulative IPC: 0.24137 (Simulation time: 0 hr 33 min 57 sec) 
Heartbeat CPU  0 instructions:  528000000 cycles: 1838892417 heartbeat IPC: 0.24889 cumulative IPC: 0.24139 (Simulation time: 0 hr 34 min 2 sec) 
[...]
Heartbeat CPU  0 instructions:  532000000 cycles: 1854980969 heartbeat IPC: 0.24841 cumulative IPC: 0.24145 (Simulation time: 0 hr 34 min 19 sec) 
Heartbeat CPU  0 instructions:  533000002 cycles: 1859005293 heartbeat IPC: 0.24849 cumulative IPC: 0.24147 (Simulation time: 0 hr 34 min 24 sec) 
Heartbeat CPU  0 instructions:  534000000 cycles: 1863024850 heartbeat IPC: 0.24878 cumulative IPC: 0.24148 (Simulation time: 0 hr 34 min 28 sec) 
Heartbeat CPU  0 instructions:  535000003 cycles: 1867035206 heartbeat IPC: 0.24936 cumulative IPC: 0.24150 (Simulation time: 0 hr 34 min 33 sec) 
Heartbeat CPU  0 instructions:  536000000 cycles: 1871058129 heartbeat IPC: 0.24857 cumulative IPC: 0.24152 (Simulation time: 0 hr 34 min 37 sec) 
Heartbeat CPU  0 instructions:  537000000 cycles: 1875075528 heartbeat IPC: 0.24892 cumulative IPC: 0.24153 (Simulation time: 0 hr 34 min 41 sec) 
Heartbeat CPU  0 instructions:  538000001 cycles: 1879105701 heartbeat IPC: 0.24813 cumulative IPC: 0.24155 (Simulation time: 0 hr 34 min 45 sec) 
Heartbeat CPU  0 instructions:  539000001 cycles: 1883110657 heartbeat IPC: 0.24969 cumulative IPC: 0.24157 (Simulation time: 0 hr 34 min 49 sec) 
Heartbeat CPU  0 instructions:  540000000 cycles: 1887138070 heartbeat IPC: 0.24830 cumulative IPC: 0.24158 (Simulation time: 0 hr 34 min 53 sec) 
Heartbeat CPU  0 instructions:  541000000 cycles: 1891142446 heartbeat IPC: 0.24973 cumulative IPC: 0.24160 (Simulation time: 0 hr 34 min 57 sec) 
Heartbeat CPU  0 instructions:  542000003 cycles: 1895167755 heartbeat IPC: 0.24843 cumulative IPC: 0.24161 (Simulation time: 0 hr 35 min 1 sec) 
Heartbeat CPU  0 instructions:  543000001 cycles: 1899194737 heartbeat IPC: 0.24832 cumulative IPC: 0.24163 (Simulation time: 0 hr 35 min 4 sec) 
Heartbeat CPU  0 instructions:  544000000 cycles: 1903211607 heartbeat IPC: 0.24895 cumulative IPC: 0.24164 (Simulation time: 0 hr 35 min 8 sec) 
Heartbeat CPU  0 instructions:  545000002 cycles: 1907224866 heartbeat IPC: 0.24917 cumulative IPC: 0.24166 (Simulation time: 0 hr 35 min 12 sec) 
Heartbeat CPU  0 instructions:  546000000 cycles: 1911247127 heartbeat IPC: 0.24862 cumulative IPC: 0.24168 (Simulation time: 0 hr 35 min 16 sec) 
Heartbeat CPU  0 instructions:  547000002 cycles: 1915270072 heartbeat IPC: 0.24857 cumulative IPC: 0.24169 (Simulation time: 0 hr 35 min 20 sec) 
Heartbeat CPU  0 instructions:  548000000 cycles: 1919292707 heartbeat IPC: 0.24859 cumulative IPC: 0.24171 (Simulation time: 0 hr 35 min 25 sec) 
Heartbeat CPU  0 instructions:  549000003 cycles: 1923312020 heartbeat IPC: 0.24880 cumulative IPC: 0.24172 (Simulation time: 0 hr 35 min 29 sec) 
Heartbeat CPU  0 instructions:  550000002 cycles: 1927331496 heartbeat IPC: 0.24879 cumulative IPC: 0.24174 (Simulation time: 0 hr 35 min 34 sec) 
Heartbeat CPU  0 instructions:  551000003 cycles: 1931359495 heartbeat IPC: 0.24826 cumulative IPC: 0.24175 (Simulation time: 0 hr 35 min 40 sec) 
Heartbeat CPU  0 instructions:  552000000 cycles: 1935377871 heartbeat IPC: 0.24886 cumulative IPC: 0.24177 (Simulation time: 0 hr 35 min 46 sec) 
Heartbeat CPU  0 instructions:  553000000 cycles: 1939397044 heartbeat IPC: 0.24881 cumulative IPC: 0.24178 (Simulation time: 0 hr 35 min 50 sec) 
Heartbeat CPU  0 instructions:  554000000 cycles: 1943425519 heartbeat IPC: 0.24823 cumulative IPC: 0.24179 (Simulation time: 0 hr 35 min 54 sec) 
Heartbeat CPU  0 instructions:  555000001 cycles: 1947429166 heartbeat IPC: 0.24977 cumulative IPC: 0.24181 (Simulation time: 0 hr 35 min 59 sec) 
Heartbeat CPU  0 instructions:  556000000 cycles: 1951460847 heartbeat IPC: 0.24804 cumulative IPC: 0.24182 (Simulation time: 0 hr 36 min 4 sec) 
Heartbeat CPU  0 instructions:  557000001 cycles: 1955474471 heartbeat IPC: 0.24915 cumulative IPC: 0.24184 (Simulation time: 0 hr 36 min 8 sec) 
Heartbeat CPU  0 instructions:  558000001 cycles: 1959494259 heartbeat IPC: 0.24877 cumulative IPC: 0.24185 (Simulation time: 0 hr 36 min 13 sec) 
Heartbeat CPU  0 instructions:  559000002 cycles: 1963517900 heartbeat IPC: 0.24853 cumulative IPC: 0.24187 (Simulation time: 0 hr 36 min 17 sec) 
Heartbeat CPU  0 instructions:  560000000 cycles: 1967533711 heartbeat IPC: 0.24902 cumulative IPC: 0.24188 (Simulation time: 0 hr 36 min 21 sec) 
Heartbeat CPU  0 instructions:  561000001 cycles: 1971556679 heartbeat IPC: 0.24857 cumulative IPC: 0.24190 (Simulation time: 0 hr 36 min 25 sec) 
Heartbeat CPU  0 instructions:  562000002 cycles: 1975559377 heartbeat IPC: 0.24983 cumulative IPC: 0.24191 (Simulation time: 0 hr 36 min 29 sec) 
Heartbeat CPU  0 instructions:  563000002 cycles: 1979588690 heartbeat IPC: 0.24818 cumulative IPC: 0.24193 (Simulation time: 0 hr 36 min 33 sec) 
Heartbeat CPU  0 instructions:  564000000 cycles: 1983610025 heartbeat IPC: 0.24867 cumulative IPC: 0.24194 (Simulation time: 0 hr 36 min 37 sec) 
Heartbeat CPU  0 instructions:  565000002 cycles: 1987636129 heartbeat IPC: 0.24838 cumulative IPC: 0.24196 (Simulation time: 0 hr 36 min 41 sec) 
Heartbeat CPU  0 instructions:  566000001 cycles: 1991647356 heartbeat IPC: 0.24930 cumulative IPC: 0.24197 (Simulation time: 0 hr 36 min 45 sec) 
Heartbeat CPU  0 instructions:  567000000 cycles: 1995665359 heartbeat IPC: 0.24888 cumulative IPC: 0.24199 (Simulation time: 0 hr 36 min 49 sec) 
Heartbeat CPU  0 instructions:  568000000 cycles: 1999682250 heartbeat IPC: 0.24895 cumulative IPC: 0.24200 (Simulation time: 0 hr 36 min 53 sec) 
Heartbeat CPU  0 instructions:  569000002 cycles: 2003704392 heartbeat IPC: 0.24862 cumulative IPC: 0.24201 (Simulation time: 0 hr 36 min 57 sec) 
Heartbeat CPU  0 instructions:  570000000 cycles: 2007725091 heartbeat IPC: 0.24871 cumulative IPC: 0.24203 (Simulation time: 0 hr 37 min 1 sec) 
Heartbeat CPU  0 instructions:  571000003 cycles: 2011743664 heartbeat IPC: 0.24885 cumulative IPC: 0.24204 (Simulation time: 0 hr 37 min 5 sec) 
Heartbeat CPU  0 instructions:  572000000 cycles: 2015770431 heartbeat IPC: 0.24834 cumulative IPC: 0.24205 (Simulation time: 0 hr 37 min 9 sec) 
Heartbeat CPU  0 instructions:  573000000 cycles: 2019784882 heartbeat IPC: 0.24910 cumulative IPC: 0.24207 (Simulation time: 0 hr 37 min 13 sec) 
Heartbeat CPU  0 instructions:  574000000 cycles: 2023799542 heartbeat IPC: 0.24909 cumulative IPC: 0.24208 (Simulation time: 0 hr 37 min 17 sec) 
Heartbeat CPU  0 instructions:  575000002 cycles: 2027819476 heartbeat IPC: 0.24876 cumulative IPC: 0.24210 (Simulation time: 0 hr 37 min 21 sec) 
Heartbeat CPU  0 instructions:  576000000 cycles: 2031844064 heartbeat IPC: 0.24847 cumulative IPC: 0.24211 (Simulation time: 0 hr 37 min 25 sec) 
Heartbeat CPU  0 instructions:  577000000 cycles: 2035859695 heartbeat IPC: 0.24903 cumulative IPC: 0.24212 (Simulation time: 0 hr 37 min 29 sec) 
Heartbeat CPU  0 instructions:  578000001 cycles: 2039878678 heartbeat IPC: 0.24882 cumulative IPC: 0.24214 (Simulation time: 0 hr 37 min 33 sec) 
Heartbeat CPU  0 instructions:  579000002 cycles: 2043894324 heartbeat IPC: 0.24903 cumulative IPC: 0.24215 (Simulation time: 0 hr 37 min 37 sec) 
Heartbeat CPU  0 instructions:  580000000 cycles: 2047910030 heartbeat IPC: 0.24902 cumulative IPC: 0.24217 (Simulation time: 0 hr 37 min 42 sec) 
Heartbeat CPU  0 instructions:  581000000 cycles: 2051928133 heartbeat IPC: 0.24887 cumulative IPC: 0.24218 (Simulation time: 0 hr 37 min 46 sec) 
Heartbeat CPU  0 instructions:  582000001 cycles: 2055945269 heartbeat IPC: 0.24893 cumulative IPC: 0.24219 (Simulation time: 0 hr 37 min 50 sec) 
Heartbeat CPU  0 instructions:  583000001 cycles: 2059983015 heartbeat IPC: 0.24766 cumulative IPC: 0.24220 (Simulation time: 0 hr 37 min 54 sec) 
Heartbeat CPU  0 instructions:  584000000 cycles: 2063988614 heartbeat IPC: 0.24965 cumulative IPC: 0.24222 (Simulation time: 0 hr 37 min 58 sec) 
Heartbeat CPU  0 instructions:  585000000 cycles: 2068019871 heartbeat IPC: 0.24806 cumulative IPC: 0.24223 (Simulation time: 0 hr 38 min 2 sec) 
Heartbeat CPU  0 instructions:  586000000 cycles: 2072034308 heartbeat IPC: 0.24910 cumulative IPC: 0.24224 (Simulation time: 0 hr 38 min 6 sec) 
Heartbeat CPU  0 instructions:  587000001 cycles: 2076056829 heartbeat IPC: 0.24860 cumulative IPC: 0.24226 (Simulation time: 0 hr 38 min 10 sec) 
Heartbeat CPU  0 instructions:  588000000 cycles: 2080062028 heartbeat IPC: 0.24968 cumulative IPC: 0.24227 (Simulation time: 0 hr 38 min 14 sec) 
Heartbeat CPU  0 instructions:  589000000 cycles: 2084085003 heartbeat IPC: 0.24857 cumulative IPC: 0.24228 (Simulation time: 0 hr 38 min 18 sec) 
Heartbeat CPU  0 instructions:  590000001 cycles: 2088103930 heartbeat IPC: 0.24882 cumulative IPC: 0.24230 (Simulation time: 0 hr 38 min 22 sec) 
Heartbeat CPU  0 instructions:  591000002 cycles: 2092121550 heartbeat IPC: 0.24890 cumulative IPC: 0.24231 (Simulation time: 0 hr 38 min 26 sec) 
Heartbeat CPU  0 instructions:  592000000 cycles: 2096146204 heartbeat IPC: 0.24847 cumulative IPC: 0.24232 (Simulation time: 0 hr 38 min 30 sec) 
Heartbeat CPU  0 instructions:  593000003 cycles: 2100161134 heartbeat IPC: 0.24907 cumulative IPC: 0.24234 (Simulation time: 0 hr 38 min 33 sec) 
Heartbeat CPU  0 instructions:  594000000 cycles: 2104188164 heartbeat IPC: 0.24832 cumulative IPC: 0.24235 (Simulation time: 0 hr 38 min 37 sec) 
Heartbeat CPU  0 instructions:  595000001 cycles: 2108203123 heartbeat IPC: 0.24907 cumulative IPC: 0.24236 (Simulation time: 0 hr 38 min 41 sec) 
Heartbeat CPU  0 instructions:  596000000 cycles: 2112234314 heartbeat IPC: 0.24807 cumulative IPC: 0.24237 (Simulation time: 0 hr 38 min 45 sec) 
Heartbeat CPU  0 instructions:  597000002 cycles: 2116251614 heartbeat IPC: 0.24892 cumulative IPC: 0.24239 (Simulation time: 0 hr 38 min 49 sec) 
Heartbeat CPU  0 instructions:  598000001 cycles: 2120274249 heartbeat IPC: 0.24859 cumulative IPC: 0.24240 (Simulation time: 0 hr 38 min 53 sec) 
Heartbeat CPU  0 instructions:  599000000 cycles: 2124293702 heartbeat IPC: 0.24879 cumulative IPC: 0.24241 (Simulation time: 0 hr 38 min 57 sec) 
Heartbeat CPU  0 instructions:  600000000 cycles: 2128319262 heartbeat IPC: 0.24841 cumulative IPC: 0.24242 (Simulation time: 0 hr 39 min 1 sec) 
Finished CPU 0 instructions: 500000000 cycles: 2062521875 cumulative IPC: 0.24242 (Simulation time: 0 hr 39 min 1 sec) 

ChampSim completed all CPUs

[ROI Statistics]
Core_0_instructions 500000000
Core_0_cycles 2062521875
Core_0_IPC 0.24242

Core_0_branch_prediction_accuracy 97.89350
Core_0_branch_MPKI 0.73267
Core_0_average_ROB_occupancy_at_mispredict 252.55674

Core_0_L1D_total_access 232160313
Core_0_L1D_total_hit 222049907
Core_0_L1D_total_miss 10110406
Core_0_L1D_loads 197753562
Core_0_L1D_load_hit 187880148
Core_0_L1D_load_miss 9873414
Core_0_L1D_RFOs 34406751
Core_0_L1D_RFO_hit 34169759
Core_0_L1D_RFO_miss 236992
Core_0_L1D_prefetches 0
Core_0_L1D_prefetch_hit 0
Core_0_L1D_prefetch_miss 0
Core_0_L1D_writebacks 0
Core_0_L1D_writeback_hit 0
Core_0_L1D_writeback_miss 0
Core_0_L1D_prefetch_requested 0
Core_0_L1D_prefetch_dropped 0
Core_0_L1D_prefetch_issued 0
Core_0_L1D_prefetch_filled 0
Core_0_L1D_prefetch_useful 0
Core_0_L1D_prefetch_useless 0
Core_0_L1D_prefetch_late 0
Core_0_L1D_average_miss_latency 583.85806

Core_0_L1D_rq_access 254236898
Core_0_L1D_rq_forward 0
Core_0_L1D_rq_merged 53561295
Core_0_L1D_rq_to_cache 200675601
Core_0_L1D_rq_full 0

Core_0_L1D_wq_access 36392435
Core_0_L1D_wq_forward 2
Core_0_L1D_wq_merged 0
Core_0_L1D_wq_to_cache 36392435
Core_0_L1D_wq_full 0

Core_0_L1D_pq_access 0
Core_0_L1D_pq_forward 0
Core_0_L1D_pq_merged 0
Core_0_L1D_pq_to_cache 0
Core_0_L1D_pq_full 0

Core_0_L1D_acc_epochs 2064733
Core_0_L1D_acc_level_0 2064733
Core_0_L1D_acc_level_1 0
Core_0_L1D_acc_level_2 0
Core_0_L1D_acc_level_3 0
Core_0_L1D_acc_level_4 0
Core_0_L1D_acc_level_5 0
Core_0_L1D_acc_level_6 0
Core_0_L1D_acc_level_7 0
Core_0_L1D_acc_level_8 0
Core_0_L1D_acc_level_9 0

Core_0_L1I_total_access 115381789
Core_0_L1I_total_hit 115381735
Core_0_L1I_total_miss 54
Core_0_L1I_loads 115381789
Core_0_L1I_load_hit 115381735
Core_0_L1I_load_miss 54
Core_0_L1I_RFOs 0
Core_0_L1I_RFO_hit 0
Core_0_L1I_RFO_miss 0
Core_0_L1I_prefetches 0
Core_0_L1I_prefetch_hit 0
Core_0_L1I_prefetch_miss 0
Core_0_L1I_writebacks 0
Core_0_L1I_writeback_hit 0
Core_0_L1I_writeback_miss 0
Core_0_L1I_prefetch_requested 0
Core_0_L1I_prefetch_dropped 0
Core_0_L1I_prefetch_issued 0
Core_0_L1I_prefetch_filled 0
Core_0_L1I_prefetch_useful 0
Core_0_L1I_prefetch_useless 0
Core_0_L1I_prefetch_late 0
Core_0_L1I_average_miss_latency 1423.62963

Core_0_L1I_rq_access 500000250
Core_0_L1I_rq_forward 0
Core_0_L1I_rq_merged 384618449
Core_0_L1I_rq_to_cache 115381801
Core_0_L1I_rq_full 0

Core_0_L1I_wq_access 0
Core_0_L1I_wq_forward 0
Core_0_L1I_wq_merged 0
Core_0_L1I_wq_to_cache 0
Core_0_L1I_wq_full 0

Core_0_L1I_pq_access 0
Core_0_L1I_pq_forward 0
Core_0_L1I_pq_merged 0
Core_0_L1I_pq_to_cache 0
Core_0_L1I_pq_full 0

Core_0_L1I_acc_epochs 2064733
Core_0_L1I_acc_level_0 2064733
Core_0_L1I_acc_level_1 0
Core_0_L1I_acc_level_2 0
Core_0_L1I_acc_level_3 0
Core_0_L1I_acc_level_4 0
Core_0_L1I_acc_level_5 0
Core_0_L1I_acc_level_6 0
Core_0_L1I_acc_level_7 0
Core_0_L1I_acc_level_8 0
Core_0_L1I_acc_level_9 0

Core_0_L2C_total_access 15591247
Core_0_L2C_total_hit 6323453
Core_0_L2C_total_miss 9267794
Core_0_L2C_loads 9870469
Core_0_L2C_load_hit 4088132
Core_0_L2C_load_miss 5782337
Core_0_L2C_RFOs 235734
Core_0_L2C_RFO_hit 15508
Core_0_L2C_RFO_miss 220226
Core_0_L2C_prefetches 5043878
Core_0_L2C_prefetch_hit 1780609
Core_0_L2C_prefetch_miss 3263269
Core_0_L2C_writebacks 441166
Core_0_L2C_writeback_hit 439204
Core_0_L2C_writeback_miss 1962
Core_0_L2C_prefetch_requested 70697835
Core_0_L2C_prefetch_dropped 15361828
Core_0_L2C_prefetch_issued 55336007
Core_0_L2C_prefetch_filled 4290764
Core_0_L2C_prefetch_useful 4290424
Core_0_L2C_prefetch_useless 338
Core_0_L2C_prefetch_late 1360547
Core_0_L2C_average_miss_latency 778.88807

Core_0_L2C_rq_access 10110461
Core_0_L2C_rq_forward 0
Core_0_L2C_rq_merged 0
Core_0_L2C_rq_to_cache 10106204
Core_0_L2C_rq_full 0

Core_0_L2C_wq_access 441166
Core_0_L2C_wq_forward 4362
Core_0_L2C_wq_merged 0
Core_0_L2C_wq_to_cache 441166
Core_0_L2C_wq_full 0

Core_0_L2C_pq_access 55336007
Core_0_L2C_pq_forward 0
Core_0_L2C_pq_merged 3840812
Core_0_L2C_pq_to_cache 51495090
Core_0_L2C_pq_full 0

Core_0_L2C_acc_epochs 2064733
Core_0_L2C_acc_level_0 648530
Core_0_L2C_acc_level_1 256239
Core_0_L2C_acc_level_2 193820
Core_0_L2C_acc_level_3 154577
Core_0_L2C_acc_level_4 127673
Core_0_L2C_acc_level_5 145679
Core_0_L2C_acc_level_6 104755
Core_0_L2C_acc_level_7 88213
Core_0_L2C_acc_level_8 76236
Core_0_L2C_acc_level_9 269011

Core_0_LLC_total_access 30108012
Core_0_LLC_total_hit 20621883
Core_0_LLC_total_miss 9486129
Core_0_LLC_loads 4421887
Core_0_LLC_load_hit 3430947
Core_0_LLC_load_miss 990940
Core_0_LLC_RFOs 220226
Core_0_LLC_RFO_hit 1
Core_0_LLC_RFO_miss 220225
Core_0_LLC_prefetches 25074415
Core_0_LLC_prefetch_hit 17020518
Core_0_LLC_prefetch_miss 8053897
Core_0_LLC_writebacks 391484
Core_0_LLC_writeback_hit 170417
Core_0_LLC_writeback_miss 221067
Core_0_LLC_prefetch_requested 0
Core_0_LLC_prefetch_dropped 0
Core_0_LLC_prefetch_issued 0
Core_0_LLC_prefetch_filled 9793162
Core_0_LLC_prefetch_useful 4141417
Core_0_LLC_prefetch_useless 5636027
Core_0_LLC_prefetch_late 690847
Core_0_LLC_average_miss_latency 5181.98519

Core_0_LLC_rq_access 4642114
Core_0_LLC_rq_forward 0
Core_0_LLC_rq_merged 0
Core_0_LLC_rq_to_cache 4642114
Core_0_LLC_rq_full 0

Core_0_LLC_wq_access 391484
Core_0_LLC_wq_forward 3
Core_0_LLC_wq_merged 0
Core_0_LLC_wq_to_cache 391484
Core_0_LLC_wq_full 0

Core_0_LLC_pq_access 48209421
Core_0_LLC_pq_forward 0
Core_0_LLC_pq_merged 304038
Core_0_LLC_pq_to_cache 47905380
Core_0_LLC_pq_full 0

Core_0_LLC_acc_epochs 2078437
Core_0_LLC_acc_level_0 632975
Core_0_LLC_acc_level_1 276407
Core_0_LLC_acc_level_2 203778
Core_0_LLC_acc_level_3 179854
Core_0_LLC_acc_level_4 126915
Core_0_LLC_acc_level_5 112237
Core_0_LLC_acc_level_6 85226
Core_0_LLC_acc_level_7 68821
Core_0_LLC_acc_level_8 59349
Core_0_LLC_acc_level_9 332875

Core_0_major_page_fault 0
Core_0_minor_page_fault 104619

spp.pref.total 70697835
spp.pref.at_L2 7568432
spp.pref.at_LLC 63129403

spp.depth.max 11
spp.depth.min 0
spp.depth.avg 6

spp.breadth.max 2
spp.breadth.min 0
spp.breadth.avg 0

delta_1 70558308
delta_-41 443725
delta_42 374636
delta_40 269850
delta_-39 229953
delta_3 83092
delta_-1 50726
delta_2 49428
delta_-40 33588
delta_4 27427
delta_41 11323
delta_-2 7518
delta_-3 5508
delta_8 1813
delta_39 1388
delta_-5 849
delta_-12 705
delta_-4 670
delta_6 583
delta_-13 412
delta_7 272
delta_-6 164
delta_-38 119
delta_-7 20
delta_-11 5
delta_11 3

depth_1_delta_1 11243514
depth_1_delta_-41 87457
depth_1_delta_42 84122
depth_1_delta_-39 75688
depth_1_delta_40 70553
depth_1_delta_3 63772
depth_1_delta_2 39994
depth_1_delta_-1 28615
depth_1_delta_-40 25252
depth_1_delta_4 24685
depth_1_delta_-2 6422
depth_1_delta_41 5840
depth_1_delta_-3 4026
depth_1_delta_8 1436
depth_1_delta_39 947
depth_1_delta_-5 761
depth_1_delta_-12 520
depth_1_delta_-4 459
depth_1_delta_6 419
depth_1_delta_7 271
depth_1_delta_-13 260
depth_1_delta_-6 163
depth_1_delta_-38 115
depth_1_delta_-7 19
depth_1_delta_-11 5
depth_1_delta_11 2
depth_2_delta_1 10897706
depth_2_delta_-41 93415
depth_2_delta_40 85685
depth_2_delta_42 79656
depth_2_delta_-39 68217
depth_2_delta_-1 9653
depth_2_delta_2 8431
depth_2_delta_3 5795
depth_2_delta_-40 4162
depth_2_delta_41 3025
depth_2_delta_4 1799
depth_2_delta_-3 1476
depth_2_delta_-2 525
depth_2_delta_39 440
depth_2_delta_8 339
depth_2_delta_-4 175
depth_2_delta_6 163
depth_2_delta_-12 114
depth_2_delta_-13 109
depth_2_delta_-5 88
depth_2_delta_-38 4
depth_2_delta_11 1
depth_2_delta_-6 1
depth_2_delta_7 1
depth_2_delta_-7 1
depth_3_delta_1 10366233
depth_3_delta_-41 83355
depth_3_delta_42 80044
depth_3_delta_40 62653
depth_3_delta_-39 31935
depth_3_delta_3 13472
depth_3_delta_-1 3480
depth_3_delta_-40 2396
depth_3_delta_41 1209
depth_3_delta_4 940
depth_3_delta_2 464
depth_3_delta_-2 117
depth_3_delta_-12 64
depth_3_delta_-13 43
depth_3_delta_8 38
depth_3_delta_-4 36
depth_3_delta_-3 6
depth_3_delta_39 1
depth_3_delta_6 1
depth_4_delta_1 9855819
depth_4_delta_-41 83156
depth_4_delta_42 67432
depth_4_delta_40 21676
depth_4_delta_-39 21419
depth_4_delta_-1 8153
depth_4_delta_-40 1003
depth_4_delta_41 848
depth_4_delta_2 177
depth_4_delta_-2 103
depth_4_delta_3 38
depth_4_delta_-12 7
depth_4_delta_4 3
depth_5_delta_1 9460297
depth_5_delta_-41 57928
depth_5_delta_42 36901
depth_5_delta_-39 14276
depth_5_delta_40 13546
depth_5_delta_-1 585
depth_5_delta_-40 540
depth_5_delta_41 244
depth_5_delta_2 104
depth_5_delta_-2 101
depth_5_delta_3 15
depth_6_delta_1 8034743
depth_6_delta_-41 25076
depth_6_delta_42 18468
depth_6_delta_-39 11007
depth_6_delta_40 9592
depth_6_delta_-1 226
depth_6_delta_-40 163
depth_6_delta_41 126
depth_6_delta_2 96
depth_6_delta_-2 96
depth_7_delta_1 5553365
depth_7_delta_-41 9834
depth_7_delta_42 5648
depth_7_delta_-39 5484
depth_7_delta_40 4533
depth_7_delta_2 81
depth_7_delta_-2 75
depth_7_delta_-40 55
depth_7_delta_41 24
depth_7_delta_-1 14
depth_8_delta_1 3303097
depth_8_delta_-41 2900
depth_8_delta_42 2017
depth_8_delta_-39 1634
depth_8_delta_40 1350
depth_8_delta_2 56
depth_8_delta_-2 53
depth_8_delta_-40 13
depth_8_delta_41 6
depth_9_delta_1 1705656
depth_9_delta_-41 584
depth_9_delta_42 335
depth_9_delta_-39 275
depth_9_delta_40 250
depth_9_delta_-2 26
depth_9_delta_2 21
depth_9_delta_-40 4
depth_9_delta_41 1
depth_10_delta_1 137118
depth_10_delta_-41 20
depth_10_delta_-39 18
depth_10_delta_42 13
depth_10_delta_40 12
depth_10_delta_2 4
depth_11_delta_1 760

Channel_0_RQ_row_buffer_hit 6706686
Channel_0_RQ_row_buffer_miss 2558365
Channel_0_WQ_row_buffer_hit 42037
Channel_0_WQ_row_buffer_miss 347910
Channel_0_WQ_full 0
Channel_0_dbus_congested 9690306

avg_congested_cycle 209

DRAM_bw_pochs 8313748
DRAM_bw_level_0 5574302
DRAM_bw_level_1 0
DRAM_bw_level_2 0
DRAM_bw_level_3 2739446
