*************************************************
   ChampSim Multicore Out-of-Order Simulator
   Last compiled: Dec 11 2024 17:59:53
*************************************************
parsing config file: /home/functionmain/桌面/Pythia/config/pythia.ini

trace_0 /home/functionmain/桌面/Pythia/traces/410.bwaves-1963B.champsimtrace.xz
adding L2C_PREFETCHER: Scooby
Initialize SHIP state
warmup_instructions 100000000
simulation_instructions 500000000
champsim_seed 277
measure_ipc 0
measure_ipc_epoch 1000
measure_dram_bw 1
measure_dram_bw_epoch 256
measure_cache_acc 1
measure_cache_acc_epoch 1024
l1d_perfect 0
l2c_perfect 0
llc_perfect 0
l1d_semi_perfect 0
l2c_semi_perfect 0
llc_semi_perfect 0
semi_perfect_cache_page_buffer_size 64

num_cpus 1
cpu_freq 4000
dram_io_freq 4800
page_size 4096
block_size 64
max_read_per_cycle 8
max_fill_per_cycle 1
dram_channels 1
log2_dram_channels 0
dram_ranks 1
dram_banks 8
dram_rows 65536
dram_columns 128
dram_row_size 8
dram_size 4096
dram_pages 1048576

fetch_width 6
decode_width 6
exec_width 4
lq_width 2
sq_width 2
retire_width 4
scheduler_size 128
branch_mispredict_penalty 20
rob_size 256
lq_size 72
sq_size 56
num_instr_destinations_sparc 4
num_instr_destinations 2
num_instr_sources 4

itlb_set 16
itlb_way 8
itlb_rq_size 16
itlb_wq_size 16
itlb_pq_size 0
itlb_mshr_size 8
itlb_latency 1

dtlb_set 16
dtlb_way 4
dtlb_rq_size 16
dtlb_wq_size 16
dtlb_pq_size 0
dtlb_mshr_size 8
dtlb_latency 1

stlb_set 128
stlb_way 12
stlb_rq_size 32
stlb_wq_size 32
stlb_pq_size 0
stlb_mshr_size 16
stlb_latency 8

l1i_size 32
l1i_set 64
l1i_way 8
l1i_rq_size 64
l1i_wq_size 64
l1i_pq_size 8
l1i_mshr_size 8
l1i_latency 1

l1d_size 32
l1d_set 64
l1d_way 8
l1d_rq_size 64
l1d_wq_size 64
l1d_pq_size 8
l1d_mshr_size 16
l1d_latency 4

l2c_size 256
l2c_set 512
l2c_way 8
l2c_rq_size 32
l2c_wq_size 32
l2c_pq_size 32
l2c_mshr_size 32
l2c_latency 10

llc_size 2048
llc_set 2048
llc_way 16
llc_rq_size 32
llc_wq_size 32
llc_pq_size 32
llc_mshr_size 64
llc_latency 20

dram_channel_width 8
dram_wq_size 64
dram_rq_size 64
tRP 15
tRCD 15
tCAS 12.5
dram_dbus_turn_around_time 30
dram_write_high_wm 56
dram_write_low_wm 48
min_dram_writes_per_switch 16
dram_mtps 4800
dram_dbus_return_time 6

scooby_alpha 0.0065088
scooby_gamma 0.556301
scooby_epsilon 0.00182284
scooby_state_num_bits 10
scooby_max_states 1024
scooby_seed 200
scooby_policy EGreedy
scooby_learning_type SARSA
scooby_actions 1,3,4,5,10,11,12,22,23,30,32,-1,-3,-6,0,
scooby_max_actions 15
scooby_pt_size 256
scooby_st_size 64
scooby_max_pcs 5
scooby_max_offsets 5
scooby_max_deltas 5
scooby_reward_none -4
scooby_reward_incorrect -8
scooby_reward_correct_untimely 12
scooby_reward_correct_timely 20
scooby_brain_zero_init 0
scooby_enable_reward_all 0
scooby_enable_track_multiple 0
scooby_enable_reward_out_of_bounds 1
scooby_reward_out_of_bounds -12
scooby_state_type 1
scooby_state_hash_type 11
scooby_access_debug 0
scooby_print_access_debug 0
scooby_print_access_debug_pc deadbeef
scooby_print_access_debug_pc_count 0
scooby_print_trace 0
scooby_enable_state_action_stats 1
scooby_enable_reward_tracker_hit 0
scooby_reward_tracker_hit -2
scooby_enable_featurewise_engine 1
scooby_pref_degree 1
scooby_enable_dyn_degree 1
scooby_max_to_avg_q_thresholds 0.5,1,2,
scooby_dyn_degrees 1,2,4,4,
scooby_multi_deg_select_type 2
scooby_last_pref_offset_conf_thresholds 1,3,8,
scooby_dyn_degrees_type2 1,2,4,6,
scooby_action_tracker_size 2
scooby_high_bw_thresh 4
scooby_enable_hbw_reward 1
scooby_reward_hbw_correct_timely 20
scooby_reward_hbw_correct_untimely 12
scooby_reward_hbw_incorrect -14
scooby_reward_hbw_none -2
scooby_reward_hbw_out_of_bounds -12
scooby_reward_hbw_tracker_hit -2
scooby_last_pref_offset_conf_thresholds_hbw 1,3,8,
scooby_dyn_degrees_type2_hbw 1,2,4,6,

le_enable_trace 0
le_trace_interval 0
le_trace_file_name 
le_trace_state 0
le_enable_score_plot 0
le_plot_file_name 
le_plot_actions 
le_enable_action_trace 0
le_action_trace_interval 0
le_action_trace_name 
le_enable_action_plot 0

le_featurewise_active_features PC, PC_Delta
le_featurewise_num_tilings 3,3,
le_featurewise_num_tiles 128,128,
le_featurewise_hash_types 2,2,
le_featurewise_enable_tiling_offset 1,1,
le_featurewise_max_q_thresh 0.5
le_featurewise_enable_action_fallback 1
le_featurewise_feature_weights 1,1,
le_featurewise_enable_dynamic_weight 0
le_featurewise_weight_gradient 0.001
le_featurewise_disable_adjust_weight_all_features_align 1
le_featurewise_selective_update 0
le_featurewise_pooling_type 2
le_featurewise_enable_dyn_action_fallback 1
le_featurewise_bw_acc_check_level 1
le_featurewise_acc_thresh 2
le_featurewise_enable_trace 0
le_featurewise_trace_feature_type 0
le_featurewise_trace_feature 
le_featurewise_trace_interval 0
le_featurewise_trace_record_count 0
le_featurewise_trace_file_name 
le_featurewise_enable_score_plot 0
le_featurewise_plot_actions 
le_featurewise_plot_file_name 


Heartbeat CPU  0 instructions:    1000002 cycles:     658255 heartbeat IPC: 1.51917 cumulative IPC: 1.51917 (Simulation time: 0 hr 0 min 2 sec) 
Heartbeat CPU  0 instructions:    2000002 cycles:    1316145 heartbeat IPC: 1.52001 cumulative IPC: 1.51959 (Simulation time: 0 hr 0 min 4 sec) 
Heartbeat CPU  0 instructions:    3000002 cycles:    1974117 heartbeat IPC: 1.51982 cumulative IPC: 1.51967 (Simulation time: 0 hr 0 min 6 sec) 
Heartbeat CPU  0 instructions:    4000000 cycles:    2632000 heartbeat IPC: 1.52002 cumulative IPC: 1.51976 (Simulation time: 0 hr 0 min 9 sec) 
Heartbeat CPU  0 instructions:    5000002 cycles:    3290056 heartbeat IPC: 1.51963 cumulative IPC: 1.51973 (Simulation time: 0 hr 0 min 11 sec) 
Heartbeat CPU  0 instructions:    6000002 cycles:    3947997 heartbeat IPC: 1.51989 cumulative IPC: 1.51976 (Simulation time: 0 hr 0 min 13 sec) 
Heartbeat CPU  0 instructions:    7000000 cycles:    4605956 heartbeat IPC: 1.51985 cumulative IPC: 1.51977 (Simulation time: 0 hr 0 min 16 sec) 
Heartbeat CPU  0 instructions:    8000000 cycles:    5263831 heartbeat IPC: 1.52005 cumulative IPC: 1.51981 (Simulation time: 0 hr 0 min 18 sec) 
Heartbeat CPU  0 instructions:    9000001 cycles:    5921719 heartbeat IPC: 1.52002 cumulative IPC: 1.51983 (Simulation time: 0 hr 0 min 20 sec) 
Heartbeat CPU  0 instructions:   10000002 cycles:    6579623 heartbeat IPC: 1.51998 cumulative IPC: 1.51984 (Simulation time: 0 hr 0 min 23 sec) 
Heartbeat CPU  0 instructions:   11000001 cycles:    7237560 heartbeat IPC: 1.51990 cumulative IPC: 1.51985 (Simulation time: 0 hr 0 min 25 sec) 
Heartbeat CPU  0 instructions:   12000000 cycles:    7895383 heartbeat IPC: 1.52016 cumulative IPC: 1.51988 (Simulation time: 0 hr 0 min 27 sec) 
Heartbeat CPU  0 instructions:   13000001 cycles:    8553369 heartbeat IPC: 1.51979 cumulative IPC: 1.51987 (Simulation time: 0 hr 0 min 30 sec) 
Heartbeat CPU  0 instructions:   14000001 cycles:    9211162 heartbeat IPC: 1.52024 cumulative IPC: 1.51990 (Simulation time: 0 hr 0 min 32 sec) 
Heartbeat CPU  0 instructions:   15000000 cycles:    9868946 heartbeat IPC: 1.52025 cumulative IPC: 1.51992 (Simulation time: 0 hr 0 min 34 sec) 
Heartbeat CPU  0 instructions:   16000000 cycles:   10526767 heartbeat IPC: 1.52017 cumulative IPC: 1.51993 (Simulation time: 0 hr 0 min 37 sec) 
Heartbeat CPU  0 instructions:   17000002 cycles:   11184678 heartbeat IPC: 1.51997 cumulative IPC: 1.51994 (Simulation time: 0 hr 0 min 39 sec) 
Heartbeat CPU  0 instructions:   18000000 cycles:   11842519 heartbeat IPC: 1.52012 cumulative IPC: 1.51995 (Simulation time: 0 hr 0 min 42 sec) 
Heartbeat CPU  0 instructions:   19000001 cycles:   12500345 heartbeat IPC: 1.52016 cumulative IPC: 1.51996 (Simulation time: 0 hr 0 min 44 sec) 
Heartbeat CPU  0 instructions:   20000000 cycles:   13158142 heartbeat IPC: 1.52022 cumulative IPC: 1.51997 (Simulation time: 0 hr 0 min 46 sec) 
Heartbeat CPU  0 instructions:   21000003 cycles:   13816022 heartbeat IPC: 1.52004 cumulative IPC: 1.51997 (Simulation time: 0 hr 0 min 49 sec) 
Heartbeat CPU  0 instructions:   22000001 cycles:   14473780 heartbeat IPC: 1.52031 cumulative IPC: 1.51999 (Simulation time: 0 hr 0 min 51 sec) 
Heartbeat CPU  0 instructions:   23000001 cycles:   15131609 heartbeat IPC: 1.52015 cumulative IPC: 1.52000 (Simulation time: 0 hr 0 min 53 sec) 
Heartbeat CPU  0 instructions:   24000000 cycles:   15789343 heartbeat IPC: 1.52037 cumulative IPC: 1.52001 (Simulation time: 0 hr 0 min 56 sec) 
Heartbeat CPU  0 instructions:   25000001 cycles:   16447309 heartbeat IPC: 1.51984 cumulative IPC: 1.52001 (Simulation time: 0 hr 0 min 58 sec) 
Heartbeat CPU  0 instructions:   26000003 cycles:   17104975 heartbeat IPC: 1.52053 cumulative IPC: 1.52003 (Simulation time: 0 hr 1 min 0 sec) 
Heartbeat CPU  0 instructions:   27000000 cycles:   17762812 heartbeat IPC: 1.52013 cumulative IPC: 1.52003 (Simulation time: 0 hr 1 min 2 sec) 
Heartbeat CPU  0 instructions:   28000000 cycles:   18420599 heartbeat IPC: 1.52025 cumulative IPC: 1.52004 (Simulation time: 0 hr 1 min 5 sec) 
Heartbeat CPU  0 instructions:   29000000 cycles:   19078508 heartbeat IPC: 1.51997 cumulative IPC: 1.52004 (Simulation time: 0 hr 1 min 7 sec) 
Heartbeat CPU  0 instructions:   30000001 cycles:   19736311 heartbeat IPC: 1.52021 cumulative IPC: 1.52004 (Simulation time: 0 hr 1 min 9 sec) 
Heartbeat CPU  0 instructions:   31000002 cycles:   20394223 heartbeat IPC: 1.51996 cumulative IPC: 1.52004 (Simulation time: 0 hr 1 min 12 sec) 
Heartbeat CPU  0 instructions:   32000000 cycles:   21052135 heartbeat IPC: 1.51996 cumulative IPC: 1.52004 (Simulation time: 0 hr 1 min 14 sec) 
Heartbeat CPU  0 instructions:   33000000 cycles:   21710143 heartbeat IPC: 1.51974 cumulative IPC: 1.52003 (Simulation time: 0 hr 1 min 16 sec) 
Heartbeat CPU  0 instructions:   34000002 cycles:   22368059 heartbeat IPC: 1.51995 cumulative IPC: 1.52002 (Simulation time: 0 hr 1 min 19 sec) 
Heartbeat CPU  0 instructions:   35000001 cycles:   23025990 heartbeat IPC: 1.51991 cumulative IPC: 1.52002 (Simulation time: 0 hr 1 min 21 sec) 
Heartbeat CPU  0 instructions:   36000000 cycles:   23683930 heartbeat IPC: 1.51989 cumulative IPC: 1.52002 (Simulation time: 0 hr 1 min 23 sec) 
Heartbeat CPU  0 instructions:   37000002 cycles:   24341918 heartbeat IPC: 1.51979 cumulative IPC: 1.52001 (Simulation time: 0 hr 1 min 26 sec) 
Heartbeat CPU  0 instructions:   38000000 cycles:   24999815 heartbeat IPC: 1.51999 cumulative IPC: 1.52001 (Simulation time: 0 hr 1 min 28 sec) 
Heartbeat CPU  0 instructions:   39000000 cycles:   25657831 heartbeat IPC: 1.51972 cumulative IPC: 1.52000 (Simulation time: 0 hr 1 min 30 sec) 
Heartbeat CPU  0 instructions:   40000000 cycles:   26315677 heartbeat IPC: 1.52011 cumulative IPC: 1.52001 (Simulation time: 0 hr 1 min 33 sec) 
Heartbeat CPU  0 instructions:   41000000 cycles:   26973686 heartbeat IPC: 1.51974 cumulative IPC: 1.52000 (Simulation time: 0 hr 1 min 35 sec) 
Heartbeat CPU  0 instructions:   42000003 cycles:   27631624 heartbeat IPC: 1.51990 cumulative IPC: 1.52000 (Simulation time: 0 hr 1 min 37 sec) 
Heartbeat CPU  0 instructions:   43000001 cycles:   28289484 heartbeat IPC: 1.52008 cumulative IPC: 1.52000 (Simulation time: 0 hr 1 min 40 sec) 
Heartbeat CPU  0 instructions:   44000000 cycles:   28947290 heartbeat IPC: 1.52020 cumulative IPC: 1.52000 (Simulation time: 0 hr 1 min 42 sec) 
Heartbeat CPU  0 instructions:   45000000 cycles:   29605151 heartbeat IPC: 1.52008 cumulative IPC: 1.52001 (Simulation time: 0 hr 1 min 44 sec) 
Heartbeat CPU  0 instructions:   46000001 cycles:   30262990 heartbeat IPC: 1.52013 cumulative IPC: 1.52001 (Simulation time: 0 hr 1 min 46 sec) 
Heartbeat CPU  0 instructions:   47000003 cycles:   30920844 heartbeat IPC: 1.52010 cumulative IPC: 1.52001 (Simulation time: 0 hr 1 min 49 sec) 
Heartbeat CPU  0 instructions:   48000000 cycles:   31578529 heartbeat IPC: 1.52048 cumulative IPC: 1.52002 (Simulation time: 0 hr 1 min 51 sec) 
Heartbeat CPU  0 instructions:   49000000 cycles:   32236305 heartbeat IPC: 1.52027 cumulative IPC: 1.52003 (Simulation time: 0 hr 1 min 53 sec) 
Heartbeat CPU  0 instructions:   50000003 cycles:   32894232 heartbeat IPC: 1.51993 cumulative IPC: 1.52002 (Simulation time: 0 hr 1 min 56 sec) 
Heartbeat CPU  0 instructions:   51000000 cycles:   33552053 heartbeat IPC: 1.52017 cumulative IPC: 1.52003 (Simulation time: 0 hr 1 min 58 sec) 
Heartbeat CPU  0 instructions:   52000000 cycles:   34209861 heartbeat IPC: 1.52020 cumulative IPC: 1.52003 (Simulation time: 0 hr 2 min 0 sec) 
Heartbeat CPU  0 instructions:   53000003 cycles:   34867754 heartbeat IPC: 1.52001 cumulative IPC: 1.52003 (Simulation time: 0 hr 2 min 3 sec) 
Heartbeat CPU  0 instructions:   54000001 cycles:   35525629 heartbeat IPC: 1.52004 cumulative IPC: 1.52003 (Simulation time: 0 hr 2 min 5 sec) 
Heartbeat CPU  0 instructions:   55000003 cycles:   36183481 heartbeat IPC: 1.52010 cumulative IPC: 1.52003 (Simulation time: 0 hr 2 min 7 sec) 
Heartbeat CPU  0 instructions:   56000000 cycles:   36841344 heartbeat IPC: 1.52007 cumulative IPC: 1.52003 (Simulation time: 0 hr 2 min 10 sec) 
Heartbeat CPU  0 instructions:   57000001 cycles:   37499076 heartbeat IPC: 1.52038 cumulative IPC: 1.52004 (Simulation time: 0 hr 2 min 12 sec) 
Heartbeat CPU  0 instructions:   58000000 cycles:   38157015 heartbeat IPC: 1.51990 cumulative IPC: 1.52004 (Simulation time: 0 hr 2 min 14 sec) 
Heartbeat CPU  0 instructions:   59000002 cycles:   38814971 heartbeat IPC: 1.51986 cumulative IPC: 1.52003 (Simulation time: 0 hr 2 min 17 sec) 
Heartbeat CPU  0 instructions:   60000000 cycles:   39472729 heartbeat IPC: 1.52031 cumulative IPC: 1.52004 (Simulation time: 0 hr 2 min 19 sec) 
Heartbeat CPU  0 instructions:   61000002 cycles:   40130772 heartbeat IPC: 1.51966 cumulative IPC: 1.52003 (Simulation time: 0 hr 2 min 21 sec) 
Heartbeat CPU  0 instructions:   62000001 cycles:   40788699 heartbeat IPC: 1.51992 cumulative IPC: 1.52003 (Simulation time: 0 hr 2 min 24 sec) 
Heartbeat CPU  0 instructions:   63000002 cycles:   41446647 heartbeat IPC: 1.51988 cumulative IPC: 1.52003 (Simulation time: 0 hr 2 min 26 sec) 
Heartbeat CPU  0 instructions:   64000000 cycles:   42104572 heartbeat IPC: 1.51993 cumulative IPC: 1.52002 (Simulation time: 0 hr 2 min 28 sec) 
Heartbeat CPU  0 instructions:   65000002 cycles:   42762592 heartbeat IPC: 1.51971 cumulative IPC: 1.52002 (Simulation time: 0 hr 2 min 31 sec) 
Heartbeat CPU  0 instructions:   66000002 cycles:   43420510 heartbeat IPC: 1.51995 cumulative IPC: 1.52002 (Simulation time: 0 hr 2 min 33 sec) 
Heartbeat CPU  0 instructions:   67000002 cycles:   44078412 heartbeat IPC: 1.51998 cumulative IPC: 1.52002 (Simulation time: 0 hr 2 min 35 sec) 
Heartbeat CPU  0 instructions:   68000000 cycles:   44736289 heartbeat IPC: 1.52004 cumulative IPC: 1.52002 (Simulation time: 0 hr 2 min 37 sec) 
Heartbeat CPU  0 instructions:   69000000 cycles:   45394288 heartbeat IPC: 1.51976 cumulative IPC: 1.52002 (Simulation time: 0 hr 2 min 40 sec) 
Heartbeat CPU  0 instructions:   70000003 cycles:   46052120 heartbeat IPC: 1.52015 cumulative IPC: 1.52002 (Simulation time: 0 hr 2 min 42 sec) 
Heartbeat CPU  0 instructions:   71000003 cycles:   46709919 heartbeat IPC: 1.52022 cumulative IPC: 1.52002 (Simulation time: 0 hr 2 min 44 sec) 
Heartbeat CPU  0 instructions:   72000000 cycles:   47367777 heartbeat IPC: 1.52008 cumulative IPC: 1.52002 (Simulation time: 0 hr 2 min 47 sec) 
Heartbeat CPU  0 instructions:   73000001 cycles:   48025657 heartbeat IPC: 1.52004 cumulative IPC: 1.52002 (Simulation time: 0 hr 2 min 49 sec) 
Heartbeat CPU  0 instructions:   74000002 cycles:   48683479 heartbeat IPC: 1.52017 cumulative IPC: 1.52002 (Simulation time: 0 hr 2 min 51 sec) 
Heartbeat CPU  0 instructions:   75000001 cycles:   49341363 heartbeat IPC: 1.52002 cumulative IPC: 1.52002 (Simulation time: 0 hr 2 min 54 sec) 
Heartbeat CPU  0 instructions:   76000000 cycles:   49999163 heartbeat IPC: 1.52022 cumulative IPC: 1.52003 (Simulation time: 0 hr 2 min 56 sec) 
Heartbeat CPU  0 instructions:   77000002 cycles:   50657043 heartbeat IPC: 1.52004 cumulative IPC: 1.52003 (Simulation time: 0 hr 2 min 58 sec) 
Heartbeat CPU  0 instructions:   78000000 cycles:   51315003 heartbeat IPC: 1.51985 cumulative IPC: 1.52002 (Simulation time: 0 hr 3 min 1 sec) 
Heartbeat CPU  0 instructions:   79000003 cycles:   51972817 heartbeat IPC: 1.52019 cumulative IPC: 1.52003 (Simulation time: 0 hr 3 min 3 sec) 
Heartbeat CPU  0 instructions:   80000000 cycles:   52630640 heartbeat IPC: 1.52016 cumulative IPC: 1.52003 (Simulation time: 0 hr 3 min 5 sec) 
Heartbeat CPU  0 instructions:   81000001 cycles:   53288580 heartbeat IPC: 1.51990 cumulative IPC: 1.52003 (Simulation time: 0 hr 3 min 7 sec) 
Heartbeat CPU  0 instructions:   82000001 cycles:   53946432 heartbeat IPC: 1.52010 cumulative IPC: 1.52003 (Simulation time: 0 hr 3 min 10 sec) 
Heartbeat CPU  0 instructions:   83000001 cycles:   54604204 heartbeat IPC: 1.52028 cumulative IPC: 1.52003 (Simulation time: 0 hr 3 min 12 sec) 
Heartbeat CPU  0 instructions:   84000000 cycles:   55262005 heartbeat IPC: 1.52022 cumulative IPC: 1.52003 (Simulation time: 0 hr 3 min 14 sec) 
Heartbeat CPU  0 instructions:   85000000 cycles:   55919919 heartbeat IPC: 1.51996 cumulative IPC: 1.52003 (Simulation time: 0 hr 3 min 17 sec) 
Heartbeat CPU  0 instructions:   86000002 cycles:   56577773 heartbeat IPC: 1.52010 cumulative IPC: 1.52003 (Simulation time: 0 hr 3 min 19 sec) 
Heartbeat CPU  0 instructions:   87000001 cycles:   57235726 heartbeat IPC: 1.51986 cumulative IPC: 1.52003 (Simulation time: 0 hr 3 min 21 sec) 
Heartbeat CPU  0 instructions:   88000000 cycles:   57893775 heartbeat IPC: 1.51964 cumulative IPC: 1.52003 (Simulation time: 0 hr 3 min 24 sec) 
Heartbeat CPU  0 instructions:   89000001 cycles:   58551723 heartbeat IPC: 1.51988 cumulative IPC: 1.52002 (Simulation time: 0 hr 3 min 26 sec) 
Heartbeat CPU  0 instructions:   90000003 cycles:   59209668 heartbeat IPC: 1.51989 cumulative IPC: 1.52002 (Simulation time: 0 hr 3 min 28 sec) 
Heartbeat CPU  0 instructions:   91000000 cycles:   59867567 heartbeat IPC: 1.51999 cumulative IPC: 1.52002 (Simulation time: 0 hr 3 min 31 sec) 
Heartbeat CPU  0 instructions:   92000000 cycles:   60525526 heartbeat IPC: 1.51985 cumulative IPC: 1.52002 (Simulation time: 0 hr 3 min 33 sec) 
Heartbeat CPU  0 instructions:   93000001 cycles:   61183449 heartbeat IPC: 1.51994 cumulative IPC: 1.52002 (Simulation time: 0 hr 3 min 35 sec) 
Heartbeat CPU  0 instructions:   94000001 cycles:   61841376 heartbeat IPC: 1.51993 cumulative IPC: 1.52002 (Simulation time: 0 hr 3 min 38 sec) 
Heartbeat CPU  0 instructions:   95000000 cycles:   62499243 heartbeat IPC: 1.52006 cumulative IPC: 1.52002 (Simulation time: 0 hr 3 min 40 sec) 
Heartbeat CPU  0 instructions:   96000000 cycles:   63157102 heartbeat IPC: 1.52008 cumulative IPC: 1.52002 (Simulation time: 0 hr 3 min 42 sec) 
Heartbeat CPU  0 instructions:   97000000 cycles:   63815095 heartbeat IPC: 1.51977 cumulative IPC: 1.52002 (Simulation time: 0 hr 3 min 45 sec) 
Heartbeat CPU  0 instructions:   98000001 cycles:   64473014 heartbeat IPC: 1.51995 cumulative IPC: 1.52002 (Simulation time: 0 hr 3 min 47 sec) 
Heartbeat CPU  0 instructions:   99000003 cycles:   65130907 heartbeat IPC: 1.52001 cumulative IPC: 1.52002 (Simulation time: 0 hr 3 min 49 sec) 
Heartbeat CPU  0 instructions:  100000000 cycles:   65788750 heartbeat IPC: 1.52012 cumulative IPC: 1.52002 (Simulation time: 0 hr 3 min 51 sec) 

Warmup complete CPU  0 instructions:  100000002 cycles:   65788753 (Simulation time: 0 hr 3 min 51 sec) 

Heartbeat CPU  0 instructions:  101000001 cycles:   66634611 heartbeat IPC: 1.18223 cumulative IPC: 1.18223 (Simulation time: 0 hr 3 min 54 sec) 
Heartbeat CPU  0 instructions:  102000000 cycles:   67480757 heartbeat IPC: 1.18183 cumulative IPC: 1.18203 (Simulation time: 0 hr 3 min 57 sec) 
Heartbeat CPU  0 instructions:  103000001 cycles:   68324956 heartbeat IPC: 1.18456 cumulative IPC: 1.18287 (Simulation time: 0 hr 3 min 59 sec) 
Heartbeat CPU  0 instructions:  104000000 cycles:   69173265 heartbeat IPC: 1.17881 cumulative IPC: 1.18185 (Simulation time: 0 hr 4 min 2 sec) 
Heartbeat CPU  0 instructions:  105000002 cycles:   70017570 heartbeat IPC: 1.18441 cumulative IPC: 1.18236 (Simulation time: 0 hr 4 min 4 sec) 
Heartbeat CPU  0 instructions:  106000000 cycles:   70862246 heartbeat IPC: 1.18388 cumulative IPC: 1.18262 (Simulation time: 0 hr 4 min 7 sec) 
Heartbeat CPU  0 instructions:  107000001 cycles:   71708985 heartbeat IPC: 1.18100 cumulative IPC: 1.18239 (Simulation time: 0 hr 4 min 10 sec) 
Heartbeat CPU  0 instructions:  108000000 cycles:   72555627 heartbeat IPC: 1.18114 cumulative IPC: 1.18223 (Simulation time: 0 hr 4 min 12 sec) 
Heartbeat CPU  0 instructions:  109000001 cycles:   73410064 heartbeat IPC: 1.17036 cumulative IPC: 1.18090 (Simulation time: 0 hr 4 min 15 sec) 
Heartbeat CPU  0 instructions:  110000000 cycles:   74255531 heartbeat IPC: 1.18278 cumulative IPC: 1.18109 (Simulation time: 0 hr 4 min 17 sec) 
Heartbeat CPU  0 instructions:  111000000 cycles:   75102968 heartbeat IPC: 1.18003 cumulative IPC: 1.18099 (Simulation time: 0 hr 4 min 20 sec) 
Heartbeat CPU  0 instructions:  112000000 cycles:   75950560 heartbeat IPC: 1.17981 cumulative IPC: 1.18089 (Simulation time: 0 hr 4 min 23 sec) 
Heartbeat CPU  0 instructions:  113000000 cycles:   76798512 heartbeat IPC: 1.17931 cumulative IPC: 1.18077 (Simulation time: 0 hr 4 min 25 sec) 
Heartbeat CPU  0 instructions:  114000002 cycles:   77645305 heartbeat IPC: 1.18093 cumulative IPC: 1.18078 (Simulation time: 0 hr 4 min 28 sec) 
Heartbeat CPU  0 instructions:  115000000 cycles:   78492190 heartbeat IPC: 1.18080 cumulative IPC: 1.18078 (Simulation time: 0 hr 4 min 30 sec) 
Heartbeat CPU  0 instructions:  116000000 cycles:   79339803 heartbeat IPC: 1.17978 cumulative IPC: 1.18072 (Simulation time: 0 hr 4 min 33 sec) 
Heartbeat CPU  0 instructions:  117000003 cycles:   80186783 heartbeat IPC: 1.18067 cumulative IPC: 1.18072 (Simulation time: 0 hr 4 min 36 sec) 
Heartbeat CPU  0 instructions:  118000000 cycles:   81033660 heartbeat IPC: 1.18081 cumulative IPC: 1.18072 (Simulation time: 0 hr 4 min 38 sec) 
Heartbeat CPU  0 instructions:  119000001 cycles:   81878332 heartbeat IPC: 1.18389 cumulative IPC: 1.18089 (Simulation time: 0 hr 4 min 41 sec) 
Heartbeat CPU  0 instructions:  120000000 cycles:   82725501 heartbeat IPC: 1.18040 cumulative IPC: 1.18086 (Simulation time: 0 hr 4 min 43 sec) 
Heartbeat CPU  0 instructions:  121000003 cycles:   83576739 heartbeat IPC: 1.17476 cumulative IPC: 1.18057 (Simulation time: 0 hr 4 min 46 sec) 
Heartbeat CPU  0 instructions:  122000000 cycles:   84424538 heartbeat IPC: 1.17952 cumulative IPC: 1.18052 (Simulation time: 0 hr 4 min 49 sec) 
Heartbeat CPU  0 instructions:  123000002 cycles:   85270602 heartbeat IPC: 1.18195 cumulative IPC: 1.18059 (Simulation time: 0 hr 4 min 51 sec) 
Heartbeat CPU  0 instructions:  124000000 cycles:   86119501 heartbeat IPC: 1.17799 cumulative IPC: 1.18048 (Simulation time: 0 hr 4 min 54 sec) 
Heartbeat CPU  0 instructions:  125000003 cycles:   86964349 heartbeat IPC: 1.18365 cumulative IPC: 1.18060 (Simulation time: 0 hr 4 min 56 sec) 
Heartbeat CPU  0 instructions:  126000002 cycles:   87810240 heartbeat IPC: 1.18218 cumulative IPC: 1.18067 (Simulation time: 0 hr 4 min 59 sec) 
Heartbeat CPU  0 instructions:  127000000 cycles:   88657879 heartbeat IPC: 1.17975 cumulative IPC: 1.18063 (Simulation time: 0 hr 5 min 2 sec) 
Heartbeat CPU  0 instructions:  128000000 cycles:   89503358 heartbeat IPC: 1.18276 cumulative IPC: 1.18071 (Simulation time: 0 hr 5 min 4 sec) 
Heartbeat CPU  0 instructions:  129000000 cycles:   90347909 heartbeat IPC: 1.18406 cumulative IPC: 1.18082 (Simulation time: 0 hr 5 min 7 sec) 
Heartbeat CPU  0 instructions:  130000001 cycles:   91194758 heartbeat IPC: 1.18085 cumulative IPC: 1.18082 (Simulation time: 0 hr 5 min 9 sec) 
Heartbeat CPU  0 instructions:  131000000 cycles:   92039423 heartbeat IPC: 1.18390 cumulative IPC: 1.18092 (Simulation time: 0 hr 5 min 12 sec) 
Heartbeat CPU  0 instructions:  132000000 cycles:   92887104 heartbeat IPC: 1.17969 cumulative IPC: 1.18088 (Simulation time: 0 hr 5 min 15 sec) 
Heartbeat CPU  0 instructions:  133000001 cycles:   93735814 heartbeat IPC: 1.17826 cumulative IPC: 1.18080 (Simulation time: 0 hr 5 min 17 sec) 
Heartbeat CPU  0 instructions:  134000000 cycles:   94585503 heartbeat IPC: 1.17690 cumulative IPC: 1.18069 (Simulation time: 0 hr 5 min 20 sec) 
Heartbeat CPU  0 instructions:  135000001 cycles:   95434607 heartbeat IPC: 1.17771 cumulative IPC: 1.18060 (Simulation time: 0 hr 5 min 22 sec) 
Heartbeat CPU  0 instructions:  136000000 cycles:   96278384 heartbeat IPC: 1.18515 cumulative IPC: 1.18073 (Simulation time: 0 hr 5 min 25 sec) 
Heartbeat CPU  0 instructions:  137000002 cycles:   97123130 heartbeat IPC: 1.18379 cumulative IPC: 1.18081 (Simulation time: 0 hr 5 min 28 sec) 
Heartbeat CPU  0 instructions:  138000000 cycles:   97972970 heartbeat IPC: 1.17669 cumulative IPC: 1.18070 (Simulation time: 0 hr 5 min 30 sec) 
Heartbeat CPU  0 instructions:  139000002 cycles:   98820945 heartbeat IPC: 1.17928 cumulative IPC: 1.18067 (Simulation time: 0 hr 5 min 33 sec) 
Heartbeat CPU  0 instructions:  140000000 cycles:   99663188 heartbeat IPC: 1.18730 cumulative IPC: 1.18083 (Simulation time: 0 hr 5 min 35 sec) 
Heartbeat CPU  0 instructions:  141000003 cycles:  100511009 heartbeat IPC: 1.17950 cumulative IPC: 1.18080 (Simulation time: 0 hr 5 min 38 sec) 
Heartbeat CPU  0 instructions:  142000001 cycles:  101359184 heartbeat IPC: 1.17900 cumulative IPC: 1.18076 (Simulation time: 0 hr 5 min 41 sec) 
Heartbeat CPU  0 instructions:  143000001 cycles:  102209607 heartbeat IPC: 1.17589 cumulative IPC: 1.18064 (Simulation time: 0 hr 5 min 43 sec) 
Heartbeat CPU  0 instructions:  144000000 cycles:  103059408 heartbeat IPC: 1.17674 cumulative IPC: 1.18055 (Simulation time: 0 hr 5 min 46 sec) 
Heartbeat CPU  0 instructions:  145000001 cycles:  103911115 heartbeat IPC: 1.17411 cumulative IPC: 1.18041 (Simulation time: 0 hr 5 min 48 sec) 
Heartbeat CPU  0 instructions:  146000003 cycles:  104758355 heartbeat IPC: 1.18031 cumulative IPC: 1.18041 (Simulation time: 0 hr 5 min 51 sec) 
Heartbeat CPU  0 instructions:  147000002 cycles:  105605665 heartbeat IPC: 1.18020 cumulative IPC: 1.18040 (Simulation time: 0 hr 5 min 54 sec) 
Heartbeat CPU  0 instructions:  148000000 cycles:  106451053 heartbeat IPC: 1.18289 cumulative IPC: 1.18045 (Simulation time: 0 hr 5 min 56 sec) 
Heartbeat CPU  0 instructions:  149000001 cycles:  107298085 heartbeat IPC: 1.18059 cumulative IPC: 1.18046 (Simulation time: 0 hr 5 min 59 sec) 
Heartbeat CPU  0 instructions:  150000002 cycles:  108141484 heartbeat IPC: 1.18568 cumulative IPC: 1.18056 (Simulation time: 0 hr 6 min 1 sec) 
Heartbeat CPU  0 instructions:  151000001 cycles:  108987574 heartbeat IPC: 1.18191 cumulative IPC: 1.18059 (Simulation time: 0 hr 6 min 4 sec) 
Heartbeat CPU  0 instructions:  152000000 cycles:  109833975 heartbeat IPC: 1.18147 cumulative IPC: 1.18060 (Simulation time: 0 hr 6 min 7 sec) 
Heartbeat CPU  0 instructions:  153000002 cycles:  110679706 heartbeat IPC: 1.18241 cumulative IPC: 1.18064 (Simulation time: 0 hr 6 min 9 sec) 
Heartbeat CPU  0 instructions:  154000001 cycles:  111529684 heartbeat IPC: 1.17650 cumulative IPC: 1.18056 (Simulation time: 0 hr 6 min 12 sec) 
Heartbeat CPU  0 instructions:  155000002 cycles:  112381112 heartbeat IPC: 1.17450 cumulative IPC: 1.18045 (Simulation time: 0 hr 6 min 14 sec) 
Heartbeat CPU  0 instructions:  156000000 cycles:  113230081 heartbeat IPC: 1.17790 cumulative IPC: 1.18041 (Simulation time: 0 hr 6 min 17 sec) 
Heartbeat CPU  0 instructions:  157000002 cycles:  114077741 heartbeat IPC: 1.17972 cumulative IPC: 1.18039 (Simulation time: 0 hr 6 min 20 sec) 
Heartbeat CPU  0 instructions:  158000000 cycles:  114927947 heartbeat IPC: 1.17618 cumulative IPC: 1.18032 (Simulation time: 0 hr 6 min 22 sec) 
Heartbeat CPU  0 instructions:  159000000 cycles:  115772992 heartbeat IPC: 1.18337 cumulative IPC: 1.18037 (Simulation time: 0 hr 6 min 25 sec) 
Heartbeat CPU  0 instructions:  160000000 cycles:  116618586 heartbeat IPC: 1.18260 cumulative IPC: 1.18041 (Simulation time: 0 hr 6 min 27 sec) 
Heartbeat CPU  0 instructions:  161000000 cycles:  117465345 heartbeat IPC: 1.18097 cumulative IPC: 1.18042 (Simulation time: 0 hr 6 min 30 sec) 
Heartbeat CPU  0 instructions:  162000000 cycles:  118311023 heartbeat IPC: 1.18248 cumulative IPC: 1.18045 (Simulation time: 0 hr 6 min 33 sec) 
Heartbeat CPU  0 instructions:  163000001 cycles:  119155179 heartbeat IPC: 1.18462 cumulative IPC: 1.18052 (Simulation time: 0 hr 6 min 35 sec) 
Heartbeat CPU  0 instructions:  164000000 cycles:  120005487 heartbeat IPC: 1.17604 cumulative IPC: 1.18045 (Simulation time: 0 hr 6 min 38 sec) 
Heartbeat CPU  0 instructions:  165000001 cycles:  120851145 heartbeat IPC: 1.18251 cumulative IPC: 1.18048 (Simulation time: 0 hr 6 min 40 sec) 
Heartbeat CPU  0 instructions:  166000002 cycles:  121701762 heartbeat IPC: 1.17562 cumulative IPC: 1.18041 (Simulation time: 0 hr 6 min 43 sec) 
Heartbeat CPU  0 instructions:  167000001 cycles:  122550658 heartbeat IPC: 1.17800 cumulative IPC: 1.18037 (Simulation time: 0 hr 6 min 45 sec) 
Heartbeat CPU  0 instructions:  168000000 cycles:  123400161 heartbeat IPC: 1.17716 cumulative IPC: 1.18032 (Simulation time: 0 hr 6 min 48 sec) 
Heartbeat CPU  0 instructions:  169000002 cycles:  124246660 heartbeat IPC: 1.18134 cumulative IPC: 1.18034 (Simulation time: 0 hr 6 min 51 sec) 
Heartbeat CPU  0 instructions:  170000001 cycles:  125095596 heartbeat IPC: 1.17794 cumulative IPC: 1.18030 (Simulation time: 0 hr 6 min 53 sec) 
Heartbeat CPU  0 instructions:  171000000 cycles:  125938226 heartbeat IPC: 1.18676 cumulative IPC: 1.18039 (Simulation time: 0 hr 6 min 56 sec) 
Heartbeat CPU  0 instructions:  172000000 cycles:  126783401 heartbeat IPC: 1.18319 cumulative IPC: 1.18043 (Simulation time: 0 hr 6 min 58 sec) 
Heartbeat CPU  0 instructions:  173000000 cycles:  127624707 heartbeat IPC: 1.18863 cumulative IPC: 1.18054 (Simulation time: 0 hr 7 min 1 sec) 
Heartbeat CPU  0 instructions:  174000000 cycles:  128469922 heartbeat IPC: 1.18313 cumulative IPC: 1.18058 (Simulation time: 0 hr 7 min 4 sec) 
Heartbeat CPU  0 instructions:  175000003 cycles:  129316369 heartbeat IPC: 1.18141 cumulative IPC: 1.18059 (Simulation time: 0 hr 7 min 6 sec) 
Heartbeat CPU  0 instructions:  176000000 cycles:  130166035 heartbeat IPC: 1.17693 cumulative IPC: 1.18054 (Simulation time: 0 hr 7 min 9 sec) 
Heartbeat CPU  0 instructions:  177000000 cycles:  131011201 heartbeat IPC: 1.18320 cumulative IPC: 1.18058 (Simulation time: 0 hr 7 min 12 sec) 
Heartbeat CPU  0 instructions:  178000002 cycles:  131862121 heartbeat IPC: 1.17520 cumulative IPC: 1.18051 (Simulation time: 0 hr 7 min 14 sec) 
Heartbeat CPU  0 instructions:  179000001 cycles:  132712528 heartbeat IPC: 1.17591 cumulative IPC: 1.18045 (Simulation time: 0 hr 7 min 17 sec) 
Heartbeat CPU  0 instructions:  180000000 cycles:  133560435 heartbeat IPC: 1.17937 cumulative IPC: 1.18043 (Simulation time: 0 hr 7 min 19 sec) 
Heartbeat CPU  0 instructions:  181000001 cycles:  134409530 heartbeat IPC: 1.17773 cumulative IPC: 1.18040 (Simulation time: 0 hr 7 min 22 sec) 
Heartbeat CPU  0 instructions:  182000000 cycles:  135254295 heartbeat IPC: 1.18376 cumulative IPC: 1.18044 (Simulation time: 0 hr 7 min 24 sec) 
Heartbeat CPU  0 instructions:  183000002 cycles:  136101334 heartbeat IPC: 1.18059 cumulative IPC: 1.18044 (Simulation time: 0 hr 7 min 27 sec) 
Heartbeat CPU  0 instructions:  184000000 cycles:  136945198 heartbeat IPC: 1.18502 cumulative IPC: 1.18050 (Simulation time: 0 hr 7 min 30 sec) 
Heartbeat CPU  0 instructions:  185000000 cycles:  137792025 heartbeat IPC: 1.18088 cumulative IPC: 1.18050 (Simulation time: 0 hr 7 min 32 sec) 
Heartbeat CPU  0 instructions:  186000000 cycles:  138634842 heartbeat IPC: 1.18650 cumulative IPC: 1.18057 (Simulation time: 0 hr 7 min 35 sec) 
Heartbeat CPU  0 instructions:  187000003 cycles:  139483162 heartbeat IPC: 1.17880 cumulative IPC: 1.18055 (Simulation time: 0 hr 7 min 37 sec) 
Heartbeat CPU  0 instructions:  188000000 cycles:  140329066 heartbeat IPC: 1.18216 cumulative IPC: 1.18057 (Simulation time: 0 hr 7 min 40 sec) 
Heartbeat CPU  0 instructions:  189000000 cycles:  141180440 heartbeat IPC: 1.17457 cumulative IPC: 1.18050 (Simulation time: 0 hr 7 min 43 sec) 
Heartbeat CPU  0 instructions:  190000003 cycles:  142026438 heartbeat IPC: 1.18204 cumulative IPC: 1.18052 (Simulation time: 0 hr 7 min 45 sec) 
Heartbeat CPU  0 instructions:  191000001 cycles:  142874898 heartbeat IPC: 1.17860 cumulative IPC: 1.18050 (Simulation time: 0 hr 7 min 48 sec) 
Heartbeat CPU  0 instructions:  192000000 cycles:  143722046 heartbeat IPC: 1.18043 cumulative IPC: 1.18050 (Simulation time: 0 hr 7 min 50 sec) 
Heartbeat CPU  0 instructions:  193000001 cycles:  144571118 heartbeat IPC: 1.17776 cumulative IPC: 1.18047 (Simulation time: 0 hr 7 min 53 sec) 
Heartbeat CPU  0 instructions:  194000001 cycles:  145412921 heartbeat IPC: 1.18793 cumulative IPC: 1.18055 (Simulation time: 0 hr 7 min 56 sec) 
Heartbeat CPU  0 instructions:  195000002 cycles:  146259435 heartbeat IPC: 1.18132 cumulative IPC: 1.18055 (Simulation time: 0 hr 7 min 58 sec) 
Heartbeat CPU  0 instructions:  196000000 cycles:  147106476 heartbeat IPC: 1.18058 cumulative IPC: 1.18055 (Simulation time: 0 hr 8 min 1 sec) 
Heartbeat CPU  0 instructions:  197000001 cycles:  147952877 heartbeat IPC: 1.18147 cumulative IPC: 1.18056 (Simulation time: 0 hr 8 min 3 sec) 
Heartbeat CPU  0 instructions:  198000002 cycles:  148798545 heartbeat IPC: 1.18250 cumulative IPC: 1.18058 (Simulation time: 0 hr 8 min 6 sec) 
Heartbeat CPU  0 instructions:  199000003 cycles:  149644582 heartbeat IPC: 1.18198 cumulative IPC: 1.18060 (Simulation time: 0 hr 8 min 9 sec) 
Heartbeat CPU  0 instructions:  200000000 cycles:  150492036 heartbeat IPC: 1.18000 cumulative IPC: 1.18059 (Simulation time: 0 hr 8 min 11 sec) 
Heartbeat CPU  0 instructions:  201000002 cycles:  151342053 heartbeat IPC: 1.17645 cumulative IPC: 1.18055 (Simulation time: 0 hr 8 min 14 sec) 
Heartbeat CPU  0 instructions:  202000000 cycles:  152192019 heartbeat IPC: 1.17652 cumulative IPC: 1.18051 (Simulation time: 0 hr 8 min 16 sec) 
Heartbeat CPU  0 instructions:  203000000 cycles:  153038398 heartbeat IPC: 1.18150 cumulative IPC: 1.18052 (Simulation time: 0 hr 8 min 19 sec) 
Heartbeat CPU  0 instructions:  204000000 cycles:  153885134 heartbeat IPC: 1.18101 cumulative IPC: 1.18053 (Simulation time: 0 hr 8 min 22 sec) 
Heartbeat CPU  0 instructions:  205000003 cycles:  154733502 heartbeat IPC: 1.17874 cumulative IPC: 1.18051 (Simulation time: 0 hr 8 min 24 sec) 
Heartbeat CPU  0 instructions:  206000002 cycles:  155580199 heartbeat IPC: 1.18106 cumulative IPC: 1.18051 (Simulation time: 0 hr 8 min 27 sec) 
Heartbeat CPU  0 instructions:  207000000 cycles:  156423679 heartbeat IPC: 1.18556 cumulative IPC: 1.18056 (Simulation time: 0 hr 8 min 29 sec) 
Heartbeat CPU  0 instructions:  208000000 cycles:  157268019 heartbeat IPC: 1.18436 cumulative IPC: 1.18060 (Simulation time: 0 hr 8 min 32 sec) 
Heartbeat CPU  0 instructions:  209000002 cycles:  158116561 heartbeat IPC: 1.17849 cumulative IPC: 1.18058 (Simulation time: 0 hr 8 min 35 sec) 
Heartbeat CPU  0 instructions:  210000001 cycles:  158962317 heartbeat IPC: 1.18237 cumulative IPC: 1.18059 (Simulation time: 0 hr 8 min 37 sec) 
Heartbeat CPU  0 instructions:  211000000 cycles:  159807068 heartbeat IPC: 1.18378 cumulative IPC: 1.18062 (Simulation time: 0 hr 8 min 40 sec) 
Heartbeat CPU  0 instructions:  212000000 cycles:  160654838 heartbeat IPC: 1.17957 cumulative IPC: 1.18061 (Simulation time: 0 hr 8 min 42 sec) 
Heartbeat CPU  0 instructions:  213000001 cycles:  161504243 heartbeat IPC: 1.17730 cumulative IPC: 1.18058 (Simulation time: 0 hr 8 min 45 sec) 
Heartbeat CPU  0 instructions:  214000000 cycles:  162355205 heartbeat IPC: 1.17514 cumulative IPC: 1.18053 (Simulation time: 0 hr 8 min 48 sec) 
Heartbeat CPU  0 instructions:  215000002 cycles:  163202240 heartbeat IPC: 1.18059 cumulative IPC: 1.18053 (Simulation time: 0 hr 8 min 50 sec) 
Heartbeat CPU  0 instructions:  216000000 cycles:  164047057 heartbeat IPC: 1.18369 cumulative IPC: 1.18056 (Simulation time: 0 hr 8 min 53 sec) 
Heartbeat CPU  0 instructions:  217000001 cycles:  164895747 heartbeat IPC: 1.17829 cumulative IPC: 1.18054 (Simulation time: 0 hr 8 min 55 sec) 
Heartbeat CPU  0 instructions:  218000002 cycles:  165737995 heartbeat IPC: 1.18730 cumulative IPC: 1.18060 (Simulation time: 0 hr 8 min 58 sec) 
Heartbeat CPU  0 instructions:  219000001 cycles:  166583483 heartbeat IPC: 1.18275 cumulative IPC: 1.18062 (Simulation time: 0 hr 9 min 1 sec) 
Heartbeat CPU  0 instructions:  220000000 cycles:  167428950 heartbeat IPC: 1.18278 cumulative IPC: 1.18064 (Simulation time: 0 hr 9 min 3 sec) 
Heartbeat CPU  0 instructions:  221000001 cycles:  168275816 heartbeat IPC: 1.18083 cumulative IPC: 1.18064 (Simulation time: 0 hr 9 min 6 sec) 
Heartbeat CPU  0 instructions:  222000002 cycles:  169120568 heartbeat IPC: 1.18378 cumulative IPC: 1.18066 (Simulation time: 0 hr 9 min 8 sec) 
Heartbeat CPU  0 instructions:  223000000 cycles:  169969206 heartbeat IPC: 1.17836 cumulative IPC: 1.18064 (Simulation time: 0 hr 9 min 11 sec) 
Heartbeat CPU  0 instructions:  224000000 cycles:  170821839 heartbeat IPC: 1.17284 cumulative IPC: 1.18058 (Simulation time: 0 hr 9 min 14 sec) 
Heartbeat CPU  0 instructions:  225000002 cycles:  171668790 heartbeat IPC: 1.18071 cumulative IPC: 1.18058 (Simulation time: 0 hr 9 min 16 sec) 
Heartbeat CPU  0 instructions:  226000003 cycles:  172521328 heartbeat IPC: 1.17297 cumulative IPC: 1.18052 (Simulation time: 0 hr 9 min 19 sec) 
Heartbeat CPU  0 instructions:  227000002 cycles:  173367372 heartbeat IPC: 1.18197 cumulative IPC: 1.18053 (Simulation time: 0 hr 9 min 21 sec) 
Heartbeat CPU  0 instructions:  228000000 cycles:  174211604 heartbeat IPC: 1.18451 cumulative IPC: 1.18056 (Simulation time: 0 hr 9 min 24 sec) 
Heartbeat CPU  0 instructions:  229000000 cycles:  175054449 heartbeat IPC: 1.18646 cumulative IPC: 1.18061 (Simulation time: 0 hr 9 min 27 sec) 
Heartbeat CPU  0 instructions:  230000002 cycles:  175902499 heartbeat IPC: 1.17918 cumulative IPC: 1.18060 (Simulation time: 0 hr 9 min 29 sec) 
Heartbeat CPU  0 instructions:  231000001 cycles:  176745992 heartbeat IPC: 1.18555 cumulative IPC: 1.18063 (Simulation time: 0 hr 9 min 32 sec) 
Heartbeat CPU  0 instructions:  232000000 cycles:  177594801 heartbeat IPC: 1.17812 cumulative IPC: 1.18062 (Simulation time: 0 hr 9 min 34 sec) 
Heartbeat CPU  0 instructions:  233000000 cycles:  178442046 heartbeat IPC: 1.18030 cumulative IPC: 1.18061 (Simulation time: 0 hr 9 min 37 sec) 
Heartbeat CPU  0 instructions:  234000001 cycles:  179290966 heartbeat IPC: 1.17797 cumulative IPC: 1.18059 (Simulation time: 0 hr 9 min 40 sec) 
Heartbeat CPU  0 instructions:  235000001 cycles:  180140051 heartbeat IPC: 1.17774 cumulative IPC: 1.18057 (Simulation time: 0 hr 9 min 42 sec) 
Heartbeat CPU  0 instructions:  236000000 cycles:  180988493 heartbeat IPC: 1.17863 cumulative IPC: 1.18056 (Simulation time: 0 hr 9 min 45 sec) 
Heartbeat CPU  0 instructions:  237000000 cycles:  181836439 heartbeat IPC: 1.17932 cumulative IPC: 1.18055 (Simulation time: 0 hr 9 min 47 sec) 
Heartbeat CPU  0 instructions:  238000000 cycles:  182683143 heartbeat IPC: 1.18105 cumulative IPC: 1.18055 (Simulation time: 0 hr 9 min 50 sec) 
Heartbeat CPU  0 instructions:  239000001 cycles:  183530029 heartbeat IPC: 1.18080 cumulative IPC: 1.18055 (Simulation time: 0 hr 9 min 53 sec) 
Heartbeat CPU  0 instructions:  240000000 cycles:  184374366 heartbeat IPC: 1.18436 cumulative IPC: 1.18058 (Simulation time: 0 hr 9 min 55 sec) 
Heartbeat CPU  0 instructions:  241000000 cycles:  185217379 heartbeat IPC: 1.18622 cumulative IPC: 1.18062 (Simulation time: 0 hr 9 min 58 sec) 
Heartbeat CPU  0 instructions:  242000003 cycles:  186064550 heartbeat IPC: 1.18040 cumulative IPC: 1.18062 (Simulation time: 0 hr 10 min 0 sec) 
Heartbeat CPU  0 instructions:  243000000 cycles:  186908521 heartbeat IPC: 1.18487 cumulative IPC: 1.18065 (Simulation time: 0 hr 10 min 3 sec) 
Heartbeat CPU  0 instructions:  244000000 cycles:  187753811 heartbeat IPC: 1.18303 cumulative IPC: 1.18067 (Simulation time: 0 hr 10 min 6 sec) 
Heartbeat CPU  0 instructions:  245000001 cycles:  188599489 heartbeat IPC: 1.18248 cumulative IPC: 1.18068 (Simulation time: 0 hr 10 min 8 sec) 
Heartbeat CPU  0 instructions:  246000001 cycles:  189449461 heartbeat IPC: 1.17651 cumulative IPC: 1.18065 (Simulation time: 0 hr 10 min 11 sec) 
Heartbeat CPU  0 instructions:  247000001 cycles:  190298507 heartbeat IPC: 1.17779 cumulative IPC: 1.18063 (Simulation time: 0 hr 10 min 13 sec) 
Heartbeat CPU  0 instructions:  248000000 cycles:  191144176 heartbeat IPC: 1.18249 cumulative IPC: 1.18064 (Simulation time: 0 hr 10 min 16 sec) 
Heartbeat CPU  0 instructions:  249000003 cycles:  191991036 heartbeat IPC: 1.18084 cumulative IPC: 1.18064 (Simulation time: 0 hr 10 min 18 sec) 
Heartbeat CPU  0 instructions:  250000001 cycles:  192839189 heartbeat IPC: 1.17903 cumulative IPC: 1.18063 (Simulation time: 0 hr 10 min 21 sec) 
Heartbeat CPU  0 instructions:  251000000 cycles:  193684320 heartbeat IPC: 1.18325 cumulative IPC: 1.18065 (Simulation time: 0 hr 10 min 24 sec) 
Heartbeat CPU  0 instructions:  252000000 cycles:  194530148 heartbeat IPC: 1.18227 cumulative IPC: 1.18066 (Simulation time: 0 hr 10 min 26 sec) 
Heartbeat CPU  0 instructions:  253000000 cycles:  195374365 heartbeat IPC: 1.18453 cumulative IPC: 1.18069 (Simulation time: 0 hr 10 min 29 sec) 
Heartbeat CPU  0 instructions:  254000001 cycles:  196221148 heartbeat IPC: 1.18094 cumulative IPC: 1.18069 (Simulation time: 0 hr 10 min 31 sec) 
Heartbeat CPU  0 instructions:  255000000 cycles:  197069297 heartbeat IPC: 1.17904 cumulative IPC: 1.18068 (Simulation time: 0 hr 10 min 34 sec) 
Heartbeat CPU  0 instructions:  256000000 cycles:  197915391 heartbeat IPC: 1.18190 cumulative IPC: 1.18069 (Simulation time: 0 hr 10 min 37 sec) 
Heartbeat CPU  0 instructions:  257000000 cycles:  198760615 heartbeat IPC: 1.18312 cumulative IPC: 1.18070 (Simulation time: 0 hr 10 min 39 sec) 
Heartbeat CPU  0 instructions:  258000003 cycles:  199608323 heartbeat IPC: 1.17966 cumulative IPC: 1.18069 (Simulation time: 0 hr 10 min 42 sec) 
Heartbeat CPU  0 instructions:  259000002 cycles:  200455419 heartbeat IPC: 1.18050 cumulative IPC: 1.18069 (Simulation time: 0 hr 10 min 44 sec) 
Heartbeat CPU  0 instructions:  260000000 cycles:  201303764 heartbeat IPC: 1.17876 cumulative IPC: 1.18068 (Simulation time: 0 hr 10 min 47 sec) 
Heartbeat CPU  0 instructions:  261000003 cycles:  202146835 heartbeat IPC: 1.18614 cumulative IPC: 1.18071 (Simulation time: 0 hr 10 min 50 sec) 
Heartbeat CPU  0 instructions:  262000000 cycles:  202993448 heartbeat IPC: 1.18117 cumulative IPC: 1.18072 (Simulation time: 0 hr 10 min 52 sec) 
Heartbeat CPU  0 instructions:  263000000 cycles:  203838220 heartbeat IPC: 1.18375 cumulative IPC: 1.18074 (Simulation time: 0 hr 10 min 55 sec) 
Heartbeat CPU  0 instructions:  264000000 cycles:  204682937 heartbeat IPC: 1.18383 cumulative IPC: 1.18076 (Simulation time: 0 hr 10 min 58 sec) 
Heartbeat CPU  0 instructions:  265000002 cycles:  205527388 heartbeat IPC: 1.18420 cumulative IPC: 1.18078 (Simulation time: 0 hr 11 min 0 sec) 
Heartbeat CPU  0 instructions:  266000003 cycles:  206375523 heartbeat IPC: 1.17906 cumulative IPC: 1.18077 (Simulation time: 0 hr 11 min 3 sec) 
Heartbeat CPU  0 instructions:  267000003 cycles:  207219384 heartbeat IPC: 1.18503 cumulative IPC: 1.18079 (Simulation time: 0 hr 11 min 5 sec) 
Heartbeat CPU  0 instructions:  268000000 cycles:  208066415 heartbeat IPC: 1.18059 cumulative IPC: 1.18079 (Simulation time: 0 hr 11 min 8 sec) 
Heartbeat CPU  0 instructions:  269000000 cycles:  208915821 heartbeat IPC: 1.17729 cumulative IPC: 1.18077 (Simulation time: 0 hr 11 min 11 sec) 
Heartbeat CPU  0 instructions:  270000001 cycles:  209761785 heartbeat IPC: 1.18208 cumulative IPC: 1.18078 (Simulation time: 0 hr 11 min 13 sec) 
Heartbeat CPU  0 instructions:  271000001 cycles:  210608274 heartbeat IPC: 1.18135 cumulative IPC: 1.18078 (Simulation time: 0 hr 11 min 16 sec) 
Heartbeat CPU  0 instructions:  272000000 cycles:  211458941 heartbeat IPC: 1.17555 cumulative IPC: 1.18075 (Simulation time: 0 hr 11 min 18 sec) 
Heartbeat CPU  0 instructions:  273000003 cycles:  212304550 heartbeat IPC: 1.18258 cumulative IPC: 1.18076 (Simulation time: 0 hr 11 min 21 sec) 
Heartbeat CPU  0 instructions:  274000002 cycles:  213148820 heartbeat IPC: 1.18445 cumulative IPC: 1.18078 (Simulation time: 0 hr 11 min 23 sec) 
Heartbeat CPU  0 instructions:  275000000 cycles:  213994054 heartbeat IPC: 1.18310 cumulative IPC: 1.18079 (Simulation time: 0 hr 11 min 26 sec) 
Heartbeat CPU  0 instructions:  276000000 cycles:  214840569 heartbeat IPC: 1.18131 cumulative IPC: 1.18080 (Simulation time: 0 hr 11 min 29 sec) 
Heartbeat CPU  0 instructions:  277000002 cycles:  215691737 heartbeat IPC: 1.17486 cumulative IPC: 1.18076 (Simulation time: 0 hr 11 min 31 sec) 
Heartbeat CPU  0 instructions:  278000002 cycles:  216534244 heartbeat IPC: 1.18693 cumulative IPC: 1.18080 (Simulation time: 0 hr 11 min 34 sec) 
Heartbeat CPU  0 instructions:  279000001 cycles:  217381853 heartbeat IPC: 1.17979 cumulative IPC: 1.18079 (Simulation time: 0 hr 11 min 36 sec) 
Heartbeat CPU  0 instructions:  280000000 cycles:  218230123 heartbeat IPC: 1.17887 cumulative IPC: 1.18078 (Simulation time: 0 hr 11 min 39 sec) 
Heartbeat CPU  0 instructions:  281000000 cycles:  219084429 heartbeat IPC: 1.17054 cumulative IPC: 1.18072 (Simulation time: 0 hr 11 min 42 sec) 
Heartbeat CPU  0 instructions:  282000000 cycles:  219927340 heartbeat IPC: 1.18636 cumulative IPC: 1.18076 (Simulation time: 0 hr 11 min 44 sec) 
Heartbeat CPU  0 instructions:  283000003 cycles:  220778562 heartbeat IPC: 1.17479 cumulative IPC: 1.18072 (Simulation time: 0 hr 11 min 47 sec) 
Heartbeat CPU  0 instructions:  284000000 cycles:  221627226 heartbeat IPC: 1.17832 cumulative IPC: 1.18071 (Simulation time: 0 hr 11 min 49 sec) 
Heartbeat CPU  0 instructions:  285000000 cycles:  222475760 heartbeat IPC: 1.17850 cumulative IPC: 1.18070 (Simulation time: 0 hr 11 min 52 sec) 
Heartbeat CPU  0 instructions:  286000002 cycles:  223319563 heartbeat IPC: 1.18511 cumulative IPC: 1.18072 (Simulation time: 0 hr 11 min 55 sec) 
Heartbeat CPU  0 instructions:  287000000 cycles:  224167166 heartbeat IPC: 1.17980 cumulative IPC: 1.18072 (Simulation time: 0 hr 11 min 57 sec) 
Heartbeat CPU  0 instructions:  288000000 cycles:  225012708 heartbeat IPC: 1.18267 cumulative IPC: 1.18073 (Simulation time: 0 hr 12 min 0 sec) 
Heartbeat CPU  0 instructions:  289000001 cycles:  225862551 heartbeat IPC: 1.17669 cumulative IPC: 1.18071 (Simulation time: 0 hr 12 min 2 sec) 
Heartbeat CPU  0 instructions:  290000002 cycles:  226705925 heartbeat IPC: 1.18571 cumulative IPC: 1.18073 (Simulation time: 0 hr 12 min 5 sec) 
Heartbeat CPU  0 instructions:  291000002 cycles:  227554925 heartbeat IPC: 1.17786 cumulative IPC: 1.18072 (Simulation time: 0 hr 12 min 8 sec) 
Heartbeat CPU  0 instructions:  292000000 cycles:  228405158 heartbeat IPC: 1.17615 cumulative IPC: 1.18069 (Simulation time: 0 hr 12 min 10 sec) 
Heartbeat CPU  0 instructions:  293000001 cycles:  229251088 heartbeat IPC: 1.18213 cumulative IPC: 1.18070 (Simulation time: 0 hr 12 min 13 sec) 
Heartbeat CPU  0 instructions:  294000000 cycles:  230097363 heartbeat IPC: 1.18165 cumulative IPC: 1.18070 (Simulation time: 0 hr 12 min 15 sec) 
Heartbeat CPU  0 instructions:  295000003 cycles:  230946604 heartbeat IPC: 1.17753 cumulative IPC: 1.18069 (Simulation time: 0 hr 12 min 18 sec) 
Heartbeat CPU  0 instructions:  296000000 cycles:  231793095 heartbeat IPC: 1.18134 cumulative IPC: 1.18069 (Simulation time: 0 hr 12 min 21 sec) 
Heartbeat CPU  0 instructions:  297000001 cycles:  232638417 heartbeat IPC: 1.18298 cumulative IPC: 1.18070 (Simulation time: 0 hr 12 min 23 sec) 
Heartbeat CPU  0 instructions:  298000001 cycles:  233483229 heartbeat IPC: 1.18370 cumulative IPC: 1.18072 (Simulation time: 0 hr 12 min 26 sec) 
Heartbeat CPU  0 instructions:  299000000 cycles:  234327353 heartbeat IPC: 1.18466 cumulative IPC: 1.18074 (Simulation time: 0 hr 12 min 28 sec) 
Heartbeat CPU  0 instructions:  300000000 cycles:  235173128 heartbeat IPC: 1.18235 cumulative IPC: 1.18075 (Simulation time: 0 hr 12 min 31 sec) 
Heartbeat CPU  0 instructions:  301000000 cycles:  236019148 heartbeat IPC: 1.18201 cumulative IPC: 1.18075 (Simulation time: 0 hr 12 min 34 sec) 
Heartbeat CPU  0 instructions:  302000002 cycles:  236866341 heartbeat IPC: 1.18037 cumulative IPC: 1.18075 (Simulation time: 0 hr 12 min 36 sec) 
Heartbeat CPU  0 instructions:  303000000 cycles:  237711694 heartbeat IPC: 1.18294 cumulative IPC: 1.18076 (Simulation time: 0 hr 12 min 39 sec) 
Heartbeat CPU  0 instructions:  304000000 cycles:  238560240 heartbeat IPC: 1.17849 cumulative IPC: 1.18075 (Simulation time: 0 hr 12 min 41 sec) 
Heartbeat CPU  0 instructions:  305000001 cycles:  239407825 heartbeat IPC: 1.17982 cumulative IPC: 1.18075 (Simulation time: 0 hr 12 min 44 sec) 
Heartbeat CPU  0 instructions:  306000001 cycles:  240260692 heartbeat IPC: 1.17252 cumulative IPC: 1.18071 (Simulation time: 0 hr 12 min 47 sec) 
Heartbeat CPU  0 instructions:  307000002 cycles:  241104264 heartbeat IPC: 1.18544 cumulative IPC: 1.18073 (Simulation time: 0 hr 12 min 49 sec) 
Heartbeat CPU  0 instructions:  308000000 cycles:  241950682 heartbeat IPC: 1.18145 cumulative IPC: 1.18073 (Simulation time: 0 hr 12 min 52 sec) 
Heartbeat CPU  0 instructions:  309000002 cycles:  242799012 heartbeat IPC: 1.17879 cumulative IPC: 1.18072 (Simulation time: 0 hr 12 min 54 sec) 
Heartbeat CPU  0 instructions:  310000000 cycles:  243644910 heartbeat IPC: 1.18217 cumulative IPC: 1.18073 (Simulation time: 0 hr 12 min 57 sec) 
Heartbeat CPU  0 instructions:  311000002 cycles:  244491311 heartbeat IPC: 1.18148 cumulative IPC: 1.18073 (Simulation time: 0 hr 12 min 59 sec) 
Heartbeat CPU  0 instructions:  312000000 cycles:  245335934 heartbeat IPC: 1.18396 cumulative IPC: 1.18075 (Simulation time: 0 hr 13 min 2 sec) 
Heartbeat CPU  0 instructions:  313000003 cycles:  246185268 heartbeat IPC: 1.17740 cumulative IPC: 1.18073 (Simulation time: 0 hr 13 min 5 sec) 
Heartbeat CPU  0 instructions:  314000002 cycles:  247033822 heartbeat IPC: 1.17847 cumulative IPC: 1.18072 (Simulation time: 0 hr 13 min 7 sec) 
Heartbeat CPU  0 instructions:  315000000 cycles:  247884436 heartbeat IPC: 1.17562 cumulative IPC: 1.18070 (Simulation time: 0 hr 13 min 10 sec) 
Heartbeat CPU  0 instructions:  316000000 cycles:  248729602 heartbeat IPC: 1.18320 cumulative IPC: 1.18071 (Simulation time: 0 hr 13 min 12 sec) 
Heartbeat CPU  0 instructions:  317000001 cycles:  249581091 heartbeat IPC: 1.17441 cumulative IPC: 1.18068 (Simulation time: 0 hr 13 min 15 sec) 
Heartbeat CPU  0 instructions:  318000001 cycles:  250432783 heartbeat IPC: 1.17413 cumulative IPC: 1.18065 (Simulation time: 0 hr 13 min 18 sec) 
Heartbeat CPU  0 instructions:  319000000 cycles:  251283058 heartbeat IPC: 1.17609 cumulative IPC: 1.18063 (Simulation time: 0 hr 13 min 20 sec) 
Heartbeat CPU  0 instructions:  320000000 cycles:  252128921 heartbeat IPC: 1.18222 cumulative IPC: 1.18064 (Simulation time: 0 hr 13 min 23 sec) 
Heartbeat CPU  0 instructions:  321000000 cycles:  252976770 heartbeat IPC: 1.17946 cumulative IPC: 1.18063 (Simulation time: 0 hr 13 min 26 sec) 
Heartbeat CPU  0 instructions:  322000000 cycles:  253823250 heartbeat IPC: 1.18136 cumulative IPC: 1.18063 (Simulation time: 0 hr 13 min 28 sec) 
Heartbeat CPU  0 instructions:  323000002 cycles:  254668672 heartbeat IPC: 1.18284 cumulative IPC: 1.18064 (Simulation time: 0 hr 13 min 31 sec) 
Heartbeat CPU  0 instructions:  324000000 cycles:  255512070 heartbeat IPC: 1.18568 cumulative IPC: 1.18067 (Simulation time: 0 hr 13 min 33 sec) 
Heartbeat CPU  0 instructions:  325000002 cycles:  256358250 heartbeat IPC: 1.18178 cumulative IPC: 1.18067 (Simulation time: 0 hr 13 min 36 sec) 
Heartbeat CPU  0 instructions:  326000001 cycles:  257208009 heartbeat IPC: 1.17680 cumulative IPC: 1.18065 (Simulation time: 0 hr 13 min 39 sec) 
Heartbeat CPU  0 instructions:  327000000 cycles:  258054381 heartbeat IPC: 1.18151 cumulative IPC: 1.18066 (Simulation time: 0 hr 13 min 41 sec) 
Heartbeat CPU  0 instructions:  328000000 cycles:  258906472 heartbeat IPC: 1.17358 cumulative IPC: 1.18063 (Simulation time: 0 hr 13 min 44 sec) 
Heartbeat CPU  0 instructions:  329000003 cycles:  259753290 heartbeat IPC: 1.18089 cumulative IPC: 1.18063 (Simulation time: 0 hr 13 min 46 sec) 
Heartbeat CPU  0 instructions:  330000000 cycles:  260601305 heartbeat IPC: 1.17922 cumulative IPC: 1.18062 (Simulation time: 0 hr 13 min 49 sec) 
Heartbeat CPU  0 instructions:  331000000 cycles:  261449416 heartbeat IPC: 1.17909 cumulative IPC: 1.18062 (Simulation time: 0 hr 13 min 52 sec) 
Heartbeat CPU  0 instructions:  332000000 cycles:  262295916 heartbeat IPC: 1.18133 cumulative IPC: 1.18062 (Simulation time: 0 hr 13 min 54 sec) 
Heartbeat CPU  0 instructions:  333000002 cycles:  263141156 heartbeat IPC: 1.18310 cumulative IPC: 1.18063 (Simulation time: 0 hr 13 min 57 sec) 
Heartbeat CPU  0 instructions:  334000003 cycles:  263987043 heartbeat IPC: 1.18219 cumulative IPC: 1.18064 (Simulation time: 0 hr 13 min 59 sec) 
Heartbeat CPU  0 instructions:  335000000 cycles:  264829573 heartbeat IPC: 1.18690 cumulative IPC: 1.18066 (Simulation time: 0 hr 14 min 2 sec) 
Heartbeat CPU  0 instructions:  336000000 cycles:  265677392 heartbeat IPC: 1.17950 cumulative IPC: 1.18066 (Simulation time: 0 hr 14 min 4 sec) 
Heartbeat CPU  0 instructions:  337000001 cycles:  266523418 heartbeat IPC: 1.18200 cumulative IPC: 1.18066 (Simulation time: 0 hr 14 min 7 sec) 
Heartbeat CPU  0 instructions:  338000002 cycles:  267371042 heartbeat IPC: 1.17977 cumulative IPC: 1.18066 (Simulation time: 0 hr 14 min 10 sec) 
Heartbeat CPU  0 instructions:  339000001 cycles:  268216980 heartbeat IPC: 1.18212 cumulative IPC: 1.18067 (Simulation time: 0 hr 14 min 12 sec) 
Heartbeat CPU  0 instructions:  340000000 cycles:  269067149 heartbeat IPC: 1.17624 cumulative IPC: 1.18065 (Simulation time: 0 hr 14 min 15 sec) 
Heartbeat CPU  0 instructions:  341000001 cycles:  269912852 heartbeat IPC: 1.18245 cumulative IPC: 1.18065 (Simulation time: 0 hr 14 min 17 sec) 
Heartbeat CPU  0 instructions:  342000003 cycles:  270760440 heartbeat IPC: 1.17982 cumulative IPC: 1.18065 (Simulation time: 0 hr 14 min 20 sec) 
Heartbeat CPU  0 instructions:  343000002 cycles:  271610089 heartbeat IPC: 1.17696 cumulative IPC: 1.18064 (Simulation time: 0 hr 14 min 23 sec) 
Heartbeat CPU  0 instructions:  344000000 cycles:  272455381 heartbeat IPC: 1.18302 cumulative IPC: 1.18065 (Simulation time: 0 hr 14 min 25 sec) 
Heartbeat CPU  0 instructions:  345000001 cycles:  273640241 heartbeat IPC: 0.84398 cumulative IPC: 1.17873 (Simulation time: 0 hr 14 min 28 sec) 
Heartbeat CPU  0 instructions:  346000001 cycles:  274676460 heartbeat IPC: 0.96505 cumulative IPC: 1.17767 (Simulation time: 0 hr 14 min 30 sec) 
Heartbeat CPU  0 instructions:  347000003 cycles:  275583532 heartbeat IPC: 1.10245 cumulative IPC: 1.17734 (Simulation time: 0 hr 14 min 32 sec) 
Heartbeat CPU  0 instructions:  348000000 cycles:  276489436 heartbeat IPC: 1.10387 cumulative IPC: 1.17703 (Simulation time: 0 hr 14 min 34 sec) 
Heartbeat CPU  0 instructions:  349000002 cycles:  277395142 heartbeat IPC: 1.10411 cumulative IPC: 1.17671 (Simulation time: 0 hr 14 min 36 sec) 
Heartbeat CPU  0 instructions:  350000002 cycles:  278303676 heartbeat IPC: 1.10067 cumulative IPC: 1.17639 (Simulation time: 0 hr 14 min 38 sec) 
Heartbeat CPU  0 instructions:  351000003 cycles:  279211643 heartbeat IPC: 1.10136 cumulative IPC: 1.17607 (Simulation time: 0 hr 14 min 40 sec) 
Heartbeat CPU  0 instructions:  352000000 cycles:  280119946 heartbeat IPC: 1.10095 cumulative IPC: 1.17575 (Simulation time: 0 hr 14 min 42 sec) 
Heartbeat CPU  0 instructions:  353000003 cycles:  281026659 heartbeat IPC: 1.10289 cumulative IPC: 1.17544 (Simulation time: 0 hr 14 min 44 sec) 
Heartbeat CPU  0 instructions:  354000000 cycles:  281932159 heartbeat IPC: 1.10436 cumulative IPC: 1.17515 (Simulation time: 0 hr 14 min 46 sec) 
Heartbeat CPU  0 instructions:  355000000 cycles:  282836745 heartbeat IPC: 1.10548 cumulative IPC: 1.17486 (Simulation time: 0 hr 14 min 49 sec) 
Heartbeat CPU  0 instructions:  356000000 cycles:  283745045 heartbeat IPC: 1.10096 cumulative IPC: 1.17455 (Simulation time: 0 hr 14 min 51 sec) 
Heartbeat CPU  0 instructions:  357000003 cycles:  284653191 heartbeat IPC: 1.10115 cumulative IPC: 1.17424 (Simulation time: 0 hr 14 min 53 sec) 
Heartbeat CPU  0 instructions:  358000003 cycles:  285549665 heartbeat IPC: 1.11548 cumulative IPC: 1.17400 (Simulation time: 0 hr 14 min 55 sec) 
Heartbeat CPU  0 instructions:  359000003 cycles:  286270902 heartbeat IPC: 1.38651 cumulative IPC: 1.17470 (Simulation time: 0 hr 14 min 57 sec) 
Heartbeat CPU  0 instructions:  360000000 cycles:  286907409 heartbeat IPC: 1.57107 cumulative IPC: 1.17584 (Simulation time: 0 hr 14 min 59 sec) 
Heartbeat CPU  0 instructions:  361000003 cycles:  287805809 heartbeat IPC: 1.11309 cumulative IPC: 1.17559 (Simulation time: 0 hr 15 min 1 sec) 
Heartbeat CPU  0 instructions:  362000003 cycles:  288787668 heartbeat IPC: 1.01848 cumulative IPC: 1.17489 (Simulation time: 0 hr 15 min 3 sec) 
Heartbeat CPU  0 instructions:  363000000 cycles:  289763222 heartbeat IPC: 1.02506 cumulative IPC: 1.17424 (Simulation time: 0 hr 15 min 5 sec) 
Heartbeat CPU  0 instructions:  364000000 cycles:  290737733 heartbeat IPC: 1.02616 cumulative IPC: 1.17360 (Simulation time: 0 hr 15 min 7 sec) 
Heartbeat CPU  0 instructions:  365000000 cycles:  291711605 heartbeat IPC: 1.02683 cumulative IPC: 1.17297 (Simulation time: 0 hr 15 min 10 sec) 
Heartbeat CPU  0 instructions:  366000003 cycles:  292678122 heartbeat IPC: 1.03465 cumulative IPC: 1.17238 (Simulation time: 0 hr 15 min 12 sec) 
Heartbeat CPU  0 instructions:  367000003 cycles:  293643547 heartbeat IPC: 1.03581 cumulative IPC: 1.17180 (Simulation time: 0 hr 15 min 14 sec) 
Heartbeat CPU  0 instructions:  368000000 cycles:  294605405 heartbeat IPC: 1.03965 cumulative IPC: 1.17124 (Simulation time: 0 hr 15 min 16 sec) 
Heartbeat CPU  0 instructions:  369000002 cycles:  295592401 heartbeat IPC: 1.01318 cumulative IPC: 1.17056 (Simulation time: 0 hr 15 min 18 sec) 
Heartbeat CPU  0 instructions:  370000002 cycles:  296598422 heartbeat IPC: 0.99402 cumulative IPC: 1.16980 (Simulation time: 0 hr 15 min 21 sec) 
Heartbeat CPU  0 instructions:  371000000 cycles:  297603000 heartbeat IPC: 0.99544 cumulative IPC: 1.16904 (Simulation time: 0 hr 15 min 23 sec) 
Heartbeat CPU  0 instructions:  372000000 cycles:  298608213 heartbeat IPC: 0.99481 cumulative IPC: 1.16829 (Simulation time: 0 hr 15 min 25 sec) 
Heartbeat CPU  0 instructions:  373000003 cycles:  299607134 heartbeat IPC: 1.00108 cumulative IPC: 1.16757 (Simulation time: 0 hr 15 min 27 sec) 
Heartbeat CPU  0 instructions:  374000003 cycles:  300612958 heartbeat IPC: 0.99421 cumulative IPC: 1.16683 (Simulation time: 0 hr 15 min 29 sec) 
Heartbeat CPU  0 instructions:  375000000 cycles:  301612119 heartbeat IPC: 1.00084 cumulative IPC: 1.16613 (Simulation time: 0 hr 15 min 32 sec) 
Heartbeat CPU  0 instructions:  376000000 cycles:  302607815 heartbeat IPC: 1.00432 cumulative IPC: 1.16545 (Simulation time: 0 hr 15 min 34 sec) 
Heartbeat CPU  0 instructions:  377000001 cycles:  303477950 heartbeat IPC: 1.14925 cumulative IPC: 1.16539 (Simulation time: 0 hr 15 min 36 sec) 
Heartbeat CPU  0 instructions:  378000001 cycles:  304322821 heartbeat IPC: 1.18361 cumulative IPC: 1.16545 (Simulation time: 0 hr 15 min 39 sec) 
Heartbeat CPU  0 instructions:  379000000 cycles:  305165120 heartbeat IPC: 1.18723 cumulative IPC: 1.16553 (Simulation time: 0 hr 15 min 42 sec) 
Heartbeat CPU  0 instructions:  380000000 cycles:  306007095 heartbeat IPC: 1.18768 cumulative IPC: 1.16561 (Simulation time: 0 hr 15 min 44 sec) 
Heartbeat CPU  0 instructions:  381000003 cycles:  306850891 heartbeat IPC: 1.18512 cumulative IPC: 1.16567 (Simulation time: 0 hr 15 min 47 sec) 
Heartbeat CPU  0 instructions:  382000000 cycles:  307695525 heartbeat IPC: 1.18394 cumulative IPC: 1.16574 (Simulation time: 0 hr 15 min 50 sec) 
Heartbeat CPU  0 instructions:  383000000 cycles:  308540585 heartbeat IPC: 1.18335 cumulative IPC: 1.16580 (Simulation time: 0 hr 15 min 52 sec) 
Heartbeat CPU  0 instructions:  384000000 cycles:  309382852 heartbeat IPC: 1.18727 cumulative IPC: 1.16587 (Simulation time: 0 hr 15 min 55 sec) 
Heartbeat CPU  0 instructions:  385000000 cycles:  310228147 heartbeat IPC: 1.18302 cumulative IPC: 1.16593 (Simulation time: 0 hr 15 min 57 sec) 
Heartbeat CPU  0 instructions:  386000000 cycles:  311074369 heartbeat IPC: 1.18172 cumulative IPC: 1.16599 (Simulation time: 0 hr 16 min 0 sec) 
Heartbeat CPU  0 instructions:  387000003 cycles:  311918555 heartbeat IPC: 1.18458 cumulative IPC: 1.16605 (Simulation time: 0 hr 16 min 3 sec) 
Heartbeat CPU  0 instructions:  388000000 cycles:  312764361 heartbeat IPC: 1.18230 cumulative IPC: 1.16611 (Simulation time: 0 hr 16 min 5 sec) 
Heartbeat CPU  0 instructions:  389000000 cycles:  313611597 heartbeat IPC: 1.18031 cumulative IPC: 1.16616 (Simulation time: 0 hr 16 min 8 sec) 
Heartbeat CPU  0 instructions:  390000000 cycles:  314458427 heartbeat IPC: 1.18087 cumulative IPC: 1.16621 (Simulation time: 0 hr 16 min 10 sec) 
Heartbeat CPU  0 instructions:  391000001 cycles:  315301323 heartbeat IPC: 1.18639 cumulative IPC: 1.16627 (Simulation time: 0 hr 16 min 13 sec) 
Heartbeat CPU  0 instructions:  392000000 cycles:  316145920 heartbeat IPC: 1.18400 cumulative IPC: 1.16633 (Simulation time: 0 hr 16 min 16 sec) 
Heartbeat CPU  0 instructions:  393000000 cycles:  316992458 heartbeat IPC: 1.18128 cumulative IPC: 1.16638 (Simulation time: 0 hr 16 min 18 sec) 
Heartbeat CPU  0 instructions:  394000000 cycles:  317840219 heartbeat IPC: 1.17958 cumulative IPC: 1.16643 (Simulation time: 0 hr 16 min 21 sec) 
Heartbeat CPU  0 instructions:  395000000 cycles:  318684792 heartbeat IPC: 1.18403 cumulative IPC: 1.16649 (Simulation time: 0 hr 16 min 23 sec) 
Heartbeat CPU  0 instructions:  396000000 cycles:  319530290 heartbeat IPC: 1.18273 cumulative IPC: 1.16654 (Simulation time: 0 hr 16 min 26 sec) 
Heartbeat CPU  0 instructions:  397000001 cycles:  320375385 heartbeat IPC: 1.18330 cumulative IPC: 1.16660 (Simulation time: 0 hr 16 min 29 sec) 
Heartbeat CPU  0 instructions:  398000000 cycles:  321221786 heartbeat IPC: 1.18147 cumulative IPC: 1.16665 (Simulation time: 0 hr 16 min 31 sec) 
Heartbeat CPU  0 instructions:  399000000 cycles:  322068223 heartbeat IPC: 1.18142 cumulative IPC: 1.16670 (Simulation time: 0 hr 16 min 34 sec) 
Heartbeat CPU  0 instructions:  400000000 cycles:  322912917 heartbeat IPC: 1.18386 cumulative IPC: 1.16675 (Simulation time: 0 hr 16 min 36 sec) 
Heartbeat CPU  0 instructions:  401000003 cycles:  323760096 heartbeat IPC: 1.18039 cumulative IPC: 1.16680 (Simulation time: 0 hr 16 min 39 sec) 
Heartbeat CPU  0 instructions:  402000003 cycles:  324605365 heartbeat IPC: 1.18306 cumulative IPC: 1.16685 (Simulation time: 0 hr 16 min 42 sec) 
Heartbeat CPU  0 instructions:  403000000 cycles:  325454344 heartbeat IPC: 1.17788 cumulative IPC: 1.16689 (Simulation time: 0 hr 16 min 44 sec) 
Heartbeat CPU  0 instructions:  404000000 cycles:  326300608 heartbeat IPC: 1.18166 cumulative IPC: 1.16693 (Simulation time: 0 hr 16 min 47 sec) 
Heartbeat CPU  0 instructions:  405000000 cycles:  327145937 heartbeat IPC: 1.18297 cumulative IPC: 1.16699 (Simulation time: 0 hr 16 min 49 sec) 
Heartbeat CPU  0 instructions:  406000000 cycles:  327990479 heartbeat IPC: 1.18407 cumulative IPC: 1.16704 (Simulation time: 0 hr 16 min 52 sec) 
Heartbeat CPU  0 instructions:  407000002 cycles:  328839863 heartbeat IPC: 1.17733 cumulative IPC: 1.16707 (Simulation time: 0 hr 16 min 55 sec) 
Heartbeat CPU  0 instructions:  408000000 cycles:  329686394 heartbeat IPC: 1.18129 cumulative IPC: 1.16712 (Simulation time: 0 hr 16 min 57 sec) 
Heartbeat CPU  0 instructions:  409000002 cycles:  330534443 heartbeat IPC: 1.17918 cumulative IPC: 1.16716 (Simulation time: 0 hr 17 min 0 sec) 
Heartbeat CPU  0 instructions:  410000001 cycles:  331383915 heartbeat IPC: 1.17720 cumulative IPC: 1.16719 (Simulation time: 0 hr 17 min 2 sec) 
Heartbeat CPU  0 instructions:  411000000 cycles:  332229930 heartbeat IPC: 1.18201 cumulative IPC: 1.16724 (Simulation time: 0 hr 17 min 5 sec) 
Heartbeat CPU  0 instructions:  412000000 cycles:  333077712 heartbeat IPC: 1.17955 cumulative IPC: 1.16728 (Simulation time: 0 hr 17 min 8 sec) 
Heartbeat CPU  0 instructions:  413000001 cycles:  333922470 heartbeat IPC: 1.18377 cumulative IPC: 1.16733 (Simulation time: 0 hr 17 min 10 sec) 
Heartbeat CPU  0 instructions:  414000000 cycles:  334767258 heartbeat IPC: 1.18373 cumulative IPC: 1.16738 (Simulation time: 0 hr 17 min 13 sec) 
Heartbeat CPU  0 instructions:  415000002 cycles:  335614396 heartbeat IPC: 1.18045 cumulative IPC: 1.16742 (Simulation time: 0 hr 17 min 15 sec) 
Heartbeat CPU  0 instructions:  416000000 cycles:  336462305 heartbeat IPC: 1.17937 cumulative IPC: 1.16746 (Simulation time: 0 hr 17 min 18 sec) 
Heartbeat CPU  0 instructions:  417000000 cycles:  337308027 heartbeat IPC: 1.18242 cumulative IPC: 1.16750 (Simulation time: 0 hr 17 min 21 sec) 
Heartbeat CPU  0 instructions:  418000002 cycles:  338153598 heartbeat IPC: 1.18264 cumulative IPC: 1.16755 (Simulation time: 0 hr 17 min 23 sec) 
Heartbeat CPU  0 instructions:  419000002 cycles:  339002758 heartbeat IPC: 1.17763 cumulative IPC: 1.16758 (Simulation time: 0 hr 17 min 26 sec) 
Heartbeat CPU  0 instructions:  420000000 cycles:  339851878 heartbeat IPC: 1.17769 cumulative IPC: 1.16761 (Simulation time: 0 hr 17 min 29 sec) 
Heartbeat CPU  0 instructions:  421000001 cycles:  340694532 heartbeat IPC: 1.18673 cumulative IPC: 1.16767 (Simulation time: 0 hr 17 min 31 sec) 
Heartbeat CPU  0 instructions:  422000001 cycles:  341543603 heartbeat IPC: 1.17776 cumulative IPC: 1.16770 (Simulation time: 0 hr 17 min 34 sec) 
Heartbeat CPU  0 instructions:  423000000 cycles:  342388823 heartbeat IPC: 1.18312 cumulative IPC: 1.16775 (Simulation time: 0 hr 17 min 36 sec) 
Heartbeat CPU  0 instructions:  424000000 cycles:  343235689 heartbeat IPC: 1.18082 cumulative IPC: 1.16779 (Simulation time: 0 hr 17 min 39 sec) 
Heartbeat CPU  0 instructions:  425000002 cycles:  344077926 heartbeat IPC: 1.18732 cumulative IPC: 1.16785 (Simulation time: 0 hr 17 min 42 sec) 
Heartbeat CPU  0 instructions:  426000003 cycles:  344923202 heartbeat IPC: 1.18305 cumulative IPC: 1.16790 (Simulation time: 0 hr 17 min 44 sec) 
Heartbeat CPU  0 instructions:  427000002 cycles:  345769084 heartbeat IPC: 1.18220 cumulative IPC: 1.16794 (Simulation time: 0 hr 17 min 47 sec) 
Heartbeat CPU  0 instructions:  428000000 cycles:  346615475 heartbeat IPC: 1.18148 cumulative IPC: 1.16798 (Simulation time: 0 hr 17 min 49 sec) 
Heartbeat CPU  0 instructions:  429000000 cycles:  347462039 heartbeat IPC: 1.18125 cumulative IPC: 1.16802 (Simulation time: 0 hr 17 min 52 sec) 
Heartbeat CPU  0 instructions:  430000002 cycles:  348308629 heartbeat IPC: 1.18121 cumulative IPC: 1.16806 (Simulation time: 0 hr 17 min 54 sec) 
Heartbeat CPU  0 instructions:  431000001 cycles:  349156187 heartbeat IPC: 1.17986 cumulative IPC: 1.16809 (Simulation time: 0 hr 17 min 57 sec) 
Heartbeat CPU  0 instructions:  432000000 cycles:  350000724 heartbeat IPC: 1.18408 cumulative IPC: 1.16814 (Simulation time: 0 hr 18 min 0 sec) 
Heartbeat CPU  0 instructions:  433000002 cycles:  350847002 heartbeat IPC: 1.18165 cumulative IPC: 1.16818 (Simulation time: 0 hr 18 min 2 sec) 
Heartbeat CPU  0 instructions:  434000003 cycles:  351692648 heartbeat IPC: 1.18253 cumulative IPC: 1.16822 (Simulation time: 0 hr 18 min 5 sec) 
Heartbeat CPU  0 instructions:  435000001 cycles:  352540952 heartbeat IPC: 1.17882 cumulative IPC: 1.16826 (Simulation time: 0 hr 18 min 8 sec) 
Heartbeat CPU  0 instructions:  436000000 cycles:  353386512 heartbeat IPC: 1.18265 cumulative IPC: 1.16830 (Simulation time: 0 hr 18 min 10 sec) 
Heartbeat CPU  0 instructions:  437000001 cycles:  354232777 heartbeat IPC: 1.18166 cumulative IPC: 1.16834 (Simulation time: 0 hr 18 min 13 sec) 
Heartbeat CPU  0 instructions:  438000001 cycles:  355077883 heartbeat IPC: 1.18328 cumulative IPC: 1.16838 (Simulation time: 0 hr 18 min 15 sec) 
Heartbeat CPU  0 instructions:  439000001 cycles:  355922407 heartbeat IPC: 1.18410 cumulative IPC: 1.16843 (Simulation time: 0 hr 18 min 18 sec) 
Heartbeat CPU  0 instructions:  440000000 cycles:  356769017 heartbeat IPC: 1.18118 cumulative IPC: 1.16846 (Simulation time: 0 hr 18 min 21 sec) 
Heartbeat CPU  0 instructions:  441000000 cycles:  357616379 heartbeat IPC: 1.18013 cumulative IPC: 1.16850 (Simulation time: 0 hr 18 min 23 sec) 
Heartbeat CPU  0 instructions:  442000001 cycles:  358463303 heartbeat IPC: 1.18074 cumulative IPC: 1.16853 (Simulation time: 0 hr 18 min 26 sec) 
Heartbeat CPU  0 instructions:  443000001 cycles:  359312539 heartbeat IPC: 1.17753 cumulative IPC: 1.16856 (Simulation time: 0 hr 18 min 28 sec) 
Heartbeat CPU  0 instructions:  444000000 cycles:  360159054 heartbeat IPC: 1.18131 cumulative IPC: 1.16860 (Simulation time: 0 hr 18 min 31 sec) 
Heartbeat CPU  0 instructions:  445000000 cycles:  361012367 heartbeat IPC: 1.17190 cumulative IPC: 1.16861 (Simulation time: 0 hr 18 min 34 sec) 
Heartbeat CPU  0 instructions:  446000002 cycles:  361856090 heartbeat IPC: 1.18523 cumulative IPC: 1.16865 (Simulation time: 0 hr 18 min 36 sec) 
Heartbeat CPU  0 instructions:  447000000 cycles:  362704572 heartbeat IPC: 1.17857 cumulative IPC: 1.16868 (Simulation time: 0 hr 18 min 39 sec) 
Heartbeat CPU  0 instructions:  448000000 cycles:  363548851 heartbeat IPC: 1.18444 cumulative IPC: 1.16873 (Simulation time: 0 hr 18 min 41 sec) 
Heartbeat CPU  0 instructions:  449000001 cycles:  364397432 heartbeat IPC: 1.17844 cumulative IPC: 1.16875 (Simulation time: 0 hr 18 min 44 sec) 
Heartbeat CPU  0 instructions:  450000001 cycles:  365241387 heartbeat IPC: 1.18490 cumulative IPC: 1.16880 (Simulation time: 0 hr 18 min 47 sec) 
Heartbeat CPU  0 instructions:  451000002 cycles:  366086715 heartbeat IPC: 1.18297 cumulative IPC: 1.16884 (Simulation time: 0 hr 18 min 50 sec) 
Heartbeat CPU  0 instructions:  452000000 cycles:  366933843 heartbeat IPC: 1.18046 cumulative IPC: 1.16887 (Simulation time: 0 hr 18 min 52 sec) 
Heartbeat CPU  0 instructions:  453000001 cycles:  367780926 heartbeat IPC: 1.18052 cumulative IPC: 1.16890 (Simulation time: 0 hr 18 min 55 sec) 
Heartbeat CPU  0 instructions:  454000000 cycles:  368626977 heartbeat IPC: 1.18196 cumulative IPC: 1.16894 (Simulation time: 0 hr 18 min 58 sec) 
Heartbeat CPU  0 instructions:  455000003 cycles:  369472317 heartbeat IPC: 1.18296 cumulative IPC: 1.16898 (Simulation time: 0 hr 19 min 0 sec) 
Heartbeat CPU  0 instructions:  456000000 cycles:  370319778 heartbeat IPC: 1.17999 cumulative IPC: 1.16901 (Simulation time: 0 hr 19 min 3 sec) 
Heartbeat CPU  0 instructions:  457000000 cycles:  371165550 heartbeat IPC: 1.18235 cumulative IPC: 1.16905 (Simulation time: 0 hr 19 min 5 sec) 
Heartbeat CPU  0 instructions:  458000003 cycles:  372012635 heartbeat IPC: 1.18052 cumulative IPC: 1.16908 (Simulation time: 0 hr 19 min 8 sec) 
Heartbeat CPU  0 instructions:  459000002 cycles:  372857884 heartbeat IPC: 1.18308 cumulative IPC: 1.16912 (Simulation time: 0 hr 19 min 11 sec) 
Heartbeat CPU  0 instructions:  460000000 cycles:  373704929 heartbeat IPC: 1.18057 cumulative IPC: 1.16915 (Simulation time: 0 hr 19 min 13 sec) 
Heartbeat CPU  0 instructions:  461000000 cycles:  374549788 heartbeat IPC: 1.18363 cumulative IPC: 1.16919 (Simulation time: 0 hr 19 min 16 sec) 
Heartbeat CPU  0 instructions:  462000000 cycles:  375394256 heartbeat IPC: 1.18418 cumulative IPC: 1.16923 (Simulation time: 0 hr 19 min 18 sec) 
Heartbeat CPU  0 instructions:  463000000 cycles:  376237762 heartbeat IPC: 1.18553 cumulative IPC: 1.16927 (Simulation time: 0 hr 19 min 21 sec) 
Heartbeat CPU  0 instructions:  464000000 cycles:  377087588 heartbeat IPC: 1.17671 cumulative IPC: 1.16929 (Simulation time: 0 hr 19 min 24 sec) 
Heartbeat CPU  0 instructions:  465000001 cycles:  377932433 heartbeat IPC: 1.18365 cumulative IPC: 1.16933 (Simulation time: 0 hr 19 min 26 sec) 
Heartbeat CPU  0 instructions:  466000003 cycles:  378779003 heartbeat IPC: 1.18124 cumulative IPC: 1.16937 (Simulation time: 0 hr 19 min 29 sec) 
Heartbeat CPU  0 instructions:  467000002 cycles:  379623199 heartbeat IPC: 1.18456 cumulative IPC: 1.16941 (Simulation time: 0 hr 19 min 31 sec) 
Heartbeat CPU  0 instructions:  468000000 cycles:  380473878 heartbeat IPC: 1.17553 cumulative IPC: 1.16942 (Simulation time: 0 hr 19 min 34 sec) 
Heartbeat CPU  0 instructions:  469000000 cycles:  381319658 heartbeat IPC: 1.18234 cumulative IPC: 1.16946 (Simulation time: 0 hr 19 min 37 sec) 
Heartbeat CPU  0 instructions:  470000000 cycles:  382166405 heartbeat IPC: 1.18099 cumulative IPC: 1.16949 (Simulation time: 0 hr 19 min 39 sec) 
Heartbeat CPU  0 instructions:  471000003 cycles:  383013017 heartbeat IPC: 1.18118 cumulative IPC: 1.16952 (Simulation time: 0 hr 19 min 42 sec) 
Heartbeat CPU  0 instructions:  472000000 cycles:  383860333 heartbeat IPC: 1.18019 cumulative IPC: 1.16955 (Simulation time: 0 hr 19 min 44 sec) 
Heartbeat CPU  0 instructions:  473000000 cycles:  384705739 heartbeat IPC: 1.18286 cumulative IPC: 1.16958 (Simulation time: 0 hr 19 min 47 sec) 
Heartbeat CPU  0 instructions:  474000001 cycles:  385549043 heartbeat IPC: 1.18581 cumulative IPC: 1.16963 (Simulation time: 0 hr 19 min 50 sec) 
Heartbeat CPU  0 instructions:  475000000 cycles:  386394471 heartbeat IPC: 1.18283 cumulative IPC: 1.16966 (Simulation time: 0 hr 19 min 52 sec) 
Heartbeat CPU  0 instructions:  476000000 cycles:  387240374 heartbeat IPC: 1.18217 cumulative IPC: 1.16969 (Simulation time: 0 hr 19 min 55 sec) 
Heartbeat CPU  0 instructions:  477000002 cycles:  388086859 heartbeat IPC: 1.18136 cumulative IPC: 1.16972 (Simulation time: 0 hr 19 min 57 sec) 
Heartbeat CPU  0 instructions:  478000002 cycles:  388933373 heartbeat IPC: 1.18132 cumulative IPC: 1.16975 (Simulation time: 0 hr 20 min 0 sec) 
Heartbeat CPU  0 instructions:  479000001 cycles:  389779966 heartbeat IPC: 1.18120 cumulative IPC: 1.16978 (Simulation time: 0 hr 20 min 3 sec) 
Heartbeat CPU  0 instructions:  480000000 cycles:  390625512 heartbeat IPC: 1.18267 cumulative IPC: 1.16982 (Simulation time: 0 hr 20 min 5 sec) 
Heartbeat CPU  0 instructions:  481000002 cycles:  391473428 heartbeat IPC: 1.17936 cumulative IPC: 1.16984 (Simulation time: 0 hr 20 min 8 sec) 
Heartbeat CPU  0 instructions:  482000003 cycles:  392318630 heartbeat IPC: 1.18315 cumulative IPC: 1.16988 (Simulation time: 0 hr 20 min 11 sec) 
Heartbeat CPU  0 instructions:  483000002 cycles:  393167729 heartbeat IPC: 1.17772 cumulative IPC: 1.16990 (Simulation time: 0 hr 20 min 13 sec) 
Heartbeat CPU  0 instructions:  484000000 cycles:  394013684 heartbeat IPC: 1.18209 cumulative IPC: 1.16993 (Simulation time: 0 hr 20 min 16 sec) 
Heartbeat CPU  0 instructions:  485000003 cycles:  394859304 heartbeat IPC: 1.18257 cumulative IPC: 1.16996 (Simulation time: 0 hr 20 min 18 sec) 
Heartbeat CPU  0 instructions:  486000001 cycles:  395706192 heartbeat IPC: 1.18079 cumulative IPC: 1.16999 (Simulation time: 0 hr 20 min 21 sec) 
Heartbeat CPU  0 instructions:  487000002 cycles:  396552422 heartbeat IPC: 1.18171 cumulative IPC: 1.17002 (Simulation time: 0 hr 20 min 24 sec) 
Heartbeat CPU  0 instructions:  488000000 cycles:  397397704 heartbeat IPC: 1.18303 cumulative IPC: 1.17005 (Simulation time: 0 hr 20 min 26 sec) 
Heartbeat CPU  0 instructions:  489000003 cycles:  398243216 heartbeat IPC: 1.18272 cumulative IPC: 1.17009 (Simulation time: 0 hr 20 min 29 sec) 
Heartbeat CPU  0 instructions:  490000001 cycles:  399092335 heartbeat IPC: 1.17769 cumulative IPC: 1.17010 (Simulation time: 0 hr 20 min 31 sec) 
Heartbeat CPU  0 instructions:  491000000 cycles:  399940425 heartbeat IPC: 1.17912 cumulative IPC: 1.17013 (Simulation time: 0 hr 20 min 34 sec) 
Heartbeat CPU  0 instructions:  492000000 cycles:  400783221 heartbeat IPC: 1.18653 cumulative IPC: 1.17017 (Simulation time: 0 hr 20 min 37 sec) 
Heartbeat CPU  0 instructions:  493000001 cycles:  401628999 heartbeat IPC: 1.18234 cumulative IPC: 1.17020 (Simulation time: 0 hr 20 min 39 sec) 
Heartbeat CPU  0 instructions:  494000000 cycles:  402478691 heartbeat IPC: 1.17690 cumulative IPC: 1.17022 (Simulation time: 0 hr 20 min 42 sec) 
Heartbeat CPU  0 instructions:  495000003 cycles:  403321228 heartbeat IPC: 1.18690 cumulative IPC: 1.17026 (Simulation time: 0 hr 20 min 44 sec) 
Heartbeat CPU  0 instructions:  496000000 cycles:  404164931 heartbeat IPC: 1.18525 cumulative IPC: 1.17030 (Simulation time: 0 hr 20 min 47 sec) 
Heartbeat CPU  0 instructions:  497000001 cycles:  405010325 heartbeat IPC: 1.18288 cumulative IPC: 1.17033 (Simulation time: 0 hr 20 min 50 sec) 
Heartbeat CPU  0 instructions:  498000003 cycles:  405861261 heartbeat IPC: 1.17518 cumulative IPC: 1.17034 (Simulation time: 0 hr 20 min 52 sec) 
Heartbeat CPU  0 instructions:  499000001 cycles:  406707154 heartbeat IPC: 1.18218 cumulative IPC: 1.17037 (Simulation time: 0 hr 20 min 55 sec) 
Heartbeat CPU  0 instructions:  500000000 cycles:  407558574 heartbeat IPC: 1.17451 cumulative IPC: 1.17038 (Simulation time: 0 hr 20 min 57 sec) 
Heartbeat CPU  0 instructions:  501000003 cycles:  408401387 heartbeat IPC: 1.18651 cumulative IPC: 1.17042 (Simulation time: 0 hr 21 min 0 sec) 
Heartbeat CPU  0 instructions:  502000001 cycles:  409249567 heartbeat IPC: 1.17899 cumulative IPC: 1.17044 (Simulation time: 0 hr 21 min 3 sec) 
Heartbeat CPU  0 instructions:  503000000 cycles:  410094288 heartbeat IPC: 1.18382 cumulative IPC: 1.17047 (Simulation time: 0 hr 21 min 5 sec) 
Heartbeat CPU  0 instructions:  504000000 cycles:  410940918 heartbeat IPC: 1.18115 cumulative IPC: 1.17050 (Simulation time: 0 hr 21 min 8 sec) 
Heartbeat CPU  0 instructions:  505000000 cycles:  411787885 heartbeat IPC: 1.18068 cumulative IPC: 1.17052 (Simulation time: 0 hr 21 min 11 sec) 
Heartbeat CPU  0 instructions:  506000001 cycles:  412632732 heartbeat IPC: 1.18365 cumulative IPC: 1.17056 (Simulation time: 0 hr 21 min 13 sec) 
Heartbeat CPU  0 instructions:  507000000 cycles:  413481058 heartbeat IPC: 1.17879 cumulative IPC: 1.17058 (Simulation time: 0 hr 21 min 16 sec) 
Heartbeat CPU  0 instructions:  508000000 cycles:  414328031 heartbeat IPC: 1.18068 cumulative IPC: 1.17060 (Simulation time: 0 hr 21 min 18 sec) 
Heartbeat CPU  0 instructions:  509000000 cycles:  415172869 heartbeat IPC: 1.18366 cumulative IPC: 1.17063 (Simulation time: 0 hr 21 min 21 sec) 
Heartbeat CPU  0 instructions:  510000001 cycles:  416018514 heartbeat IPC: 1.18253 cumulative IPC: 1.17066 (Simulation time: 0 hr 21 min 24 sec) 
Heartbeat CPU  0 instructions:  511000001 cycles:  416868301 heartbeat IPC: 1.17677 cumulative IPC: 1.17067 (Simulation time: 0 hr 21 min 26 sec) 
Heartbeat CPU  0 instructions:  512000000 cycles:  417713898 heartbeat IPC: 1.18260 cumulative IPC: 1.17070 (Simulation time: 0 hr 21 min 29 sec) 
[...]
scooby_state_401661|25|-5 1,0,0,0,0,0,0,0,0,0,0,0,0,0,0,1,
scooby_state_400de5|16|-38 1,0,0,0,0,0,0,0,0,0,0,0,0,0,0,1,
scooby_state_400e20|9|4 1,0,0,0,0,0,0,0,0,0,0,0,0,0,0,1,
scooby_state_400dfd|35|2 1,0,0,0,0,0,0,0,0,0,0,0,0,0,0,1,
scooby_state_400c04|48|1 1,0,0,0,0,0,0,0,0,0,0,0,0,0,0,1,
scooby_state_402605|24|0 1,0,0,0,0,0,0,0,0,0,0,0,0,0,0,1,
scooby_state_400e5e|0|-9 1,0,0,0,0,0,0,0,0,0,0,0,0,0,0,1,
scooby_state_400e2c|61|-1 1,0,0,0,0,0,0,0,0,0,0,0,0,0,0,1,
scooby_state_400a87|42|1 1,0,0,0,0,0,0,0,0,0,0,0,0,0,0,1,
scooby_state_400a40|41|1 1,0,0,0,0,0,0,0,0,0,0,0,0,0,0,1,
scooby_state_4025a0|19|0 1,0,0,0,0,0,0,0,0,0,0,0,0,0,0,1,
scooby_state_402883|34|1 1,0,0,0,0,0,0,0,0,0,0,0,0,0,0,1,
scooby_state_400e5e|0|-23 1,0,0,0,0,0,0,0,0,0,0,0,0,0,0,1,
scooby_state_400e2c|20|-1 1,0,0,0,0,0,0,0,0,0,0,0,0,0,0,1,
scooby_state_400e2c|13|-1 1,0,0,0,0,0,0,0,0,0,0,0,0,0,0,1,
scooby_state_400e44|7|1 1,0,0,0,0,0,0,0,0,0,0,0,0,0,0,1,
scooby_state_401040|1|1 0,1,0,0,0,0,0,0,0,0,0,0,0,0,0,1,
scooby_state_400df3|27|3 1,0,0,0,0,0,0,0,0,0,0,0,0,0,0,1,
scooby_state_400de5|0|-23 1,0,0,0,0,0,0,0,0,0,0,0,0,0,0,1,
scooby_state_400902|36|1 1,0,0,0,0,0,0,0,0,0,0,0,0,0,0,1,
scooby_state_400dda|24|4 1,0,0,0,0,0,0,0,0,0,0,0,0,0,0,1,
scooby_state_400e44|25|-38 1,0,0,0,0,0,0,0,0,0,0,0,0,0,0,1,
scooby_state_400de5|20|-38 1,0,0,0,0,0,0,0,0,0,0,0,0,0,0,1,
scooby_state_400de5|60|43 1,0,0,0,0,0,0,0,0,0,0,0,0,0,0,1,
scooby_state_400525|20|1 1,0,0,0,0,0,0,0,0,0,0,0,0,0,0,1,
scooby_state_400de5|52|-11 1,0,0,0,0,0,0,0,0,0,0,0,0,0,0,1,
scooby_state_400df3|24|-3 1,0,0,0,0,0,0,0,0,0,0,0,0,0,0,1,
scooby_state_400e2c|26|-1 1,0,0,0,0,0,0,0,0,0,0,0,0,0,0,1,
scooby_state_400dfd|30|2 1,0,0,0,0,0,0,0,0,0,0,0,0,0,0,1,
scooby_state_400df3|42|2 1,0,0,0,0,0,0,0,0,0,0,0,0,0,0,1,
scooby_state_400e2c|30|-1 1,0,0,0,0,0,0,0,0,0,0,0,0,0,0,1,
scooby_state_400e44|0|-42 1,0,0,0,0,0,0,0,0,0,0,0,0,0,0,1,
scooby_state_400e01|56|1 1,0,0,0,0,0,0,0,0,0,0,0,0,0,0,1,
scooby_state_400dc0|20|-3 1,0,0,0,0,0,0,0,0,0,0,0,0,0,0,1,
scooby_state_400e20|38|2 1,0,0,0,0,0,0,0,0,0,0,0,0,0,0,1,
scooby_state_400e2c|40|-1 1,0,0,0,0,0,0,0,0,0,0,0,0,0,0,1,
scooby_state_4014fa|19|-8 1,0,0,0,0,0,0,0,0,0,0,0,0,0,0,1,
scooby_state_4010c7|3|1 1,0,0,0,0,0,0,0,0,0,0,0,0,0,0,1,
scooby_state_400e51|9|4 1,0,0,0,0,0,0,0,0,0,0,0,0,0,0,1,
scooby_state_400942|37|1 1,0,0,0,0,0,0,0,0,0,0,0,0,0,0,1,
scooby_state_400987|38|1 1,0,0,0,0,0,0,0,0,0,0,0,0,0,0,1,
scooby_state_400e2c|28|-1 1,0,0,0,0,0,0,0,0,0,0,0,0,0,0,1,
scooby_state_400d1d|61|7 1,0,0,0,0,0,0,0,0,0,0,0,0,0,0,1,
scooby_state_400e44|28|-35 1,0,0,0,0,0,0,0,0,0,0,0,0,0,0,1,
scooby_state_400dda|22|4 1,0,0,0,0,0,0,0,0,0,0,0,0,0,0,1,
scooby_state_400e38|36|-2 1,0,0,0,0,0,0,0,0,0,0,0,0,0,0,1,
scooby_state_400dda|38|4 1,0,0,0,0,0,0,0,0,0,0,0,0,0,0,1,
scooby_state_400b80|46|1 1,0,0,0,0,0,0,0,0,0,0,0,0,0,0,1,
scooby_state_400de5|40|-23 1,0,0,0,0,0,0,0,0,0,0,0,0,0,0,1,
scooby_state_4007c0|31|1 1,0,0,0,0,0,0,0,0,0,0,0,0,0,0,1,
scooby_state_400dda|9|4 1,0,0,0,0,0,0,0,0,0,0,0,0,0,0,1,
scooby_state_400e5e|42|0 1,0,0,0,0,0,0,0,0,0,0,0,0,0,0,1,
scooby_state_400e2c|4|-1 0,0,0,0,0,0,1,0,0,0,0,0,0,0,0,1,
scooby_state_400de5|5|-38 1,0,0,0,0,0,0,0,0,0,0,0,0,0,0,1,
scooby_state_400e2c|34|-1 1,0,0,0,0,0,0,0,0,0,0,0,0,0,0,1,
scooby_state_400e44|52|-1 1,0,0,0,0,0,0,0,0,0,0,0,0,0,0,1,
scooby_state_4014aa|18|1 1,0,0,0,0,0,0,0,0,0,0,0,0,0,0,1,
scooby_state_4003de|15|1 1,0,0,0,0,0,0,0,0,0,0,0,0,0,0,1,
scooby_state_400e44|30|-33 1,0,0,0,0,0,0,0,0,0,0,0,0,0,0,1,
scooby_state_400df3|50|2 1,0,0,0,0,0,0,0,0,0,0,0,0,0,0,1,
scooby_state_400d85|54|1 1,0,0,0,0,0,0,0,0,0,0,0,0,0,0,1,
scooby_state_400f87|62|1 1,0,0,0,0,0,0,0,0,0,0,0,0,0,0,1,
scooby_state_400ef0|53|-9 1,0,0,0,0,0,0,0,0,0,0,0,0,0,0,1,
scooby_state_400e38|24|4 1,0,0,0,0,0,0,0,0,0,0,0,0,0,0,1,
scooby_state_400e2c|3|-1 1,0,0,0,0,0,0,0,0,0,0,0,0,0,0,1,
scooby_state_400b00|44|1 1,0,0,0,0,0,0,0,0,0,0,0,0,0,0,1,
scooby_state_4009c2|39|1 1,0,0,0,0,0,0,0,0,0,0,0,0,0,0,1,
scooby_state_401783|30|1 1,0,0,0,0,0,0,0,0,0,0,0,0,0,0,1,
scooby_state_4027ee|1|-5 1,0,0,0,0,0,0,0,0,0,0,0,0,0,0,1,
scooby_state_400e2c|8|-1 1,0,0,0,0,0,0,0,0,0,0,0,0,0,0,1,
scooby_state_400e5e|0|-16 1,0,0,0,0,0,0,0,0,0,0,0,0,0,0,1,
scooby_state_400ac4|43|1 1,0,0,0,0,0,0,0,0,0,0,0,0,0,0,1,
scooby_state_400e5e|43|2 1,0,0,0,0,0,0,0,0,0,0,0,0,0,0,1,
scooby_state_400fc1|63|13 1,0,0,0,0,0,0,0,0,0,0,0,0,0,0,1,
scooby_state_400e20|52|-1 1,0,0,0,0,0,0,0,0,0,0,0,0,0,0,1,
scooby_state_400dfd|33|2 1,0,0,0,0,0,0,0,0,0,0,0,0,0,0,1,
scooby_state_401383|16|-1 1,0,0,0,0,0,0,0,0,0,0,0,0,0,0,1,
scooby_state_400a05|40|-23 1,0,0,0,0,0,0,0,0,0,0,0,0,0,0,1,
scooby_state_400e5e|0|-35 1,0,0,0,0,0,0,0,0,0,0,0,0,0,0,1,
scooby_state_400e44|32|0 1,0,0,0,0,0,0,0,0,0,0,0,0,0,0,1,
scooby_state_401082|2|0 1,0,0,0,0,0,0,0,0,0,0,0,0,0,0,1,
scooby_state_401003|0|0 1,0,0,0,0,0,0,0,0,0,0,0,0,0,0,1,
scooby_state_400c40|49|1 1,0,0,0,0,0,0,0,0,0,0,0,0,0,0,1,
scooby_state_400de5|0|-7 1,0,0,0,0,0,0,0,0,0,0,0,0,0,0,1,
scooby_state_400de5|63|0 1,0,0,0,0,0,0,0,0,0,0,0,0,0,0,1,
scooby_state_400df3|28|4 1,0,0,0,0,0,0,0,0,0,0,0,0,0,0,1,
scooby_state_400de5|3|-38 1,0,0,0,0,0,0,0,0,0,0,0,0,0,0,1,
scooby_state_400df3|34|-3 1,0,0,0,0,0,0,0,0,0,0,0,0,0,0,1,
scooby_state_400dda|5|-3 1,0,0,0,0,0,0,0,0,0,0,0,0,0,0,1,
scooby_state_400de5|0|-4 1,0,0,0,0,0,0,0,0,0,0,0,0,0,0,1,
scooby_state_400e44|33|-30 1,0,0,0,0,0,0,0,0,0,0,0,0,0,0,1,
scooby_state_400dc0|22|4 1,0,0,0,0,0,0,0,0,0,0,0,0,0,0,1,
scooby_state_402585|5|4 1,0,0,0,0,0,0,0,0,0,0,0,0,0,0,1,
scooby_state_402578|44|0 1,0,0,0,0,0,0,0,0,0,0,0,0,0,0,1,
scooby_state_400f47|58|1 1,0,0,0,0,0,0,0,0,0,0,0,0,0,0,1,
scooby_state_402580|22|1 1,0,0,0,0,0,0,0,0,0,0,0,0,0,0,1,
scooby_state_402519|17|1 1,0,0,0,0,0,0,0,0,0,0,0,0,0,0,1,
scooby_state_40251c|1|-9 1,0,0,0,0,0,0,0,0,0,0,0,0,0,0,1,
scooby_state_402509|10|7 1,0,0,0,0,0,0,0,0,0,0,0,0,0,0,1,
scooby_state_4024e2|3|3 1,0,0,0,0,0,0,0,0,0,0,0,0,0,0,1,
scooby_state_402500|20|1 1,0,0,0,0,0,0,0,0,0,0,0,0,0,0,1,
scooby_state_4024d1|16|0 1,0,0,0,0,0,0,0,0,0,0,0,0,0,0,1,
scooby_state_400df3|18|-3 1,0,0,0,0,0,0,0,0,0,0,0,0,0,0,1,
scooby_state_4024c5|0|-18 1,0,0,0,0,0,0,0,0,0,0,0,0,0,0,1,
scooby_state_4024c5|19|1 1,0,0,0,0,0,0,0,0,0,0,0,0,0,0,1,
scooby_state_400e09|6|-1 1,0,0,0,0,0,0,0,0,0,0,0,0,0,0,1,
scooby_state_400f08|52|-10 1,0,0,0,0,0,0,0,0,0,0,0,0,0,0,1,
scooby_state_4025c4|8|3 1,0,0,0,0,0,0,0,0,0,0,0,0,0,0,1,
scooby_state_40292d|1|-5 1,0,0,0,0,0,0,0,0,0,0,0,0,0,0,1,
scooby_state_400de0|50|-10 1,0,0,0,0,0,0,0,0,0,0,0,0,0,0,1,
scooby_state_400e44|17|1 1,0,0,0,0,0,0,0,0,0,0,0,0,0,0,1,
scooby_state_400e44|12|1 1,0,0,0,0,0,0,0,0,0,0,0,0,0,0,1,
scooby_state_400e13|2|0 1,0,0,0,0,0,0,0,0,0,0,0,0,0,0,1,
scooby_state_400df8|49|-13 1,0,0,0,0,0,0,0,0,0,0,0,0,0,0,1,
scooby_state_400e44|49|-14 1,0,0,0,0,0,0,0,0,0,0,0,0,0,0,1,
scooby_state_400e44|32|-1 1,0,0,0,0,0,0,0,0,0,0,0,0,0,0,1,
scooby_state_400e2c|32|-1 1,0,0,0,0,0,0,0,0,0,0,0,0,0,0,1,
scooby_state_400f7f|56|1 1,0,0,0,0,0,0,0,0,0,0,0,0,0,0,1,
scooby_state_400e2c|63|39 1,0,0,0,0,0,0,0,0,0,0,0,0,0,0,1,
scooby_state_400dfd|11|2 1,0,0,0,0,0,0,0,0,0,0,0,0,0,0,1,
scooby_state_400de5|54|-9 1,0,0,0,0,0,0,0,0,0,0,0,0,0,0,1,
scooby_state_400e5e|0|-14 1,0,0,0,0,0,0,0,0,0,0,0,0,0,0,1,
scooby_state_400dfd|32|2 1,0,0,0,0,0,0,0,0,0,0,0,0,0,0,1,
scooby_state_401383|14|-2 1,0,0,0,0,0,0,0,0,0,0,0,0,0,0,1,
scooby_state_40145d|17|-6 1,0,0,0,0,0,0,0,0,0,0,0,0,0,0,1,
scooby_state_400e5e|0|-31 1,0,0,0,0,0,0,0,0,0,0,0,0,0,0,1,
scooby_state_400e2c|47|-1 1,0,0,0,0,0,0,0,0,0,0,0,0,0,0,1,
scooby_state_400615|24|1 1,0,0,0,0,0,0,0,0,0,0,0,0,0,0,1,
scooby_state_4015cc|23|-1 1,0,0,0,0,0,0,0,0,0,0,0,0,0,0,1,
scooby_state_4005c3|23|1 1,0,0,0,0,0,0,0,0,0,0,0,0,0,0,1,
scooby_state_401631|24|3 1,0,0,0,0,0,0,0,0,0,0,0,0,0,0,1,
scooby_state_401566|21|-5 1,0,0,0,0,0,0,0,0,0,0,0,0,0,0,1,
scooby_state_400544|21|1 1,0,0,0,0,0,0,0,0,0,0,0,0,0,0,1,
scooby_state_4016dd|27|2 1,0,0,0,0,0,0,0,0,0,0,0,0,0,0,1,
scooby_state_400449|17|1 1,0,0,0,0,0,0,0,0,0,0,0,0,0,0,1,
scooby_state_400404|16|1 1,0,0,0,0,0,0,0,0,0,0,0,0,0,0,1,
scooby_state_401773|29|1 1,0,0,0,0,0,0,0,0,0,0,0,0,0,0,1,
scooby_state_400e20|24|4 1,0,0,0,0,0,0,0,0,0,0,0,0,0,0,1,
scooby_state_400383|14|1 1,0,0,0,0,0,0,0,0,0,0,0,0,0,0,1,
scooby_state_400de5|37|-26 1,0,0,0,0,0,0,0,0,0,0,0,0,0,0,1,
scooby_state_400317|17|0 1,0,0,0,0,0,0,0,0,0,0,0,0,0,0,1,
scooby_state_400300|12|1 1,0,0,0,0,0,0,0,0,0,0,0,0,0,0,1,
scooby_state_4002b0|10|0 1,0,0,0,0,0,0,0,0,0,0,0,0,0,0,1,
scooby_state_402980|38|1 1,0,0,0,0,0,0,0,0,0,0,0,0,0,0,1,
scooby_state_402940|37|1 1,0,0,0,0,0,0,0,0,0,0,0,0,0,0,1,
scooby_state_4028b8|2|1 1,0,0,0,0,0,0,0,0,0,0,0,0,0,0,1,
scooby_state_4028c0|35|1 1,0,0,0,0,0,0,0,0,0,0,0,0,0,0,1,
scooby_state_4005a3|22|1 1,0,0,0,0,0,0,0,0,0,0,0,0,0,0,1,
scooby_state_402877|43|0 1,0,0,0,0,0,0,0,0,0,0,0,0,0,0,1,
scooby_state_400df3|9|4 1,0,0,0,0,0,0,0,0,0,0,0,0,0,0,1,
scooby_state_400e09|23|0 1,0,0,0,0,0,0,0,0,0,0,0,0,0,0,1,
scooby_state_402800|32|1 1,0,0,0,0,0,0,0,0,0,0,0,0,0,0,1,
scooby_state_400de0|50|-4 1,0,0,0,0,0,0,0,0,0,0,0,0,0,0,1,
scooby_state_400e2c|15|-1 1,0,0,0,0,0,0,0,0,0,0,0,0,0,0,1,
scooby_state_4025ab|35|0 1,0,0,0,0,0,0,0,0,0,0,0,0,0,0,1,
scooby_state_400e09|2|-3 1,0,0,0,0,0,0,0,0,0,0,0,0,0,0,1,
scooby_state_402844|33|1 1,0,0,0,0,0,0,0,0,0,0,0,0,0,0,1,
scooby_state_400de5|0|-30 1,0,0,0,0,0,0,0,0,0,0,0,0,0,0,1,
scooby_state_400de5|61|-2 1,0,0,0,0,0,0,0,0,0,0,0,0,0,0,1,
scooby_state_400e44|37|-26 1,0,0,0,0,0,0,0,0,0,0,0,0,0,0,1,
scooby_state_400e5e|0|-4 1,0,0,0,0,0,0,0,0,0,0,0,0,0,0,1,
scooby_state_400dfd|22|2 1,0,0,0,0,0,0,0,0,0,0,0,0,0,0,1,
scooby_state_400de5|0|-11 1,0,0,0,0,0,0,0,0,0,0,0,0,0,0,1,
scooby_state_400dfd|36|2 1,0,0,0,0,0,0,0,0,0,0,0,0,0,0,1,
scooby_state_400dcd|24|1 1,0,0,0,0,0,0,0,0,0,0,0,0,0,0,1,
scooby_state_400dcd|46|41 1,0,0,0,0,0,0,0,0,0,0,0,0,0,0,1,
scooby_state_400de5|7|-38 1,0,0,0,0,0,0,0,0,0,0,0,0,0,0,1,
scooby_state_400e20|5|-3 1,0,0,0,0,0,0,0,0,0,0,0,0,0,0,1,
scooby_state_40294d|17|16 1,0,0,0,0,0,0,0,0,0,0,0,0,0,0,1,
scooby_state_400dfd|27|2 1,0,0,0,0,0,0,0,0,0,0,0,0,0,0,1,
scooby_state_400df3|22|4 1,0,0,0,0,0,0,0,0,0,0,0,0,0,0,1,
scooby_state_400de5|30|-33 1,0,0,0,0,0,0,0,0,0,0,0,0,0,0,1,
scooby_state_400e2c|38|-1 1,0,0,0,0,0,0,0,0,0,0,0,0,0,0,1,
scooby_state_402545|21|1 1,0,0,0,0,0,0,0,0,0,0,0,0,0,0,1,
scooby_state_400dda|20|-3 1,0,0,0,0,0,0,0,0,0,0,0,0,0,0,1,
scooby_state_400e85|58|1 1,0,0,0,0,0,0,0,0,0,0,0,0,0,0,1,
scooby_state_400de5|21|-38 1,0,0,0,0,0,0,0,0,0,0,0,0,0,0,1,
scooby_state_400e38|20|-3 1,0,0,0,0,0,0,0,0,0,0,0,0,0,0,1,
scooby_state_400e51|5|-3 1,0,0,0,0,0,0,0,0,0,0,0,0,0,0,1,
scooby_state_400cc8|51|-8 1,0,0,0,0,0,0,0,0,0,0,0,0,0,0,1,
scooby_state_400e56|58|-1 1,0,0,0,0,0,0,0,0,0,0,0,0,0,0,1,
scooby_state_400e5e|0|-18 1,0,0,0,0,0,0,0,0,0,0,0,0,0,0,1,
scooby_state_400342|13|1 1,0,0,0,0,0,0,0,0,0,0,0,0,0,0,1,
scooby_state_4027ea|31|0 1,0,0,0,0,0,0,0,0,0,0,0,0,0,0,1,
scooby_state_400e5e|0|-38 1,0,0,0,0,0,0,0,0,0,0,0,0,0,0,1,
scooby_state_400e2c|49|-1 1,0,0,0,0,0,0,0,0,0,0,0,0,0,0,1,
scooby_state_400de5|0|-9 1,0,0,0,0,0,0,0,0,0,0,0,0,0,0,1,
scooby_state_400dcd|37|1 1,0,0,0,0,0,0,0,0,0,0,0,0,0,0,1,
scooby_state_400dfd|15|2 1,0,0,0,0,0,0,0,0,0,0,0,0,0,0,1,
scooby_state_400f0d|62|10 1,0,0,0,0,0,0,0,0,0,0,0,0,0,0,1,
scooby_state_400de5|0|-37 1,0,0,0,0,0,0,0,0,0,0,0,0,0,0,1,
scooby_state_400e2c|37|0 1,0,0,0,0,0,0,0,0,0,0,0,0,0,0,1,
scooby_state_400e5e|0|-28 1,0,0,0,0,0,0,0,0,0,0,0,0,0,0,1,
scooby_state_400de5|6|-38 1,0,0,0,0,0,0,0,0,0,0,0,0,0,0,1,
scooby_state_400e44|44|-19 1,0,0,0,0,0,0,0,0,0,0,0,0,0,0,1,
scooby_state_400e2c|44|-1 1,0,0,0,0,0,0,0,0,0,0,0,0,0,0,1,
scooby_state_400e09|2|-2 1,0,0,0,0,0,0,0,0,0,0,0,0,0,0,1,
scooby_state_400de5|35|-28 1,0,0,0,0,0,0,0,0,0,0,0,0,0,0,1,
scooby_state_4016ad|26|6 1,0,0,0,0,0,0,0,0,0,0,0,0,0,0,1,
scooby_state_400dc0|38|2 1,0,0,0,0,0,0,0,0,0,0,0,0,0,0,1,
scooby_state_400de5|0|-35 1,0,0,0,0,0,0,0,0,0,0,0,0,0,0,1,
scooby_state_400e2c|58|-1 1,0,0,0,0,0,0,0,0,0,0,0,0,0,0,1,
scooby_state_400dfd|4|2 1,0,0,0,0,0,0,0,0,0,0,0,0,0,0,1,
scooby_state_40068b|26|1 1,0,0,0,0,0,0,0,0,0,0,0,0,0,0,1,
scooby_state_400e44|42|-21 1,0,0,0,0,0,0,0,0,0,0,0,0,0,0,1,
scooby_state_400643|25|1 1,0,0,0,0,0,0,0,0,0,0,0,0,0,0,1,
scooby_state_400dcd|2|1 1,0,0,0,0,0,0,0,0,0,0,0,0,0,0,1,
scooby_state_400de5|49|-14 1,0,0,0,0,0,0,0,0,0,0,0,0,0,0,1,
scooby_state_400e2c|25|-1 1,0,0,0,0,0,0,0,0,0,0,0,0,0,0,1,
scooby_state_401400|16|0 1,0,0,0,0,0,0,0,0,0,0,0,0,0,0,1,
scooby_state_4025c4|23|1 1,0,0,0,0,0,0,0,0,0,0,0,0,0,0,1,
scooby_state_400e7c|60|10 1,0,0,0,0,0,0,0,0,0,0,0,0,0,0,1,
scooby_state_400de0|50|-12 1,0,0,0,0,0,0,0,0,0,0,0,0,0,0,1,
scooby_state_400e44|56|-7 1,0,0,0,0,0,0,0,0,0,0,0,0,0,0,1,
scooby_state_400de5|0|-16 1,0,0,0,0,0,0,0,0,0,0,0,0,0,0,1,
scooby_state_400e2c|39|-1 1,0,0,0,0,0,0,0,0,0,0,0,0,0,0,1,
scooby_state_4004c0|19|1 1,0,0,0,0,0,0,0,0,0,0,0,0,0,0,1,
scooby_state_400e38|50|2 1,0,0,0,0,0,0,0,0,0,0,0,0,0,0,1,

scooby_action_0_deg_dist 0,1456,0,0,0,0,0,0,0,0,0,0,0,0,0,0,
scooby_action_12_deg_dist 0,2387,0,0,0,0,0,0,0,0,0,0,0,0,0,0,
scooby_action_3_deg_dist 0,1459,0,0,0,0,0,0,0,0,0,0,0,0,0,0,
scooby_action_32_deg_dist 0,1399,0,0,0,0,0,0,0,0,0,0,0,0,0,0,
scooby_action_5_deg_dist 0,1437,0,0,0,0,0,0,0,0,0,0,0,0,0,0,
scooby_action_1_deg_dist 0,560016,339377,0,850028,0,10268372,0,0,0,0,0,0,0,0,0,
scooby_action_30_deg_dist 0,1439,0,0,0,0,0,0,0,0,0,0,0,0,0,0,
scooby_action_4_deg_dist 0,1485,0,0,0,0,0,0,0,0,0,0,0,0,0,0,
scooby_action_-3_deg_dist 0,1446,0,0,0,0,0,0,0,0,0,0,0,0,0,0,
scooby_action_10_deg_dist 0,1495,0,0,0,0,0,0,0,0,0,0,0,0,0,0,
scooby_action_-1_deg_dist 0,1467,0,0,0,0,0,0,0,0,0,0,0,0,0,0,
scooby_action_23_deg_dist 0,1416,0,0,0,0,0,0,0,0,0,0,0,0,0,0,
scooby_action_-6_deg_dist 0,1437,0,0,0,0,0,0,0,0,0,0,0,0,0,0,
scooby_action_11_deg_dist 0,1453,0,0,0,0,0,0,0,0,0,0,0,0,0,0,
scooby_action_22_deg_dist 0,1475,0,0,0,0,0,0,0,0,0,0,0,0,0,0,

scooby_track_called 12039044
scooby_track_same_address 608268
scooby_track_evict 11430520

scooby_reward_demand_called 12039044
scooby_reward_demand_pt_not_found 253338
scooby_reward_demand_pt_found 11785706
scooby_reward_demand_pt_found_total 11785706
scooby_reward_demand_has_reward 602452
scooby_reward_train_called 23002
scooby_reward_assign_reward_called 11430762
scooby_reward_no_pref 1456
scooby_reward_incorrect 21546
scooby_reward_correct_untimely 10483072
scooby_reward_correct_timely 700182
scooby_reward_out_of_bounds 224506
scooby_reward_tracker_hit 0

scooby_reward_none_low_bw 1456
scooby_reward_none_high_bw 0
scooby_reward_incorrect_low_bw 21546
scooby_reward_incorrect_high_bw 0
scooby_reward_correct_untimely_low_bw 10483072
scooby_reward_correct_untimely_high_bw 0
scooby_reward_correct_timely_low_bw 700182
scooby_reward_correct_timely_high_bw 0
scooby_reward_out_of_bounds_low_bw 224506
scooby_reward_out_of_bounds_high_bw 0
scooby_reward_tracker_hit_low_bw 0
scooby_reward_tracker_hit_high_bw 0

scooby_reward_1 0,20345,10480646,692737,219668,0,
scooby_reward_3 0,5,1092,265,80,0,
scooby_reward_4 0,4,831,533,110,0,
scooby_reward_5 0,5,498,809,125,0,
scooby_reward_10 0,133,0,1073,288,0,
scooby_reward_11 0,120,0,1080,251,0,
scooby_reward_12 0,143,0,1051,1193,0,
scooby_reward_22 0,105,0,821,549,0,
scooby_reward_23 0,115,0,737,564,0,
scooby_reward_30 0,78,0,642,719,0,
scooby_reward_32 0,242,2,434,721,0,
scooby_reward_-1 0,32,3,0,31,0,
scooby_reward_-3 0,34,0,0,65,0,
scooby_reward_-6 0,185,0,0,142,0,
scooby_reward_0 1456,0,0,0,0,0,

scooby_train_called 11430519
scooby_train_compute_reward 23002

scooby_register_fill_called 10182300
scooby_register_fill_set 702346
scooby_register_fill_set_total 702346

scooby_register_prefetch_hit_called 31474979
scooby_register_prefetch_hit_set 9513884
scooby_register_prefetch_hit_set_total 9513884

scooby_pref_issue_scooby 58809650

learning_engine_featurewise.action.called 12039044
learning_engine_featurewise.action.explore 21854
learning_engine_featurewise.action.exploit 12017190
learning_engine_featurewise.action.fallback 0
learning_engine_featurewise.action.dyn_fallback_saved_bw 0
learning_engine_featurewise.action.dyn_fallback_saved_bw_acc 320
learning_engine_featurewise.action.index_1_explored 1482
learning_engine_featurewise.action.index_1_exploited 12016311
learning_engine_featurewise.action.index_3_explored 1453
learning_engine_featurewise.action.index_3_exploited 6
learning_engine_featurewise.action.index_4_explored 1483
learning_engine_featurewise.action.index_4_exploited 2
learning_engine_featurewise.action.index_5_explored 1431
learning_engine_featurewise.action.index_5_exploited 6
learning_engine_featurewise.action.index_10_explored 1492
learning_engine_featurewise.action.index_10_exploited 3
learning_engine_featurewise.action.index_11_explored 1451
learning_engine_featurewise.action.index_11_exploited 2
learning_engine_featurewise.action.index_12_explored 1527
learning_engine_featurewise.action.index_12_exploited 860
learning_engine_featurewise.action.index_22_explored 1475
learning_engine_featurewise.action.index_22_exploited 0
learning_engine_featurewise.action.index_23_explored 1416
learning_engine_featurewise.action.index_23_exploited 0
learning_engine_featurewise.action.index_30_explored 1439
learning_engine_featurewise.action.index_30_exploited 0
learning_engine_featurewise.action.index_32_explored 1399
learning_engine_featurewise.action.index_32_exploited 0
learning_engine_featurewise.action.index_-1_explored 1467
learning_engine_featurewise.action.index_-1_exploited 0
learning_engine_featurewise.action.index_-3_explored 1446
learning_engine_featurewise.action.index_-3_exploited 0
learning_engine_featurewise.action.index_-6_explored 1437
learning_engine_featurewise.action.index_-6_exploited 0
learning_engine_featurewise.action.index_0_explored 1456
learning_engine_featurewise.action.index_0_exploited 0
learning_engine_featurewise.learn.called 11430519
learning_engine_featurewise.learn.su_skip_PC 0
learning_engine_featurewise.learn.su_skip_PC_Delta 0

learning_engine_featurewise.q_value_histogram.bucket_0 0
learning_engine_featurewise.q_value_histogram.bucket_1 0
learning_engine_featurewise.q_value_histogram.bucket_2 0
learning_engine_featurewise.q_value_histogram.bucket_3 0
learning_engine_featurewise.q_value_histogram.bucket_4 6338
learning_engine_featurewise.q_value_histogram.bucket_5 5218
learning_engine_featurewise.q_value_histogram.bucket_6 12005634
learning_engine_featurewise.q_value_histogram.bucket_7 0

learning_engine_featurewise.consensus.total 12017190
learning_engine_featurewise.consensus.feature_align_PC 12015534
learning_engine_featurewise.consensus.feature_align_PC_ratio 1.00
learning_engine_featurewise.consensus.feature_align_PC_Delta 12012174
learning_engine_featurewise.consensus.feature_align_PC_Delta_ratio 1.00
learning_engine_featurewise.consensus.feature_align_all 12010518
learning_engine_featurewise.consensus.feature_align_all_ratio 1.00

learning_engine_featurewise.feature_PC_min_weight 1000000.00000000
learning_engine_featurewise.feature_PC_max_weight 0.00000000
learning_engine_featurewise.feature_PC_Delta_min_weight 1000000.00000000
learning_engine_featurewise.feature_PC_Delta_max_weight 0.00000000
unique_pcs 154
unique_pages 102972
unique_trigger_pcs 34
total_bitmaps_seen 0
unique_bitmaps_seen 0

scooby_bw_epochs 1922650
scooby_bw_level_0 1188011
scooby_bw_level_1 590930
scooby_bw_level_2 126206
scooby_bw_level_3 17503

scooby_ipc_epochs 0
scooby_ipc_level_0 0
scooby_ipc_level_1 0
scooby_ipc_level_2 0
scooby_ipc_level_3 0

scooby_cache_acc_epochs 466958
scooby_cache_acc_level_0 1
scooby_cache_acc_level_1 2
scooby_cache_acc_level_2 160
scooby_cache_acc_level_3 270
scooby_cache_acc_level_4 944
scooby_cache_acc_level_5 2351
scooby_cache_acc_level_6 4689
scooby_cache_acc_level_7 11345
scooby_cache_acc_level_8 36260
scooby_cache_acc_level_9 410936

Channel_0_RQ_row_buffer_hit 6473677
Channel_0_RQ_row_buffer_miss 2772422
Channel_0_WQ_row_buffer_hit 92312
Channel_0_WQ_row_buffer_miss 295377
Channel_0_WQ_full 0
Channel_0_dbus_congested 1354037

avg_congested_cycle 4

DRAM_bw_pochs 1922650
DRAM_bw_level_0 1188011
DRAM_bw_level_1 590930
DRAM_bw_level_2 126206
DRAM_bw_level_3 17503
