*************************************************
   ChampSim Multicore Out-of-Order Simulator
   Last compiled: Dec 11 2024 17:59:53
*************************************************
parsing config file: /home/functionmain/桌面/Pythia/config/bingo.ini

trace_0 /home/functionmain/桌面/Pythia/traces/410.bwaves-1963B.champsimtrace.xz
adding L2C_PREFETCHER: Bingo
Initialize SHIP state
warmup_instructions 100000000
simulation_instructions 500000000
champsim_seed 277
measure_ipc 0
measure_ipc_epoch 1000
measure_dram_bw 1
measure_dram_bw_epoch 256
measure_cache_acc 1
measure_cache_acc_epoch 1024
l1d_perfect 0
l2c_perfect 0
llc_perfect 0
l1d_semi_perfect 0
l2c_semi_perfect 0
llc_semi_perfect 0
semi_perfect_cache_page_buffer_size 64

num_cpus 1
cpu_freq 4000
dram_io_freq 9600
page_size 4096
block_size 64
max_read_per_cycle 8
max_fill_per_cycle 1
dram_channels 1
log2_dram_channels 0
dram_ranks 1
dram_banks 8
dram_rows 65536
dram_columns 128
dram_row_size 8
dram_size 4096
dram_pages 1048576

fetch_width 6
decode_width 6
exec_width 4
lq_width 2
sq_width 2
retire_width 4
scheduler_size 128
branch_mispredict_penalty 20
rob_size 256
lq_size 72
sq_size 56
num_instr_destinations_sparc 4
num_instr_destinations 2
num_instr_sources 4

itlb_set 16
itlb_way 8
itlb_rq_size 16
itlb_wq_size 16
itlb_pq_size 0
itlb_mshr_size 8
itlb_latency 1

dtlb_set 16
dtlb_way 4
dtlb_rq_size 16
dtlb_wq_size 16
dtlb_pq_size 0
dtlb_mshr_size 8
dtlb_latency 1

stlb_set 128
stlb_way 12
stlb_rq_size 32
stlb_wq_size 32
stlb_pq_size 0
stlb_mshr_size 16
stlb_latency 8

l1i_size 32
l1i_set 64
l1i_way 8
l1i_rq_size 64
l1i_wq_size 64
l1i_pq_size 8
l1i_mshr_size 8
l1i_latency 1

l1d_size 32
l1d_set 64
l1d_way 8
l1d_rq_size 64
l1d_wq_size 64
l1d_pq_size 8
l1d_mshr_size 16
l1d_latency 4

l2c_size 256
l2c_set 512
l2c_way 8
l2c_rq_size 32
l2c_wq_size 32
l2c_pq_size 32
l2c_mshr_size 32
l2c_latency 10

llc_size 2048
llc_set 2048
llc_way 16
llc_rq_size 32
llc_wq_size 32
llc_pq_size 32
llc_mshr_size 64
llc_latency 20

dram_channel_width 8
dram_wq_size 64
dram_rq_size 64
tRP 15
tRCD 15
tCAS 12.5
dram_dbus_turn_around_time 30
dram_write_high_wm 56
dram_write_low_wm 48
min_dram_writes_per_switch 16
dram_mtps 9600
dram_dbus_return_time 3

bingo_region_size 2048
bingo_pattern_len 32
bingo_pc_width 16
bingo_min_addr_width 5
bingo_max_addr_width 16
bingo_ft_size 64
bingo_at_size 128
bingo_pht_size 4096
bingo_pht_ways 16
bingo_pf_streamer_size 128
bingo_debug_level 0
bingo_l1d_thresh 1.01
bingo_l2c_thresh 0.8
bingo_llc_thresh 0.05
bingo_pc_address_fill_level L2


Heartbeat CPU  0 instructions:    1000002 cycles:     658387 heartbeat IPC: 1.51887 cumulative IPC: 1.51887 (Simulation time: 0 hr 0 min 2 sec) 
Heartbeat CPU  0 instructions:    2000002 cycles:    1316324 heartbeat IPC: 1.51990 cumulative IPC: 1.51938 (Simulation time: 0 hr 0 min 4 sec) 
Heartbeat CPU  0 instructions:    3000002 cycles:    1974294 heartbeat IPC: 1.51983 cumulative IPC: 1.51953 (Simulation time: 0 hr 0 min 6 sec) 
Heartbeat CPU  0 instructions:    4000000 cycles:    2632192 heartbeat IPC: 1.51999 cumulative IPC: 1.51965 (Simulation time: 0 hr 0 min 8 sec) 
Heartbeat CPU  0 instructions:    5000002 cycles:    3290251 heartbeat IPC: 1.51962 cumulative IPC: 1.51964 (Simulation time: 0 hr 0 min 10 sec) 
Heartbeat CPU  0 instructions:    6000002 cycles:    3948195 heartbeat IPC: 1.51989 cumulative IPC: 1.51968 (Simulation time: 0 hr 0 min 12 sec) 
Heartbeat CPU  0 instructions:    7000000 cycles:    4606175 heartbeat IPC: 1.51980 cumulative IPC: 1.51970 (Simulation time: 0 hr 0 min 14 sec) 
Heartbeat CPU  0 instructions:    8000000 cycles:    5264059 heartbeat IPC: 1.52002 cumulative IPC: 1.51974 (Simulation time: 0 hr 0 min 16 sec) 
Heartbeat CPU  0 instructions:    9000001 cycles:    5921981 heartbeat IPC: 1.51994 cumulative IPC: 1.51976 (Simulation time: 0 hr 0 min 18 sec) 
Heartbeat CPU  0 instructions:   10000002 cycles:    6579905 heartbeat IPC: 1.51993 cumulative IPC: 1.51978 (Simulation time: 0 hr 0 min 20 sec) 
Heartbeat CPU  0 instructions:   11000001 cycles:    7237855 heartbeat IPC: 1.51987 cumulative IPC: 1.51979 (Simulation time: 0 hr 0 min 22 sec) 
Heartbeat CPU  0 instructions:   12000000 cycles:    7895690 heartbeat IPC: 1.52014 cumulative IPC: 1.51982 (Simulation time: 0 hr 0 min 24 sec) 
Heartbeat CPU  0 instructions:   13000001 cycles:    8553703 heartbeat IPC: 1.51973 cumulative IPC: 1.51981 (Simulation time: 0 hr 0 min 27 sec) 
Heartbeat CPU  0 instructions:   14000001 cycles:    9211511 heartbeat IPC: 1.52020 cumulative IPC: 1.51984 (Simulation time: 0 hr 0 min 29 sec) 
Heartbeat CPU  0 instructions:   15000000 cycles:    9869291 heartbeat IPC: 1.52026 cumulative IPC: 1.51987 (Simulation time: 0 hr 0 min 31 sec) 
Heartbeat CPU  0 instructions:   16000000 cycles:   10527134 heartbeat IPC: 1.52012 cumulative IPC: 1.51988 (Simulation time: 0 hr 0 min 33 sec) 
Heartbeat CPU  0 instructions:   17000002 cycles:   11185048 heartbeat IPC: 1.51996 cumulative IPC: 1.51989 (Simulation time: 0 hr 0 min 35 sec) 
Heartbeat CPU  0 instructions:   18000000 cycles:   11842910 heartbeat IPC: 1.52007 cumulative IPC: 1.51990 (Simulation time: 0 hr 0 min 37 sec) 
Heartbeat CPU  0 instructions:   19000001 cycles:   12500770 heartbeat IPC: 1.52008 cumulative IPC: 1.51991 (Simulation time: 0 hr 0 min 39 sec) 
Heartbeat CPU  0 instructions:   20000000 cycles:   13158571 heartbeat IPC: 1.52022 cumulative IPC: 1.51992 (Simulation time: 0 hr 0 min 41 sec) 
Heartbeat CPU  0 instructions:   21000003 cycles:   13816472 heartbeat IPC: 1.51999 cumulative IPC: 1.51993 (Simulation time: 0 hr 0 min 43 sec) 
Heartbeat CPU  0 instructions:   22000001 cycles:   14474252 heartbeat IPC: 1.52026 cumulative IPC: 1.51994 (Simulation time: 0 hr 0 min 45 sec) 
Heartbeat CPU  0 instructions:   23000001 cycles:   15132080 heartbeat IPC: 1.52015 cumulative IPC: 1.51995 (Simulation time: 0 hr 0 min 47 sec) 
Heartbeat CPU  0 instructions:   24000000 cycles:   15789835 heartbeat IPC: 1.52032 cumulative IPC: 1.51997 (Simulation time: 0 hr 0 min 49 sec) 
Heartbeat CPU  0 instructions:   25000001 cycles:   16447806 heartbeat IPC: 1.51983 cumulative IPC: 1.51996 (Simulation time: 0 hr 0 min 51 sec) 
Heartbeat CPU  0 instructions:   26000003 cycles:   17105486 heartbeat IPC: 1.52050 cumulative IPC: 1.51998 (Simulation time: 0 hr 0 min 53 sec) 
Heartbeat CPU  0 instructions:   27000000 cycles:   17763329 heartbeat IPC: 1.52012 cumulative IPC: 1.51999 (Simulation time: 0 hr 0 min 55 sec) 
Heartbeat CPU  0 instructions:   28000000 cycles:   18421130 heartbeat IPC: 1.52022 cumulative IPC: 1.51999 (Simulation time: 0 hr 0 min 57 sec) 
Heartbeat CPU  0 instructions:   29000000 cycles:   19079058 heartbeat IPC: 1.51992 cumulative IPC: 1.51999 (Simulation time: 0 hr 0 min 59 sec) 
Heartbeat CPU  0 instructions:   30000001 cycles:   19736898 heartbeat IPC: 1.52013 cumulative IPC: 1.52000 (Simulation time: 0 hr 1 min 1 sec) 
Heartbeat CPU  0 instructions:   31000002 cycles:   20394818 heartbeat IPC: 1.51994 cumulative IPC: 1.51999 (Simulation time: 0 hr 1 min 3 sec) 
Heartbeat CPU  0 instructions:   32000000 cycles:   21052763 heartbeat IPC: 1.51988 cumulative IPC: 1.51999 (Simulation time: 0 hr 1 min 5 sec) 
Heartbeat CPU  0 instructions:   33000003 cycles:   21710778 heartbeat IPC: 1.51973 cumulative IPC: 1.51998 (Simulation time: 0 hr 1 min 7 sec) 
Heartbeat CPU  0 instructions:   34000002 cycles:   22368715 heartbeat IPC: 1.51990 cumulative IPC: 1.51998 (Simulation time: 0 hr 1 min 9 sec) 
Heartbeat CPU  0 instructions:   35000000 cycles:   23026647 heartbeat IPC: 1.51991 cumulative IPC: 1.51998 (Simulation time: 0 hr 1 min 11 sec) 
Heartbeat CPU  0 instructions:   36000000 cycles:   23684609 heartbeat IPC: 1.51984 cumulative IPC: 1.51997 (Simulation time: 0 hr 1 min 13 sec) 
Heartbeat CPU  0 instructions:   37000002 cycles:   24342610 heartbeat IPC: 1.51976 cumulative IPC: 1.51997 (Simulation time: 0 hr 1 min 15 sec) 
Heartbeat CPU  0 instructions:   38000000 cycles:   25000499 heartbeat IPC: 1.52001 cumulative IPC: 1.51997 (Simulation time: 0 hr 1 min 17 sec) 
Heartbeat CPU  0 instructions:   39000000 cycles:   25658529 heartbeat IPC: 1.51969 cumulative IPC: 1.51996 (Simulation time: 0 hr 1 min 19 sec) 
Heartbeat CPU  0 instructions:   40000000 cycles:   26316380 heartbeat IPC: 1.52010 cumulative IPC: 1.51997 (Simulation time: 0 hr 1 min 21 sec) 
Heartbeat CPU  0 instructions:   41000000 cycles:   26974412 heartbeat IPC: 1.51968 cumulative IPC: 1.51996 (Simulation time: 0 hr 1 min 24 sec) 
Heartbeat CPU  0 instructions:   42000003 cycles:   27632380 heartbeat IPC: 1.51984 cumulative IPC: 1.51996 (Simulation time: 0 hr 1 min 26 sec) 
Heartbeat CPU  0 instructions:   43000001 cycles:   28290251 heartbeat IPC: 1.52005 cumulative IPC: 1.51996 (Simulation time: 0 hr 1 min 28 sec) 
Heartbeat CPU  0 instructions:   44000000 cycles:   28948071 heartbeat IPC: 1.52017 cumulative IPC: 1.51996 (Simulation time: 0 hr 1 min 30 sec) 
Heartbeat CPU  0 instructions:   45000000 cycles:   29605946 heartbeat IPC: 1.52005 cumulative IPC: 1.51996 (Simulation time: 0 hr 1 min 32 sec) 
Heartbeat CPU  0 instructions:   46000001 cycles:   30263789 heartbeat IPC: 1.52012 cumulative IPC: 1.51997 (Simulation time: 0 hr 1 min 34 sec) 
Heartbeat CPU  0 instructions:   47000003 cycles:   30921669 heartbeat IPC: 1.52004 cumulative IPC: 1.51997 (Simulation time: 0 hr 1 min 36 sec) 
Heartbeat CPU  0 instructions:   48000000 cycles:   31579361 heartbeat IPC: 1.52046 cumulative IPC: 1.51998 (Simulation time: 0 hr 1 min 38 sec) 
Heartbeat CPU  0 instructions:   49000000 cycles:   32237153 heartbeat IPC: 1.52024 cumulative IPC: 1.51999 (Simulation time: 0 hr 1 min 40 sec) 
Heartbeat CPU  0 instructions:   50000003 cycles:   32895081 heartbeat IPC: 1.51993 cumulative IPC: 1.51998 (Simulation time: 0 hr 1 min 42 sec) 
Heartbeat CPU  0 instructions:   51000000 cycles:   33552927 heartbeat IPC: 1.52011 cumulative IPC: 1.51999 (Simulation time: 0 hr 1 min 44 sec) 
Heartbeat CPU  0 instructions:   52000000 cycles:   34210731 heartbeat IPC: 1.52021 cumulative IPC: 1.51999 (Simulation time: 0 hr 1 min 46 sec) 
Heartbeat CPU  0 instructions:   53000003 cycles:   34868647 heartbeat IPC: 1.51996 cumulative IPC: 1.51999 (Simulation time: 0 hr 1 min 48 sec) 
Heartbeat CPU  0 instructions:   54000001 cycles:   35526531 heartbeat IPC: 1.52002 cumulative IPC: 1.51999 (Simulation time: 0 hr 1 min 50 sec) 
Heartbeat CPU  0 instructions:   55000003 cycles:   36184401 heartbeat IPC: 1.52006 cumulative IPC: 1.51999 (Simulation time: 0 hr 1 min 52 sec) 
Heartbeat CPU  0 instructions:   56000000 cycles:   36842262 heartbeat IPC: 1.52007 cumulative IPC: 1.51999 (Simulation time: 0 hr 1 min 54 sec) 
Heartbeat CPU  0 instructions:   57000001 cycles:   37500006 heartbeat IPC: 1.52035 cumulative IPC: 1.52000 (Simulation time: 0 hr 1 min 56 sec) 
Heartbeat CPU  0 instructions:   58000000 cycles:   38157943 heartbeat IPC: 1.51990 cumulative IPC: 1.52000 (Simulation time: 0 hr 1 min 58 sec) 
Heartbeat CPU  0 instructions:   59000002 cycles:   38815906 heartbeat IPC: 1.51985 cumulative IPC: 1.52000 (Simulation time: 0 hr 2 min 0 sec) 
Heartbeat CPU  0 instructions:   60000000 cycles:   39473699 heartbeat IPC: 1.52023 cumulative IPC: 1.52000 (Simulation time: 0 hr 2 min 2 sec) 
Heartbeat CPU  0 instructions:   61000002 cycles:   40131735 heartbeat IPC: 1.51968 cumulative IPC: 1.51999 (Simulation time: 0 hr 2 min 4 sec) 
Heartbeat CPU  0 instructions:   62000001 cycles:   40789672 heartbeat IPC: 1.51990 cumulative IPC: 1.51999 (Simulation time: 0 hr 2 min 6 sec) 
Heartbeat CPU  0 instructions:   63000002 cycles:   41447624 heartbeat IPC: 1.51987 cumulative IPC: 1.51999 (Simulation time: 0 hr 2 min 8 sec) 
Heartbeat CPU  0 instructions:   64000000 cycles:   42105579 heartbeat IPC: 1.51986 cumulative IPC: 1.51999 (Simulation time: 0 hr 2 min 10 sec) 
Heartbeat CPU  0 instructions:   65000002 cycles:   42763617 heartbeat IPC: 1.51967 cumulative IPC: 1.51998 (Simulation time: 0 hr 2 min 12 sec) 
Heartbeat CPU  0 instructions:   66000002 cycles:   43421548 heartbeat IPC: 1.51992 cumulative IPC: 1.51998 (Simulation time: 0 hr 2 min 14 sec) 
Heartbeat CPU  0 instructions:   67000002 cycles:   44079467 heartbeat IPC: 1.51994 cumulative IPC: 1.51998 (Simulation time: 0 hr 2 min 17 sec) 
Heartbeat CPU  0 instructions:   68000000 cycles:   44737350 heartbeat IPC: 1.52002 cumulative IPC: 1.51998 (Simulation time: 0 hr 2 min 19 sec) 
Heartbeat CPU  0 instructions:   69000000 cycles:   45395369 heartbeat IPC: 1.51971 cumulative IPC: 1.51998 (Simulation time: 0 hr 2 min 21 sec) 
Heartbeat CPU  0 instructions:   70000003 cycles:   46053206 heartbeat IPC: 1.52014 cumulative IPC: 1.51998 (Simulation time: 0 hr 2 min 23 sec) 
Heartbeat CPU  0 instructions:   71000003 cycles:   46711029 heartbeat IPC: 1.52017 cumulative IPC: 1.51998 (Simulation time: 0 hr 2 min 25 sec) 
Heartbeat CPU  0 instructions:   72000000 cycles:   47368906 heartbeat IPC: 1.52004 cumulative IPC: 1.51998 (Simulation time: 0 hr 2 min 27 sec) 
Heartbeat CPU  0 instructions:   73000001 cycles:   48026789 heartbeat IPC: 1.52003 cumulative IPC: 1.51999 (Simulation time: 0 hr 2 min 29 sec) 
Heartbeat CPU  0 instructions:   74000002 cycles:   48684629 heartbeat IPC: 1.52013 cumulative IPC: 1.51999 (Simulation time: 0 hr 2 min 31 sec) 
Heartbeat CPU  0 instructions:   75000001 cycles:   49342512 heartbeat IPC: 1.52003 cumulative IPC: 1.51999 (Simulation time: 0 hr 2 min 33 sec) 
Heartbeat CPU  0 instructions:   76000000 cycles:   50000335 heartbeat IPC: 1.52016 cumulative IPC: 1.51999 (Simulation time: 0 hr 2 min 35 sec) 
Heartbeat CPU  0 instructions:   77000002 cycles:   50658233 heartbeat IPC: 1.52000 cumulative IPC: 1.51999 (Simulation time: 0 hr 2 min 37 sec) 
Heartbeat CPU  0 instructions:   78000000 cycles:   51316207 heartbeat IPC: 1.51981 cumulative IPC: 1.51999 (Simulation time: 0 hr 2 min 39 sec) 
Heartbeat CPU  0 instructions:   79000003 cycles:   51974037 heartbeat IPC: 1.52015 cumulative IPC: 1.51999 (Simulation time: 0 hr 2 min 41 sec) 
Heartbeat CPU  0 instructions:   80000000 cycles:   52631877 heartbeat IPC: 1.52012 cumulative IPC: 1.51999 (Simulation time: 0 hr 2 min 43 sec) 
Heartbeat CPU  0 instructions:   81000001 cycles:   53289849 heartbeat IPC: 1.51982 cumulative IPC: 1.51999 (Simulation time: 0 hr 2 min 45 sec) 
Heartbeat CPU  0 instructions:   82000001 cycles:   53947713 heartbeat IPC: 1.52007 cumulative IPC: 1.51999 (Simulation time: 0 hr 2 min 47 sec) 
Heartbeat CPU  0 instructions:   83000001 cycles:   54605507 heartbeat IPC: 1.52023 cumulative IPC: 1.51999 (Simulation time: 0 hr 2 min 49 sec) 
Heartbeat CPU  0 instructions:   84000000 cycles:   55263311 heartbeat IPC: 1.52021 cumulative IPC: 1.52000 (Simulation time: 0 hr 2 min 51 sec) 
Heartbeat CPU  0 instructions:   85000000 cycles:   55921236 heartbeat IPC: 1.51993 cumulative IPC: 1.51999 (Simulation time: 0 hr 2 min 53 sec) 
Heartbeat CPU  0 instructions:   86000002 cycles:   56579095 heartbeat IPC: 1.52009 cumulative IPC: 1.52000 (Simulation time: 0 hr 2 min 55 sec) 
Heartbeat CPU  0 instructions:   87000001 cycles:   57237064 heartbeat IPC: 1.51983 cumulative IPC: 1.51999 (Simulation time: 0 hr 2 min 57 sec) 
Heartbeat CPU  0 instructions:   88000000 cycles:   57895130 heartbeat IPC: 1.51960 cumulative IPC: 1.51999 (Simulation time: 0 hr 2 min 59 sec) 
Heartbeat CPU  0 instructions:   89000001 cycles:   58553088 heartbeat IPC: 1.51986 cumulative IPC: 1.51999 (Simulation time: 0 hr 3 min 1 sec) 
Heartbeat CPU  0 instructions:   90000003 cycles:   59211057 heartbeat IPC: 1.51983 cumulative IPC: 1.51999 (Simulation time: 0 hr 3 min 3 sec) 
Heartbeat CPU  0 instructions:   91000000 cycles:   59868968 heartbeat IPC: 1.51996 cumulative IPC: 1.51999 (Simulation time: 0 hr 3 min 5 sec) 
Heartbeat CPU  0 instructions:   92000000 cycles:   60526933 heartbeat IPC: 1.51984 cumulative IPC: 1.51998 (Simulation time: 0 hr 3 min 7 sec) 
Heartbeat CPU  0 instructions:   93000001 cycles:   61184862 heartbeat IPC: 1.51992 cumulative IPC: 1.51998 (Simulation time: 0 hr 3 min 9 sec) 
Heartbeat CPU  0 instructions:   94000001 cycles:   61842804 heartbeat IPC: 1.51989 cumulative IPC: 1.51998 (Simulation time: 0 hr 3 min 11 sec) 
Heartbeat CPU  0 instructions:   95000000 cycles:   62500697 heartbeat IPC: 1.52000 cumulative IPC: 1.51998 (Simulation time: 0 hr 3 min 13 sec) 
Heartbeat CPU  0 instructions:   96000000 cycles:   63158549 heartbeat IPC: 1.52010 cumulative IPC: 1.51998 (Simulation time: 0 hr 3 min 16 sec) 
Heartbeat CPU  0 instructions:   97000000 cycles:   63816557 heartbeat IPC: 1.51974 cumulative IPC: 1.51998 (Simulation time: 0 hr 3 min 18 sec) 
Heartbeat CPU  0 instructions:   98000001 cycles:   64474493 heartbeat IPC: 1.51991 cumulative IPC: 1.51998 (Simulation time: 0 hr 3 min 20 sec) 
Heartbeat CPU  0 instructions:   99000003 cycles:   65132391 heartbeat IPC: 1.52000 cumulative IPC: 1.51998 (Simulation time: 0 hr 3 min 22 sec) 
Heartbeat CPU  0 instructions:  100000000 cycles:   65790255 heartbeat IPC: 1.52007 cumulative IPC: 1.51998 (Simulation time: 0 hr 3 min 24 sec) 

Warmup complete CPU  0 instructions:  100000002 cycles:   65790258 (Simulation time: 0 hr 3 min 24 sec) 

Heartbeat CPU  0 instructions:  101000001 cycles:   66745103 heartbeat IPC: 1.04729 cumulative IPC: 1.04729 (Simulation time: 0 hr 3 min 26 sec) 
Heartbeat CPU  0 instructions:  102000000 cycles:   67703570 heartbeat IPC: 1.04333 cumulative IPC: 1.04531 (Simulation time: 0 hr 3 min 28 sec) 
Heartbeat CPU  0 instructions:  103000001 cycles:   68661445 heartbeat IPC: 1.04398 cumulative IPC: 1.04486 (Simulation time: 0 hr 3 min 31 sec) 
Heartbeat CPU  0 instructions:  104000000 cycles:   69619170 heartbeat IPC: 1.04414 cumulative IPC: 1.04468 (Simulation time: 0 hr 3 min 33 sec) 
Heartbeat CPU  0 instructions:  105000002 cycles:   70573865 heartbeat IPC: 1.04746 cumulative IPC: 1.04524 (Simulation time: 0 hr 3 min 35 sec) 
Heartbeat CPU  0 instructions:  106000001 cycles:   71526141 heartbeat IPC: 1.05011 cumulative IPC: 1.04605 (Simulation time: 0 hr 3 min 37 sec) 
Heartbeat CPU  0 instructions:  107000001 cycles:   72488676 heartbeat IPC: 1.03892 cumulative IPC: 1.04502 (Simulation time: 0 hr 3 min 40 sec) 
Heartbeat CPU  0 instructions:  108000000 cycles:   73440885 heartbeat IPC: 1.05019 cumulative IPC: 1.04567 (Simulation time: 0 hr 3 min 42 sec) 
Heartbeat CPU  0 instructions:  109000001 cycles:   74401840 heartbeat IPC: 1.04063 cumulative IPC: 1.04510 (Simulation time: 0 hr 3 min 44 sec) 
Heartbeat CPU  0 instructions:  110000000 cycles:   75357075 heartbeat IPC: 1.04686 cumulative IPC: 1.04528 (Simulation time: 0 hr 3 min 47 sec) 
Heartbeat CPU  0 instructions:  111000000 cycles:   76316795 heartbeat IPC: 1.04197 cumulative IPC: 1.04498 (Simulation time: 0 hr 3 min 49 sec) 
Heartbeat CPU  0 instructions:  112000000 cycles:   77271045 heartbeat IPC: 1.04794 cumulative IPC: 1.04522 (Simulation time: 0 hr 3 min 51 sec) 
Heartbeat CPU  0 instructions:  113000000 cycles:   78224631 heartbeat IPC: 1.04867 cumulative IPC: 1.04549 (Simulation time: 0 hr 3 min 54 sec) 
Heartbeat CPU  0 instructions:  114000002 cycles:   79186907 heartbeat IPC: 1.03920 cumulative IPC: 1.04504 (Simulation time: 0 hr 3 min 56 sec) 
Heartbeat CPU  0 instructions:  115000000 cycles:   80140885 heartbeat IPC: 1.04824 cumulative IPC: 1.04525 (Simulation time: 0 hr 3 min 58 sec) 
Heartbeat CPU  0 instructions:  116000000 cycles:   81107400 heartbeat IPC: 1.03465 cumulative IPC: 1.04458 (Simulation time: 0 hr 4 min 1 sec) 
Heartbeat CPU  0 instructions:  117000003 cycles:   82064990 heartbeat IPC: 1.04429 cumulative IPC: 1.04456 (Simulation time: 0 hr 4 min 3 sec) 
Heartbeat CPU  0 instructions:  118000000 cycles:   83019744 heartbeat IPC: 1.04739 cumulative IPC: 1.04472 (Simulation time: 0 hr 4 min 5 sec) 
Heartbeat CPU  0 instructions:  119000001 cycles:   83971039 heartbeat IPC: 1.05120 cumulative IPC: 1.04506 (Simulation time: 0 hr 4 min 8 sec) 
Heartbeat CPU  0 instructions:  120000000 cycles:   84932640 heartbeat IPC: 1.03993 cumulative IPC: 1.04480 (Simulation time: 0 hr 4 min 10 sec) 
Heartbeat CPU  0 instructions:  121000003 cycles:   85887791 heartbeat IPC: 1.04696 cumulative IPC: 1.04490 (Simulation time: 0 hr 4 min 12 sec) 
Heartbeat CPU  0 instructions:  122000000 cycles:   86849280 heartbeat IPC: 1.04005 cumulative IPC: 1.04468 (Simulation time: 0 hr 4 min 15 sec) 
Heartbeat CPU  0 instructions:  123000002 cycles:   87800950 heartbeat IPC: 1.05079 cumulative IPC: 1.04495 (Simulation time: 0 hr 4 min 17 sec) 
Heartbeat CPU  0 instructions:  124000000 cycles:   88756367 heartbeat IPC: 1.04666 cumulative IPC: 1.04502 (Simulation time: 0 hr 4 min 19 sec) 
Heartbeat CPU  0 instructions:  125000003 cycles:   89709870 heartbeat IPC: 1.04877 cumulative IPC: 1.04517 (Simulation time: 0 hr 4 min 21 sec) 
Heartbeat CPU  0 instructions:  126000002 cycles:   90660942 heartbeat IPC: 1.05144 cumulative IPC: 1.04541 (Simulation time: 0 hr 4 min 24 sec) 
Heartbeat CPU  0 instructions:  127000000 cycles:   91622741 heartbeat IPC: 1.03972 cumulative IPC: 1.04520 (Simulation time: 0 hr 4 min 26 sec) 
Heartbeat CPU  0 instructions:  128000000 cycles:   92579585 heartbeat IPC: 1.04510 cumulative IPC: 1.04519 (Simulation time: 0 hr 4 min 28 sec) 
Heartbeat CPU  0 instructions:  129000000 cycles:   93532008 heartbeat IPC: 1.04995 cumulative IPC: 1.04536 (Simulation time: 0 hr 4 min 31 sec) 
Heartbeat CPU  0 instructions:  130000001 cycles:   94486679 heartbeat IPC: 1.04748 cumulative IPC: 1.04543 (Simulation time: 0 hr 4 min 33 sec) 
Heartbeat CPU  0 instructions:  131000000 cycles:   95443200 heartbeat IPC: 1.04545 cumulative IPC: 1.04543 (Simulation time: 0 hr 4 min 35 sec) 
Heartbeat CPU  0 instructions:  132000000 cycles:   96399388 heartbeat IPC: 1.04582 cumulative IPC: 1.04544 (Simulation time: 0 hr 4 min 38 sec) 
Heartbeat CPU  0 instructions:  133000001 cycles:   97354608 heartbeat IPC: 1.04688 cumulative IPC: 1.04548 (Simulation time: 0 hr 4 min 40 sec) 
Heartbeat CPU  0 instructions:  134000000 cycles:   98313236 heartbeat IPC: 1.04316 cumulative IPC: 1.04541 (Simulation time: 0 hr 4 min 42 sec) 
Heartbeat CPU  0 instructions:  135000002 cycles:   99269794 heartbeat IPC: 1.04542 cumulative IPC: 1.04541 (Simulation time: 0 hr 4 min 44 sec) 
Heartbeat CPU  0 instructions:  136000000 cycles:  100221959 heartbeat IPC: 1.05024 cumulative IPC: 1.04555 (Simulation time: 0 hr 4 min 47 sec) 
Heartbeat CPU  0 instructions:  137000002 cycles:  101185749 heartbeat IPC: 1.03757 cumulative IPC: 1.04533 (Simulation time: 0 hr 4 min 49 sec) 
Heartbeat CPU  0 instructions:  138000000 cycles:  102140876 heartbeat IPC: 1.04698 cumulative IPC: 1.04537 (Simulation time: 0 hr 4 min 51 sec) 
Heartbeat CPU  0 instructions:  139000002 cycles:  103100899 heartbeat IPC: 1.04164 cumulative IPC: 1.04528 (Simulation time: 0 hr 4 min 54 sec) 
Heartbeat CPU  0 instructions:  140000000 cycles:  104060312 heartbeat IPC: 1.04230 cumulative IPC: 1.04520 (Simulation time: 0 hr 4 min 56 sec) 
Heartbeat CPU  0 instructions:  141000003 cycles:  105020205 heartbeat IPC: 1.04179 cumulative IPC: 1.04512 (Simulation time: 0 hr 4 min 58 sec) 
Heartbeat CPU  0 instructions:  142000001 cycles:  105977406 heartbeat IPC: 1.04471 cumulative IPC: 1.04511 (Simulation time: 0 hr 5 min 1 sec) 
Heartbeat CPU  0 instructions:  143000001 cycles:  106936382 heartbeat IPC: 1.04278 cumulative IPC: 1.04506 (Simulation time: 0 hr 5 min 3 sec) 
Heartbeat CPU  0 instructions:  144000000 cycles:  107903086 heartbeat IPC: 1.03444 cumulative IPC: 1.04481 (Simulation time: 0 hr 5 min 5 sec) 
Heartbeat CPU  0 instructions:  145000001 cycles:  108865765 heartbeat IPC: 1.03877 cumulative IPC: 1.04468 (Simulation time: 0 hr 5 min 8 sec) 
Heartbeat CPU  0 instructions:  146000003 cycles:  109821677 heartbeat IPC: 1.04612 cumulative IPC: 1.04471 (Simulation time: 0 hr 5 min 10 sec) 
Heartbeat CPU  0 instructions:  147000002 cycles:  110782823 heartbeat IPC: 1.04042 cumulative IPC: 1.04462 (Simulation time: 0 hr 5 min 12 sec) 
Heartbeat CPU  0 instructions:  148000000 cycles:  111747150 heartbeat IPC: 1.03699 cumulative IPC: 1.04446 (Simulation time: 0 hr 5 min 15 sec) 
Heartbeat CPU  0 instructions:  149000001 cycles:  112697579 heartbeat IPC: 1.05216 cumulative IPC: 1.04461 (Simulation time: 0 hr 5 min 17 sec) 
Heartbeat CPU  0 instructions:  150000002 cycles:  113656154 heartbeat IPC: 1.04322 cumulative IPC: 1.04459 (Simulation time: 0 hr 5 min 19 sec) 
Heartbeat CPU  0 instructions:  151000001 cycles:  114609747 heartbeat IPC: 1.04866 cumulative IPC: 1.04466 (Simulation time: 0 hr 5 min 21 sec) 
Heartbeat CPU  0 instructions:  152000000 cycles:  115570728 heartbeat IPC: 1.04060 cumulative IPC: 1.04459 (Simulation time: 0 hr 5 min 24 sec) 
Heartbeat CPU  0 instructions:  153000002 cycles:  116525464 heartbeat IPC: 1.04741 cumulative IPC: 1.04464 (Simulation time: 0 hr 5 min 26 sec) 
Heartbeat CPU  0 instructions:  154000001 cycles:  117488179 heartbeat IPC: 1.03873 cumulative IPC: 1.04453 (Simulation time: 0 hr 5 min 28 sec) 
Heartbeat CPU  0 instructions:  155000002 cycles:  118444339 heartbeat IPC: 1.04585 cumulative IPC: 1.04455 (Simulation time: 0 hr 5 min 31 sec) 
Heartbeat CPU  0 instructions:  156000000 cycles:  119407844 heartbeat IPC: 1.03788 cumulative IPC: 1.04443 (Simulation time: 0 hr 5 min 33 sec) 
Heartbeat CPU  0 instructions:  157000002 cycles:  120367614 heartbeat IPC: 1.04192 cumulative IPC: 1.04439 (Simulation time: 0 hr 5 min 35 sec) 
Heartbeat CPU  0 instructions:  158000000 cycles:  121324621 heartbeat IPC: 1.04492 cumulative IPC: 1.04440 (Simulation time: 0 hr 5 min 38 sec) 
Heartbeat CPU  0 instructions:  159000000 cycles:  122280863 heartbeat IPC: 1.04576 cumulative IPC: 1.04442 (Simulation time: 0 hr 5 min 40 sec) 
Heartbeat CPU  0 instructions:  160000000 cycles:  123235902 heartbeat IPC: 1.04708 cumulative IPC: 1.04447 (Simulation time: 0 hr 5 min 42 sec) 
Heartbeat CPU  0 instructions:  161000000 cycles:  124198601 heartbeat IPC: 1.03875 cumulative IPC: 1.04437 (Simulation time: 0 hr 5 min 45 sec) 
Heartbeat CPU  0 instructions:  162000000 cycles:  125152076 heartbeat IPC: 1.04880 cumulative IPC: 1.04444 (Simulation time: 0 hr 5 min 47 sec) 
Heartbeat CPU  0 instructions:  163000001 cycles:  126107314 heartbeat IPC: 1.04686 cumulative IPC: 1.04448 (Simulation time: 0 hr 5 min 49 sec) 
Heartbeat CPU  0 instructions:  164000000 cycles:  127067390 heartbeat IPC: 1.04158 cumulative IPC: 1.04444 (Simulation time: 0 hr 5 min 51 sec) 
Heartbeat CPU  0 instructions:  165000001 cycles:  128024262 heartbeat IPC: 1.04507 cumulative IPC: 1.04445 (Simulation time: 0 hr 5 min 54 sec) 
Heartbeat CPU  0 instructions:  166000002 cycles:  128975734 heartbeat IPC: 1.05100 cumulative IPC: 1.04454 (Simulation time: 0 hr 5 min 56 sec) 
Heartbeat CPU  0 instructions:  167000001 cycles:  129933809 heartbeat IPC: 1.04376 cumulative IPC: 1.04453 (Simulation time: 0 hr 5 min 58 sec) 
Heartbeat CPU  0 instructions:  168000000 cycles:  130894013 heartbeat IPC: 1.04144 cumulative IPC: 1.04449 (Simulation time: 0 hr 6 min 1 sec) 
Heartbeat CPU  0 instructions:  169000002 cycles:  131850595 heartbeat IPC: 1.04539 cumulative IPC: 1.04450 (Simulation time: 0 hr 6 min 3 sec) 
Heartbeat CPU  0 instructions:  170000001 cycles:  132814240 heartbeat IPC: 1.03773 cumulative IPC: 1.04440 (Simulation time: 0 hr 6 min 5 sec) 
Heartbeat CPU  0 instructions:  171000000 cycles:  133769445 heartbeat IPC: 1.04689 cumulative IPC: 1.04444 (Simulation time: 0 hr 6 min 8 sec) 
Heartbeat CPU  0 instructions:  172000000 cycles:  134729584 heartbeat IPC: 1.04152 cumulative IPC: 1.04440 (Simulation time: 0 hr 6 min 10 sec) 
Heartbeat CPU  0 instructions:  173000000 cycles:  135681079 heartbeat IPC: 1.05098 cumulative IPC: 1.04449 (Simulation time: 0 hr 6 min 12 sec) 
Heartbeat CPU  0 instructions:  174000000 cycles:  136637685 heartbeat IPC: 1.04536 cumulative IPC: 1.04450 (Simulation time: 0 hr 6 min 15 sec) 
Heartbeat CPU  0 instructions:  175000003 cycles:  137594819 heartbeat IPC: 1.04479 cumulative IPC: 1.04450 (Simulation time: 0 hr 6 min 17 sec) 
Heartbeat CPU  0 instructions:  176000000 cycles:  138554102 heartbeat IPC: 1.04244 cumulative IPC: 1.04447 (Simulation time: 0 hr 6 min 19 sec) 
Heartbeat CPU  0 instructions:  177000000 cycles:  139505618 heartbeat IPC: 1.05095 cumulative IPC: 1.04456 (Simulation time: 0 hr 6 min 21 sec) 
Heartbeat CPU  0 instructions:  178000002 cycles:  140464813 heartbeat IPC: 1.04254 cumulative IPC: 1.04453 (Simulation time: 0 hr 6 min 24 sec) 
Heartbeat CPU  0 instructions:  179000001 cycles:  141425669 heartbeat IPC: 1.04074 cumulative IPC: 1.04448 (Simulation time: 0 hr 6 min 26 sec) 
Heartbeat CPU  0 instructions:  180000000 cycles:  142379119 heartbeat IPC: 1.04882 cumulative IPC: 1.04454 (Simulation time: 0 hr 6 min 28 sec) 
Heartbeat CPU  0 instructions:  181000001 cycles:  143334855 heartbeat IPC: 1.04632 cumulative IPC: 1.04456 (Simulation time: 0 hr 6 min 31 sec) 
Heartbeat CPU  0 instructions:  182000000 cycles:  144287741 heartbeat IPC: 1.04944 cumulative IPC: 1.04462 (Simulation time: 0 hr 6 min 33 sec) 
Heartbeat CPU  0 instructions:  183000002 cycles:  145242912 heartbeat IPC: 1.04694 cumulative IPC: 1.04465 (Simulation time: 0 hr 6 min 35 sec) 
Heartbeat CPU  0 instructions:  184000000 cycles:  146207190 heartbeat IPC: 1.03704 cumulative IPC: 1.04456 (Simulation time: 0 hr 6 min 38 sec) 
Heartbeat CPU  0 instructions:  185000000 cycles:  147159494 heartbeat IPC: 1.05008 cumulative IPC: 1.04462 (Simulation time: 0 hr 6 min 40 sec) 
Heartbeat CPU  0 instructions:  186000000 cycles:  148110483 heartbeat IPC: 1.05154 cumulative IPC: 1.04470 (Simulation time: 0 hr 6 min 42 sec) 
Heartbeat CPU  0 instructions:  187000003 cycles:  149067051 heartbeat IPC: 1.04541 cumulative IPC: 1.04471 (Simulation time: 0 hr 6 min 44 sec) 
Heartbeat CPU  0 instructions:  188000000 cycles:  150020273 heartbeat IPC: 1.04907 cumulative IPC: 1.04476 (Simulation time: 0 hr 6 min 47 sec) 
Heartbeat CPU  0 instructions:  189000000 cycles:  150979122 heartbeat IPC: 1.04292 cumulative IPC: 1.04474 (Simulation time: 0 hr 6 min 49 sec) 
Heartbeat CPU  0 instructions:  190000003 cycles:  151936785 heartbeat IPC: 1.04421 cumulative IPC: 1.04473 (Simulation time: 0 hr 6 min 51 sec) 
Heartbeat CPU  0 instructions:  191000001 cycles:  152899580 heartbeat IPC: 1.03864 cumulative IPC: 1.04466 (Simulation time: 0 hr 6 min 54 sec) 
Heartbeat CPU  0 instructions:  192000000 cycles:  153853688 heartbeat IPC: 1.04810 cumulative IPC: 1.04470 (Simulation time: 0 hr 6 min 56 sec) 
Heartbeat CPU  0 instructions:  193000001 cycles:  154810757 heartbeat IPC: 1.04486 cumulative IPC: 1.04470 (Simulation time: 0 hr 6 min 58 sec) 
Heartbeat CPU  0 instructions:  194000001 cycles:  155765364 heartbeat IPC: 1.04755 cumulative IPC: 1.04473 (Simulation time: 0 hr 7 min 1 sec) 
Heartbeat CPU  0 instructions:  195000002 cycles:  156726517 heartbeat IPC: 1.04042 cumulative IPC: 1.04469 (Simulation time: 0 hr 7 min 3 sec) 
Heartbeat CPU  0 instructions:  196000000 cycles:  157684487 heartbeat IPC: 1.04387 cumulative IPC: 1.04468 (Simulation time: 0 hr 7 min 5 sec) 
Heartbeat CPU  0 instructions:  197000001 cycles:  158637085 heartbeat IPC: 1.04976 cumulative IPC: 1.04473 (Simulation time: 0 hr 7 min 8 sec) 
Heartbeat CPU  0 instructions:  198000002 cycles:  159593483 heartbeat IPC: 1.04559 cumulative IPC: 1.04474 (Simulation time: 0 hr 7 min 10 sec) 
Heartbeat CPU  0 instructions:  199000003 cycles:  160547921 heartbeat IPC: 1.04774 cumulative IPC: 1.04477 (Simulation time: 0 hr 7 min 12 sec) 
Heartbeat CPU  0 instructions:  200000000 cycles:  161501498 heartbeat IPC: 1.04868 cumulative IPC: 1.04481 (Simulation time: 0 hr 7 min 14 sec) 
Heartbeat CPU  0 instructions:  201000002 cycles:  162458471 heartbeat IPC: 1.04496 cumulative IPC: 1.04481 (Simulation time: 0 hr 7 min 17 sec) 
Heartbeat CPU  0 instructions:  202000000 cycles:  163415832 heartbeat IPC: 1.04454 cumulative IPC: 1.04481 (Simulation time: 0 hr 7 min 19 sec) 
Heartbeat CPU  0 instructions:  203000000 cycles:  164377417 heartbeat IPC: 1.03995 cumulative IPC: 1.04476 (Simulation time: 0 hr 7 min 21 sec) 
Heartbeat CPU  0 instructions:  204000000 cycles:  165336363 heartbeat IPC: 1.04281 cumulative IPC: 1.04474 (Simulation time: 0 hr 7 min 24 sec) 
Heartbeat CPU  0 instructions:  205000003 cycles:  166289909 heartbeat IPC: 1.04872 cumulative IPC: 1.04478 (Simulation time: 0 hr 7 min 26 sec) 
Heartbeat CPU  0 instructions:  206000002 cycles:  167251291 heartbeat IPC: 1.04017 cumulative IPC: 1.04474 (Simulation time: 0 hr 7 min 28 sec) 
Heartbeat CPU  0 instructions:  207000000 cycles:  168204924 heartbeat IPC: 1.04862 cumulative IPC: 1.04477 (Simulation time: 0 hr 7 min 31 sec) 
Heartbeat CPU  0 instructions:  208000000 cycles:  169160839 heartbeat IPC: 1.04612 cumulative IPC: 1.04478 (Simulation time: 0 hr 7 min 33 sec) 
Heartbeat CPU  0 instructions:  209000002 cycles:  170116158 heartbeat IPC: 1.04677 cumulative IPC: 1.04480 (Simulation time: 0 hr 7 min 35 sec) 
Heartbeat CPU  0 instructions:  210000001 cycles:  171076555 heartbeat IPC: 1.04124 cumulative IPC: 1.04477 (Simulation time: 0 hr 7 min 38 sec) 
Heartbeat CPU  0 instructions:  211000000 cycles:  172027219 heartbeat IPC: 1.05190 cumulative IPC: 1.04483 (Simulation time: 0 hr 7 min 40 sec) 
Heartbeat CPU  0 instructions:  212000000 cycles:  172985284 heartbeat IPC: 1.04377 cumulative IPC: 1.04482 (Simulation time: 0 hr 7 min 42 sec) 
Heartbeat CPU  0 instructions:  213000001 cycles:  173938851 heartbeat IPC: 1.04870 cumulative IPC: 1.04486 (Simulation time: 0 hr 7 min 44 sec) 
Heartbeat CPU  0 instructions:  214000000 cycles:  174901082 heartbeat IPC: 1.03925 cumulative IPC: 1.04481 (Simulation time: 0 hr 7 min 47 sec) 
Heartbeat CPU  0 instructions:  215000002 cycles:  175852381 heartbeat IPC: 1.05120 cumulative IPC: 1.04486 (Simulation time: 0 hr 7 min 50 sec) 
Heartbeat CPU  0 instructions:  216000000 cycles:  176807733 heartbeat IPC: 1.04673 cumulative IPC: 1.04488 (Simulation time: 0 hr 7 min 52 sec) 
Heartbeat CPU  0 instructions:  217000001 cycles:  177767100 heartbeat IPC: 1.04236 cumulative IPC: 1.04486 (Simulation time: 0 hr 7 min 54 sec) 
Heartbeat CPU  0 instructions:  218000002 cycles:  178724869 heartbeat IPC: 1.04409 cumulative IPC: 1.04485 (Simulation time: 0 hr 7 min 56 sec) 
Heartbeat CPU  0 instructions:  219000001 cycles:  179678343 heartbeat IPC: 1.04880 cumulative IPC: 1.04489 (Simulation time: 0 hr 7 min 59 sec) 
Heartbeat CPU  0 instructions:  220000000 cycles:  180631388 heartbeat IPC: 1.04927 cumulative IPC: 1.04492 (Simulation time: 0 hr 8 min 1 sec) 
Heartbeat CPU  0 instructions:  221000001 cycles:  181584789 heartbeat IPC: 1.04888 cumulative IPC: 1.04495 (Simulation time: 0 hr 8 min 3 sec) 
Heartbeat CPU  0 instructions:  222000002 cycles:  182539189 heartbeat IPC: 1.04778 cumulative IPC: 1.04498 (Simulation time: 0 hr 8 min 6 sec) 
Heartbeat CPU  0 instructions:  223000000 cycles:  183492142 heartbeat IPC: 1.04937 cumulative IPC: 1.04501 (Simulation time: 0 hr 8 min 8 sec) 
Heartbeat CPU  0 instructions:  224000000 cycles:  184458229 heartbeat IPC: 1.03510 cumulative IPC: 1.04493 (Simulation time: 0 hr 8 min 10 sec) 
Heartbeat CPU  0 instructions:  225000002 cycles:  185410722 heartbeat IPC: 1.04988 cumulative IPC: 1.04497 (Simulation time: 0 hr 8 min 13 sec) 
Heartbeat CPU  0 instructions:  226000003 cycles:  186368887 heartbeat IPC: 1.04366 cumulative IPC: 1.04496 (Simulation time: 0 hr 8 min 15 sec) 
Heartbeat CPU  0 instructions:  227000002 cycles:  187323103 heartbeat IPC: 1.04798 cumulative IPC: 1.04499 (Simulation time: 0 hr 8 min 17 sec) 
Heartbeat CPU  0 instructions:  228000000 cycles:  188279179 heartbeat IPC: 1.04594 cumulative IPC: 1.04499 (Simulation time: 0 hr 8 min 19 sec) 
Heartbeat CPU  0 instructions:  229000000 cycles:  189232506 heartbeat IPC: 1.04896 cumulative IPC: 1.04502 (Simulation time: 0 hr 8 min 22 sec) 
Heartbeat CPU  0 instructions:  230000002 cycles:  190189233 heartbeat IPC: 1.04523 cumulative IPC: 1.04502 (Simulation time: 0 hr 8 min 24 sec) 
Heartbeat CPU  0 instructions:  231000001 cycles:  191137748 heartbeat IPC: 1.05428 cumulative IPC: 1.04509 (Simulation time: 0 hr 8 min 26 sec) 
Heartbeat CPU  0 instructions:  232000000 cycles:  192098931 heartbeat IPC: 1.04038 cumulative IPC: 1.04506 (Simulation time: 0 hr 8 min 29 sec) 
Heartbeat CPU  0 instructions:  233000000 cycles:  193061676 heartbeat IPC: 1.03870 cumulative IPC: 1.04501 (Simulation time: 0 hr 8 min 31 sec) 
Heartbeat CPU  0 instructions:  234000001 cycles:  194013099 heartbeat IPC: 1.05106 cumulative IPC: 1.04506 (Simulation time: 0 hr 8 min 33 sec) 
Heartbeat CPU  0 instructions:  235000001 cycles:  194968666 heartbeat IPC: 1.04650 cumulative IPC: 1.04507 (Simulation time: 0 hr 8 min 36 sec) 
Heartbeat CPU  0 instructions:  236000000 cycles:  195928771 heartbeat IPC: 1.04155 cumulative IPC: 1.04504 (Simulation time: 0 hr 8 min 38 sec) 
Heartbeat CPU  0 instructions:  237000000 cycles:  196884622 heartbeat IPC: 1.04619 cumulative IPC: 1.04505 (Simulation time: 0 hr 8 min 40 sec) 
Heartbeat CPU  0 instructions:  238000000 cycles:  197833922 heartbeat IPC: 1.05341 cumulative IPC: 1.04511 (Simulation time: 0 hr 8 min 43 sec) 
Heartbeat CPU  0 instructions:  239000001 cycles:  198795087 heartbeat IPC: 1.04041 cumulative IPC: 1.04507 (Simulation time: 0 hr 8 min 45 sec) 
Heartbeat CPU  0 instructions:  240000000 cycles:  199752800 heartbeat IPC: 1.04415 cumulative IPC: 1.04507 (Simulation time: 0 hr 8 min 47 sec) 
Heartbeat CPU  0 instructions:  241000000 cycles:  200703924 heartbeat IPC: 1.05139 cumulative IPC: 1.04511 (Simulation time: 0 hr 8 min 50 sec) 
Heartbeat CPU  0 instructions:  242000003 cycles:  201660710 heartbeat IPC: 1.04517 cumulative IPC: 1.04511 (Simulation time: 0 hr 8 min 52 sec) 
Heartbeat CPU  0 instructions:  243000000 cycles:  202613602 heartbeat IPC: 1.04943 cumulative IPC: 1.04514 (Simulation time: 0 hr 8 min 54 sec) 
Heartbeat CPU  0 instructions:  244000000 cycles:  203571673 heartbeat IPC: 1.04376 cumulative IPC: 1.04513 (Simulation time: 0 hr 8 min 56 sec) 
Heartbeat CPU  0 instructions:  245000001 cycles:  204527162 heartbeat IPC: 1.04659 cumulative IPC: 1.04514 (Simulation time: 0 hr 8 min 59 sec) 
Heartbeat CPU  0 instructions:  246000001 cycles:  205481398 heartbeat IPC: 1.04796 cumulative IPC: 1.04516 (Simulation time: 0 hr 9 min 1 sec) 
Heartbeat CPU  0 instructions:  247000001 cycles:  206438460 heartbeat IPC: 1.04486 cumulative IPC: 1.04516 (Simulation time: 0 hr 9 min 3 sec) 
Heartbeat CPU  0 instructions:  248000000 cycles:  207389970 heartbeat IPC: 1.05096 cumulative IPC: 1.04520 (Simulation time: 0 hr 9 min 6 sec) 
Heartbeat CPU  0 instructions:  249000003 cycles:  208348269 heartbeat IPC: 1.04352 cumulative IPC: 1.04519 (Simulation time: 0 hr 9 min 8 sec) 
Heartbeat CPU  0 instructions:  250000001 cycles:  209308230 heartbeat IPC: 1.04171 cumulative IPC: 1.04517 (Simulation time: 0 hr 9 min 10 sec) 
Heartbeat CPU  0 instructions:  251000000 cycles:  210262077 heartbeat IPC: 1.04839 cumulative IPC: 1.04519 (Simulation time: 0 hr 9 min 13 sec) 
Heartbeat CPU  0 instructions:  252000000 cycles:  211217028 heartbeat IPC: 1.04717 cumulative IPC: 1.04520 (Simulation time: 0 hr 9 min 15 sec) 
Heartbeat CPU  0 instructions:  253000000 cycles:  212171009 heartbeat IPC: 1.04824 cumulative IPC: 1.04522 (Simulation time: 0 hr 9 min 17 sec) 
Heartbeat CPU  0 instructions:  254000001 cycles:  213127290 heartbeat IPC: 1.04572 cumulative IPC: 1.04522 (Simulation time: 0 hr 9 min 19 sec) 
Heartbeat CPU  0 instructions:  255000000 cycles:  214088345 heartbeat IPC: 1.04052 cumulative IPC: 1.04519 (Simulation time: 0 hr 9 min 22 sec) 
Heartbeat CPU  0 instructions:  256000000 cycles:  215046951 heartbeat IPC: 1.04318 cumulative IPC: 1.04518 (Simulation time: 0 hr 9 min 24 sec) 
Heartbeat CPU  0 instructions:  257000000 cycles:  216001326 heartbeat IPC: 1.04781 cumulative IPC: 1.04520 (Simulation time: 0 hr 9 min 26 sec) 
Heartbeat CPU  0 instructions:  258000003 cycles:  216958562 heartbeat IPC: 1.04468 cumulative IPC: 1.04519 (Simulation time: 0 hr 9 min 29 sec) 
Heartbeat CPU  0 instructions:  259000002 cycles:  217914761 heartbeat IPC: 1.04581 cumulative IPC: 1.04520 (Simulation time: 0 hr 9 min 31 sec) 
Heartbeat CPU  0 instructions:  260000000 cycles:  218871017 heartbeat IPC: 1.04574 cumulative IPC: 1.04520 (Simulation time: 0 hr 9 min 33 sec) 
Heartbeat CPU  0 instructions:  261000003 cycles:  219823052 heartbeat IPC: 1.05038 cumulative IPC: 1.04523 (Simulation time: 0 hr 9 min 36 sec) 
Heartbeat CPU  0 instructions:  262000000 cycles:  220782520 heartbeat IPC: 1.04224 cumulative IPC: 1.04521 (Simulation time: 0 hr 9 min 38 sec) 
Heartbeat CPU  0 instructions:  263000000 cycles:  221742985 heartbeat IPC: 1.04116 cumulative IPC: 1.04519 (Simulation time: 0 hr 9 min 40 sec) 
Heartbeat CPU  0 instructions:  264000000 cycles:  222697931 heartbeat IPC: 1.04718 cumulative IPC: 1.04520 (Simulation time: 0 hr 9 min 42 sec) 
Heartbeat CPU  0 instructions:  265000001 cycles:  223650606 heartbeat IPC: 1.04968 cumulative IPC: 1.04523 (Simulation time: 0 hr 9 min 45 sec) 
Heartbeat CPU  0 instructions:  266000003 cycles:  224606914 heartbeat IPC: 1.04569 cumulative IPC: 1.04523 (Simulation time: 0 hr 9 min 47 sec) 
Heartbeat CPU  0 instructions:  267000003 cycles:  225561271 heartbeat IPC: 1.04783 cumulative IPC: 1.04525 (Simulation time: 0 hr 9 min 49 sec) 
Heartbeat CPU  0 instructions:  268000000 cycles:  226512997 heartbeat IPC: 1.05072 cumulative IPC: 1.04528 (Simulation time: 0 hr 9 min 52 sec) 
Heartbeat CPU  0 instructions:  269000000 cycles:  227471240 heartbeat IPC: 1.04358 cumulative IPC: 1.04527 (Simulation time: 0 hr 9 min 54 sec) 
Heartbeat CPU  0 instructions:  270000001 cycles:  228431209 heartbeat IPC: 1.04170 cumulative IPC: 1.04525 (Simulation time: 0 hr 9 min 56 sec) 
Heartbeat CPU  0 instructions:  271000001 cycles:  229393347 heartbeat IPC: 1.03935 cumulative IPC: 1.04521 (Simulation time: 0 hr 9 min 59 sec) 
Heartbeat CPU  0 instructions:  272000000 cycles:  230357672 heartbeat IPC: 1.03699 cumulative IPC: 1.04516 (Simulation time: 0 hr 10 min 1 sec) 
Heartbeat CPU  0 instructions:  273000003 cycles:  231308535 heartbeat IPC: 1.05168 cumulative IPC: 1.04520 (Simulation time: 0 hr 10 min 3 sec) 
Heartbeat CPU  0 instructions:  274000002 cycles:  232266774 heartbeat IPC: 1.04358 cumulative IPC: 1.04519 (Simulation time: 0 hr 10 min 6 sec) 
Heartbeat CPU  0 instructions:  275000000 cycles:  233224188 heartbeat IPC: 1.04448 cumulative IPC: 1.04519 (Simulation time: 0 hr 10 min 8 sec) 
Heartbeat CPU  0 instructions:  276000000 cycles:  234177212 heartbeat IPC: 1.04929 cumulative IPC: 1.04521 (Simulation time: 0 hr 10 min 10 sec) 
Heartbeat CPU  0 instructions:  277000002 cycles:  235140799 heartbeat IPC: 1.03779 cumulative IPC: 1.04517 (Simulation time: 0 hr 10 min 12 sec) 
Heartbeat CPU  0 instructions:  278000002 cycles:  236093722 heartbeat IPC: 1.04940 cumulative IPC: 1.04519 (Simulation time: 0 hr 10 min 15 sec) 
Heartbeat CPU  0 instructions:  279000001 cycles:  237057962 heartbeat IPC: 1.03709 cumulative IPC: 1.04515 (Simulation time: 0 hr 10 min 17 sec) 
Heartbeat CPU  0 instructions:  280000000 cycles:  238013939 heartbeat IPC: 1.04605 cumulative IPC: 1.04515 (Simulation time: 0 hr 10 min 19 sec) 
Heartbeat CPU  0 instructions:  281000000 cycles:  238975463 heartbeat IPC: 1.04002 cumulative IPC: 1.04512 (Simulation time: 0 hr 10 min 22 sec) 
Heartbeat CPU  0 instructions:  282000000 cycles:  239927332 heartbeat IPC: 1.05056 cumulative IPC: 1.04515 (Simulation time: 0 hr 10 min 24 sec) 
Heartbeat CPU  0 instructions:  283000003 cycles:  240881523 heartbeat IPC: 1.04801 cumulative IPC: 1.04517 (Simulation time: 0 hr 10 min 26 sec) 
Heartbeat CPU  0 instructions:  284000000 cycles:  241837428 heartbeat IPC: 1.04613 cumulative IPC: 1.04517 (Simulation time: 0 hr 10 min 29 sec) 
Heartbeat CPU  0 instructions:  285000000 cycles:  242792416 heartbeat IPC: 1.04713 cumulative IPC: 1.04518 (Simulation time: 0 hr 10 min 31 sec) 
Heartbeat CPU  0 instructions:  286000002 cycles:  243753348 heartbeat IPC: 1.04066 cumulative IPC: 1.04516 (Simulation time: 0 hr 10 min 33 sec) 
Heartbeat CPU  0 instructions:  287000000 cycles:  244709987 heartbeat IPC: 1.04532 cumulative IPC: 1.04516 (Simulation time: 0 hr 10 min 36 sec) 
Heartbeat CPU  0 instructions:  288000000 cycles:  245664631 heartbeat IPC: 1.04751 cumulative IPC: 1.04517 (Simulation time: 0 hr 10 min 38 sec) 
Heartbeat CPU  0 instructions:  289000001 cycles:  246627582 heartbeat IPC: 1.03848 cumulative IPC: 1.04514 (Simulation time: 0 hr 10 min 40 sec) 
Heartbeat CPU  0 instructions:  290000002 cycles:  247584044 heartbeat IPC: 1.04552 cumulative IPC: 1.04514 (Simulation time: 0 hr 10 min 42 sec) 
Heartbeat CPU  0 instructions:  291000002 cycles:  248544436 heartbeat IPC: 1.04124 cumulative IPC: 1.04512 (Simulation time: 0 hr 10 min 45 sec) 
Heartbeat CPU  0 instructions:  292000000 cycles:  249498189 heartbeat IPC: 1.04849 cumulative IPC: 1.04514 (Simulation time: 0 hr 10 min 47 sec) 
Heartbeat CPU  0 instructions:  293000001 cycles:  250449414 heartbeat IPC: 1.05128 cumulative IPC: 1.04517 (Simulation time: 0 hr 10 min 49 sec) 
Heartbeat CPU  0 instructions:  294000000 cycles:  251408698 heartbeat IPC: 1.04244 cumulative IPC: 1.04515 (Simulation time: 0 hr 10 min 52 sec) 
Heartbeat CPU  0 instructions:  295000003 cycles:  252369128 heartbeat IPC: 1.04120 cumulative IPC: 1.04513 (Simulation time: 0 hr 10 min 54 sec) 
Heartbeat CPU  0 instructions:  296000000 cycles:  253320151 heartbeat IPC: 1.05150 cumulative IPC: 1.04517 (Simulation time: 0 hr 10 min 56 sec) 
Heartbeat CPU  0 instructions:  297000001 cycles:  254274766 heartbeat IPC: 1.04754 cumulative IPC: 1.04518 (Simulation time: 0 hr 10 min 59 sec) 
Heartbeat CPU  0 instructions:  298000001 cycles:  255226702 heartbeat IPC: 1.05049 cumulative IPC: 1.04521 (Simulation time: 0 hr 11 min 1 sec) 
Heartbeat CPU  0 instructions:  299000000 cycles:  256176175 heartbeat IPC: 1.05321 cumulative IPC: 1.04525 (Simulation time: 0 hr 11 min 3 sec) 
Heartbeat CPU  0 instructions:  300000000 cycles:  257129781 heartbeat IPC: 1.04865 cumulative IPC: 1.04526 (Simulation time: 0 hr 11 min 6 sec) 
Heartbeat CPU  0 instructions:  301000000 cycles:  258086410 heartbeat IPC: 1.04534 cumulative IPC: 1.04526 (Simulation time: 0 hr 11 min 8 sec) 
Heartbeat CPU  0 instructions:  302000002 cycles:  259041973 heartbeat IPC: 1.04651 cumulative IPC: 1.04527 (Simulation time: 0 hr 11 min 10 sec) 
Heartbeat CPU  0 instructions:  303000000 cycles:  259992841 heartbeat IPC: 1.05167 cumulative IPC: 1.04530 (Simulation time: 0 hr 11 min 12 sec) 
Heartbeat CPU  0 instructions:  304000000 cycles:  260949682 heartbeat IPC: 1.04511 cumulative IPC: 1.04530 (Simulation time: 0 hr 11 min 15 sec) 
Heartbeat CPU  0 instructions:  305000001 cycles:  261904976 heartbeat IPC: 1.04680 cumulative IPC: 1.04531 (Simulation time: 0 hr 11 min 17 sec) 
Heartbeat CPU  0 instructions:  306000001 cycles:  262872044 heartbeat IPC: 1.03405 cumulative IPC: 1.04525 (Simulation time: 0 hr 11 min 19 sec) 
Heartbeat CPU  0 instructions:  307000002 cycles:  263830530 heartbeat IPC: 1.04331 cumulative IPC: 1.04524 (Simulation time: 0 hr 11 min 22 sec) 
Heartbeat CPU  0 instructions:  308000000 cycles:  264784274 heartbeat IPC: 1.04850 cumulative IPC: 1.04526 (Simulation time: 0 hr 11 min 24 sec) 
Heartbeat CPU  0 instructions:  309000002 cycles:  265744697 heartbeat IPC: 1.04121 cumulative IPC: 1.04524 (Simulation time: 0 hr 11 min 26 sec) 
Heartbeat CPU  0 instructions:  310000000 cycles:  266700609 heartbeat IPC: 1.04612 cumulative IPC: 1.04524 (Simulation time: 0 hr 11 min 29 sec) 
Heartbeat CPU  0 instructions:  311000002 cycles:  267650491 heartbeat IPC: 1.05276 cumulative IPC: 1.04528 (Simulation time: 0 hr 11 min 31 sec) 
Heartbeat CPU  0 instructions:  312000000 cycles:  268616378 heartbeat IPC: 1.03532 cumulative IPC: 1.04523 (Simulation time: 0 hr 11 min 33 sec) 
Heartbeat CPU  0 instructions:  313000003 cycles:  269580201 heartbeat IPC: 1.03754 cumulative IPC: 1.04519 (Simulation time: 0 hr 11 min 36 sec) 
Heartbeat CPU  0 instructions:  314000002 cycles:  270534841 heartbeat IPC: 1.04751 cumulative IPC: 1.04520 (Simulation time: 0 hr 11 min 38 sec) 
Heartbeat CPU  0 instructions:  315000000 cycles:  271496487 heartbeat IPC: 1.03988 cumulative IPC: 1.04518 (Simulation time: 0 hr 11 min 40 sec) 
Heartbeat CPU  0 instructions:  316000000 cycles:  272446225 heartbeat IPC: 1.05292 cumulative IPC: 1.04522 (Simulation time: 0 hr 11 min 43 sec) 
Heartbeat CPU  0 instructions:  317000001 cycles:  273410538 heartbeat IPC: 1.03701 cumulative IPC: 1.04518 (Simulation time: 0 hr 11 min 45 sec) 
Heartbeat CPU  0 instructions:  318000001 cycles:  274374767 heartbeat IPC: 1.03710 cumulative IPC: 1.04514 (Simulation time: 0 hr 11 min 47 sec) 
Heartbeat CPU  0 instructions:  319000000 cycles:  275334197 heartbeat IPC: 1.04228 cumulative IPC: 1.04513 (Simulation time: 0 hr 11 min 49 sec) 
Heartbeat CPU  0 instructions:  320000000 cycles:  276288941 heartbeat IPC: 1.04740 cumulative IPC: 1.04514 (Simulation time: 0 hr 11 min 52 sec) 
Heartbeat CPU  0 instructions:  321000000 cycles:  277244319 heartbeat IPC: 1.04671 cumulative IPC: 1.04514 (Simulation time: 0 hr 11 min 54 sec) 
Heartbeat CPU  0 instructions:  322000000 cycles:  278194931 heartbeat IPC: 1.05195 cumulative IPC: 1.04517 (Simulation time: 0 hr 11 min 56 sec) 
Heartbeat CPU  0 instructions:  323000002 cycles:  279153255 heartbeat IPC: 1.04349 cumulative IPC: 1.04517 (Simulation time: 0 hr 11 min 59 sec) 
Heartbeat CPU  0 instructions:  324000000 cycles:  280109778 heartbeat IPC: 1.04545 cumulative IPC: 1.04517 (Simulation time: 0 hr 12 min 1 sec) 
Heartbeat CPU  0 instructions:  325000002 cycles:  281070246 heartbeat IPC: 1.04116 cumulative IPC: 1.04515 (Simulation time: 0 hr 12 min 3 sec) 
Heartbeat CPU  0 instructions:  326000001 cycles:  282024880 heartbeat IPC: 1.04752 cumulative IPC: 1.04516 (Simulation time: 0 hr 12 min 6 sec) 
Heartbeat CPU  0 instructions:  327000000 cycles:  282982288 heartbeat IPC: 1.04449 cumulative IPC: 1.04516 (Simulation time: 0 hr 12 min 8 sec) 
Heartbeat CPU  0 instructions:  328000000 cycles:  283943104 heartbeat IPC: 1.04078 cumulative IPC: 1.04514 (Simulation time: 0 hr 12 min 10 sec) 
Heartbeat CPU  0 instructions:  329000003 cycles:  284894622 heartbeat IPC: 1.05096 cumulative IPC: 1.04516 (Simulation time: 0 hr 12 min 13 sec) 
Heartbeat CPU  0 instructions:  330000000 cycles:  285849169 heartbeat IPC: 1.04761 cumulative IPC: 1.04517 (Simulation time: 0 hr 12 min 15 sec) 
Heartbeat CPU  0 instructions:  331000000 cycles:  286806384 heartbeat IPC: 1.04470 cumulative IPC: 1.04517 (Simulation time: 0 hr 12 min 17 sec) 
Heartbeat CPU  0 instructions:  332000000 cycles:  287761514 heartbeat IPC: 1.04698 cumulative IPC: 1.04518 (Simulation time: 0 hr 12 min 19 sec) 
Heartbeat CPU  0 instructions:  333000002 cycles:  288718272 heartbeat IPC: 1.04520 cumulative IPC: 1.04518 (Simulation time: 0 hr 12 min 22 sec) 
Heartbeat CPU  0 instructions:  334000003 cycles:  289670988 heartbeat IPC: 1.04963 cumulative IPC: 1.04520 (Simulation time: 0 hr 12 min 24 sec) 
Heartbeat CPU  0 instructions:  335000000 cycles:  290628254 heartbeat IPC: 1.04464 cumulative IPC: 1.04520 (Simulation time: 0 hr 12 min 26 sec) 
Heartbeat CPU  0 instructions:  336000000 cycles:  291587835 heartbeat IPC: 1.04212 cumulative IPC: 1.04518 (Simulation time: 0 hr 12 min 29 sec) 
Heartbeat CPU  0 instructions:  337000001 cycles:  292549948 heartbeat IPC: 1.03938 cumulative IPC: 1.04516 (Simulation time: 0 hr 12 min 31 sec) 
Heartbeat CPU  0 instructions:  338000003 cycles:  293507339 heartbeat IPC: 1.04451 cumulative IPC: 1.04516 (Simulation time: 0 hr 12 min 33 sec) 
Heartbeat CPU  0 instructions:  339000001 cycles:  294463006 heartbeat IPC: 1.04639 cumulative IPC: 1.04516 (Simulation time: 0 hr 12 min 36 sec) 
Heartbeat CPU  0 instructions:  340000000 cycles:  295418383 heartbeat IPC: 1.04671 cumulative IPC: 1.04517 (Simulation time: 0 hr 12 min 38 sec) 
Heartbeat CPU  0 instructions:  341000001 cycles:  296374915 heartbeat IPC: 1.04544 cumulative IPC: 1.04517 (Simulation time: 0 hr 12 min 40 sec) 
Heartbeat CPU  0 instructions:  342000003 cycles:  297324968 heartbeat IPC: 1.05257 cumulative IPC: 1.04520 (Simulation time: 0 hr 12 min 43 sec) 
Heartbeat CPU  0 instructions:  343000002 cycles:  298284761 heartbeat IPC: 1.04189 cumulative IPC: 1.04519 (Simulation time: 0 hr 12 min 45 sec) 
Heartbeat CPU  0 instructions:  344000000 cycles:  299235812 heartbeat IPC: 1.05147 cumulative IPC: 1.04521 (Simulation time: 0 hr 12 min 47 sec) 
Heartbeat CPU  0 instructions:  345000001 cycles:  300380604 heartbeat IPC: 0.87352 cumulative IPC: 1.04437 (Simulation time: 0 hr 12 min 49 sec) 
Heartbeat CPU  0 instructions:  346000001 cycles:  301154469 heartbeat IPC: 1.29222 cumulative IPC: 1.04519 (Simulation time: 0 hr 12 min 51 sec) 
Heartbeat CPU  0 instructions:  347000001 cycles:  301928661 heartbeat IPC: 1.29167 cumulative IPC: 1.04600 (Simulation time: 0 hr 12 min 52 sec) 
Heartbeat CPU  0 instructions:  348000000 cycles:  302703072 heartbeat IPC: 1.29130 cumulative IPC: 1.04680 (Simulation time: 0 hr 12 min 54 sec) 
Heartbeat CPU  0 instructions:  349000002 cycles:  303477056 heartbeat IPC: 1.29202 cumulative IPC: 1.04760 (Simulation time: 0 hr 12 min 56 sec) 
Heartbeat CPU  0 instructions:  350000002 cycles:  304251217 heartbeat IPC: 1.29172 cumulative IPC: 1.04839 (Simulation time: 0 hr 12 min 57 sec) 
Heartbeat CPU  0 instructions:  351000001 cycles:  305025788 heartbeat IPC: 1.29104 cumulative IPC: 1.04918 (Simulation time: 0 hr 12 min 59 sec) 
Heartbeat CPU  0 instructions:  352000000 cycles:  305799829 heartbeat IPC: 1.29192 cumulative IPC: 1.04996 (Simulation time: 0 hr 13 min 1 sec) 
Heartbeat CPU  0 instructions:  353000003 cycles:  306573673 heartbeat IPC: 1.29225 cumulative IPC: 1.05074 (Simulation time: 0 hr 13 min 2 sec) 
Heartbeat CPU  0 instructions:  354000000 cycles:  307348128 heartbeat IPC: 1.29123 cumulative IPC: 1.05151 (Simulation time: 0 hr 13 min 4 sec) 
Heartbeat CPU  0 instructions:  355000002 cycles:  308122727 heartbeat IPC: 1.29099 cumulative IPC: 1.05227 (Simulation time: 0 hr 13 min 6 sec) 
Heartbeat CPU  0 instructions:  356000000 cycles:  308896999 heartbeat IPC: 1.29153 cumulative IPC: 1.05304 (Simulation time: 0 hr 13 min 7 sec) 
Heartbeat CPU  0 instructions:  357000003 cycles:  309671085 heartbeat IPC: 1.29185 cumulative IPC: 1.05379 (Simulation time: 0 hr 13 min 9 sec) 
Heartbeat CPU  0 instructions:  358000003 cycles:  310440443 heartbeat IPC: 1.29979 cumulative IPC: 1.05457 (Simulation time: 0 hr 13 min 11 sec) 
Heartbeat CPU  0 instructions:  359000003 cycles:  311241907 heartbeat IPC: 1.24772 cumulative IPC: 1.05520 (Simulation time: 0 hr 13 min 12 sec) 
Heartbeat CPU  0 instructions:  360000000 cycles:  311916139 heartbeat IPC: 1.48316 cumulative IPC: 1.05637 (Simulation time: 0 hr 13 min 14 sec) 
Heartbeat CPU  0 instructions:  361000003 cycles:  312602045 heartbeat IPC: 1.45793 cumulative IPC: 1.05749 (Simulation time: 0 hr 13 min 16 sec) 
Heartbeat CPU  0 instructions:  362000003 cycles:  313285920 heartbeat IPC: 1.46226 cumulative IPC: 1.05860 (Simulation time: 0 hr 13 min 17 sec) 
Heartbeat CPU  0 instructions:  363000000 cycles:  313969305 heartbeat IPC: 1.46330 cumulative IPC: 1.05972 (Simulation time: 0 hr 13 min 19 sec) 
Heartbeat CPU  0 instructions:  364000000 cycles:  314655990 heartbeat IPC: 1.45627 cumulative IPC: 1.06081 (Simulation time: 0 hr 13 min 21 sec) 
Heartbeat CPU  0 instructions:  365000000 cycles:  315341723 heartbeat IPC: 1.45829 cumulative IPC: 1.06191 (Simulation time: 0 hr 13 min 22 sec) 
Heartbeat CPU  0 instructions:  366000003 cycles:  316026639 heartbeat IPC: 1.46004 cumulative IPC: 1.06299 (Simulation time: 0 hr 13 min 24 sec) 
Heartbeat CPU  0 instructions:  367000003 cycles:  316712416 heartbeat IPC: 1.45820 cumulative IPC: 1.06407 (Simulation time: 0 hr 13 min 26 sec) 
Heartbeat CPU  0 instructions:  368000000 cycles:  317395769 heartbeat IPC: 1.46337 cumulative IPC: 1.06516 (Simulation time: 0 hr 13 min 28 sec) 
Heartbeat CPU  0 instructions:  369000002 cycles:  318080110 heartbeat IPC: 1.46126 cumulative IPC: 1.06623 (Simulation time: 0 hr 13 min 29 sec) 
Heartbeat CPU  0 instructions:  370000002 cycles:  318763748 heartbeat IPC: 1.46276 cumulative IPC: 1.06731 (Simulation time: 0 hr 13 min 31 sec) 
Heartbeat CPU  0 instructions:  371000000 cycles:  319449295 heartbeat IPC: 1.45869 cumulative IPC: 1.06836 (Simulation time: 0 hr 13 min 33 sec) 
Heartbeat CPU  0 instructions:  372000000 cycles:  320133110 heartbeat IPC: 1.46238 cumulative IPC: 1.06942 (Simulation time: 0 hr 13 min 35 sec) 
Heartbeat CPU  0 instructions:  373000003 cycles:  320817242 heartbeat IPC: 1.46171 cumulative IPC: 1.07047 (Simulation time: 0 hr 13 min 36 sec) 
Heartbeat CPU  0 instructions:  374000003 cycles:  321501295 heartbeat IPC: 1.46188 cumulative IPC: 1.07152 (Simulation time: 0 hr 13 min 38 sec) 
Heartbeat CPU  0 instructions:  375000000 cycles:  322185035 heartbeat IPC: 1.46254 cumulative IPC: 1.07256 (Simulation time: 0 hr 13 min 40 sec) 
Heartbeat CPU  0 instructions:  376000000 cycles:  322868839 heartbeat IPC: 1.46241 cumulative IPC: 1.07360 (Simulation time: 0 hr 13 min 41 sec) 
Heartbeat CPU  0 instructions:  377000001 cycles:  323864091 heartbeat IPC: 1.00477 cumulative IPC: 1.07334 (Simulation time: 0 hr 13 min 44 sec) 
Heartbeat CPU  0 instructions:  378000001 cycles:  324821369 heartbeat IPC: 1.04463 cumulative IPC: 1.07323 (Simulation time: 0 hr 13 min 46 sec) 
Heartbeat CPU  0 instructions:  379000000 cycles:  325764347 heartbeat IPC: 1.06047 cumulative IPC: 1.07318 (Simulation time: 0 hr 13 min 48 sec) 
Heartbeat CPU  0 instructions:  380000000 cycles:  326707801 heartbeat IPC: 1.05994 cumulative IPC: 1.07314 (Simulation time: 0 hr 13 min 51 sec) 
Heartbeat CPU  0 instructions:  381000003 cycles:  327652908 heartbeat IPC: 1.05808 cumulative IPC: 1.07308 (Simulation time: 0 hr 13 min 53 sec) 
Heartbeat CPU  0 instructions:  382000000 cycles:  328599883 heartbeat IPC: 1.05599 cumulative IPC: 1.07302 (Simulation time: 0 hr 13 min 55 sec) 
Heartbeat CPU  0 instructions:  383000000 cycles:  329557562 heartbeat IPC: 1.04419 cumulative IPC: 1.07292 (Simulation time: 0 hr 13 min 58 sec) 
Heartbeat CPU  0 instructions:  384000000 cycles:  330508085 heartbeat IPC: 1.05205 cumulative IPC: 1.07284 (Simulation time: 0 hr 14 min 0 sec) 
Heartbeat CPU  0 instructions:  385000000 cycles:  331462429 heartbeat IPC: 1.04784 cumulative IPC: 1.07275 (Simulation time: 0 hr 14 min 2 sec) 
Heartbeat CPU  0 instructions:  386000000 cycles:  332417442 heartbeat IPC: 1.04711 cumulative IPC: 1.07266 (Simulation time: 0 hr 14 min 5 sec) 
Heartbeat CPU  0 instructions:  387000003 cycles:  333370793 heartbeat IPC: 1.04893 cumulative IPC: 1.07257 (Simulation time: 0 hr 14 min 7 sec) 
Heartbeat CPU  0 instructions:  388000000 cycles:  334326895 heartbeat IPC: 1.04591 cumulative IPC: 1.07248 (Simulation time: 0 hr 14 min 9 sec) 
Heartbeat CPU  0 instructions:  389000000 cycles:  335278251 heartbeat IPC: 1.05113 cumulative IPC: 1.07240 (Simulation time: 0 hr 14 min 12 sec) 
Heartbeat CPU  0 instructions:  390000000 cycles:  336234025 heartbeat IPC: 1.04627 cumulative IPC: 1.07231 (Simulation time: 0 hr 14 min 14 sec) 
Heartbeat CPU  0 instructions:  391000001 cycles:  337188292 heartbeat IPC: 1.04793 cumulative IPC: 1.07223 (Simulation time: 0 hr 14 min 16 sec) 
Heartbeat CPU  0 instructions:  392000000 cycles:  338135952 heartbeat IPC: 1.05523 cumulative IPC: 1.07217 (Simulation time: 0 hr 14 min 18 sec) 
Heartbeat CPU  0 instructions:  393000000 cycles:  339089987 heartbeat IPC: 1.04818 cumulative IPC: 1.07208 (Simulation time: 0 hr 14 min 21 sec) 
Heartbeat CPU  0 instructions:  394000000 cycles:  340048901 heartbeat IPC: 1.04285 cumulative IPC: 1.07198 (Simulation time: 0 hr 14 min 23 sec) 
Heartbeat CPU  0 instructions:  395000000 cycles:  341012223 heartbeat IPC: 1.03807 cumulative IPC: 1.07186 (Simulation time: 0 hr 14 min 25 sec) 
Heartbeat CPU  0 instructions:  396000000 cycles:  341968398 heartbeat IPC: 1.04583 cumulative IPC: 1.07177 (Simulation time: 0 hr 14 min 28 sec) 
Heartbeat CPU  0 instructions:  397000001 cycles:  342925396 heartbeat IPC: 1.04494 cumulative IPC: 1.07168 (Simulation time: 0 hr 14 min 30 sec) 
Heartbeat CPU  0 instructions:  398000000 cycles:  343885245 heartbeat IPC: 1.04183 cumulative IPC: 1.07158 (Simulation time: 0 hr 14 min 32 sec) 
Heartbeat CPU  0 instructions:  399000000 cycles:  344842310 heartbeat IPC: 1.04486 cumulative IPC: 1.07148 (Simulation time: 0 hr 14 min 35 sec) 
Heartbeat CPU  0 instructions:  400000000 cycles:  345796564 heartbeat IPC: 1.04794 cumulative IPC: 1.07140 (Simulation time: 0 hr 14 min 37 sec) 
Heartbeat CPU  0 instructions:  401000003 cycles:  346756287 heartbeat IPC: 1.04197 cumulative IPC: 1.07130 (Simulation time: 0 hr 14 min 39 sec) 
Heartbeat CPU  0 instructions:  402000003 cycles:  347715592 heartbeat IPC: 1.04242 cumulative IPC: 1.07121 (Simulation time: 0 hr 14 min 41 sec) 
Heartbeat CPU  0 instructions:  403000000 cycles:  348677836 heartbeat IPC: 1.03923 cumulative IPC: 1.07110 (Simulation time: 0 hr 14 min 44 sec) 
Heartbeat CPU  0 instructions:  404000000 cycles:  349637694 heartbeat IPC: 1.04182 cumulative IPC: 1.07100 (Simulation time: 0 hr 14 min 46 sec) 
Heartbeat CPU  0 instructions:  405000000 cycles:  350595585 heartbeat IPC: 1.04396 cumulative IPC: 1.07091 (Simulation time: 0 hr 14 min 48 sec) 
Heartbeat CPU  0 instructions:  406000000 cycles:  351551686 heartbeat IPC: 1.04591 cumulative IPC: 1.07082 (Simulation time: 0 hr 14 min 51 sec) 
Heartbeat CPU  0 instructions:  407000002 cycles:  352521716 heartbeat IPC: 1.03090 cumulative IPC: 1.07069 (Simulation time: 0 hr 14 min 53 sec) 
Heartbeat CPU  0 instructions:  408000000 cycles:  353481575 heartbeat IPC: 1.04182 cumulative IPC: 1.07059 (Simulation time: 0 hr 14 min 55 sec) 
Heartbeat CPU  0 instructions:  409000002 cycles:  354446524 heartbeat IPC: 1.03633 cumulative IPC: 1.07048 (Simulation time: 0 hr 14 min 58 sec) 
Heartbeat CPU  0 instructions:  410000001 cycles:  355411302 heartbeat IPC: 1.03651 cumulative IPC: 1.07036 (Simulation time: 0 hr 15 min 0 sec) 
Heartbeat CPU  0 instructions:  411000000 cycles:  356365428 heartbeat IPC: 1.04808 cumulative IPC: 1.07029 (Simulation time: 0 hr 15 min 2 sec) 
Heartbeat CPU  0 instructions:  412000000 cycles:  357329566 heartbeat IPC: 1.03720 cumulative IPC: 1.07018 (Simulation time: 0 hr 15 min 5 sec) 
Heartbeat CPU  0 instructions:  413000001 cycles:  358284756 heartbeat IPC: 1.04691 cumulative IPC: 1.07011 (Simulation time: 0 hr 15 min 7 sec) 
Heartbeat CPU  0 instructions:  414000000 cycles:  359237056 heartbeat IPC: 1.05009 cumulative IPC: 1.07004 (Simulation time: 0 hr 15 min 9 sec) 
Heartbeat CPU  0 instructions:  415000002 cycles:  360193069 heartbeat IPC: 1.04601 cumulative IPC: 1.06996 (Simulation time: 0 hr 15 min 11 sec) 
Heartbeat CPU  0 instructions:  416000000 cycles:  361156292 heartbeat IPC: 1.03818 cumulative IPC: 1.06986 (Simulation time: 0 hr 15 min 14 sec) 
Heartbeat CPU  0 instructions:  417000000 cycles:  362116185 heartbeat IPC: 1.04178 cumulative IPC: 1.06977 (Simulation time: 0 hr 15 min 16 sec) 
Heartbeat CPU  0 instructions:  418000002 cycles:  363071907 heartbeat IPC: 1.04633 cumulative IPC: 1.06969 (Simulation time: 0 hr 15 min 18 sec) 
Heartbeat CPU  0 instructions:  419000002 cycles:  364034133 heartbeat IPC: 1.03926 cumulative IPC: 1.06959 (Simulation time: 0 hr 15 min 21 sec) 
Heartbeat CPU  0 instructions:  420000000 cycles:  364992339 heartbeat IPC: 1.04361 cumulative IPC: 1.06951 (Simulation time: 0 hr 15 min 23 sec) 
Heartbeat CPU  0 instructions:  421000001 cycles:  365941170 heartbeat IPC: 1.05393 cumulative IPC: 1.06946 (Simulation time: 0 hr 15 min 25 sec) 
Heartbeat CPU  0 instructions:  422000001 cycles:  366907647 heartbeat IPC: 1.03469 cumulative IPC: 1.06935 (Simulation time: 0 hr 15 min 28 sec) 
Heartbeat CPU  0 instructions:  423000000 cycles:  367857744 heartbeat IPC: 1.05252 cumulative IPC: 1.06930 (Simulation time: 0 hr 15 min 30 sec) 
Heartbeat CPU  0 instructions:  424000000 cycles:  368814311 heartbeat IPC: 1.04541 cumulative IPC: 1.06922 (Simulation time: 0 hr 15 min 32 sec) 
Heartbeat CPU  0 instructions:  425000002 cycles:  369772249 heartbeat IPC: 1.04391 cumulative IPC: 1.06914 (Simulation time: 0 hr 15 min 35 sec) 
Heartbeat CPU  0 instructions:  426000003 cycles:  370730141 heartbeat IPC: 1.04396 cumulative IPC: 1.06906 (Simulation time: 0 hr 15 min 37 sec) 
Heartbeat CPU  0 instructions:  427000002 cycles:  371683307 heartbeat IPC: 1.04913 cumulative IPC: 1.06900 (Simulation time: 0 hr 15 min 39 sec) 
Heartbeat CPU  0 instructions:  428000000 cycles:  372636673 heartbeat IPC: 1.04891 cumulative IPC: 1.06894 (Simulation time: 0 hr 15 min 42 sec) 
Heartbeat CPU  0 instructions:  429000000 cycles:  373596551 heartbeat IPC: 1.04180 cumulative IPC: 1.06885 (Simulation time: 0 hr 15 min 44 sec) 
Heartbeat CPU  0 instructions:  430000002 cycles:  374554071 heartbeat IPC: 1.04437 cumulative IPC: 1.06878 (Simulation time: 0 hr 15 min 46 sec) 
Heartbeat CPU  0 instructions:  431000001 cycles:  375512146 heartbeat IPC: 1.04376 cumulative IPC: 1.06870 (Simulation time: 0 hr 15 min 48 sec) 
Heartbeat CPU  0 instructions:  432000000 cycles:  376462000 heartbeat IPC: 1.05279 cumulative IPC: 1.06865 (Simulation time: 0 hr 15 min 51 sec) 
Heartbeat CPU  0 instructions:  433000002 cycles:  377418649 heartbeat IPC: 1.04532 cumulative IPC: 1.06858 (Simulation time: 0 hr 15 min 53 sec) 
Heartbeat CPU  0 instructions:  434000003 cycles:  378375630 heartbeat IPC: 1.04495 cumulative IPC: 1.06851 (Simulation time: 0 hr 15 min 55 sec) 
Heartbeat CPU  0 instructions:  435000001 cycles:  379337743 heartbeat IPC: 1.03938 cumulative IPC: 1.06842 (Simulation time: 0 hr 15 min 58 sec) 
Heartbeat CPU  0 instructions:  436000000 cycles:  380293539 heartbeat IPC: 1.04625 cumulative IPC: 1.06835 (Simulation time: 0 hr 16 min 0 sec) 
Heartbeat CPU  0 instructions:  437000001 cycles:  381253721 heartbeat IPC: 1.04147 cumulative IPC: 1.06827 (Simulation time: 0 hr 16 min 2 sec) 
Heartbeat CPU  0 instructions:  438000001 cycles:  382209394 heartbeat IPC: 1.04638 cumulative IPC: 1.06820 (Simulation time: 0 hr 16 min 5 sec) 
Heartbeat CPU  0 instructions:  439000001 cycles:  383161876 heartbeat IPC: 1.04989 cumulative IPC: 1.06815 (Simulation time: 0 hr 16 min 7 sec) 
Heartbeat CPU  0 instructions:  440000000 cycles:  384122103 heartbeat IPC: 1.04142 cumulative IPC: 1.06807 (Simulation time: 0 hr 16 min 9 sec) 
Heartbeat CPU  0 instructions:  441000000 cycles:  385079586 heartbeat IPC: 1.04440 cumulative IPC: 1.06800 (Simulation time: 0 hr 16 min 11 sec) 
Heartbeat CPU  0 instructions:  442000001 cycles:  386041440 heartbeat IPC: 1.03966 cumulative IPC: 1.06791 (Simulation time: 0 hr 16 min 14 sec) 
Heartbeat CPU  0 instructions:  443000001 cycles:  387006656 heartbeat IPC: 1.03604 cumulative IPC: 1.06782 (Simulation time: 0 hr 16 min 16 sec) 
Heartbeat CPU  0 instructions:  444000000 cycles:  387965752 heartbeat IPC: 1.04265 cumulative IPC: 1.06774 (Simulation time: 0 hr 16 min 18 sec) 
Heartbeat CPU  0 instructions:  445000000 cycles:  388933171 heartbeat IPC: 1.03368 cumulative IPC: 1.06764 (Simulation time: 0 hr 16 min 21 sec) 
Heartbeat CPU  0 instructions:  446000002 cycles:  389886702 heartbeat IPC: 1.04874 cumulative IPC: 1.06758 (Simulation time: 0 hr 16 min 23 sec) 
Heartbeat CPU  0 instructions:  447000000 cycles:  390847494 heartbeat IPC: 1.04081 cumulative IPC: 1.06750 (Simulation time: 0 hr 16 min 25 sec) 
Heartbeat CPU  0 instructions:  448000000 cycles:  391800415 heartbeat IPC: 1.04940 cumulative IPC: 1.06745 (Simulation time: 0 hr 16 min 28 sec) 
Heartbeat CPU  0 instructions:  449000001 cycles:  392763449 heartbeat IPC: 1.03839 cumulative IPC: 1.06737 (Simulation time: 0 hr 16 min 30 sec) 
Heartbeat CPU  0 instructions:  450000001 cycles:  393720217 heartbeat IPC: 1.04519 cumulative IPC: 1.06730 (Simulation time: 0 hr 16 min 32 sec) 
Heartbeat CPU  0 instructions:  451000002 cycles:  394670723 heartbeat IPC: 1.05207 cumulative IPC: 1.06726 (Simulation time: 0 hr 16 min 35 sec) 
Heartbeat CPU  0 instructions:  452000000 cycles:  395628015 heartbeat IPC: 1.04461 cumulative IPC: 1.06719 (Simulation time: 0 hr 16 min 37 sec) 
Heartbeat CPU  0 instructions:  453000001 cycles:  396590026 heartbeat IPC: 1.03949 cumulative IPC: 1.06711 (Simulation time: 0 hr 16 min 39 sec) 
Heartbeat CPU  0 instructions:  454000000 cycles:  397545794 heartbeat IPC: 1.04628 cumulative IPC: 1.06705 (Simulation time: 0 hr 16 min 42 sec) 
Heartbeat CPU  0 instructions:  455000003 cycles:  398496464 heartbeat IPC: 1.05189 cumulative IPC: 1.06701 (Simulation time: 0 hr 16 min 44 sec) 
Heartbeat CPU  0 instructions:  456000000 cycles:  399454648 heartbeat IPC: 1.04364 cumulative IPC: 1.06694 (Simulation time: 0 hr 16 min 46 sec) 
Heartbeat CPU  0 instructions:  457000000 cycles:  400412673 heartbeat IPC: 1.04381 cumulative IPC: 1.06687 (Simulation time: 0 hr 16 min 49 sec) 
Heartbeat CPU  0 instructions:  458000003 cycles:  401373996 heartbeat IPC: 1.04024 cumulative IPC: 1.06680 (Simulation time: 0 hr 16 min 51 sec) 
Heartbeat CPU  0 instructions:  459000002 cycles:  402334857 heartbeat IPC: 1.04073 cumulative IPC: 1.06672 (Simulation time: 0 hr 16 min 53 sec) 
Heartbeat CPU  0 instructions:  460000000 cycles:  403295063 heartbeat IPC: 1.04144 cumulative IPC: 1.06665 (Simulation time: 0 hr 16 min 55 sec) 
Heartbeat CPU  0 instructions:  461000000 cycles:  404251208 heartbeat IPC: 1.04587 cumulative IPC: 1.06659 (Simulation time: 0 hr 16 min 58 sec) 
Heartbeat CPU  0 instructions:  462000000 cycles:  405212626 heartbeat IPC: 1.04013 cumulative IPC: 1.06652 (Simulation time: 0 hr 17 min 0 sec) 
Heartbeat CPU  0 instructions:  463000000 cycles:  406167579 heartbeat IPC: 1.04717 cumulative IPC: 1.06646 (Simulation time: 0 hr 17 min 2 sec) 
Heartbeat CPU  0 instructions:  464000000 cycles:  407128672 heartbeat IPC: 1.04048 cumulative IPC: 1.06639 (Simulation time: 0 hr 17 min 5 sec) 
Heartbeat CPU  0 instructions:  465000001 cycles:  408083416 heartbeat IPC: 1.04740 cumulative IPC: 1.06634 (Simulation time: 0 hr 17 min 7 sec) 
Heartbeat CPU  0 instructions:  466000003 cycles:  409042827 heartbeat IPC: 1.04231 cumulative IPC: 1.06627 (Simulation time: 0 hr 17 min 9 sec) 
Heartbeat CPU  0 instructions:  467000002 cycles:  409994816 heartbeat IPC: 1.05043 cumulative IPC: 1.06623 (Simulation time: 0 hr 17 min 12 sec) 
Heartbeat CPU  0 instructions:  468000000 cycles:  410954691 heartbeat IPC: 1.04180 cumulative IPC: 1.06616 (Simulation time: 0 hr 17 min 14 sec) 
Heartbeat CPU  0 instructions:  469000000 cycles:  411909080 heartbeat IPC: 1.04779 cumulative IPC: 1.06611 (Simulation time: 0 hr 17 min 16 sec) 
Heartbeat CPU  0 instructions:  470000000 cycles:  412868640 heartbeat IPC: 1.04214 cumulative IPC: 1.06604 (Simulation time: 0 hr 17 min 19 sec) 
Heartbeat CPU  0 instructions:  471000003 cycles:  413819925 heartbeat IPC: 1.05121 cumulative IPC: 1.06600 (Simulation time: 0 hr 17 min 21 sec) 
Heartbeat CPU  0 instructions:  472000000 cycles:  414782237 heartbeat IPC: 1.03916 cumulative IPC: 1.06593 (Simulation time: 0 hr 17 min 23 sec) 
Heartbeat CPU  0 instructions:  473000000 cycles:  415735677 heartbeat IPC: 1.04883 cumulative IPC: 1.06588 (Simulation time: 0 hr 17 min 26 sec) 
Heartbeat CPU  0 instructions:  474000001 cycles:  416689501 heartbeat IPC: 1.04841 cumulative IPC: 1.06583 (Simulation time: 0 hr 17 min 28 sec) 
Heartbeat CPU  0 instructions:  475000000 cycles:  417645485 heartbeat IPC: 1.04604 cumulative IPC: 1.06578 (Simulation time: 0 hr 17 min 30 sec) 
Heartbeat CPU  0 instructions:  476000000 cycles:  418602202 heartbeat IPC: 1.04524 cumulative IPC: 1.06572 (Simulation time: 0 hr 17 min 32 sec) 
Heartbeat CPU  0 instructions:  477000002 cycles:  419560961 heartbeat IPC: 1.04302 cumulative IPC: 1.06566 (Simulation time: 0 hr 17 min 35 sec) 
Heartbeat CPU  0 instructions:  478000002 cycles:  420517710 heartbeat IPC: 1.04521 cumulative IPC: 1.06561 (Simulation time: 0 hr 17 min 37 sec) 
Heartbeat CPU  0 instructions:  479000001 cycles:  421473027 heartbeat IPC: 1.04677 cumulative IPC: 1.06556 (Simulation time: 0 hr 17 min 39 sec) 
Heartbeat CPU  0 instructions:  480000000 cycles:  422430535 heartbeat IPC: 1.04438 cumulative IPC: 1.06550 (Simulation time: 0 hr 17 min 42 sec) 
Heartbeat CPU  0 instructions:  481000002 cycles:  423385537 heartbeat IPC: 1.04712 cumulative IPC: 1.06545 (Simulation time: 0 hr 17 min 44 sec) 
Heartbeat CPU  0 instructions:  482000003 cycles:  424342220 heartbeat IPC: 1.04528 cumulative IPC: 1.06540 (Simulation time: 0 hr 17 min 46 sec) 
Heartbeat CPU  0 instructions:  483000002 cycles:  425309507 heartbeat IPC: 1.03382 cumulative IPC: 1.06531 (Simulation time: 0 hr 17 min 49 sec) 
Heartbeat CPU  0 instructions:  484000000 cycles:  426274849 heartbeat IPC: 1.03590 cumulative IPC: 1.06523 (Simulation time: 0 hr 17 min 51 sec) 
Heartbeat CPU  0 instructions:  485000003 cycles:  427231291 heartbeat IPC: 1.04554 cumulative IPC: 1.06518 (Simulation time: 0 hr 17 min 53 sec) 
Heartbeat CPU  0 instructions:  486000001 cycles:  428186985 heartbeat IPC: 1.04636 cumulative IPC: 1.06513 (Simulation time: 0 hr 17 min 56 sec) 
Heartbeat CPU  0 instructions:  487000002 cycles:  429146540 heartbeat IPC: 1.04215 cumulative IPC: 1.06507 (Simulation time: 0 hr 17 min 58 sec) 
Heartbeat CPU  0 instructions:  488000000 cycles:  430101567 heartbeat IPC: 1.04709 cumulative IPC: 1.06502 (Simulation time: 0 hr 18 min 0 sec) 
Heartbeat CPU  0 instructions:  489000003 cycles:  431060496 heartbeat IPC: 1.04283 cumulative IPC: 1.06497 (Simulation time: 0 hr 18 min 3 sec) 
Heartbeat CPU  0 instructions:  490000001 cycles:  432020715 heartbeat IPC: 1.04143 cumulative IPC: 1.06490 (Simulation time: 0 hr 18 min 5 sec) 
Heartbeat CPU  0 instructions:  491000000 cycles:  432979317 heartbeat IPC: 1.04318 cumulative IPC: 1.06485 (Simulation time: 0 hr 18 min 7 sec) 
Heartbeat CPU  0 instructions:  492000000 cycles:  433930019 heartbeat IPC: 1.05185 cumulative IPC: 1.06481 (Simulation time: 0 hr 18 min 9 sec) 
Heartbeat CPU  0 instructions:  493000001 cycles:  434889684 heartbeat IPC: 1.04203 cumulative IPC: 1.06475 (Simulation time: 0 hr 18 min 12 sec) 
Heartbeat CPU  0 instructions:  494000000 cycles:  435846728 heartbeat IPC: 1.04488 cumulative IPC: 1.06470 (Simulation time: 0 hr 18 min 14 sec) 
Heartbeat CPU  0 instructions:  495000003 cycles:  436805076 heartbeat IPC: 1.04347 cumulative IPC: 1.06465 (Simulation time: 0 hr 18 min 16 sec) 
Heartbeat CPU  0 instructions:  496000000 cycles:  437759949 heartbeat IPC: 1.04726 cumulative IPC: 1.06460 (Simulation time: 0 hr 18 min 19 sec) 
Heartbeat CPU  0 instructions:  497000001 cycles:  438718400 heartbeat IPC: 1.04335 cumulative IPC: 1.06455 (Simulation time: 0 hr 18 min 21 sec) 
Heartbeat CPU  0 instructions:  498000003 cycles:  439679802 heartbeat IPC: 1.04015 cumulative IPC: 1.06449 (Simulation time: 0 hr 18 min 23 sec) 
Heartbeat CPU  0 instructions:  499000001 cycles:  440637692 heartbeat IPC: 1.04396 cumulative IPC: 1.06443 (Simulation time: 0 hr 18 min 26 sec) 
Heartbeat CPU  0 instructions:  500000000 cycles:  441599426 heartbeat IPC: 1.03979 cumulative IPC: 1.06437 (Simulation time: 0 hr 18 min 28 sec) 
Heartbeat CPU  0 instructions:  501000003 cycles:  442553222 heartbeat IPC: 1.04845 cumulative IPC: 1.06433 (Simulation time: 0 hr 18 min 30 sec) 
Heartbeat CPU  0 instructions:  502000001 cycles:  443515828 heartbeat IPC: 1.03884 cumulative IPC: 1.06426 (Simulation time: 0 hr 18 min 33 sec) 
Heartbeat CPU  0 instructions:  503000000 cycles:  444467524 heartbeat IPC: 1.05075 cumulative IPC: 1.06423 (Simulation time: 0 hr 18 min 35 sec) 
Heartbeat CPU  0 instructions:  504000000 cycles:  445427530 heartbeat IPC: 1.04166 cumulative IPC: 1.06417 (Simulation time: 0 hr 18 min 37 sec) 
Heartbeat CPU  0 instructions:  505000000 cycles:  446391531 heartbeat IPC: 1.03734 cumulative IPC: 1.06411 (Simulation time: 0 hr 18 min 40 sec) 
Heartbeat CPU  0 instructions:  506000001 cycles:  447346534 heartbeat IPC: 1.04712 cumulative IPC: 1.06406 (Simulation time: 0 hr 18 min 42 sec) 
Heartbeat CPU  0 instructions:  507000000 cycles:  448310408 heartbeat IPC: 1.03748 cumulative IPC: 1.06400 (Simulation time: 0 hr 18 min 44 sec) 
Heartbeat CPU  0 instructions:  508000000 cycles:  449273480 heartbeat IPC: 1.03834 cumulative IPC: 1.06393 (Simulation time: 0 hr 18 min 47 sec) 
Heartbeat CPU  0 instructions:  509000000 cycles:  450226517 heartbeat IPC: 1.04928 cumulative IPC: 1.06390 (Simulation time: 0 hr 18 min 49 sec) 
Heartbeat CPU  0 instructions:  510000001 cycles:  451182223 heartbeat IPC: 1.04635 cumulative IPC: 1.06385 (Simulation time: 0 hr 18 min 51 sec) 
Heartbeat CPU  0 instructions:  511000001 cycles:  452148010 heartbeat IPC: 1.03542 cumulative IPC: 1.06378 (Simulation time: 0 hr 18 min 53 sec) 
Heartbeat CPU  0 instructions:  512000000 cycles:  453104370 heartbeat IPC: 1.04563 cumulative IPC: 1.06374 (Simulation time: 0 hr 18 min 56 sec) 
Heartbeat CPU  0 instructions:  513000003 cycles:  454060494 heartbeat IPC: 1.04589 cumulative IPC: 1.06369 (Simulation time: 0 hr 18 min 58 sec) 
Heartbeat CPU  0 instructions:  514000000 cycles:  455021526 heartbeat IPC: 1.04054 cumulative IPC: 1.06363 (Simulation time: 0 hr 19 min 0 sec) 
Heartbeat CPU  0 instructions:  515000001 cycles:  455975320 heartbeat IPC: 1.04845 cumulative IPC: 1.06360 (Simulation time: 0 hr 19 min 3 sec) 
Heartbeat CPU  0 instructions:  516000000 cycles:  456930850 heartbeat IPC: 1.04654 cumulative IPC: 1.06356 (Simulation time: 0 hr 19 min 5 sec) 
Heartbeat CPU  0 instructions:  517000002 cycles:  457890445 heartbeat IPC: 1.04211 cumulative IPC: 1.06350 (Simulation time: 0 hr 19 min 7 sec) 
Heartbeat CPU  0 instructions:  518000000 cycles:  458853155 heartbeat IPC: 1.03873 cumulative IPC: 1.06344 (Simulation time: 0 hr 19 min 10 sec) 
Heartbeat CPU  0 instructions:  519000003 cycles:  459803745 heartbeat IPC: 1.05198 cumulative IPC: 1.06342 (Simulation time: 0 hr 19 min 12 sec) 
Heartbeat CPU  0 instructions:  520000000 cycles:  460760933 heartbeat IPC: 1.04472 cumulative IPC: 1.06337 (Simulation time: 0 hr 19 min 14 sec) 
Heartbeat CPU  0 instructions:  521000000 cycles:  461713162 heartbeat IPC: 1.05017 cumulative IPC: 1.06334 (Simulation time: 0 hr 19 min 17 sec) 
Heartbeat CPU  0 instructions:  522000000 cycles:  462666216 heartbeat IPC: 1.04926 cumulative IPC: 1.06330 (Simulation time: 0 hr 19 min 19 sec) 
Heartbeat CPU  0 instructions:  523000002 cycles:  463620817 heartbeat IPC: 1.04756 cumulative IPC: 1.06327 (Simulation time: 0 hr 19 min 21 sec) 
Heartbeat CPU  0 instructions:  524000000 cycles:  464576546 heartbeat IPC: 1.04632 cumulative IPC: 1.06323 (Simulation time: 0 hr 19 min 23 sec) 
Heartbeat CPU  0 instructions:  525000000 cycles:  465526964 heartbeat IPC: 1.05217 cumulative IPC: 1.06320 (Simulation time: 0 hr 19 min 26 sec) 
Heartbeat CPU  0 instructions:  526000001 cycles:  466483665 heartbeat IPC: 1.04526 cumulative IPC: 1.06316 (Simulation time: 0 hr 19 min 28 sec) 
Heartbeat CPU  0 instructions:  527000000 cycles:  467441422 heartbeat IPC: 1.04411 cumulative IPC: 1.06311 (Simulation time: 0 hr 19 min 30 sec) 
Heartbeat CPU  0 instructions:  528000000 cycles:  468401124 heartbeat IPC: 1.04199 cumulative IPC: 1.06306 (Simulation time: 0 hr 19 min 33 sec) 
Heartbeat CPU  0 instructions:  529000002 cycles:  469358196 heartbeat IPC: 1.04486 cumulative IPC: 1.06302 (Simulation time: 0 hr 19 min 35 sec) 
Heartbeat CPU  0 instructions:  530000001 cycles:  470315491 heartbeat IPC: 1.04461 cumulative IPC: 1.06297 (Simulation time: 0 hr 19 min 37 sec) 
Heartbeat CPU  0 instructions:  531000003 cycles:  471275925 heartbeat IPC: 1.04120 cumulative IPC: 1.06292 (Simulation time: 0 hr 19 min 40 sec) 
Heartbeat CPU  0 instructions:  532000000 cycles:  472233020 heartbeat IPC: 1.04483 cumulative IPC: 1.06288 (Simulation time: 0 hr 19 min 42 sec) 
Heartbeat CPU  0 instructions:  533000002 cycles:  473192331 heartbeat IPC: 1.04242 cumulative IPC: 1.06283 (Simulation time: 0 hr 19 min 44 sec) 
Heartbeat CPU  0 instructions:  534000000 cycles:  474148659 heartbeat IPC: 1.04566 cumulative IPC: 1.06279 (Simulation time: 0 hr 19 min 47 sec) 
Heartbeat CPU  0 instructions:  535000003 cycles:  475121910 heartbeat IPC: 1.02749 cumulative IPC: 1.06271 (Simulation time: 0 hr 19 min 49 sec) 
Heartbeat CPU  0 instructions:  536000000 cycles:  476087460 heartbeat IPC: 1.03568 cumulative IPC: 1.06264 (Simulation time: 0 hr 19 min 51 sec) 
Heartbeat CPU  0 instructions:  537000000 cycles:  477043188 heartbeat IPC: 1.04632 cumulative IPC: 1.06261 (Simulation time: 0 hr 19 min 54 sec) 
Heartbeat CPU  0 instructions:  538000002 cycles:  478002353 heartbeat IPC: 1.04258 cumulative IPC: 1.06256 (Simulation time: 0 hr 19 min 56 sec) 
Heartbeat CPU  0 instructions:  539000001 cycles:  478964814 heartbeat IPC: 1.03900 cumulative IPC: 1.06250 (Simulation time: 0 hr 19 min 58 sec) 
Heartbeat CPU  0 instructions:  540000000 cycles:  479921913 heartbeat IPC: 1.04482 cumulative IPC: 1.06246 (Simulation time: 0 hr 20 min 0 sec) 
Heartbeat CPU  0 instructions:  541000000 cycles:  480886095 heartbeat IPC: 1.03715 cumulative IPC: 1.06241 (Simulation time: 0 hr 20 min 3 sec) 
Heartbeat CPU  0 instructions:  542000003 cycles:  481839294 heartbeat IPC: 1.04910 cumulative IPC: 1.06237 (Simulation time: 0 hr 20 min 5 sec) 
Heartbeat CPU  0 instructions:  543000001 cycles:  482801905 heartbeat IPC: 1.03884 cumulative IPC: 1.06232 (Simulation time: 0 hr 20 min 7 sec) 
Heartbeat CPU  0 instructions:  544000000 cycles:  483761036 heartbeat IPC: 1.04261 cumulative IPC: 1.06228 (Simulation time: 0 hr 20 min 10 sec) 
Heartbeat CPU  0 instructions:  545000002 cycles:  484720792 heartbeat IPC: 1.04193 cumulative IPC: 1.06223 (Simulation time: 0 hr 20 min 12 sec) 
Heartbeat CPU  0 instructions:  546000000 cycles:  485682594 heartbeat IPC: 1.03971 cumulative IPC: 1.06218 (Simulation time: 0 hr 20 min 14 sec) 
Heartbeat CPU  0 instructions:  547000002 cycles:  486645880 heartbeat IPC: 1.03812 cumulative IPC: 1.06212 (Simulation time: 0 hr 20 min 17 sec) 
Heartbeat CPU  0 instructions:  548000000 cycles:  487603518 heartbeat IPC: 1.04423 cumulative IPC: 1.06208 (Simulation time: 0 hr 20 min 19 sec) 
Heartbeat CPU  0 instructions:  549000003 cycles:  488571550 heartbeat IPC: 1.03303 cumulative IPC: 1.06201 (Simulation time: 0 hr 20 min 21 sec) 
Heartbeat CPU  0 instructions:  550000002 cycles:  489524526 heartbeat IPC: 1.04934 cumulative IPC: 1.06199 (Simulation time: 0 hr 20 min 24 sec) 
Heartbeat CPU  0 instructions:  551000003 cycles:  490479218 heartbeat IPC: 1.04746 cumulative IPC: 1.06195 (Simulation time: 0 hr 20 min 26 sec) 
Heartbeat CPU  0 instructions:  552000000 cycles:  491441915 heartbeat IPC: 1.03875 cumulative IPC: 1.06190 (Simulation time: 0 hr 20 min 28 sec) 
Heartbeat CPU  0 instructions:  553000000 cycles:  492401867 heartbeat IPC: 1.04172 cumulative IPC: 1.06186 (Simulation time: 0 hr 20 min 30 sec) 
Heartbeat CPU  0 instructions:  554000000 cycles:  493352273 heartbeat IPC: 1.05218 cumulative IPC: 1.06183 (Simulation time: 0 hr 20 min 33 sec) 
Heartbeat CPU  0 instructions:  555000001 cycles:  494311032 heartbeat IPC: 1.04302 cumulative IPC: 1.06179 (Simulation time: 0 hr 20 min 35 sec) 
Heartbeat CPU  0 instructions:  556000000 cycles:  495273434 heartbeat IPC: 1.03907 cumulative IPC: 1.06174 (Simulation time: 0 hr 20 min 37 sec) 
Heartbeat CPU  0 instructions:  557000001 cycles:  496226387 heartbeat IPC: 1.04937 cumulative IPC: 1.06171 (Simulation time: 0 hr 20 min 40 sec) 
Heartbeat CPU  0 instructions:  558000001 cycles:  497189078 heartbeat IPC: 1.03875 cumulative IPC: 1.06166 (Simulation time: 0 hr 20 min 42 sec) 
Heartbeat CPU  0 instructions:  559000002 cycles:  498150246 heartbeat IPC: 1.04040 cumulative IPC: 1.06162 (Simulation time: 0 hr 20 min 44 sec) 
Heartbeat CPU  0 instructions:  560000000 cycles:  499112275 heartbeat IPC: 1.03947 cumulative IPC: 1.06157 (Simulation time: 0 hr 20 min 47 sec) 
Heartbeat CPU  0 instructions:  561000001 cycles:  500070071 heartbeat IPC: 1.04406 cumulative IPC: 1.06153 (Simulation time: 0 hr 20 min 49 sec) 
Heartbeat CPU  0 instructions:  562000002 cycles:  501035901 heartbeat IPC: 1.03538 cumulative IPC: 1.06147 (Simulation time: 0 hr 20 min 51 sec) 
Heartbeat CPU  0 instructions:  563000002 cycles:  501989017 heartbeat IPC: 1.04919 cumulative IPC: 1.06144 (Simulation time: 0 hr 20 min 54 sec) 
Heartbeat CPU  0 instructions:  564000000 cycles:  502947702 heartbeat IPC: 1.04309 cumulative IPC: 1.06140 (Simulation time: 0 hr 20 min 56 sec) 
Heartbeat CPU  0 instructions:  565000002 cycles:  503907753 heartbeat IPC: 1.04161 cumulative IPC: 1.06136 (Simulation time: 0 hr 20 min 58 sec) 
Heartbeat CPU  0 instructions:  566000001 cycles:  504863700 heartbeat IPC: 1.04608 cumulative IPC: 1.06133 (Simulation time: 0 hr 21 min 1 sec) 
Heartbeat CPU  0 instructions:  567000000 cycles:  505820377 heartbeat IPC: 1.04528 cumulative IPC: 1.06129 (Simulation time: 0 hr 21 min 3 sec) 
Heartbeat CPU  0 instructions:  568000000 cycles:  506782230 heartbeat IPC: 1.03966 cumulative IPC: 1.06124 (Simulation time: 0 hr 21 min 5 sec) 
Heartbeat CPU  0 instructions:  569000002 cycles:  507741072 heartbeat IPC: 1.04293 cumulative IPC: 1.06120 (Simulation time: 0 hr 21 min 7 sec) 
Heartbeat CPU  0 instructions:  570000000 cycles:  508707815 heartbeat IPC: 1.03440 cumulative IPC: 1.06115 (Simulation time: 0 hr 21 min 10 sec) 
Heartbeat CPU  0 instructions:  571000003 cycles:  509660259 heartbeat IPC: 1.04993 cumulative IPC: 1.06112 (Simulation time: 0 hr 21 min 12 sec) 
Heartbeat CPU  0 instructions:  572000000 cycles:  510623587 heartbeat IPC: 1.03806 cumulative IPC: 1.06107 (Simulation time: 0 hr 21 min 14 sec) 
Heartbeat CPU  0 instructions:  573000000 cycles:  511581172 heartbeat IPC: 1.04429 cumulative IPC: 1.06104 (Simulation time: 0 hr 21 min 17 sec) 
Heartbeat CPU  0 instructions:  574000000 cycles:  512532875 heartbeat IPC: 1.05075 cumulative IPC: 1.06101 (Simulation time: 0 hr 21 min 19 sec) 
Heartbeat CPU  0 instructions:  575000002 cycles:  513501231 heartbeat IPC: 1.03268 cumulative IPC: 1.06095 (Simulation time: 0 hr 21 min 21 sec) 
Heartbeat CPU  0 instructions:  576000000 cycles:  514454177 heartbeat IPC: 1.04938 cumulative IPC: 1.06093 (Simulation time: 0 hr 21 min 24 sec) 
Heartbeat CPU  0 instructions:  577000000 cycles:  515413629 heartbeat IPC: 1.04226 cumulative IPC: 1.06089 (Simulation time: 0 hr 21 min 26 sec) 
Heartbeat CPU  0 instructions:  578000001 cycles:  516366058 heartbeat IPC: 1.04995 cumulative IPC: 1.06086 (Simulation time: 0 hr 21 min 28 sec) 
Heartbeat CPU  0 instructions:  579000002 cycles:  517322434 heartbeat IPC: 1.04561 cumulative IPC: 1.06083 (Simulation time: 0 hr 21 min 31 sec) 
Heartbeat CPU  0 instructions:  580000000 cycles:  518275355 heartbeat IPC: 1.04940 cumulative IPC: 1.06081 (Simulation time: 0 hr 21 min 33 sec) 
Heartbeat CPU  0 instructions:  581000000 cycles:  519239292 heartbeat IPC: 1.03741 cumulative IPC: 1.06076 (Simulation time: 0 hr 21 min 35 sec) 
Heartbeat CPU  0 instructions:  582000001 cycles:  520199393 heartbeat IPC: 1.04156 cumulative IPC: 1.06072 (Simulation time: 0 hr 21 min 38 sec) 
Heartbeat CPU  0 instructions:  583000001 cycles:  521160121 heartbeat IPC: 1.04088 cumulative IPC: 1.06068 (Simulation time: 0 hr 21 min 40 sec) 
Heartbeat CPU  0 instructions:  584000000 cycles:  522119107 heartbeat IPC: 1.04277 cumulative IPC: 1.06064 (Simulation time: 0 hr 21 min 42 sec) 
Heartbeat CPU  0 instructions:  585000000 cycles:  523074941 heartbeat IPC: 1.04621 cumulative IPC: 1.06061 (Simulation time: 0 hr 21 min 44 sec) 
Heartbeat CPU  0 instructions:  586000000 cycles:  524033966 heartbeat IPC: 1.04273 cumulative IPC: 1.06057 (Simulation time: 0 hr 21 min 47 sec) 
Heartbeat CPU  0 instructions:  587000001 cycles:  524998711 heartbeat IPC: 1.03654 cumulative IPC: 1.06052 (Simulation time: 0 hr 21 min 49 sec) 
Heartbeat CPU  0 instructions:  588000000 cycles:  525953297 heartbeat IPC: 1.04757 cumulative IPC: 1.06049 (Simulation time: 0 hr 21 min 51 sec) 
Heartbeat CPU  0 instructions:  589000000 cycles:  526914901 heartbeat IPC: 1.03993 cumulative IPC: 1.06045 (Simulation time: 0 hr 21 min 54 sec) 
Heartbeat CPU  0 instructions:  590000001 cycles:  527871227 heartbeat IPC: 1.04567 cumulative IPC: 1.06042 (Simulation time: 0 hr 21 min 56 sec) 
Heartbeat CPU  0 instructions:  591000002 cycles:  528830813 heartbeat IPC: 1.04212 cumulative IPC: 1.06038 (Simulation time: 0 hr 21 min 58 sec) 
Heartbeat CPU  0 instructions:  592000000 cycles:  529787289 heartbeat IPC: 1.04550 cumulative IPC: 1.06035 (Simulation time: 0 hr 22 min 1 sec) 
Heartbeat CPU  0 instructions:  593000003 cycles:  530740923 heartbeat IPC: 1.04862 cumulative IPC: 1.06033 (Simulation time: 0 hr 22 min 3 sec) 
Heartbeat CPU  0 instructions:  594000000 cycles:  531703346 heartbeat IPC: 1.03904 cumulative IPC: 1.06028 (Simulation time: 0 hr 22 min 5 sec) 
Heartbeat CPU  0 instructions:  595000001 cycles:  532658377 heartbeat IPC: 1.04709 cumulative IPC: 1.06026 (Simulation time: 0 hr 22 min 7 sec) 
Heartbeat CPU  0 instructions:  596000000 cycles:  533615804 heartbeat IPC: 1.04447 cumulative IPC: 1.06022 (Simulation time: 0 hr 22 min 10 sec) 
Heartbeat CPU  0 instructions:  597000002 cycles:  534570470 heartbeat IPC: 1.04749 cumulative IPC: 1.06020 (Simulation time: 0 hr 22 min 12 sec) 
Heartbeat CPU  0 instructions:  598000001 cycles:  535529843 heartbeat IPC: 1.04235 cumulative IPC: 1.06016 (Simulation time: 0 hr 22 min 14 sec) 
Heartbeat CPU  0 instructions:  599000000 cycles:  536489594 heartbeat IPC: 1.04194 cumulative IPC: 1.06012 (Simulation time: 0 hr 22 min 17 sec) 
Heartbeat CPU  0 instructions:  600000000 cycles:  537449475 heartbeat IPC: 1.04180 cumulative IPC: 1.06009 (Simulation time: 0 hr 22 min 19 sec) 
Finished CPU 0 instructions: 500000000 cycles: 471659236 cumulative IPC: 1.06009 (Simulation time: 0 hr 22 min 19 sec) 

ChampSim completed all CPUs

[ROI Statistics]
Core_0_instructions 500000000
Core_0_cycles 471659236
Core_0_IPC 1.06009

Core_0_branch_prediction_accuracy 97.89350
Core_0_branch_MPKI 0.73267
Core_0_average_ROB_occupancy_at_mispredict 252.52851

Core_0_L1D_total_access 235744940
Core_0_L1D_total_hit 225553761
Core_0_L1D_total_miss 10191179
Core_0_L1D_loads 199687179
Core_0_L1D_load_hit 189759082
Core_0_L1D_load_miss 9928097
Core_0_L1D_RFOs 36057761
Core_0_L1D_RFO_hit 35794679
Core_0_L1D_RFO_miss 263082
Core_0_L1D_prefetches 0
Core_0_L1D_prefetch_hit 0
Core_0_L1D_prefetch_miss 0
Core_0_L1D_writebacks 0
Core_0_L1D_writeback_hit 0
Core_0_L1D_writeback_miss 0
Core_0_L1D_prefetch_requested 0
Core_0_L1D_prefetch_dropped 0
Core_0_L1D_prefetch_issued 0
Core_0_L1D_prefetch_filled 0
Core_0_L1D_prefetch_useful 0
Core_0_L1D_prefetch_useless 0
Core_0_L1D_prefetch_late 0
Core_0_L1D_average_miss_latency 56.51468

Core_0_L1D_rq_access 254237836
Core_0_L1D_rq_forward 0
Core_0_L1D_rq_merged 53157420
Core_0_L1D_rq_to_cache 201080416
Core_0_L1D_rq_full 0

Core_0_L1D_wq_access 36392435
Core_0_L1D_wq_forward 0
Core_0_L1D_wq_merged 0
Core_0_L1D_wq_to_cache 36392435
Core_0_L1D_wq_full 0

Core_0_L1D_pq_access 0
Core_0_L1D_pq_forward 0
Core_0_L1D_pq_merged 0
Core_0_L1D_pq_to_cache 0
Core_0_L1D_pq_full 0

Core_0_L1D_acc_epochs 511149
Core_0_L1D_acc_level_0 511149
Core_0_L1D_acc_level_1 0
Core_0_L1D_acc_level_2 0
Core_0_L1D_acc_level_3 0
Core_0_L1D_acc_level_4 0
Core_0_L1D_acc_level_5 0
Core_0_L1D_acc_level_6 0
Core_0_L1D_acc_level_7 0
Core_0_L1D_acc_level_8 0
Core_0_L1D_acc_level_9 0

Core_0_L1I_total_access 114798461
Core_0_L1I_total_hit 114798407
Core_0_L1I_total_miss 54
Core_0_L1I_loads 114798461
Core_0_L1I_load_hit 114798407
Core_0_L1I_load_miss 54
Core_0_L1I_RFOs 0
Core_0_L1I_RFO_hit 0
Core_0_L1I_RFO_miss 0
Core_0_L1I_prefetches 0
Core_0_L1I_prefetch_hit 0
Core_0_L1I_prefetch_miss 0
Core_0_L1I_writebacks 0
Core_0_L1I_writeback_hit 0
Core_0_L1I_writeback_miss 0
Core_0_L1I_prefetch_requested 0
Core_0_L1I_prefetch_dropped 0
Core_0_L1I_prefetch_issued 0
Core_0_L1I_prefetch_filled 0
Core_0_L1I_prefetch_useful 0
Core_0_L1I_prefetch_useless 0
Core_0_L1I_prefetch_late 0
Core_0_L1I_average_miss_latency 222.98148

Core_0_L1I_rq_access 500000250
Core_0_L1I_rq_forward 0
Core_0_L1I_rq_merged 385201777
Core_0_L1I_rq_to_cache 114798473
Core_0_L1I_rq_full 0

Core_0_L1I_wq_access 0
Core_0_L1I_wq_forward 0
Core_0_L1I_wq_merged 0
Core_0_L1I_wq_to_cache 0
Core_0_L1I_wq_full 0

Core_0_L1I_pq_access 0
Core_0_L1I_pq_forward 0
Core_0_L1I_pq_merged 0
Core_0_L1I_pq_to_cache 0
Core_0_L1I_pq_full 0

Core_0_L1I_acc_epochs 511149
Core_0_L1I_acc_level_0 511149
Core_0_L1I_acc_level_1 0
Core_0_L1I_acc_level_2 0
Core_0_L1I_acc_level_3 0
Core_0_L1I_acc_level_4 0
Core_0_L1I_acc_level_5 0
Core_0_L1I_acc_level_6 0
Core_0_L1I_acc_level_7 0
Core_0_L1I_acc_level_8 0
Core_0_L1I_acc_level_9 0

Core_0_L2C_total_access 18403949
Core_0_L2C_total_hit 9133491
Core_0_L2C_total_miss 9270458
Core_0_L2C_loads 9924476
Core_0_L2C_load_hit 8610475
Core_0_L2C_load_miss 1314001
Core_0_L2C_RFOs 259744
Core_0_L2C_RFO_hit 39516
Core_0_L2C_RFO_miss 220228
Core_0_L2C_prefetches 7749513
Core_0_L2C_prefetch_hit 15816
Core_0_L2C_prefetch_miss 7733697
Core_0_L2C_writebacks 470216
Core_0_L2C_writeback_hit 467684
Core_0_L2C_writeback_miss 2532
Core_0_L2C_prefetch_requested 9630040
Core_0_L2C_prefetch_dropped 0
Core_0_L2C_prefetch_issued 9630040
Core_0_L2C_prefetch_filled 9425526
Core_0_L2C_prefetch_useful 9424136
Core_0_L2C_prefetch_useless 1237
Core_0_L2C_prefetch_late 138771
Core_0_L2C_average_miss_latency 226.09584

Core_0_L2C_rq_access 10191233
Core_0_L2C_rq_forward 0
Core_0_L2C_rq_merged 0
Core_0_L2C_rq_to_cache 10184220
Core_0_L2C_rq_full 0

Core_0_L2C_wq_access 470216
Core_0_L2C_wq_forward 7014
Core_0_L2C_wq_merged 0
Core_0_L2C_wq_to_cache 470216
Core_0_L2C_wq_full 0

Core_0_L2C_pq_access 9630040
Core_0_L2C_pq_forward 0
Core_0_L2C_pq_merged 0
Core_0_L2C_pq_to_cache 9630039
Core_0_L2C_pq_full 0

Core_0_L2C_acc_epochs 511149
Core_0_L2C_acc_level_0 139801
Core_0_L2C_acc_level_1 94469
Core_0_L2C_acc_level_2 63880
Core_0_L2C_acc_level_3 41711
Core_0_L2C_acc_level_4 28334
Core_0_L2C_acc_level_5 17943
Core_0_L2C_acc_level_6 12354
Core_0_L2C_acc_level_7 11899
Core_0_L2C_acc_level_8 8283
Core_0_L2C_acc_level_9 92475

Core_0_LLC_total_access 9661102
Core_0_LLC_total_hit 44382
Core_0_LLC_total_miss 9616720
Core_0_LLC_loads 1175535
Core_0_LLC_load_hit 3130
Core_0_LLC_load_miss 1172405
Core_0_LLC_RFOs 220227
Core_0_LLC_RFO_hit 0
Core_0_LLC_RFO_miss 220227
Core_0_LLC_prefetches 7872176
Core_0_LLC_prefetch_hit 30831
Core_0_LLC_prefetch_miss 7841345
Core_0_LLC_writebacks 393164
Core_0_LLC_writeback_hit 10421
Core_0_LLC_writeback_miss 382743
Core_0_LLC_prefetch_requested 0
Core_0_LLC_prefetch_dropped 0
Core_0_LLC_prefetch_issued 0
Core_0_LLC_prefetch_filled 9530949
Core_0_LLC_prefetch_useful 96
Core_0_LLC_prefetch_useless 9529140
Core_0_LLC_prefetch_late 0
Core_0_LLC_average_miss_latency 188.18326

Core_0_LLC_rq_access 1395763
Core_0_LLC_rq_forward 0
Core_0_LLC_rq_merged 0
Core_0_LLC_rq_to_cache 1395762
Core_0_LLC_rq_full 0

Core_0_LLC_wq_access 393164
Core_0_LLC_wq_forward 1
Core_0_LLC_wq_merged 0
Core_0_LLC_wq_to_cache 393164
Core_0_LLC_wq_full 0

Core_0_LLC_pq_access 9564310
Core_0_LLC_pq_forward 0
Core_0_LLC_pq_merged 0
Core_0_LLC_pq_to_cache 9564310
Core_0_LLC_pq_full 0

Core_0_LLC_acc_epochs 524854
Core_0_LLC_acc_level_0 524848
Core_0_LLC_acc_level_1 2
Core_0_LLC_acc_level_2 2
Core_0_LLC_acc_level_3 0
Core_0_LLC_acc_level_4 0
Core_0_LLC_acc_level_5 2
Core_0_LLC_acc_level_6 0
Core_0_LLC_acc_level_7 0
Core_0_LLC_acc_level_8 0
Core_0_LLC_acc_level_9 0

Core_0_major_page_fault 0
Core_0_minor_page_fault 104619

[Bingo] PHT Access: 343034
[Bingo] PHT Hit PC+Addr: 5022
[Bingo] PHT Hit PC+Offs: 337215
[Bingo] PHT Miss: 797
[Bingo] Prefetch PC+Addr: 0
[Bingo] Prefetch PC+Offs: 0
[Bingo] Useful PC+Addr: 0
[Bingo] Useful PC+Offs: 0
[Bingo] Useless PC+Addr: 0
[Bingo] Useless PC+Offs: 0
[Bingo] L1 Prefetch per Region: 0.00000
[Bingo] L2 Prefetch per Region: 31.69038
[Bingo] L3 Prefetch per Region: 0.00004
[Bingo] No Prefetch per Region: 0.30959
[Bingo] Number of Voters Mean: 15.97730
[Bingo] Number of Voters SD: 0.39472

Channel_0_RQ_row_buffer_hit 7951593
Channel_0_RQ_row_buffer_miss 1282384
Channel_0_WQ_row_buffer_hit 207369
Channel_0_WQ_row_buffer_miss 180526
Channel_0_WQ_full 3670
Channel_0_dbus_congested 1827733

avg_congested_cycle 1

DRAM_bw_pochs 2099413
DRAM_bw_level_0 1783643
DRAM_bw_level_1 292752
DRAM_bw_level_2 23008
DRAM_bw_level_3 10
