*************************************************
   ChampSim Multicore Out-of-Order Simulator
   Last compiled: Dec 11 2024 17:59:53
*************************************************
parsing config file: /home/functionmain/桌面/Pythia/config/pythia.ini

trace_0 /home/functionmain/桌面/Pythia/traces/410.bwaves-1963B.champsimtrace.xz
adding L2C_PREFETCHER: Scooby
Initialize SHIP state
warmup_instructions 100000000
simulation_instructions 500000000
champsim_seed 277
measure_ipc 0
measure_ipc_epoch 1000
measure_dram_bw 1
measure_dram_bw_epoch 256
measure_cache_acc 1
measure_cache_acc_epoch 1024
l1d_perfect 0
l2c_perfect 0
llc_perfect 0
l1d_semi_perfect 0
l2c_semi_perfect 0
llc_semi_perfect 0
semi_perfect_cache_page_buffer_size 64

num_cpus 1
cpu_freq 4000
dram_io_freq 300
page_size 4096
block_size 64
max_read_per_cycle 8
max_fill_per_cycle 1
dram_channels 1
log2_dram_channels 0
dram_ranks 1
dram_banks 8
dram_rows 65536
dram_columns 128
dram_row_size 8
dram_size 4096
dram_pages 1048576

fetch_width 6
decode_width 6
exec_width 4
lq_width 2
sq_width 2
retire_width 4
scheduler_size 128
branch_mispredict_penalty 20
rob_size 256
lq_size 72
sq_size 56
num_instr_destinations_sparc 4
num_instr_destinations 2
num_instr_sources 4

itlb_set 16
itlb_way 8
itlb_rq_size 16
itlb_wq_size 16
itlb_pq_size 0
itlb_mshr_size 8
itlb_latency 1

dtlb_set 16
dtlb_way 4
dtlb_rq_size 16
dtlb_wq_size 16
dtlb_pq_size 0
dtlb_mshr_size 8
dtlb_latency 1

stlb_set 128
stlb_way 12
stlb_rq_size 32
stlb_wq_size 32
stlb_pq_size 0
stlb_mshr_size 16
stlb_latency 8

l1i_size 32
l1i_set 64
l1i_way 8
l1i_rq_size 64
l1i_wq_size 64
l1i_pq_size 8
l1i_mshr_size 8
l1i_latency 1

l1d_size 32
l1d_set 64
l1d_way 8
l1d_rq_size 64
l1d_wq_size 64
l1d_pq_size 8
l1d_mshr_size 16
l1d_latency 4

l2c_size 256
l2c_set 512
l2c_way 8
l2c_rq_size 32
l2c_wq_size 32
l2c_pq_size 32
l2c_mshr_size 32
l2c_latency 10

llc_size 2048
llc_set 2048
llc_way 16
llc_rq_size 32
llc_wq_size 32
llc_pq_size 32
llc_mshr_size 64
llc_latency 20

dram_channel_width 8
dram_wq_size 64
dram_rq_size 64
tRP 15
tRCD 15
tCAS 12.5
dram_dbus_turn_around_time 30
dram_write_high_wm 56
dram_write_low_wm 48
min_dram_writes_per_switch 16
dram_mtps 300
dram_dbus_return_time 106

scooby_alpha 0.0065088
scooby_gamma 0.556301
scooby_epsilon 0.00182284
scooby_state_num_bits 10
scooby_max_states 1024
scooby_seed 200
scooby_policy EGreedy
scooby_learning_type SARSA
scooby_actions 1,3,4,5,10,11,12,22,23,30,32,-1,-3,-6,0,
scooby_max_actions 15
scooby_pt_size 256
scooby_st_size 64
scooby_max_pcs 5
scooby_max_offsets 5
scooby_max_deltas 5
scooby_reward_none -4
scooby_reward_incorrect -8
scooby_reward_correct_untimely 12
scooby_reward_correct_timely 20
scooby_brain_zero_init 0
scooby_enable_reward_all 0
scooby_enable_track_multiple 0
scooby_enable_reward_out_of_bounds 1
scooby_reward_out_of_bounds -12
scooby_state_type 1
scooby_state_hash_type 11
scooby_access_debug 0
scooby_print_access_debug 0
scooby_print_access_debug_pc deadbeef
scooby_print_access_debug_pc_count 0
scooby_print_trace 0
scooby_enable_state_action_stats 1
scooby_enable_reward_tracker_hit 0
scooby_reward_tracker_hit -2
scooby_enable_featurewise_engine 1
scooby_pref_degree 1
scooby_enable_dyn_degree 1
scooby_max_to_avg_q_thresholds 0.5,1,2,
scooby_dyn_degrees 1,2,4,4,
scooby_multi_deg_select_type 2
scooby_last_pref_offset_conf_thresholds 1,3,8,
scooby_dyn_degrees_type2 1,2,4,6,
scooby_action_tracker_size 2
scooby_high_bw_thresh 4
scooby_enable_hbw_reward 1
scooby_reward_hbw_correct_timely 20
scooby_reward_hbw_correct_untimely 12
scooby_reward_hbw_incorrect -14
scooby_reward_hbw_none -2
scooby_reward_hbw_out_of_bounds -12
scooby_reward_hbw_tracker_hit -2
scooby_last_pref_offset_conf_thresholds_hbw 1,3,8,
scooby_dyn_degrees_type2_hbw 1,2,4,6,

le_enable_trace 0
le_trace_interval 0
le_trace_file_name 
le_trace_state 0
le_enable_score_plot 0
le_plot_file_name 
le_plot_actions 
le_enable_action_trace 0
le_action_trace_interval 0
le_action_trace_name 
le_enable_action_plot 0

le_featurewise_active_features PC, PC_Delta
le_featurewise_num_tilings 3,3,
le_featurewise_num_tiles 128,128,
le_featurewise_hash_types 2,2,
le_featurewise_enable_tiling_offset 1,1,
le_featurewise_max_q_thresh 0.5
le_featurewise_enable_action_fallback 1
le_featurewise_feature_weights 1,1,
le_featurewise_enable_dynamic_weight 0
le_featurewise_weight_gradient 0.001
le_featurewise_disable_adjust_weight_all_features_align 1
le_featurewise_selective_update 0
le_featurewise_pooling_type 2
le_featurewise_enable_dyn_action_fallback 1
le_featurewise_bw_acc_check_level 1
le_featurewise_acc_thresh 2
le_featurewise_enable_trace 0
le_featurewise_trace_feature_type 0
le_featurewise_trace_feature 
le_featurewise_trace_interval 0
le_featurewise_trace_record_count 0
le_featurewise_trace_file_name 
le_featurewise_enable_score_plot 0
le_featurewise_plot_actions 
le_featurewise_plot_file_name 


Heartbeat CPU  0 instructions:    1000002 cycles:     658255 heartbeat IPC: 1.51917 cumulative IPC: 1.51917 (Simulation time: 0 hr 0 min 2 sec) 
Heartbeat CPU  0 instructions:    2000002 cycles:    1316145 heartbeat IPC: 1.52001 cumulative IPC: 1.51959 (Simulation time: 0 hr 0 min 5 sec) 
Heartbeat CPU  0 instructions:    3000002 cycles:    1974117 heartbeat IPC: 1.51982 cumulative IPC: 1.51967 (Simulation time: 0 hr 0 min 7 sec) 
Heartbeat CPU  0 instructions:    4000000 cycles:    2632000 heartbeat IPC: 1.52002 cumulative IPC: 1.51976 (Simulation time: 0 hr 0 min 9 sec) 
Heartbeat CPU  0 instructions:    5000002 cycles:    3290056 heartbeat IPC: 1.51963 cumulative IPC: 1.51973 (Simulation time: 0 hr 0 min 11 sec) 
Heartbeat CPU  0 instructions:    6000002 cycles:    3947997 heartbeat IPC: 1.51989 cumulative IPC: 1.51976 (Simulation time: 0 hr 0 min 14 sec) 
Heartbeat CPU  0 instructions:    7000000 cycles:    4605956 heartbeat IPC: 1.51985 cumulative IPC: 1.51977 (Simulation time: 0 hr 0 min 16 sec) 
Heartbeat CPU  0 instructions:    8000000 cycles:    5263831 heartbeat IPC: 1.52005 cumulative IPC: 1.51981 (Simulation time: 0 hr 0 min 18 sec) 
Heartbeat CPU  0 instructions:    9000001 cycles:    5921719 heartbeat IPC: 1.52002 cumulative IPC: 1.51983 (Simulation time: 0 hr 0 min 21 sec) 
Heartbeat CPU  0 instructions:   10000002 cycles:    6579623 heartbeat IPC: 1.51998 cumulative IPC: 1.51984 (Simulation time: 0 hr 0 min 23 sec) 
Heartbeat CPU  0 instructions:   11000001 cycles:    7237560 heartbeat IPC: 1.51990 cumulative IPC: 1.51985 (Simulation time: 0 hr 0 min 25 sec) 
Heartbeat CPU  0 instructions:   12000000 cycles:    7895383 heartbeat IPC: 1.52016 cumulative IPC: 1.51988 (Simulation time: 0 hr 0 min 28 sec) 
Heartbeat CPU  0 instructions:   13000001 cycles:    8553369 heartbeat IPC: 1.51979 cumulative IPC: 1.51987 (Simulation time: 0 hr 0 min 30 sec) 
Heartbeat CPU  0 instructions:   14000001 cycles:    9211162 heartbeat IPC: 1.52024 cumulative IPC: 1.51990 (Simulation time: 0 hr 0 min 32 sec) 
Heartbeat CPU  0 instructions:   15000000 cycles:    9868946 heartbeat IPC: 1.52025 cumulative IPC: 1.51992 (Simulation time: 0 hr 0 min 35 sec) 
Heartbeat CPU  0 instructions:   16000000 cycles:   10526767 heartbeat IPC: 1.52017 cumulative IPC: 1.51993 (Simulation time: 0 hr 0 min 37 sec) 
Heartbeat CPU  0 instructions:   17000002 cycles:   11184678 heartbeat IPC: 1.51997 cumulative IPC: 1.51994 (Simulation time: 0 hr 0 min 39 sec) 
Heartbeat CPU  0 instructions:   18000000 cycles:   11842519 heartbeat IPC: 1.52012 cumulative IPC: 1.51995 (Simulation time: 0 hr 0 min 41 sec) 
Heartbeat CPU  0 instructions:   19000001 cycles:   12500345 heartbeat IPC: 1.52016 cumulative IPC: 1.51996 (Simulation time: 0 hr 0 min 44 sec) 
Heartbeat CPU  0 instructions:   20000000 cycles:   13158142 heartbeat IPC: 1.52022 cumulative IPC: 1.51997 (Simulation time: 0 hr 0 min 46 sec) 
Heartbeat CPU  0 instructions:   21000003 cycles:   13816022 heartbeat IPC: 1.52004 cumulative IPC: 1.51997 (Simulation time: 0 hr 0 min 48 sec) 
Heartbeat CPU  0 instructions:   22000001 cycles:   14473780 heartbeat IPC: 1.52031 cumulative IPC: 1.51999 (Simulation time: 0 hr 0 min 51 sec) 
Heartbeat CPU  0 instructions:   23000001 cycles:   15131609 heartbeat IPC: 1.52015 cumulative IPC: 1.52000 (Simulation time: 0 hr 0 min 53 sec) 
Heartbeat CPU  0 instructions:   24000000 cycles:   15789343 heartbeat IPC: 1.52037 cumulative IPC: 1.52001 (Simulation time: 0 hr 0 min 55 sec) 
Heartbeat CPU  0 instructions:   25000001 cycles:   16447309 heartbeat IPC: 1.51984 cumulative IPC: 1.52001 (Simulation time: 0 hr 0 min 58 sec) 
Heartbeat CPU  0 instructions:   26000003 cycles:   17104975 heartbeat IPC: 1.52053 cumulative IPC: 1.52003 (Simulation time: 0 hr 1 min 0 sec) 
Heartbeat CPU  0 instructions:   27000000 cycles:   17762812 heartbeat IPC: 1.52013 cumulative IPC: 1.52003 (Simulation time: 0 hr 1 min 2 sec) 
Heartbeat CPU  0 instructions:   28000000 cycles:   18420599 heartbeat IPC: 1.52025 cumulative IPC: 1.52004 (Simulation time: 0 hr 1 min 4 sec) 
Heartbeat CPU  0 instructions:   29000000 cycles:   19078508 heartbeat IPC: 1.51997 cumulative IPC: 1.52004 (Simulation time: 0 hr 1 min 7 sec) 
Heartbeat CPU  0 instructions:   30000001 cycles:   19736311 heartbeat IPC: 1.52021 cumulative IPC: 1.52004 (Simulation time: 0 hr 1 min 9 sec) 
Heartbeat CPU  0 instructions:   31000002 cycles:   20394223 heartbeat IPC: 1.51996 cumulative IPC: 1.52004 (Simulation time: 0 hr 1 min 11 sec) 
Heartbeat CPU  0 instructions:   32000000 cycles:   21052135 heartbeat IPC: 1.51996 cumulative IPC: 1.52004 (Simulation time: 0 hr 1 min 14 sec) 
Heartbeat CPU  0 instructions:   33000000 cycles:   21710143 heartbeat IPC: 1.51974 cumulative IPC: 1.52003 (Simulation time: 0 hr 1 min 16 sec) 
Heartbeat CPU  0 instructions:   34000002 cycles:   22368059 heartbeat IPC: 1.51995 cumulative IPC: 1.52002 (Simulation time: 0 hr 1 min 18 sec) 
Heartbeat CPU  0 instructions:   35000001 cycles:   23025990 heartbeat IPC: 1.51991 cumulative IPC: 1.52002 (Simulation time: 0 hr 1 min 21 sec) 
Heartbeat CPU  0 instructions:   36000000 cycles:   23683930 heartbeat IPC: 1.51989 cumulative IPC: 1.52002 (Simulation time: 0 hr 1 min 23 sec) 
Heartbeat CPU  0 instructions:   37000002 cycles:   24341918 heartbeat IPC: 1.51979 cumulative IPC: 1.52001 (Simulation time: 0 hr 1 min 25 sec) 
Heartbeat CPU  0 instructions:   38000000 cycles:   24999815 heartbeat IPC: 1.51999 cumulative IPC: 1.52001 (Simulation time: 0 hr 1 min 27 sec) 
Heartbeat CPU  0 instructions:   39000000 cycles:   25657831 heartbeat IPC: 1.51972 cumulative IPC: 1.52000 (Simulation time: 0 hr 1 min 30 sec) 
Heartbeat CPU  0 instructions:   40000000 cycles:   26315677 heartbeat IPC: 1.52011 cumulative IPC: 1.52001 (Simulation time: 0 hr 1 min 32 sec) 
Heartbeat CPU  0 instructions:   41000000 cycles:   26973686 heartbeat IPC: 1.51974 cumulative IPC: 1.52000 (Simulation time: 0 hr 1 min 34 sec) 
Heartbeat CPU  0 instructions:   42000003 cycles:   27631624 heartbeat IPC: 1.51990 cumulative IPC: 1.52000 (Simulation time: 0 hr 1 min 37 sec) 
Heartbeat CPU  0 instructions:   43000001 cycles:   28289484 heartbeat IPC: 1.52008 cumulative IPC: 1.52000 (Simulation time: 0 hr 1 min 39 sec) 
Heartbeat CPU  0 instructions:   44000000 cycles:   28947290 heartbeat IPC: 1.52020 cumulative IPC: 1.52000 (Simulation time: 0 hr 1 min 41 sec) 
Heartbeat CPU  0 instructions:   45000000 cycles:   29605151 heartbeat IPC: 1.52008 cumulative IPC: 1.52001 (Simulation time: 0 hr 1 min 44 sec) 
Heartbeat CPU  0 instructions:   46000001 cycles:   30262990 heartbeat IPC: 1.52013 cumulative IPC: 1.52001 (Simulation time: 0 hr 1 min 46 sec) 
Heartbeat CPU  0 instructions:   47000003 cycles:   30920844 heartbeat IPC: 1.52010 cumulative IPC: 1.52001 (Simulation time: 0 hr 1 min 48 sec) 
Heartbeat CPU  0 instructions:   48000000 cycles:   31578529 heartbeat IPC: 1.52048 cumulative IPC: 1.52002 (Simulation time: 0 hr 1 min 51 sec) 
Heartbeat CPU  0 instructions:   49000000 cycles:   32236305 heartbeat IPC: 1.52027 cumulative IPC: 1.52003 (Simulation time: 0 hr 1 min 53 sec) 
Heartbeat CPU  0 instructions:   50000003 cycles:   32894232 heartbeat IPC: 1.51993 cumulative IPC: 1.52002 (Simulation time: 0 hr 1 min 55 sec) 
Heartbeat CPU  0 instructions:   51000000 cycles:   33552053 heartbeat IPC: 1.52017 cumulative IPC: 1.52003 (Simulation time: 0 hr 1 min 58 sec) 
Heartbeat CPU  0 instructions:   52000000 cycles:   34209861 heartbeat IPC: 1.52020 cumulative IPC: 1.52003 (Simulation time: 0 hr 2 min 0 sec) 
Heartbeat CPU  0 instructions:   53000003 cycles:   34867754 heartbeat IPC: 1.52001 cumulative IPC: 1.52003 (Simulation time: 0 hr 2 min 2 sec) 
Heartbeat CPU  0 instructions:   54000001 cycles:   35525629 heartbeat IPC: 1.52004 cumulative IPC: 1.52003 (Simulation time: 0 hr 2 min 4 sec) 
Heartbeat CPU  0 instructions:   55000003 cycles:   36183481 heartbeat IPC: 1.52010 cumulative IPC: 1.52003 (Simulation time: 0 hr 2 min 7 sec) 
Heartbeat CPU  0 instructions:   56000000 cycles:   36841344 heartbeat IPC: 1.52007 cumulative IPC: 1.52003 (Simulation time: 0 hr 2 min 9 sec) 
Heartbeat CPU  0 instructions:   57000001 cycles:   37499076 heartbeat IPC: 1.52038 cumulative IPC: 1.52004 (Simulation time: 0 hr 2 min 11 sec) 
Heartbeat CPU  0 instructions:   58000000 cycles:   38157015 heartbeat IPC: 1.51990 cumulative IPC: 1.52004 (Simulation time: 0 hr 2 min 14 sec) 
Heartbeat CPU  0 instructions:   59000002 cycles:   38814971 heartbeat IPC: 1.51986 cumulative IPC: 1.52003 (Simulation time: 0 hr 2 min 16 sec) 
Heartbeat CPU  0 instructions:   60000000 cycles:   39472729 heartbeat IPC: 1.52031 cumulative IPC: 1.52004 (Simulation time: 0 hr 2 min 18 sec) 
Heartbeat CPU  0 instructions:   61000002 cycles:   40130772 heartbeat IPC: 1.51966 cumulative IPC: 1.52003 (Simulation time: 0 hr 2 min 21 sec) 
Heartbeat CPU  0 instructions:   62000001 cycles:   40788699 heartbeat IPC: 1.51992 cumulative IPC: 1.52003 (Simulation time: 0 hr 2 min 23 sec) 
Heartbeat CPU  0 instructions:   63000002 cycles:   41446647 heartbeat IPC: 1.51988 cumulative IPC: 1.52003 (Simulation time: 0 hr 2 min 25 sec) 
Heartbeat CPU  0 instructions:   64000000 cycles:   42104572 heartbeat IPC: 1.51993 cumulative IPC: 1.52002 (Simulation time: 0 hr 2 min 28 sec) 
Heartbeat CPU  0 instructions:   65000002 cycles:   42762592 heartbeat IPC: 1.51971 cumulative IPC: 1.52002 (Simulation time: 0 hr 2 min 30 sec) 
Heartbeat CPU  0 instructions:   66000002 cycles:   43420510 heartbeat IPC: 1.51995 cumulative IPC: 1.52002 (Simulation time: 0 hr 2 min 32 sec) 
Heartbeat CPU  0 instructions:   67000002 cycles:   44078412 heartbeat IPC: 1.51998 cumulative IPC: 1.52002 (Simulation time: 0 hr 2 min 34 sec) 
Heartbeat CPU  0 instructions:   68000000 cycles:   44736289 heartbeat IPC: 1.52004 cumulative IPC: 1.52002 (Simulation time: 0 hr 2 min 37 sec) 
Heartbeat CPU  0 instructions:   69000000 cycles:   45394288 heartbeat IPC: 1.51976 cumulative IPC: 1.52002 (Simulation time: 0 hr 2 min 39 sec) 
Heartbeat CPU  0 instructions:   70000003 cycles:   46052120 heartbeat IPC: 1.52015 cumulative IPC: 1.52002 (Simulation time: 0 hr 2 min 41 sec) 
Heartbeat CPU  0 instructions:   71000003 cycles:   46709919 heartbeat IPC: 1.52022 cumulative IPC: 1.52002 (Simulation time: 0 hr 2 min 44 sec) 
Heartbeat CPU  0 instructions:   72000000 cycles:   47367777 heartbeat IPC: 1.52008 cumulative IPC: 1.52002 (Simulation time: 0 hr 2 min 46 sec) 
Heartbeat CPU  0 instructions:   73000001 cycles:   48025657 heartbeat IPC: 1.52004 cumulative IPC: 1.52002 (Simulation time: 0 hr 2 min 48 sec) 
Heartbeat CPU  0 instructions:   74000002 cycles:   48683479 heartbeat IPC: 1.52017 cumulative IPC: 1.52002 (Simulation time: 0 hr 2 min 51 sec) 
Heartbeat CPU  0 instructions:   75000001 cycles:   49341363 heartbeat IPC: 1.52002 cumulative IPC: 1.52002 (Simulation time: 0 hr 2 min 53 sec) 
Heartbeat CPU  0 instructions:   76000000 cycles:   49999163 heartbeat IPC: 1.52022 cumulative IPC: 1.52003 (Simulation time: 0 hr 2 min 55 sec) 
Heartbeat CPU  0 instructions:   77000002 cycles:   50657043 heartbeat IPC: 1.52004 cumulative IPC: 1.52003 (Simulation time: 0 hr 2 min 57 sec) 
Heartbeat CPU  0 instructions:   78000000 cycles:   51315003 heartbeat IPC: 1.51985 cumulative IPC: 1.52002 (Simulation time: 0 hr 3 min 0 sec) 
Heartbeat CPU  0 instructions:   79000003 cycles:   51972817 heartbeat IPC: 1.52019 cumulative IPC: 1.52003 (Simulation time: 0 hr 3 min 2 sec) 
Heartbeat CPU  0 instructions:   80000000 cycles:   52630640 heartbeat IPC: 1.52016 cumulative IPC: 1.52003 (Simulation time: 0 hr 3 min 4 sec) 
Heartbeat CPU  0 instructions:   81000001 cycles:   53288580 heartbeat IPC: 1.51990 cumulative IPC: 1.52003 (Simulation time: 0 hr 3 min 7 sec) 
Heartbeat CPU  0 instructions:   82000001 cycles:   53946432 heartbeat IPC: 1.52010 cumulative IPC: 1.52003 (Simulation time: 0 hr 3 min 9 sec) 
Heartbeat CPU  0 instructions:   83000001 cycles:   54604204 heartbeat IPC: 1.52028 cumulative IPC: 1.52003 (Simulation time: 0 hr 3 min 11 sec) 
Heartbeat CPU  0 instructions:   84000000 cycles:   55262005 heartbeat IPC: 1.52022 cumulative IPC: 1.52003 (Simulation time: 0 hr 3 min 14 sec) 
Heartbeat CPU  0 instructions:   85000000 cycles:   55919919 heartbeat IPC: 1.51996 cumulative IPC: 1.52003 (Simulation time: 0 hr 3 min 16 sec) 
Heartbeat CPU  0 instructions:   86000002 cycles:   56577773 heartbeat IPC: 1.52010 cumulative IPC: 1.52003 (Simulation time: 0 hr 3 min 18 sec) 
Heartbeat CPU  0 instructions:   87000001 cycles:   57235726 heartbeat IPC: 1.51986 cumulative IPC: 1.52003 (Simulation time: 0 hr 3 min 21 sec) 
Heartbeat CPU  0 instructions:   88000000 cycles:   57893775 heartbeat IPC: 1.51964 cumulative IPC: 1.52003 (Simulation time: 0 hr 3 min 23 sec) 
Heartbeat CPU  0 instructions:   89000001 cycles:   58551723 heartbeat IPC: 1.51988 cumulative IPC: 1.52002 (Simulation time: 0 hr 3 min 25 sec) 
Heartbeat CPU  0 instructions:   90000003 cycles:   59209668 heartbeat IPC: 1.51989 cumulative IPC: 1.52002 (Simulation time: 0 hr 3 min 27 sec) 
Heartbeat CPU  0 instructions:   91000000 cycles:   59867567 heartbeat IPC: 1.51999 cumulative IPC: 1.52002 (Simulation time: 0 hr 3 min 30 sec) 
Heartbeat CPU  0 instructions:   92000000 cycles:   60525526 heartbeat IPC: 1.51985 cumulative IPC: 1.52002 (Simulation time: 0 hr 3 min 32 sec) 
Heartbeat CPU  0 instructions:   93000001 cycles:   61183449 heartbeat IPC: 1.51994 cumulative IPC: 1.52002 (Simulation time: 0 hr 3 min 34 sec) 
Heartbeat CPU  0 instructions:   94000001 cycles:   61841376 heartbeat IPC: 1.51993 cumulative IPC: 1.52002 (Simulation time: 0 hr 3 min 37 sec) 
Heartbeat CPU  0 instructions:   95000000 cycles:   62499243 heartbeat IPC: 1.52006 cumulative IPC: 1.52002 (Simulation time: 0 hr 3 min 39 sec) 
Heartbeat CPU  0 instructions:   96000000 cycles:   63157102 heartbeat IPC: 1.52008 cumulative IPC: 1.52002 (Simulation time: 0 hr 3 min 41 sec) 
Heartbeat CPU  0 instructions:   97000000 cycles:   63815095 heartbeat IPC: 1.51977 cumulative IPC: 1.52002 (Simulation time: 0 hr 3 min 44 sec) 
Heartbeat CPU  0 instructions:   98000001 cycles:   64473014 heartbeat IPC: 1.51995 cumulative IPC: 1.52002 (Simulation time: 0 hr 3 min 46 sec) 
Heartbeat CPU  0 instructions:   99000003 cycles:   65130907 heartbeat IPC: 1.52001 cumulative IPC: 1.52002 (Simulation time: 0 hr 3 min 48 sec) 
Heartbeat CPU  0 instructions:  100000000 cycles:   65788750 heartbeat IPC: 1.52012 cumulative IPC: 1.52002 (Simulation time: 0 hr 3 min 51 sec) 

Warmup complete CPU  0 instructions:  100000002 cycles:   65788753 (Simulation time: 0 hr 3 min 51 sec) 

Heartbeat CPU  0 instructions:  101000001 cycles:   67825243 heartbeat IPC: 0.49104 cumulative IPC: 0.49104 (Simulation time: 0 hr 3 min 54 sec) 
Heartbeat CPU  0 instructions:  102000000 cycles:   69853541 heartbeat IPC: 0.49302 cumulative IPC: 0.49203 (Simulation time: 0 hr 3 min 57 sec) 
Heartbeat CPU  0 instructions:  103000001 cycles:   71882786 heartbeat IPC: 0.49279 cumulative IPC: 0.49228 (Simulation time: 0 hr 4 min 0 sec) 
Heartbeat CPU  0 instructions:  104000000 cycles:   73917270 heartbeat IPC: 0.49152 cumulative IPC: 0.49209 (Simulation time: 0 hr 4 min 3 sec) 
Heartbeat CPU  0 instructions:  105000002 cycles:   75953570 heartbeat IPC: 0.49109 cumulative IPC: 0.49189 (Simulation time: 0 hr 4 min 7 sec) 
Heartbeat CPU  0 instructions:  106000000 cycles:   77978654 heartbeat IPC: 0.49381 cumulative IPC: 0.49221 (Simulation time: 0 hr 4 min 10 sec) 
Heartbeat CPU  0 instructions:  107000001 cycles:   80014794 heartbeat IPC: 0.49113 cumulative IPC: 0.49206 (Simulation time: 0 hr 4 min 13 sec) 
Heartbeat CPU  0 instructions:  108000000 cycles:   82050305 heartbeat IPC: 0.49128 cumulative IPC: 0.49196 (Simulation time: 0 hr 4 min 16 sec) 
Heartbeat CPU  0 instructions:  109000001 cycles:   84093320 heartbeat IPC: 0.48947 cumulative IPC: 0.49168 (Simulation time: 0 hr 4 min 19 sec) 
Heartbeat CPU  0 instructions:  110000000 cycles:   86128142 heartbeat IPC: 0.49144 cumulative IPC: 0.49166 (Simulation time: 0 hr 4 min 23 sec) 
Heartbeat CPU  0 instructions:  111000000 cycles:   88166570 heartbeat IPC: 0.49057 cumulative IPC: 0.49156 (Simulation time: 0 hr 4 min 26 sec) 
Heartbeat CPU  0 instructions:  112000000 cycles:   90193734 heartbeat IPC: 0.49330 cumulative IPC: 0.49170 (Simulation time: 0 hr 4 min 29 sec) 
Heartbeat CPU  0 instructions:  113000000 cycles:   92223743 heartbeat IPC: 0.49261 cumulative IPC: 0.49177 (Simulation time: 0 hr 4 min 32 sec) 
Heartbeat CPU  0 instructions:  114000002 cycles:   94258619 heartbeat IPC: 0.49143 cumulative IPC: 0.49175 (Simulation time: 0 hr 4 min 36 sec) 
Heartbeat CPU  0 instructions:  115000000 cycles:   96292259 heartbeat IPC: 0.49173 cumulative IPC: 0.49175 (Simulation time: 0 hr 4 min 39 sec) 
Heartbeat CPU  0 instructions:  116000000 cycles:   98318580 heartbeat IPC: 0.49351 cumulative IPC: 0.49186 (Simulation time: 0 hr 4 min 42 sec) 
Heartbeat CPU  0 instructions:  117000003 cycles:  100351735 heartbeat IPC: 0.49185 cumulative IPC: 0.49186 (Simulation time: 0 hr 4 min 45 sec) 
Heartbeat CPU  0 instructions:  118000000 cycles:  102386291 heartbeat IPC: 0.49151 cumulative IPC: 0.49184 (Simulation time: 0 hr 4 min 49 sec) 
Heartbeat CPU  0 instructions:  119000001 cycles:  104422037 heartbeat IPC: 0.49122 cumulative IPC: 0.49180 (Simulation time: 0 hr 4 min 52 sec) 
Heartbeat CPU  0 instructions:  120000000 cycles:  106458284 heartbeat IPC: 0.49110 cumulative IPC: 0.49177 (Simulation time: 0 hr 4 min 55 sec) 
Heartbeat CPU  0 instructions:  121000003 cycles:  108487711 heartbeat IPC: 0.49275 cumulative IPC: 0.49182 (Simulation time: 0 hr 4 min 58 sec) 
Heartbeat CPU  0 instructions:  122000000 cycles:  110521411 heartbeat IPC: 0.49171 cumulative IPC: 0.49181 (Simulation time: 0 hr 5 min 1 sec) 
Heartbeat CPU  0 instructions:  123000002 cycles:  112550351 heartbeat IPC: 0.49287 cumulative IPC: 0.49186 (Simulation time: 0 hr 5 min 5 sec) 
Heartbeat CPU  0 instructions:  124000000 cycles:  114588526 heartbeat IPC: 0.49063 cumulative IPC: 0.49181 (Simulation time: 0 hr 5 min 8 sec) 
Heartbeat CPU  0 instructions:  125000003 cycles:  116617130 heartbeat IPC: 0.49295 cumulative IPC: 0.49185 (Simulation time: 0 hr 5 min 11 sec) 
Heartbeat CPU  0 instructions:  126000002 cycles:  118658369 heartbeat IPC: 0.48990 cumulative IPC: 0.49178 (Simulation time: 0 hr 5 min 14 sec) 
Heartbeat CPU  0 instructions:  127000000 cycles:  120694654 heartbeat IPC: 0.49109 cumulative IPC: 0.49175 (Simulation time: 0 hr 5 min 17 sec) 
Heartbeat CPU  0 instructions:  128000000 cycles:  122723601 heartbeat IPC: 0.49287 cumulative IPC: 0.49179 (Simulation time: 0 hr 5 min 21 sec) 
Heartbeat CPU  0 instructions:  129000000 cycles:  124757477 heartbeat IPC: 0.49167 cumulative IPC: 0.49179 (Simulation time: 0 hr 5 min 24 sec) 
Heartbeat CPU  0 instructions:  130000001 cycles:  126794592 heartbeat IPC: 0.49089 cumulative IPC: 0.49176 (Simulation time: 0 hr 5 min 27 sec) 
Heartbeat CPU  0 instructions:  131000000 cycles:  128824604 heartbeat IPC: 0.49261 cumulative IPC: 0.49178 (Simulation time: 0 hr 5 min 30 sec) 
Heartbeat CPU  0 instructions:  132000000 cycles:  130850307 heartbeat IPC: 0.49366 cumulative IPC: 0.49184 (Simulation time: 0 hr 5 min 34 sec) 
Heartbeat CPU  0 instructions:  133000001 cycles:  132883328 heartbeat IPC: 0.49188 cumulative IPC: 0.49184 (Simulation time: 0 hr 5 min 37 sec) 
Heartbeat CPU  0 instructions:  134000000 cycles:  134920141 heartbeat IPC: 0.49096 cumulative IPC: 0.49182 (Simulation time: 0 hr 5 min 40 sec) 
Heartbeat CPU  0 instructions:  135000001 cycles:  136948655 heartbeat IPC: 0.49297 cumulative IPC: 0.49185 (Simulation time: 0 hr 5 min 43 sec) 
Heartbeat CPU  0 instructions:  136000000 cycles:  138985678 heartbeat IPC: 0.49091 cumulative IPC: 0.49182 (Simulation time: 0 hr 5 min 46 sec) 
Heartbeat CPU  0 instructions:  137000002 cycles:  141018236 heartbeat IPC: 0.49199 cumulative IPC: 0.49183 (Simulation time: 0 hr 5 min 50 sec) 
Heartbeat CPU  0 instructions:  138000000 cycles:  143054362 heartbeat IPC: 0.49113 cumulative IPC: 0.49181 (Simulation time: 0 hr 5 min 53 sec) 
Heartbeat CPU  0 instructions:  139000002 cycles:  145078728 heartbeat IPC: 0.49398 cumulative IPC: 0.49187 (Simulation time: 0 hr 5 min 56 sec) 
Heartbeat CPU  0 instructions:  140000000 cycles:  147109890 heartbeat IPC: 0.49233 cumulative IPC: 0.49188 (Simulation time: 0 hr 5 min 59 sec) 
Heartbeat CPU  0 instructions:  141000003 cycles:  149140225 heartbeat IPC: 0.49253 cumulative IPC: 0.49189 (Simulation time: 0 hr 6 min 3 sec) 
Heartbeat CPU  0 instructions:  142000001 cycles:  151178710 heartbeat IPC: 0.49056 cumulative IPC: 0.49186 (Simulation time: 0 hr 6 min 6 sec) 
Heartbeat CPU  0 instructions:  143000001 cycles:  153215771 heartbeat IPC: 0.49090 cumulative IPC: 0.49184 (Simulation time: 0 hr 6 min 9 sec) 
Heartbeat CPU  0 instructions:  144000000 cycles:  155242901 heartbeat IPC: 0.49331 cumulative IPC: 0.49187 (Simulation time: 0 hr 6 min 12 sec) 
Heartbeat CPU  0 instructions:  145000001 cycles:  157278871 heartbeat IPC: 0.49117 cumulative IPC: 0.49186 (Simulation time: 0 hr 6 min 16 sec) 
Heartbeat CPU  0 instructions:  146000003 cycles:  159315096 heartbeat IPC: 0.49111 cumulative IPC: 0.49184 (Simulation time: 0 hr 6 min 19 sec) 
Heartbeat CPU  0 instructions:  147000002 cycles:  161347984 heartbeat IPC: 0.49191 cumulative IPC: 0.49184 (Simulation time: 0 hr 6 min 22 sec) 
Heartbeat CPU  0 instructions:  148000000 cycles:  163384331 heartbeat IPC: 0.49107 cumulative IPC: 0.49183 (Simulation time: 0 hr 6 min 25 sec) 
Heartbeat CPU  0 instructions:  149000001 cycles:  165416486 heartbeat IPC: 0.49209 cumulative IPC: 0.49183 (Simulation time: 0 hr 6 min 28 sec) 
Heartbeat CPU  0 instructions:  150000002 cycles:  167451950 heartbeat IPC: 0.49129 cumulative IPC: 0.49182 (Simulation time: 0 hr 6 min 32 sec) 
Heartbeat CPU  0 instructions:  151000001 cycles:  169487417 heartbeat IPC: 0.49129 cumulative IPC: 0.49181 (Simulation time: 0 hr 6 min 35 sec) 
Heartbeat CPU  0 instructions:  152000000 cycles:  171527227 heartbeat IPC: 0.49024 cumulative IPC: 0.49178 (Simulation time: 0 hr 6 min 38 sec) 
Heartbeat CPU  0 instructions:  153000002 cycles:  173565552 heartbeat IPC: 0.49060 cumulative IPC: 0.49176 (Simulation time: 0 hr 6 min 41 sec) 
Heartbeat CPU  0 instructions:  154000001 cycles:  175598806 heartbeat IPC: 0.49182 cumulative IPC: 0.49176 (Simulation time: 0 hr 6 min 45 sec) 
Heartbeat CPU  0 instructions:  155000002 cycles:  177639322 heartbeat IPC: 0.49007 cumulative IPC: 0.49173 (Simulation time: 0 hr 6 min 48 sec) 
Heartbeat CPU  0 instructions:  156000000 cycles:  179678247 heartbeat IPC: 0.49045 cumulative IPC: 0.49170 (Simulation time: 0 hr 6 min 51 sec) 
Heartbeat CPU  0 instructions:  157000002 cycles:  181710034 heartbeat IPC: 0.49218 cumulative IPC: 0.49171 (Simulation time: 0 hr 6 min 54 sec) 
Heartbeat CPU  0 instructions:  158000000 cycles:  183739497 heartbeat IPC: 0.49274 cumulative IPC: 0.49173 (Simulation time: 0 hr 6 min 58 sec) 
Heartbeat CPU  0 instructions:  159000000 cycles:  185781538 heartbeat IPC: 0.48971 cumulative IPC: 0.49170 (Simulation time: 0 hr 7 min 1 sec) 
Heartbeat CPU  0 instructions:  160000000 cycles:  187824886 heartbeat IPC: 0.48939 cumulative IPC: 0.49166 (Simulation time: 0 hr 7 min 4 sec) 
Heartbeat CPU  0 instructions:  161000000 cycles:  189870313 heartbeat IPC: 0.48890 cumulative IPC: 0.49161 (Simulation time: 0 hr 7 min 7 sec) 
Heartbeat CPU  0 instructions:  162000000 cycles:  191902840 heartbeat IPC: 0.49200 cumulative IPC: 0.49162 (Simulation time: 0 hr 7 min 10 sec) 
Heartbeat CPU  0 instructions:  163000001 cycles:  193938457 heartbeat IPC: 0.49125 cumulative IPC: 0.49161 (Simulation time: 0 hr 7 min 14 sec) 
Heartbeat CPU  0 instructions:  164000000 cycles:  195974120 heartbeat IPC: 0.49124 cumulative IPC: 0.49161 (Simulation time: 0 hr 7 min 17 sec) 
Heartbeat CPU  0 instructions:  165000001 cycles:  198004341 heartbeat IPC: 0.49256 cumulative IPC: 0.49162 (Simulation time: 0 hr 7 min 20 sec) 
Heartbeat CPU  0 instructions:  166000002 cycles:  200036283 heartbeat IPC: 0.49214 cumulative IPC: 0.49163 (Simulation time: 0 hr 7 min 23 sec) 
Heartbeat CPU  0 instructions:  167000001 cycles:  202070388 heartbeat IPC: 0.49162 cumulative IPC: 0.49163 (Simulation time: 0 hr 7 min 27 sec) 
Heartbeat CPU  0 instructions:  168000000 cycles:  204103334 heartbeat IPC: 0.49190 cumulative IPC: 0.49163 (Simulation time: 0 hr 7 min 30 sec) 
Heartbeat CPU  0 instructions:  169000002 cycles:  206129601 heartbeat IPC: 0.49352 cumulative IPC: 0.49166 (Simulation time: 0 hr 7 min 33 sec) 
Heartbeat CPU  0 instructions:  170000001 cycles:  208166701 heartbeat IPC: 0.49089 cumulative IPC: 0.49165 (Simulation time: 0 hr 7 min 36 sec) 
Heartbeat CPU  0 instructions:  171000000 cycles:  210204814 heartbeat IPC: 0.49065 cumulative IPC: 0.49164 (Simulation time: 0 hr 7 min 39 sec) 
Heartbeat CPU  0 instructions:  172000000 cycles:  212244283 heartbeat IPC: 0.49032 cumulative IPC: 0.49162 (Simulation time: 0 hr 7 min 43 sec) 
Heartbeat CPU  0 instructions:  173000000 cycles:  214273116 heartbeat IPC: 0.49289 cumulative IPC: 0.49163 (Simulation time: 0 hr 7 min 46 sec) 
Heartbeat CPU  0 instructions:  174000000 cycles:  216306768 heartbeat IPC: 0.49173 cumulative IPC: 0.49164 (Simulation time: 0 hr 7 min 49 sec) 
Heartbeat CPU  0 instructions:  175000003 cycles:  218346311 heartbeat IPC: 0.49031 cumulative IPC: 0.49162 (Simulation time: 0 hr 7 min 52 sec) 
Heartbeat CPU  0 instructions:  176000000 cycles:  220390425 heartbeat IPC: 0.48921 cumulative IPC: 0.49159 (Simulation time: 0 hr 7 min 56 sec) 
Heartbeat CPU  0 instructions:  177000000 cycles:  222422188 heartbeat IPC: 0.49218 cumulative IPC: 0.49159 (Simulation time: 0 hr 7 min 59 sec) 
Heartbeat CPU  0 instructions:  178000000 cycles:  224457546 heartbeat IPC: 0.49131 cumulative IPC: 0.49159 (Simulation time: 0 hr 8 min 2 sec) 
Heartbeat CPU  0 instructions:  179000001 cycles:  226499060 heartbeat IPC: 0.48983 cumulative IPC: 0.49157 (Simulation time: 0 hr 8 min 5 sec) 
Heartbeat CPU  0 instructions:  180000000 cycles:  228524750 heartbeat IPC: 0.49366 cumulative IPC: 0.49159 (Simulation time: 0 hr 8 min 8 sec) 
Heartbeat CPU  0 instructions:  181000001 cycles:  230565226 heartbeat IPC: 0.49008 cumulative IPC: 0.49158 (Simulation time: 0 hr 8 min 12 sec) 
Heartbeat CPU  0 instructions:  182000000 cycles:  232602884 heartbeat IPC: 0.49076 cumulative IPC: 0.49157 (Simulation time: 0 hr 8 min 15 sec) 
Heartbeat CPU  0 instructions:  183000002 cycles:  234634783 heartbeat IPC: 0.49215 cumulative IPC: 0.49157 (Simulation time: 0 hr 8 min 18 sec) 
Heartbeat CPU  0 instructions:  184000000 cycles:  236664509 heartbeat IPC: 0.49268 cumulative IPC: 0.49159 (Simulation time: 0 hr 8 min 21 sec) 
Heartbeat CPU  0 instructions:  185000000 cycles:  238694077 heartbeat IPC: 0.49272 cumulative IPC: 0.49160 (Simulation time: 0 hr 8 min 25 sec) 
Heartbeat CPU  0 instructions:  186000000 cycles:  240727245 heartbeat IPC: 0.49184 cumulative IPC: 0.49160 (Simulation time: 0 hr 8 min 28 sec) 
Heartbeat CPU  0 instructions:  187000003 cycles:  242762032 heartbeat IPC: 0.49145 cumulative IPC: 0.49160 (Simulation time: 0 hr 8 min 31 sec) 
Heartbeat CPU  0 instructions:  188000000 cycles:  244791423 heartbeat IPC: 0.49276 cumulative IPC: 0.49161 (Simulation time: 0 hr 8 min 34 sec) 
Heartbeat CPU  0 instructions:  189000000 cycles:  246823997 heartbeat IPC: 0.49199 cumulative IPC: 0.49162 (Simulation time: 0 hr 8 min 38 sec) 
Heartbeat CPU  0 instructions:  190000003 cycles:  248851659 heartbeat IPC: 0.49318 cumulative IPC: 0.49163 (Simulation time: 0 hr 8 min 41 sec) 
Heartbeat CPU  0 instructions:  191000001 cycles:  250882369 heartbeat IPC: 0.49244 cumulative IPC: 0.49164 (Simulation time: 0 hr 8 min 44 sec) 
Heartbeat CPU  0 instructions:  192000000 cycles:  252920239 heartbeat IPC: 0.49071 cumulative IPC: 0.49163 (Simulation time: 0 hr 8 min 47 sec) 
Heartbeat CPU  0 instructions:  193000001 cycles:  254960258 heartbeat IPC: 0.49019 cumulative IPC: 0.49162 (Simulation time: 0 hr 8 min 50 sec) 
Heartbeat CPU  0 instructions:  194000001 cycles:  256994004 heartbeat IPC: 0.49170 cumulative IPC: 0.49162 (Simulation time: 0 hr 8 min 54 sec) 
Heartbeat CPU  0 instructions:  195000002 cycles:  259025720 heartbeat IPC: 0.49220 cumulative IPC: 0.49162 (Simulation time: 0 hr 8 min 57 sec) 
Heartbeat CPU  0 instructions:  196000000 cycles:  261055902 heartbeat IPC: 0.49257 cumulative IPC: 0.49163 (Simulation time: 0 hr 9 min 0 sec) 
Heartbeat CPU  0 instructions:  197000001 cycles:  263095276 heartbeat IPC: 0.49035 cumulative IPC: 0.49162 (Simulation time: 0 hr 9 min 3 sec) 
Heartbeat CPU  0 instructions:  198000002 cycles:  265128492 heartbeat IPC: 0.49183 cumulative IPC: 0.49162 (Simulation time: 0 hr 9 min 7 sec) 
Heartbeat CPU  0 instructions:  199000003 cycles:  267166409 heartbeat IPC: 0.49070 cumulative IPC: 0.49161 (Simulation time: 0 hr 9 min 10 sec) 
Heartbeat CPU  0 instructions:  200000000 cycles:  269198342 heartbeat IPC: 0.49214 cumulative IPC: 0.49162 (Simulation time: 0 hr 9 min 13 sec) 
Heartbeat CPU  0 instructions:  201000002 cycles:  271237725 heartbeat IPC: 0.49035 cumulative IPC: 0.49161 (Simulation time: 0 hr 9 min 16 sec) 
Heartbeat CPU  0 instructions:  202000000 cycles:  273275071 heartbeat IPC: 0.49083 cumulative IPC: 0.49160 (Simulation time: 0 hr 9 min 19 sec) 
Heartbeat CPU  0 instructions:  203000000 cycles:  275304717 heartbeat IPC: 0.49270 cumulative IPC: 0.49161 (Simulation time: 0 hr 9 min 23 sec) 
Heartbeat CPU  0 instructions:  204000000 cycles:  277338599 heartbeat IPC: 0.49167 cumulative IPC: 0.49161 (Simulation time: 0 hr 9 min 26 sec) 
Heartbeat CPU  0 instructions:  205000003 cycles:  279379028 heartbeat IPC: 0.49009 cumulative IPC: 0.49160 (Simulation time: 0 hr 9 min 29 sec) 
Heartbeat CPU  0 instructions:  206000002 cycles:  281407840 heartbeat IPC: 0.49290 cumulative IPC: 0.49161 (Simulation time: 0 hr 9 min 32 sec) 
Heartbeat CPU  0 instructions:  207000000 cycles:  283438549 heartbeat IPC: 0.49244 cumulative IPC: 0.49162 (Simulation time: 0 hr 9 min 36 sec) 
Heartbeat CPU  0 instructions:  208000000 cycles:  285469212 heartbeat IPC: 0.49245 cumulative IPC: 0.49162 (Simulation time: 0 hr 9 min 39 sec) 
Heartbeat CPU  0 instructions:  209000002 cycles:  287504934 heartbeat IPC: 0.49123 cumulative IPC: 0.49162 (Simulation time: 0 hr 9 min 42 sec) 
Heartbeat CPU  0 instructions:  210000001 cycles:  289538870 heartbeat IPC: 0.49166 cumulative IPC: 0.49162 (Simulation time: 0 hr 9 min 45 sec) 
Heartbeat CPU  0 instructions:  211000000 cycles:  291567345 heartbeat IPC: 0.49298 cumulative IPC: 0.49163 (Simulation time: 0 hr 9 min 48 sec) 
Heartbeat CPU  0 instructions:  212000000 cycles:  293601547 heartbeat IPC: 0.49159 cumulative IPC: 0.49163 (Simulation time: 0 hr 9 min 52 sec) 
Heartbeat CPU  0 instructions:  213000001 cycles:  295637113 heartbeat IPC: 0.49126 cumulative IPC: 0.49163 (Simulation time: 0 hr 9 min 55 sec) 
Heartbeat CPU  0 instructions:  214000000 cycles:  297676186 heartbeat IPC: 0.49042 cumulative IPC: 0.49162 (Simulation time: 0 hr 9 min 58 sec) 
Heartbeat CPU  0 instructions:  215000002 cycles:  299704291 heartbeat IPC: 0.49307 cumulative IPC: 0.49163 (Simulation time: 0 hr 10 min 1 sec) 
Heartbeat CPU  0 instructions:  216000000 cycles:  301735051 heartbeat IPC: 0.49243 cumulative IPC: 0.49164 (Simulation time: 0 hr 10 min 5 sec) 
Heartbeat CPU  0 instructions:  217000001 cycles:  303772379 heartbeat IPC: 0.49084 cumulative IPC: 0.49163 (Simulation time: 0 hr 10 min 8 sec) 
Heartbeat CPU  0 instructions:  218000002 cycles:  305805745 heartbeat IPC: 0.49180 cumulative IPC: 0.49163 (Simulation time: 0 hr 10 min 11 sec) 
Heartbeat CPU  0 instructions:  219000001 cycles:  307832757 heartbeat IPC: 0.49334 cumulative IPC: 0.49165 (Simulation time: 0 hr 10 min 14 sec) 
Heartbeat CPU  0 instructions:  220000000 cycles:  309860021 heartbeat IPC: 0.49328 cumulative IPC: 0.49166 (Simulation time: 0 hr 10 min 17 sec) 
Heartbeat CPU  0 instructions:  221000001 cycles:  311892553 heartbeat IPC: 0.49200 cumulative IPC: 0.49166 (Simulation time: 0 hr 10 min 21 sec) 
Heartbeat CPU  0 instructions:  222000002 cycles:  313922942 heartbeat IPC: 0.49252 cumulative IPC: 0.49167 (Simulation time: 0 hr 10 min 24 sec) 
Heartbeat CPU  0 instructions:  223000000 cycles:  315951371 heartbeat IPC: 0.49299 cumulative IPC: 0.49168 (Simulation time: 0 hr 10 min 27 sec) 
Heartbeat CPU  0 instructions:  224000000 cycles:  317995012 heartbeat IPC: 0.48932 cumulative IPC: 0.49166 (Simulation time: 0 hr 10 min 30 sec) 
Heartbeat CPU  0 instructions:  225000002 cycles:  320031891 heartbeat IPC: 0.49095 cumulative IPC: 0.49166 (Simulation time: 0 hr 10 min 34 sec) 
Heartbeat CPU  0 instructions:  226000003 cycles:  322063279 heartbeat IPC: 0.49227 cumulative IPC: 0.49166 (Simulation time: 0 hr 10 min 37 sec) 
Heartbeat CPU  0 instructions:  227000002 cycles:  324099536 heartbeat IPC: 0.49110 cumulative IPC: 0.49166 (Simulation time: 0 hr 10 min 40 sec) 
Heartbeat CPU  0 instructions:  228000000 cycles:  326139482 heartbeat IPC: 0.49021 cumulative IPC: 0.49164 (Simulation time: 0 hr 10 min 43 sec) 
Heartbeat CPU  0 instructions:  229000000 cycles:  328168158 heartbeat IPC: 0.49293 cumulative IPC: 0.49165 (Simulation time: 0 hr 10 min 46 sec) 
Heartbeat CPU  0 instructions:  230000002 cycles:  330203641 heartbeat IPC: 0.49128 cumulative IPC: 0.49165 (Simulation time: 0 hr 10 min 50 sec) 
Heartbeat CPU  0 instructions:  231000001 cycles:  332241590 heartbeat IPC: 0.49069 cumulative IPC: 0.49164 (Simulation time: 0 hr 10 min 53 sec) 
Heartbeat CPU  0 instructions:  232000000 cycles:  334278008 heartbeat IPC: 0.49106 cumulative IPC: 0.49164 (Simulation time: 0 hr 10 min 56 sec) 
Heartbeat CPU  0 instructions:  233000000 cycles:  336314421 heartbeat IPC: 0.49106 cumulative IPC: 0.49164 (Simulation time: 0 hr 10 min 59 sec) 
Heartbeat CPU  0 instructions:  234000001 cycles:  338351805 heartbeat IPC: 0.49083 cumulative IPC: 0.49163 (Simulation time: 0 hr 11 min 3 sec) 
Heartbeat CPU  0 instructions:  235000001 cycles:  340383870 heartbeat IPC: 0.49211 cumulative IPC: 0.49163 (Simulation time: 0 hr 11 min 6 sec) 
Heartbeat CPU  0 instructions:  236000000 cycles:  342414531 heartbeat IPC: 0.49245 cumulative IPC: 0.49164 (Simulation time: 0 hr 11 min 9 sec) 
Heartbeat CPU  0 instructions:  237000000 cycles:  344441894 heartbeat IPC: 0.49325 cumulative IPC: 0.49165 (Simulation time: 0 hr 11 min 12 sec) 
Heartbeat CPU  0 instructions:  238000000 cycles:  346481061 heartbeat IPC: 0.49040 cumulative IPC: 0.49164 (Simulation time: 0 hr 11 min 15 sec) 
Heartbeat CPU  0 instructions:  239000001 cycles:  348511345 heartbeat IPC: 0.49254 cumulative IPC: 0.49165 (Simulation time: 0 hr 11 min 19 sec) 
Heartbeat CPU  0 instructions:  240000000 cycles:  350545278 heartbeat IPC: 0.49166 cumulative IPC: 0.49165 (Simulation time: 0 hr 11 min 22 sec) 
Heartbeat CPU  0 instructions:  241000000 cycles:  352569962 heartbeat IPC: 0.49390 cumulative IPC: 0.49166 (Simulation time: 0 hr 11 min 25 sec) 
Heartbeat CPU  0 instructions:  242000003 cycles:  354614646 heartbeat IPC: 0.48907 cumulative IPC: 0.49165 (Simulation time: 0 hr 11 min 28 sec) 
Heartbeat CPU  0 instructions:  243000000 cycles:  356652858 heartbeat IPC: 0.49062 cumulative IPC: 0.49164 (Simulation time: 0 hr 11 min 32 sec) 
Heartbeat CPU  0 instructions:  244000000 cycles:  358682004 heartbeat IPC: 0.49282 cumulative IPC: 0.49165 (Simulation time: 0 hr 11 min 35 sec) 
Heartbeat CPU  0 instructions:  245000001 cycles:  360712146 heartbeat IPC: 0.49258 cumulative IPC: 0.49165 (Simulation time: 0 hr 11 min 38 sec) 
Heartbeat CPU  0 instructions:  246000001 cycles:  362744973 heartbeat IPC: 0.49193 cumulative IPC: 0.49165 (Simulation time: 0 hr 11 min 41 sec) 
Heartbeat CPU  0 instructions:  247000001 cycles:  364783778 heartbeat IPC: 0.49048 cumulative IPC: 0.49165 (Simulation time: 0 hr 11 min 44 sec) 
Heartbeat CPU  0 instructions:  248000000 cycles:  366814335 heartbeat IPC: 0.49248 cumulative IPC: 0.49165 (Simulation time: 0 hr 11 min 48 sec) 
Heartbeat CPU  0 instructions:  249000003 cycles:  368851329 heartbeat IPC: 0.49092 cumulative IPC: 0.49165 (Simulation time: 0 hr 11 min 51 sec) 
Heartbeat CPU  0 instructions:  250000001 cycles:  370889275 heartbeat IPC: 0.49069 cumulative IPC: 0.49164 (Simulation time: 0 hr 11 min 54 sec) 
Heartbeat CPU  0 instructions:  251000000 cycles:  372926323 heartbeat IPC: 0.49091 cumulative IPC: 0.49164 (Simulation time: 0 hr 11 min 57 sec) 
Heartbeat CPU  0 instructions:  252000000 cycles:  374957522 heartbeat IPC: 0.49232 cumulative IPC: 0.49164 (Simulation time: 0 hr 12 min 1 sec) 
Heartbeat CPU  0 instructions:  253000000 cycles:  376995079 heartbeat IPC: 0.49078 cumulative IPC: 0.49164 (Simulation time: 0 hr 12 min 4 sec) 
Heartbeat CPU  0 instructions:  254000001 cycles:  379022057 heartbeat IPC: 0.49335 cumulative IPC: 0.49165 (Simulation time: 0 hr 12 min 7 sec) 
Heartbeat CPU  0 instructions:  255000000 cycles:  381054073 heartbeat IPC: 0.49212 cumulative IPC: 0.49165 (Simulation time: 0 hr 12 min 10 sec) 
Heartbeat CPU  0 instructions:  256000000 cycles:  383090092 heartbeat IPC: 0.49115 cumulative IPC: 0.49165 (Simulation time: 0 hr 12 min 14 sec) 
Heartbeat CPU  0 instructions:  257000000 cycles:  385126892 heartbeat IPC: 0.49097 cumulative IPC: 0.49164 (Simulation time: 0 hr 12 min 17 sec) 
Heartbeat CPU  0 instructions:  258000003 cycles:  387162787 heartbeat IPC: 0.49119 cumulative IPC: 0.49164 (Simulation time: 0 hr 12 min 20 sec) 
Heartbeat CPU  0 instructions:  259000002 cycles:  389197420 heartbeat IPC: 0.49149 cumulative IPC: 0.49164 (Simulation time: 0 hr 12 min 23 sec) 
Heartbeat CPU  0 instructions:  260000000 cycles:  391232489 heartbeat IPC: 0.49138 cumulative IPC: 0.49164 (Simulation time: 0 hr 12 min 26 sec) 
Heartbeat CPU  0 instructions:  261000003 cycles:  393275479 heartbeat IPC: 0.48948 cumulative IPC: 0.49162 (Simulation time: 0 hr 12 min 30 sec) 
Heartbeat CPU  0 instructions:  262000000 cycles:  395307315 heartbeat IPC: 0.49216 cumulative IPC: 0.49163 (Simulation time: 0 hr 12 min 33 sec) 
Heartbeat CPU  0 instructions:  263000000 cycles:  397344416 heartbeat IPC: 0.49089 cumulative IPC: 0.49162 (Simulation time: 0 hr 12 min 36 sec) 
Heartbeat CPU  0 instructions:  264000000 cycles:  399376352 heartbeat IPC: 0.49214 cumulative IPC: 0.49162 (Simulation time: 0 hr 12 min 39 sec) 
Heartbeat CPU  0 instructions:  265000002 cycles:  401402973 heartbeat IPC: 0.49343 cumulative IPC: 0.49164 (Simulation time: 0 hr 12 min 43 sec) 
Heartbeat CPU  0 instructions:  266000003 cycles:  403441727 heartbeat IPC: 0.49050 cumulative IPC: 0.49163 (Simulation time: 0 hr 12 min 46 sec) 
Heartbeat CPU  0 instructions:  267000003 cycles:  405474847 heartbeat IPC: 0.49185 cumulative IPC: 0.49163 (Simulation time: 0 hr 12 min 49 sec) 
Heartbeat CPU  0 instructions:  268000000 cycles:  407513261 heartbeat IPC: 0.49058 cumulative IPC: 0.49162 (Simulation time: 0 hr 12 min 52 sec) 
Heartbeat CPU  0 instructions:  269000000 cycles:  409547090 heartbeat IPC: 0.49168 cumulative IPC: 0.49162 (Simulation time: 0 hr 12 min 55 sec) 
Heartbeat CPU  0 instructions:  270000001 cycles:  411592365 heartbeat IPC: 0.48893 cumulative IPC: 0.49161 (Simulation time: 0 hr 12 min 59 sec) 
Heartbeat CPU  0 instructions:  271000001 cycles:  413630234 heartbeat IPC: 0.49071 cumulative IPC: 0.49160 (Simulation time: 0 hr 13 min 2 sec) 
Heartbeat CPU  0 instructions:  272000000 cycles:  415668296 heartbeat IPC: 0.49066 cumulative IPC: 0.49160 (Simulation time: 0 hr 13 min 5 sec) 
Heartbeat CPU  0 instructions:  273000003 cycles:  417708290 heartbeat IPC: 0.49020 cumulative IPC: 0.49159 (Simulation time: 0 hr 13 min 8 sec) 
Heartbeat CPU  0 instructions:  274000002 cycles:  419731708 heartbeat IPC: 0.49421 cumulative IPC: 0.49160 (Simulation time: 0 hr 13 min 12 sec) 
Heartbeat CPU  0 instructions:  275000000 cycles:  421764917 heartbeat IPC: 0.49183 cumulative IPC: 0.49161 (Simulation time: 0 hr 13 min 15 sec) 
Heartbeat CPU  0 instructions:  276000000 cycles:  423795782 heartbeat IPC: 0.49240 cumulative IPC: 0.49161 (Simulation time: 0 hr 13 min 18 sec) 
Heartbeat CPU  0 instructions:  277000002 cycles:  425835655 heartbeat IPC: 0.49023 cumulative IPC: 0.49160 (Simulation time: 0 hr 13 min 21 sec) 
Heartbeat CPU  0 instructions:  278000002 cycles:  427868484 heartbeat IPC: 0.49193 cumulative IPC: 0.49160 (Simulation time: 0 hr 13 min 25 sec) 
Heartbeat CPU  0 instructions:  279000001 cycles:  429898006 heartbeat IPC: 0.49273 cumulative IPC: 0.49161 (Simulation time: 0 hr 13 min 28 sec) 
Heartbeat CPU  0 instructions:  280000000 cycles:  431934203 heartbeat IPC: 0.49111 cumulative IPC: 0.49161 (Simulation time: 0 hr 13 min 31 sec) 
Heartbeat CPU  0 instructions:  281000000 cycles:  433974454 heartbeat IPC: 0.49014 cumulative IPC: 0.49160 (Simulation time: 0 hr 13 min 34 sec) 
Heartbeat CPU  0 instructions:  282000000 cycles:  436011150 heartbeat IPC: 0.49099 cumulative IPC: 0.49160 (Simulation time: 0 hr 13 min 37 sec) 
Heartbeat CPU  0 instructions:  283000003 cycles:  438057750 heartbeat IPC: 0.48862 cumulative IPC: 0.49158 (Simulation time: 0 hr 13 min 41 sec) 
Heartbeat CPU  0 instructions:  284000000 cycles:  440094614 heartbeat IPC: 0.49095 cumulative IPC: 0.49158 (Simulation time: 0 hr 13 min 44 sec) 
Heartbeat CPU  0 instructions:  285000000 cycles:  442131013 heartbeat IPC: 0.49106 cumulative IPC: 0.49157 (Simulation time: 0 hr 13 min 47 sec) 
Heartbeat CPU  0 instructions:  286000002 cycles:  444162898 heartbeat IPC: 0.49215 cumulative IPC: 0.49158 (Simulation time: 0 hr 13 min 50 sec) 
Heartbeat CPU  0 instructions:  287000000 cycles:  446195453 heartbeat IPC: 0.49199 cumulative IPC: 0.49158 (Simulation time: 0 hr 13 min 54 sec) 
Heartbeat CPU  0 instructions:  288000000 cycles:  448225996 heartbeat IPC: 0.49248 cumulative IPC: 0.49158 (Simulation time: 0 hr 13 min 57 sec) 
Heartbeat CPU  0 instructions:  289000001 cycles:  450254878 heartbeat IPC: 0.49288 cumulative IPC: 0.49159 (Simulation time: 0 hr 14 min 0 sec) 
Heartbeat CPU  0 instructions:  290000002 cycles:  452286577 heartbeat IPC: 0.49220 cumulative IPC: 0.49159 (Simulation time: 0 hr 14 min 3 sec) 
Heartbeat CPU  0 instructions:  291000002 cycles:  454318001 heartbeat IPC: 0.49227 cumulative IPC: 0.49160 (Simulation time: 0 hr 14 min 6 sec) 
Heartbeat CPU  0 instructions:  292000000 cycles:  456358632 heartbeat IPC: 0.49004 cumulative IPC: 0.49159 (Simulation time: 0 hr 14 min 10 sec) 
Heartbeat CPU  0 instructions:  293000001 cycles:  458387804 heartbeat IPC: 0.49281 cumulative IPC: 0.49160 (Simulation time: 0 hr 14 min 13 sec) 
Heartbeat CPU  0 instructions:  294000000 cycles:  460422261 heartbeat IPC: 0.49153 cumulative IPC: 0.49160 (Simulation time: 0 hr 14 min 16 sec) 
Heartbeat CPU  0 instructions:  295000003 cycles:  462458683 heartbeat IPC: 0.49106 cumulative IPC: 0.49159 (Simulation time: 0 hr 14 min 19 sec) 
Heartbeat CPU  0 instructions:  296000000 cycles:  464494809 heartbeat IPC: 0.49113 cumulative IPC: 0.49159 (Simulation time: 0 hr 14 min 23 sec) 
Heartbeat CPU  0 instructions:  297000001 cycles:  466524330 heartbeat IPC: 0.49273 cumulative IPC: 0.49160 (Simulation time: 0 hr 14 min 26 sec) 
Heartbeat CPU  0 instructions:  298000001 cycles:  468557150 heartbeat IPC: 0.49193 cumulative IPC: 0.49160 (Simulation time: 0 hr 14 min 29 sec) 
Heartbeat CPU  0 instructions:  299000000 cycles:  470586156 heartbeat IPC: 0.49285 cumulative IPC: 0.49160 (Simulation time: 0 hr 14 min 32 sec) 
Heartbeat CPU  0 instructions:  300000000 cycles:  472614808 heartbeat IPC: 0.49294 cumulative IPC: 0.49161 (Simulation time: 0 hr 14 min 36 sec) 
Heartbeat CPU  0 instructions:  301000000 cycles:  474647213 heartbeat IPC: 0.49203 cumulative IPC: 0.49161 (Simulation time: 0 hr 14 min 39 sec) 
Heartbeat CPU  0 instructions:  302000002 cycles:  476678762 heartbeat IPC: 0.49224 cumulative IPC: 0.49162 (Simulation time: 0 hr 14 min 42 sec) 
Heartbeat CPU  0 instructions:  303000000 cycles:  478714367 heartbeat IPC: 0.49125 cumulative IPC: 0.49161 (Simulation time: 0 hr 14 min 45 sec) 
Heartbeat CPU  0 instructions:  304000000 cycles:  480753841 heartbeat IPC: 0.49032 cumulative IPC: 0.49161 (Simulation time: 0 hr 14 min 49 sec) 
Heartbeat CPU  0 instructions:  305000001 cycles:  482789942 heartbeat IPC: 0.49114 cumulative IPC: 0.49161 (Simulation time: 0 hr 14 min 52 sec) 
Heartbeat CPU  0 instructions:  306000001 cycles:  484840790 heartbeat IPC: 0.48760 cumulative IPC: 0.49159 (Simulation time: 0 hr 14 min 55 sec) 
Heartbeat CPU  0 instructions:  307000002 cycles:  486870604 heartbeat IPC: 0.49266 cumulative IPC: 0.49159 (Simulation time: 0 hr 14 min 58 sec) 
Heartbeat CPU  0 instructions:  308000000 cycles:  488910523 heartbeat IPC: 0.49021 cumulative IPC: 0.49158 (Simulation time: 0 hr 15 min 1 sec) 
Heartbeat CPU  0 instructions:  309000002 cycles:  490946583 heartbeat IPC: 0.49115 cumulative IPC: 0.49158 (Simulation time: 0 hr 15 min 5 sec) 
Heartbeat CPU  0 instructions:  310000000 cycles:  492976565 heartbeat IPC: 0.49261 cumulative IPC: 0.49159 (Simulation time: 0 hr 15 min 8 sec) 
Heartbeat CPU  0 instructions:  311000002 cycles:  495004742 heartbeat IPC: 0.49305 cumulative IPC: 0.49159 (Simulation time: 0 hr 15 min 11 sec) 
Heartbeat CPU  0 instructions:  312000000 cycles:  497040028 heartbeat IPC: 0.49133 cumulative IPC: 0.49159 (Simulation time: 0 hr 15 min 14 sec) 
Heartbeat CPU  0 instructions:  313000003 cycles:  499074899 heartbeat IPC: 0.49143 cumulative IPC: 0.49159 (Simulation time: 0 hr 15 min 18 sec) 
Heartbeat CPU  0 instructions:  314000002 cycles:  501105396 heartbeat IPC: 0.49249 cumulative IPC: 0.49160 (Simulation time: 0 hr 15 min 21 sec) 
Heartbeat CPU  0 instructions:  315000000 cycles:  503138335 heartbeat IPC: 0.49190 cumulative IPC: 0.49160 (Simulation time: 0 hr 15 min 24 sec) 
Heartbeat CPU  0 instructions:  316000000 cycles:  505178603 heartbeat IPC: 0.49013 cumulative IPC: 0.49159 (Simulation time: 0 hr 15 min 27 sec) 
Heartbeat CPU  0 instructions:  317000001 cycles:  507209790 heartbeat IPC: 0.49232 cumulative IPC: 0.49159 (Simulation time: 0 hr 15 min 30 sec) 
Heartbeat CPU  0 instructions:  318000001 cycles:  509247536 heartbeat IPC: 0.49074 cumulative IPC: 0.49159 (Simulation time: 0 hr 15 min 34 sec) 
Heartbeat CPU  0 instructions:  319000000 cycles:  511284221 heartbeat IPC: 0.49099 cumulative IPC: 0.49159 (Simulation time: 0 hr 15 min 37 sec) 
Heartbeat CPU  0 instructions:  320000000 cycles:  513314640 heartbeat IPC: 0.49251 cumulative IPC: 0.49159 (Simulation time: 0 hr 15 min 40 sec) 
Heartbeat CPU  0 instructions:  321000000 cycles:  515341388 heartbeat IPC: 0.49340 cumulative IPC: 0.49160 (Simulation time: 0 hr 15 min 43 sec) 
Heartbeat CPU  0 instructions:  322000000 cycles:  517374611 heartbeat IPC: 0.49183 cumulative IPC: 0.49160 (Simulation time: 0 hr 15 min 47 sec) 
Heartbeat CPU  0 instructions:  323000002 cycles:  519405165 heartbeat IPC: 0.49248 cumulative IPC: 0.49160 (Simulation time: 0 hr 15 min 50 sec) 
Heartbeat CPU  0 instructions:  324000000 cycles:  521438333 heartbeat IPC: 0.49184 cumulative IPC: 0.49161 (Simulation time: 0 hr 15 min 53 sec) 
Heartbeat CPU  0 instructions:  325000002 cycles:  523472131 heartbeat IPC: 0.49169 cumulative IPC: 0.49161 (Simulation time: 0 hr 15 min 56 sec) 
Heartbeat CPU  0 instructions:  326000001 cycles:  525508590 heartbeat IPC: 0.49105 cumulative IPC: 0.49160 (Simulation time: 0 hr 16 min 0 sec) 
Heartbeat CPU  0 instructions:  327000000 cycles:  527549226 heartbeat IPC: 0.49004 cumulative IPC: 0.49160 (Simulation time: 0 hr 16 min 3 sec) 
Heartbeat CPU  0 instructions:  328000000 cycles:  529586327 heartbeat IPC: 0.49089 cumulative IPC: 0.49159 (Simulation time: 0 hr 16 min 6 sec) 
Heartbeat CPU  0 instructions:  329000003 cycles:  531616571 heartbeat IPC: 0.49255 cumulative IPC: 0.49160 (Simulation time: 0 hr 16 min 9 sec) 
Heartbeat CPU  0 instructions:  330000000 cycles:  533648708 heartbeat IPC: 0.49209 cumulative IPC: 0.49160 (Simulation time: 0 hr 16 min 12 sec) 
Heartbeat CPU  0 instructions:  331000000 cycles:  535677048 heartbeat IPC: 0.49301 cumulative IPC: 0.49161 (Simulation time: 0 hr 16 min 16 sec) 
Heartbeat CPU  0 instructions:  332000000 cycles:  537715122 heartbeat IPC: 0.49066 cumulative IPC: 0.49160 (Simulation time: 0 hr 16 min 19 sec) 
Heartbeat CPU  0 instructions:  333000002 cycles:  539748195 heartbeat IPC: 0.49187 cumulative IPC: 0.49160 (Simulation time: 0 hr 16 min 22 sec) 
Heartbeat CPU  0 instructions:  334000003 cycles:  541777986 heartbeat IPC: 0.49266 cumulative IPC: 0.49161 (Simulation time: 0 hr 16 min 25 sec) 
Heartbeat CPU  0 instructions:  335000000 cycles:  543809940 heartbeat IPC: 0.49214 cumulative IPC: 0.49161 (Simulation time: 0 hr 16 min 29 sec) 
Heartbeat CPU  0 instructions:  336000000 cycles:  545843387 heartbeat IPC: 0.49178 cumulative IPC: 0.49161 (Simulation time: 0 hr 16 min 32 sec) 
Heartbeat CPU  0 instructions:  337000001 cycles:  547879228 heartbeat IPC: 0.49120 cumulative IPC: 0.49161 (Simulation time: 0 hr 16 min 35 sec) 
Heartbeat CPU  0 instructions:  338000002 cycles:  549913255 heartbeat IPC: 0.49164 cumulative IPC: 0.49161 (Simulation time: 0 hr 16 min 38 sec) 
Heartbeat CPU  0 instructions:  339000001 cycles:  551949895 heartbeat IPC: 0.49100 cumulative IPC: 0.49161 (Simulation time: 0 hr 16 min 42 sec) 
Heartbeat CPU  0 instructions:  340000000 cycles:  553982285 heartbeat IPC: 0.49203 cumulative IPC: 0.49161 (Simulation time: 0 hr 16 min 45 sec) 
Heartbeat CPU  0 instructions:  341000001 cycles:  556022629 heartbeat IPC: 0.49011 cumulative IPC: 0.49160 (Simulation time: 0 hr 16 min 48 sec) 
Heartbeat CPU  0 instructions:  342000003 cycles:  558059666 heartbeat IPC: 0.49091 cumulative IPC: 0.49160 (Simulation time: 0 hr 16 min 51 sec) 
Heartbeat CPU  0 instructions:  343000002 cycles:  560089961 heartbeat IPC: 0.49254 cumulative IPC: 0.49160 (Simulation time: 0 hr 16 min 55 sec) 
Heartbeat CPU  0 instructions:  344000000 cycles:  562118502 heartbeat IPC: 0.49296 cumulative IPC: 0.49161 (Simulation time: 0 hr 16 min 58 sec) 
Heartbeat CPU  0 instructions:  345000001 cycles:  566895712 heartbeat IPC: 0.20933 cumulative IPC: 0.48892 (Simulation time: 0 hr 17 min 2 sec) 
Heartbeat CPU  0 instructions:  346000001 cycles:  570052681 heartbeat IPC: 0.31676 cumulative IPC: 0.48784 (Simulation time: 0 hr 17 min 5 sec) 
Heartbeat CPU  0 instructions:  347000003 cycles:  572512050 heartbeat IPC: 0.40661 cumulative IPC: 0.48745 (Simulation time: 0 hr 17 min 7 sec) 
Heartbeat CPU  0 instructions:  348000000 cycles:  574971725 heartbeat IPC: 0.40656 cumulative IPC: 0.48705 (Simulation time: 0 hr 17 min 10 sec) 
Heartbeat CPU  0 instructions:  349000002 cycles:  577433064 heartbeat IPC: 0.40628 cumulative IPC: 0.48667 (Simulation time: 0 hr 17 min 13 sec) 
Heartbeat CPU  0 instructions:  350000002 cycles:  579892463 heartbeat IPC: 0.40660 cumulative IPC: 0.48628 (Simulation time: 0 hr 17 min 16 sec) 
Heartbeat CPU  0 instructions:  351000001 cycles:  582350459 heartbeat IPC: 0.40684 cumulative IPC: 0.48591 (Simulation time: 0 hr 17 min 18 sec) 
Heartbeat CPU  0 instructions:  352000000 cycles:  584809442 heartbeat IPC: 0.40667 cumulative IPC: 0.48553 (Simulation time: 0 hr 17 min 21 sec) 
Heartbeat CPU  0 instructions:  353000003 cycles:  587269282 heartbeat IPC: 0.40653 cumulative IPC: 0.48516 (Simulation time: 0 hr 17 min 24 sec) 
Heartbeat CPU  0 instructions:  354000002 cycles:  589728528 heartbeat IPC: 0.40663 cumulative IPC: 0.48479 (Simulation time: 0 hr 17 min 27 sec) 
Heartbeat CPU  0 instructions:  355000000 cycles:  592188049 heartbeat IPC: 0.40658 cumulative IPC: 0.48442 (Simulation time: 0 hr 17 min 29 sec) 
Heartbeat CPU  0 instructions:  356000000 cycles:  594647189 heartbeat IPC: 0.40665 cumulative IPC: 0.48406 (Simulation time: 0 hr 17 min 32 sec) 
Heartbeat CPU  0 instructions:  357000003 cycles:  597106718 heartbeat IPC: 0.40658 cumulative IPC: 0.48370 (Simulation time: 0 hr 17 min 35 sec) 
Heartbeat CPU  0 instructions:  358000003 cycles:  599510100 heartbeat IPC: 0.41608 cumulative IPC: 0.48340 (Simulation time: 0 hr 17 min 38 sec) 
Heartbeat CPU  0 instructions:  359000003 cycles:  601092809 heartbeat IPC: 0.63183 cumulative IPC: 0.48384 (Simulation time: 0 hr 17 min 40 sec) 
Heartbeat CPU  0 instructions:  360000000 cycles:  602406632 heartbeat IPC: 0.76114 cumulative IPC: 0.48452 (Simulation time: 0 hr 17 min 42 sec) 
Heartbeat CPU  0 instructions:  361000003 cycles:  605120752 heartbeat IPC: 0.36844 cumulative IPC: 0.48393 (Simulation time: 0 hr 17 min 45 sec) 
Heartbeat CPU  0 instructions:  362000003 cycles:  608256110 heartbeat IPC: 0.31894 cumulative IPC: 0.48298 (Simulation time: 0 hr 17 min 48 sec) 
Heartbeat CPU  0 instructions:  363000000 cycles:  611356505 heartbeat IPC: 0.32254 cumulative IPC: 0.48207 (Simulation time: 0 hr 17 min 51 sec) 
Heartbeat CPU  0 instructions:  364000000 cycles:  614457291 heartbeat IPC: 0.32250 cumulative IPC: 0.48116 (Simulation time: 0 hr 17 min 54 sec) 
Heartbeat CPU  0 instructions:  365000000 cycles:  617550572 heartbeat IPC: 0.32328 cumulative IPC: 0.48028 (Simulation time: 0 hr 17 min 57 sec) 
Heartbeat CPU  0 instructions:  366000001 cycles:  620631635 heartbeat IPC: 0.32456 cumulative IPC: 0.47941 (Simulation time: 0 hr 18 min 0 sec) 
Heartbeat CPU  0 instructions:  367000001 cycles:  623697194 heartbeat IPC: 0.32620 cumulative IPC: 0.47857 (Simulation time: 0 hr 18 min 3 sec) 
Heartbeat CPU  0 instructions:  368000000 cycles:  626739173 heartbeat IPC: 0.32873 cumulative IPC: 0.47776 (Simulation time: 0 hr 18 min 6 sec) 
Heartbeat CPU  0 instructions:  369000002 cycles:  629913834 heartbeat IPC: 0.31499 cumulative IPC: 0.47684 (Simulation time: 0 hr 18 min 10 sec) 
Heartbeat CPU  0 instructions:  370000002 cycles:  633167903 heartbeat IPC: 0.30731 cumulative IPC: 0.47587 (Simulation time: 0 hr 18 min 13 sec) 
Heartbeat CPU  0 instructions:  371000002 cycles:  636436203 heartbeat IPC: 0.30597 cumulative IPC: 0.47490 (Simulation time: 0 hr 18 min 16 sec) 
Heartbeat CPU  0 instructions:  372000000 cycles:  639723360 heartbeat IPC: 0.30421 cumulative IPC: 0.47392 (Simulation time: 0 hr 18 min 19 sec) 
Heartbeat CPU  0 instructions:  373000003 cycles:  642996436 heartbeat IPC: 0.30552 cumulative IPC: 0.47297 (Simulation time: 0 hr 18 min 22 sec) 
Heartbeat CPU  0 instructions:  374000003 cycles:  646283980 heartbeat IPC: 0.30418 cumulative IPC: 0.47201 (Simulation time: 0 hr 18 min 25 sec) 
Heartbeat CPU  0 instructions:  375000000 cycles:  649535348 heartbeat IPC: 0.30756 cumulative IPC: 0.47109 (Simulation time: 0 hr 18 min 28 sec) 
Heartbeat CPU  0 instructions:  376000000 cycles:  652786386 heartbeat IPC: 0.30759 cumulative IPC: 0.47019 (Simulation time: 0 hr 18 min 31 sec) 
Heartbeat CPU  0 instructions:  377000001 cycles:  655269029 heartbeat IPC: 0.40280 cumulative IPC: 0.46991 (Simulation time: 0 hr 18 min 35 sec) 
Heartbeat CPU  0 instructions:  378000001 cycles:  657266117 heartbeat IPC: 0.50073 cumulative IPC: 0.47001 (Simulation time: 0 hr 18 min 38 sec) 
Heartbeat CPU  0 instructions:  379000000 cycles:  659258542 heartbeat IPC: 0.50190 cumulative IPC: 0.47012 (Simulation time: 0 hr 18 min 41 sec) 
Heartbeat CPU  0 instructions:  380000000 cycles:  661246875 heartbeat IPC: 0.50293 cumulative IPC: 0.47023 (Simulation time: 0 hr 18 min 45 sec) 
Heartbeat CPU  0 instructions:  381000003 cycles:  663239725 heartbeat IPC: 0.50180 cumulative IPC: 0.47033 (Simulation time: 0 hr 18 min 48 sec) 
Heartbeat CPU  0 instructions:  382000000 cycles:  665243593 heartbeat IPC: 0.49903 cumulative IPC: 0.47043 (Simulation time: 0 hr 18 min 51 sec) 
Heartbeat CPU  0 instructions:  383000000 cycles:  667282571 heartbeat IPC: 0.49044 cumulative IPC: 0.47050 (Simulation time: 0 hr 18 min 54 sec) 
Heartbeat CPU  0 instructions:  384000000 cycles:  669323525 heartbeat IPC: 0.48997 cumulative IPC: 0.47056 (Simulation time: 0 hr 18 min 57 sec) 
Heartbeat CPU  0 instructions:  385000000 cycles:  671361675 heartbeat IPC: 0.49064 cumulative IPC: 0.47063 (Simulation time: 0 hr 19 min 1 sec) 
Heartbeat CPU  0 instructions:  386000000 cycles:  673395393 heartbeat IPC: 0.49171 cumulative IPC: 0.47070 (Simulation time: 0 hr 19 min 4 sec) 
Heartbeat CPU  0 instructions:  387000003 cycles:  675432571 heartbeat IPC: 0.49088 cumulative IPC: 0.47077 (Simulation time: 0 hr 19 min 7 sec) 
Heartbeat CPU  0 instructions:  388000000 cycles:  677468887 heartbeat IPC: 0.49108 cumulative IPC: 0.47083 (Simulation time: 0 hr 19 min 10 sec) 
Heartbeat CPU  0 instructions:  389000000 cycles:  679512164 heartbeat IPC: 0.48941 cumulative IPC: 0.47090 (Simulation time: 0 hr 19 min 14 sec) 
Heartbeat CPU  0 instructions:  390000000 cycles:  681552210 heartbeat IPC: 0.49019 cumulative IPC: 0.47096 (Simulation time: 0 hr 19 min 17 sec) 
Heartbeat CPU  0 instructions:  391000001 cycles:  683589088 heartbeat IPC: 0.49095 cumulative IPC: 0.47103 (Simulation time: 0 hr 19 min 20 sec) 
Heartbeat CPU  0 instructions:  392000000 cycles:  685626009 heartbeat IPC: 0.49094 cumulative IPC: 0.47109 (Simulation time: 0 hr 19 min 23 sec) 
Heartbeat CPU  0 instructions:  393000000 cycles:  687665052 heartbeat IPC: 0.49043 cumulative IPC: 0.47115 (Simulation time: 0 hr 19 min 27 sec) 
Heartbeat CPU  0 instructions:  394000000 cycles:  689701309 heartbeat IPC: 0.49110 cumulative IPC: 0.47122 (Simulation time: 0 hr 19 min 30 sec) 
Heartbeat CPU  0 instructions:  395000000 cycles:  691738674 heartbeat IPC: 0.49083 cumulative IPC: 0.47128 (Simulation time: 0 hr 19 min 33 sec) 
Heartbeat CPU  0 instructions:  396000000 cycles:  693771788 heartbeat IPC: 0.49186 cumulative IPC: 0.47135 (Simulation time: 0 hr 19 min 36 sec) 
Heartbeat CPU  0 instructions:  397000001 cycles:  695806528 heartbeat IPC: 0.49146 cumulative IPC: 0.47142 (Simulation time: 0 hr 19 min 39 sec) 
Heartbeat CPU  0 instructions:  398000000 cycles:  697844488 heartbeat IPC: 0.49069 cumulative IPC: 0.47148 (Simulation time: 0 hr 19 min 43 sec) 
Heartbeat CPU  0 instructions:  399000000 cycles:  699874563 heartbeat IPC: 0.49259 cumulative IPC: 0.47155 (Simulation time: 0 hr 19 min 46 sec) 
Heartbeat CPU  0 instructions:  400000000 cycles:  701906272 heartbeat IPC: 0.49220 cumulative IPC: 0.47161 (Simulation time: 0 hr 19 min 49 sec) 
Heartbeat CPU  0 instructions:  401000003 cycles:  703950120 heartbeat IPC: 0.48927 cumulative IPC: 0.47167 (Simulation time: 0 hr 19 min 52 sec) 
Heartbeat CPU  0 instructions:  402000003 cycles:  705998550 heartbeat IPC: 0.48818 cumulative IPC: 0.47172 (Simulation time: 0 hr 19 min 56 sec) 
Heartbeat CPU  0 instructions:  403000000 cycles:  708038727 heartbeat IPC: 0.49015 cumulative IPC: 0.47178 (Simulation time: 0 hr 19 min 59 sec) 
Heartbeat CPU  0 instructions:  404000000 cycles:  710077032 heartbeat IPC: 0.49060 cumulative IPC: 0.47184 (Simulation time: 0 hr 20 min 2 sec) 
Heartbeat CPU  0 instructions:  405000000 cycles:  712124185 heartbeat IPC: 0.48848 cumulative IPC: 0.47189 (Simulation time: 0 hr 20 min 5 sec) 
Heartbeat CPU  0 instructions:  406000000 cycles:  714170634 heartbeat IPC: 0.48865 cumulative IPC: 0.47194 (Simulation time: 0 hr 20 min 9 sec) 
Heartbeat CPU  0 instructions:  407000001 cycles:  716213029 heartbeat IPC: 0.48962 cumulative IPC: 0.47200 (Simulation time: 0 hr 20 min 12 sec) 
Heartbeat CPU  0 instructions:  408000000 cycles:  718247060 heartbeat IPC: 0.49163 cumulative IPC: 0.47206 (Simulation time: 0 hr 20 min 15 sec) 
Heartbeat CPU  0 instructions:  409000002 cycles:  720282080 heartbeat IPC: 0.49140 cumulative IPC: 0.47212 (Simulation time: 0 hr 20 min 18 sec) 
Heartbeat CPU  0 instructions:  410000001 cycles:  722317917 heartbeat IPC: 0.49120 cumulative IPC: 0.47218 (Simulation time: 0 hr 20 min 21 sec) 
Heartbeat CPU  0 instructions:  411000000 cycles:  724349986 heartbeat IPC: 0.49211 cumulative IPC: 0.47224 (Simulation time: 0 hr 20 min 25 sec) 
Heartbeat CPU  0 instructions:  412000000 cycles:  726380273 heartbeat IPC: 0.49254 cumulative IPC: 0.47230 (Simulation time: 0 hr 20 min 28 sec) 
Heartbeat CPU  0 instructions:  413000001 cycles:  728410205 heartbeat IPC: 0.49263 cumulative IPC: 0.47237 (Simulation time: 0 hr 20 min 31 sec) 
Heartbeat CPU  0 instructions:  414000000 cycles:  730437644 heartbeat IPC: 0.49323 cumulative IPC: 0.47243 (Simulation time: 0 hr 20 min 34 sec) 
Heartbeat CPU  0 instructions:  415000002 cycles:  732470466 heartbeat IPC: 0.49193 cumulative IPC: 0.47249 (Simulation time: 0 hr 20 min 38 sec) 
Heartbeat CPU  0 instructions:  416000000 cycles:  734498461 heartbeat IPC: 0.49310 cumulative IPC: 0.47255 (Simulation time: 0 hr 20 min 41 sec) 
Heartbeat CPU  0 instructions:  417000000 cycles:  736528334 heartbeat IPC: 0.49264 cumulative IPC: 0.47261 (Simulation time: 0 hr 20 min 44 sec) 
Heartbeat CPU  0 instructions:  418000002 cycles:  738561857 heartbeat IPC: 0.49176 cumulative IPC: 0.47267 (Simulation time: 0 hr 20 min 47 sec) 
Heartbeat CPU  0 instructions:  419000002 cycles:  740592326 heartbeat IPC: 0.49250 cumulative IPC: 0.47273 (Simulation time: 0 hr 20 min 51 sec) 
Heartbeat CPU  0 instructions:  420000000 cycles:  742617469 heartbeat IPC: 0.49379 cumulative IPC: 0.47279 (Simulation time: 0 hr 20 min 54 sec) 
Heartbeat CPU  0 instructions:  421000001 cycles:  744648495 heartbeat IPC: 0.49236 cumulative IPC: 0.47285 (Simulation time: 0 hr 20 min 57 sec) 
Heartbeat CPU  0 instructions:  422000001 cycles:  746676370 heartbeat IPC: 0.49313 cumulative IPC: 0.47291 (Simulation time: 0 hr 21 min 0 sec) 
Heartbeat CPU  0 instructions:  423000000 cycles:  748708475 heartbeat IPC: 0.49210 cumulative IPC: 0.47297 (Simulation time: 0 hr 21 min 3 sec) 
Heartbeat CPU  0 instructions:  424000000 cycles:  750740865 heartbeat IPC: 0.49203 cumulative IPC: 0.47303 (Simulation time: 0 hr 21 min 7 sec) 
Heartbeat CPU  0 instructions:  425000002 cycles:  752766277 heartbeat IPC: 0.49373 cumulative IPC: 0.47309 (Simulation time: 0 hr 21 min 10 sec) 
Heartbeat CPU  0 instructions:  426000003 cycles:  754802093 heartbeat IPC: 0.49120 cumulative IPC: 0.47314 (Simulation time: 0 hr 21 min 13 sec) 
Heartbeat CPU  0 instructions:  427000002 cycles:  756837598 heartbeat IPC: 0.49128 cumulative IPC: 0.47319 (Simulation time: 0 hr 21 min 17 sec) 
Heartbeat CPU  0 instructions:  428000000 cycles:  758870617 heartbeat IPC: 0.49188 cumulative IPC: 0.47325 (Simulation time: 0 hr 21 min 20 sec) 
Heartbeat CPU  0 instructions:  429000000 cycles:  760905402 heartbeat IPC: 0.49145 cumulative IPC: 0.47330 (Simulation time: 0 hr 21 min 23 sec) 
Heartbeat CPU  0 instructions:  430000002 cycles:  762936268 heartbeat IPC: 0.49240 cumulative IPC: 0.47336 (Simulation time: 0 hr 21 min 26 sec) 
Heartbeat CPU  0 instructions:  431000001 cycles:  764967817 heartbeat IPC: 0.49223 cumulative IPC: 0.47341 (Simulation time: 0 hr 21 min 29 sec) 
Heartbeat CPU  0 instructions:  432000000 cycles:  766994641 heartbeat IPC: 0.49338 cumulative IPC: 0.47347 (Simulation time: 0 hr 21 min 33 sec) 
Heartbeat CPU  0 instructions:  433000002 cycles:  769026555 heartbeat IPC: 0.49215 cumulative IPC: 0.47352 (Simulation time: 0 hr 21 min 36 sec) 
Heartbeat CPU  0 instructions:  434000003 cycles:  771055038 heartbeat IPC: 0.49298 cumulative IPC: 0.47358 (Simulation time: 0 hr 21 min 39 sec) 
Heartbeat CPU  0 instructions:  435000001 cycles:  773091691 heartbeat IPC: 0.49100 cumulative IPC: 0.47363 (Simulation time: 0 hr 21 min 43 sec) 
Heartbeat CPU  0 instructions:  436000000 cycles:  775117345 heartbeat IPC: 0.49367 cumulative IPC: 0.47369 (Simulation time: 0 hr 21 min 46 sec) 
Heartbeat CPU  0 instructions:  437000001 cycles:  777145750 heartbeat IPC: 0.49300 cumulative IPC: 0.47374 (Simulation time: 0 hr 21 min 49 sec) 
Heartbeat CPU  0 instructions:  438000001 cycles:  779174997 heartbeat IPC: 0.49279 cumulative IPC: 0.47380 (Simulation time: 0 hr 21 min 52 sec) 
Heartbeat CPU  0 instructions:  439000001 cycles:  781208632 heartbeat IPC: 0.49173 cumulative IPC: 0.47385 (Simulation time: 0 hr 21 min 56 sec) 
Heartbeat CPU  0 instructions:  440000000 cycles:  783239540 heartbeat IPC: 0.49239 cumulative IPC: 0.47390 (Simulation time: 0 hr 21 min 59 sec) 
Heartbeat CPU  0 instructions:  441000000 cycles:  785267572 heartbeat IPC: 0.49309 cumulative IPC: 0.47395 (Simulation time: 0 hr 22 min 2 sec) 
Heartbeat CPU  0 instructions:  442000001 cycles:  787294968 heartbeat IPC: 0.49324 cumulative IPC: 0.47401 (Simulation time: 0 hr 22 min 5 sec) 
Heartbeat CPU  0 instructions:  443000001 cycles:  789336311 heartbeat IPC: 0.48987 cumulative IPC: 0.47405 (Simulation time: 0 hr 22 min 8 sec) 
Heartbeat CPU  0 instructions:  444000000 cycles:  791366533 heartbeat IPC: 0.49256 cumulative IPC: 0.47410 (Simulation time: 0 hr 22 min 12 sec) 
Heartbeat CPU  0 instructions:  445000000 cycles:  793416423 heartbeat IPC: 0.48783 cumulative IPC: 0.47414 (Simulation time: 0 hr 22 min 15 sec) 
Heartbeat CPU  0 instructions:  446000002 cycles:  795450715 heartbeat IPC: 0.49157 cumulative IPC: 0.47419 (Simulation time: 0 hr 22 min 18 sec) 
Heartbeat CPU  0 instructions:  447000000 cycles:  797487313 heartbeat IPC: 0.49101 cumulative IPC: 0.47424 (Simulation time: 0 hr 22 min 21 sec) 
Heartbeat CPU  0 instructions:  448000000 cycles:  799530093 heartbeat IPC: 0.48953 cumulative IPC: 0.47428 (Simulation time: 0 hr 22 min 25 sec) 
Heartbeat CPU  0 instructions:  449000001 cycles:  801577713 heartbeat IPC: 0.48837 cumulative IPC: 0.47432 (Simulation time: 0 hr 22 min 28 sec) 
Heartbeat CPU  0 instructions:  450000001 cycles:  803613469 heartbeat IPC: 0.49122 cumulative IPC: 0.47437 (Simulation time: 0 hr 22 min 31 sec) 
Heartbeat CPU  0 instructions:  451000002 cycles:  805656896 heartbeat IPC: 0.48937 cumulative IPC: 0.47441 (Simulation time: 0 hr 22 min 34 sec) 
Heartbeat CPU  0 instructions:  452000000 cycles:  807696718 heartbeat IPC: 0.49024 cumulative IPC: 0.47445 (Simulation time: 0 hr 22 min 38 sec) 
Heartbeat CPU  0 instructions:  453000001 cycles:  809733087 heartbeat IPC: 0.49107 cumulative IPC: 0.47450 (Simulation time: 0 hr 22 min 41 sec) 
Heartbeat CPU  0 instructions:  454000000 cycles:  811773964 heartbeat IPC: 0.48998 cumulative IPC: 0.47454 (Simulation time: 0 hr 22 min 44 sec) 
Heartbeat CPU  0 instructions:  455000003 cycles:  813805413 heartbeat IPC: 0.49226 cumulative IPC: 0.47459 (Simulation time: 0 hr 22 min 47 sec) 
Heartbeat CPU  0 instructions:  456000000 cycles:  815841875 heartbeat IPC: 0.49105 cumulative IPC: 0.47463 (Simulation time: 0 hr 22 min 51 sec) 
Heartbeat CPU  0 instructions:  457000000 cycles:  817882910 heartbeat IPC: 0.48995 cumulative IPC: 0.47467 (Simulation time: 0 hr 22 min 54 sec) 
Heartbeat CPU  0 instructions:  458000003 cycles:  819929583 heartbeat IPC: 0.48860 cumulative IPC: 0.47471 (Simulation time: 0 hr 22 min 57 sec) 
Heartbeat CPU  0 instructions:  459000002 cycles:  821966933 heartbeat IPC: 0.49083 cumulative IPC: 0.47476 (Simulation time: 0 hr 23 min 0 sec) 
Heartbeat CPU  0 instructions:  460000000 cycles:  824013741 heartbeat IPC: 0.48856 cumulative IPC: 0.47479 (Simulation time: 0 hr 23 min 4 sec) 
Heartbeat CPU  0 instructions:  461000000 cycles:  826048714 heartbeat IPC: 0.49141 cumulative IPC: 0.47484 (Simulation time: 0 hr 23 min 7 sec) 
Heartbeat CPU  0 instructions:  462000000 cycles:  828088625 heartbeat IPC: 0.49022 cumulative IPC: 0.47488 (Simulation time: 0 hr 23 min 10 sec) 
Heartbeat CPU  0 instructions:  463000000 cycles:  830124719 heartbeat IPC: 0.49114 cumulative IPC: 0.47492 (Simulation time: 0 hr 23 min 13 sec) 
Heartbeat CPU  0 instructions:  464000000 cycles:  832160020 heartbeat IPC: 0.49133 cumulative IPC: 0.47497 (Simulation time: 0 hr 23 min 17 sec) 
Heartbeat CPU  0 instructions:  465000001 cycles:  834198965 heartbeat IPC: 0.49045 cumulative IPC: 0.47501 (Simulation time: 0 hr 23 min 20 sec) 
Heartbeat CPU  0 instructions:  466000003 cycles:  836245540 heartbeat IPC: 0.48862 cumulative IPC: 0.47504 (Simulation time: 0 hr 23 min 23 sec) 
Heartbeat CPU  0 instructions:  467000002 cycles:  838276773 heartbeat IPC: 0.49231 cumulative IPC: 0.47509 (Simulation time: 0 hr 23 min 26 sec) 
Heartbeat CPU  0 instructions:  468000000 cycles:  840311677 heartbeat IPC: 0.49142 cumulative IPC: 0.47513 (Simulation time: 0 hr 23 min 30 sec) 
Heartbeat CPU  0 instructions:  469000000 cycles:  842349272 heartbeat IPC: 0.49077 cumulative IPC: 0.47517 (Simulation time: 0 hr 23 min 33 sec) 
Heartbeat CPU  0 instructions:  470000000 cycles:  844392972 heartbeat IPC: 0.48931 cumulative IPC: 0.47521 (Simulation time: 0 hr 23 min 36 sec) 
Heartbeat CPU  0 instructions:  471000003 cycles:  846436163 heartbeat IPC: 0.48943 cumulative IPC: 0.47525 (Simulation time: 0 hr 23 min 39 sec) 
Heartbeat CPU  0 instructions:  472000000 cycles:  848476763 heartbeat IPC: 0.49005 cumulative IPC: 0.47529 (Simulation time: 0 hr 23 min 43 sec) 
Heartbeat CPU  0 instructions:  473000000 cycles:  850525858 heartbeat IPC: 0.48802 cumulative IPC: 0.47532 (Simulation time: 0 hr 23 min 46 sec) 
Heartbeat CPU  0 instructions:  474000001 cycles:  852581577 heartbeat IPC: 0.48645 cumulative IPC: 0.47535 (Simulation time: 0 hr 23 min 49 sec) 
Heartbeat CPU  0 instructions:  475000000 cycles:  854614373 heartbeat IPC: 0.49193 cumulative IPC: 0.47539 (Simulation time: 0 hr 23 min 52 sec) 
Heartbeat CPU  0 instructions:  476000000 cycles:  856664335 heartbeat IPC: 0.48781 cumulative IPC: 0.47542 (Simulation time: 0 hr 23 min 56 sec) 
Heartbeat CPU  0 instructions:  477000002 cycles:  858704981 heartbeat IPC: 0.49004 cumulative IPC: 0.47546 (Simulation time: 0 hr 23 min 59 sec) 
Heartbeat CPU  0 instructions:  478000002 cycles:  860748104 heartbeat IPC: 0.48945 cumulative IPC: 0.47550 (Simulation time: 0 hr 24 min 2 sec) 
Heartbeat CPU  0 instructions:  479000001 cycles:  862784633 heartbeat IPC: 0.49103 cumulative IPC: 0.47554 (Simulation time: 0 hr 24 min 5 sec) 
Heartbeat CPU  0 instructions:  480000000 cycles:  864828886 heartbeat IPC: 0.48918 cumulative IPC: 0.47557 (Simulation time: 0 hr 24 min 8 sec) 
Heartbeat CPU  0 instructions:  481000002 cycles:  866866249 heartbeat IPC: 0.49083 cumulative IPC: 0.47561 (Simulation time: 0 hr 24 min 12 sec) 
Heartbeat CPU  0 instructions:  482000003 cycles:  868907595 heartbeat IPC: 0.48987 cumulative IPC: 0.47565 (Simulation time: 0 hr 24 min 15 sec) 
Heartbeat CPU  0 instructions:  483000002 cycles:  870954075 heartbeat IPC: 0.48864 cumulative IPC: 0.47568 (Simulation time: 0 hr 24 min 18 sec) 
Heartbeat CPU  0 instructions:  484000000 cycles:  872999643 heartbeat IPC: 0.48886 cumulative IPC: 0.47571 (Simulation time: 0 hr 24 min 21 sec) 
Heartbeat CPU  0 instructions:  485000003 cycles:  875051787 heartbeat IPC: 0.48730 cumulative IPC: 0.47574 (Simulation time: 0 hr 24 min 25 sec) 
Heartbeat CPU  0 instructions:  486000001 cycles:  877091334 heartbeat IPC: 0.49030 cumulative IPC: 0.47578 (Simulation time: 0 hr 24 min 28 sec) 
Heartbeat CPU  0 instructions:  487000002 cycles:  879146646 heartbeat IPC: 0.48654 cumulative IPC: 0.47581 (Simulation time: 0 hr 24 min 31 sec) 
Heartbeat CPU  0 instructions:  488000000 cycles:  881183485 heartbeat IPC: 0.49096 cumulative IPC: 0.47584 (Simulation time: 0 hr 24 min 35 sec) 
Heartbeat CPU  0 instructions:  489000003 cycles:  883212613 heartbeat IPC: 0.49282 cumulative IPC: 0.47589 (Simulation time: 0 hr 24 min 38 sec) 
Heartbeat CPU  0 instructions:  490000001 cycles:  885252946 heartbeat IPC: 0.49012 cumulative IPC: 0.47592 (Simulation time: 0 hr 24 min 41 sec) 
Heartbeat CPU  0 instructions:  491000000 cycles:  887293195 heartbeat IPC: 0.49014 cumulative IPC: 0.47596 (Simulation time: 0 hr 24 min 44 sec) 
Heartbeat CPU  0 instructions:  492000000 cycles:  889335266 heartbeat IPC: 0.48970 cumulative IPC: 0.47599 (Simulation time: 0 hr 24 min 47 sec) 
Heartbeat CPU  0 instructions:  493000001 cycles:  891376797 heartbeat IPC: 0.48983 cumulative IPC: 0.47602 (Simulation time: 0 hr 24 min 51 sec) 
Heartbeat CPU  0 instructions:  494000000 cycles:  893422415 heartbeat IPC: 0.48885 cumulative IPC: 0.47606 (Simulation time: 0 hr 24 min 54 sec) 
Heartbeat CPU  0 instructions:  495000003 cycles:  895465429 heartbeat IPC: 0.48947 cumulative IPC: 0.47609 (Simulation time: 0 hr 24 min 57 sec) 
Heartbeat CPU  0 instructions:  496000000 cycles:  897512982 heartbeat IPC: 0.48839 cumulative IPC: 0.47612 (Simulation time: 0 hr 25 min 0 sec) 
Heartbeat CPU  0 instructions:  497000001 cycles:  899550049 heartbeat IPC: 0.49090 cumulative IPC: 0.47616 (Simulation time: 0 hr 25 min 4 sec) 
Heartbeat CPU  0 instructions:  498000003 cycles:  901592315 heartbeat IPC: 0.48965 cumulative IPC: 0.47619 (Simulation time: 0 hr 25 min 7 sec) 
Heartbeat CPU  0 instructions:  499000001 cycles:  903631186 heartbeat IPC: 0.49047 cumulative IPC: 0.47622 (Simulation time: 0 hr 25 min 10 sec) 
Heartbeat CPU  0 instructions:  500000000 cycles:  905666109 heartbeat IPC: 0.49142 cumulative IPC: 0.47626 (Simulation time: 0 hr 25 min 13 sec) 
Heartbeat CPU  0 instructions:  501000003 cycles:  907697050 heartbeat IPC: 0.49238 cumulative IPC: 0.47630 (Simulation time: 0 hr 25 min 17 sec) 
Heartbeat CPU  0 instructions:  502000001 cycles:  909727646 heartbeat IPC: 0.49247 cumulative IPC: 0.47634 (Simulation time: 0 hr 25 min 20 sec) 
Heartbeat CPU  0 instructions:  503000000 cycles:  911762009 heartbeat IPC: 0.49155 cumulative IPC: 0.47637 (Simulation time: 0 hr 25 min 23 sec) 
Heartbeat CPU  0 instructions:  504000000 cycles:  913792891 heartbeat IPC: 0.49240 cumulative IPC: 0.47641 (Simulation time: 0 hr 25 min 26 sec) 
Heartbeat CPU  0 instructions:  505000000 cycles:  915835711 heartbeat IPC: 0.48952 cumulative IPC: 0.47644 (Simulation time: 0 hr 25 min 29 sec) 
Heartbeat CPU  0 instructions:  506000001 cycles:  917880696 heartbeat IPC: 0.48900 cumulative IPC: 0.47647 (Simulation time: 0 hr 25 min 33 sec) 
Heartbeat CPU  0 instructions:  507000000 cycles:  919927075 heartbeat IPC: 0.48867 cumulative IPC: 0.47650 (Simulation time: 0 hr 25 min 36 sec) 
Heartbeat CPU  0 instructions:  508000000 cycles:  921966433 heartbeat IPC: 0.49035 cumulative IPC: 0.47654 (Simulation time: 0 hr 25 min 39 sec) 
Heartbeat CPU  0 instructions:  509000000 cycles:  924012542 heartbeat IPC: 0.48873 cumulative IPC: 0.47657 (Simulation time: 0 hr 25 min 42 sec) 
Heartbeat CPU  0 instructions:  510000001 cycles:  926042368 heartbeat IPC: 0.49265 cumulative IPC: 0.47660 (Simulation time: 0 hr 25 min 46 sec) 
Heartbeat CPU  0 instructions:  511000001 cycles:  928078194 heartbeat IPC: 0.49120 cumulative IPC: 0.47664 (Simulation time: 0 hr 25 min 49 sec) 
Heartbeat CPU  0 instructions:  512000000 cycles:  930116492 heartbeat IPC: 0.49060 cumulative IPC: 0.47667 (Simulation time: 0 hr 25 min 52 sec) 
[...]
scooby_state_400e09|24|0 1,0,0,0,0,0,0,0,0,0,0,0,0,0,0,1,
scooby_state_400e38|24|0 1,0,0,0,0,0,0,0,0,0,0,0,0,0,0,1,
scooby_state_400e2c|31|-1 1,0,0,0,0,0,0,0,0,0,0,0,0,0,0,1,
scooby_state_400de5|45|-18 1,0,0,0,0,0,0,0,0,0,0,0,0,0,0,1,
scooby_state_400e09|6|4 1,0,0,0,0,0,0,0,0,0,0,0,0,0,0,1,
scooby_state_400e44|18|-39 1,0,0,0,0,0,0,0,0,0,0,0,0,0,0,1,
scooby_state_400e5e|20|-41 1,0,0,0,0,0,0,0,0,0,0,0,0,0,0,1,
scooby_state_400e51|5|3 1,0,0,0,0,0,0,0,0,0,0,0,0,0,0,1,
scooby_state_400cfb|50|0 1,0,0,0,0,0,0,0,0,0,0,0,0,0,0,1,
scooby_state_400de5|36|2 1,0,0,0,0,0,0,0,0,0,0,0,0,0,0,1,
scooby_state_400f4f|57|7 1,0,0,0,0,0,0,0,0,0,0,0,0,0,0,1,
scooby_state_400de5|3|0 1,0,0,0,0,0,0,0,0,0,0,0,0,0,0,1,
scooby_state_400e09|44|4 1,0,0,0,0,0,0,0,0,0,0,0,0,0,0,1,
scooby_state_400dcd|57|41 1,0,0,0,0,0,0,0,0,0,0,0,0,0,0,1,
scooby_state_400e51|21|3 1,0,0,0,0,0,0,0,0,0,0,0,0,0,0,1,
scooby_state_400dc0|7|-2 1,0,0,0,0,0,0,0,0,0,0,0,0,0,0,1,
scooby_state_400dfd|43|0 1,0,0,0,0,0,0,0,0,0,0,0,0,0,0,1,
scooby_state_400dc0|36|0 1,0,0,0,0,0,0,0,0,0,0,0,0,0,0,1,
scooby_state_400dc0|6|4 1,0,0,0,0,0,0,0,0,0,0,0,0,0,0,1,
scooby_state_400dcd|43|0 1,0,0,0,0,0,0,0,0,0,0,0,0,0,0,1,
scooby_state_400844|33|1 1,0,0,0,0,0,0,0,0,0,0,0,0,0,0,1,
scooby_state_400800|32|1 1,0,0,0,0,0,0,0,0,0,0,0,0,0,0,1,
scooby_state_400783|30|1 1,0,0,0,0,0,0,0,0,0,0,0,0,0,0,1,
scooby_state_400744|29|1 1,0,0,0,0,0,0,0,0,0,0,0,0,0,0,1,
scooby_state_400700|28|1 1,0,0,0,0,0,0,0,0,0,0,0,0,0,0,1,
scooby_state_400dc0|36|-1 1,0,0,0,0,0,0,0,0,0,0,0,0,0,0,1,
scooby_state_400de5|28|-35 1,0,0,0,0,0,0,0,0,0,0,0,0,0,0,1,
scooby_state_400e44|26|-37 1,0,0,0,0,0,0,0,0,0,0,0,0,0,0,1,
scooby_state_400dfd|6|2 1,0,0,0,0,0,0,0,0,0,0,0,0,0,0,1,
scooby_state_400de5|0|-28 1,0,0,0,0,0,0,0,0,0,0,0,0,0,0,1,
scooby_state_400e09|11|3 1,0,0,0,0,0,0,0,0,0,0,0,0,0,0,1,
scooby_state_400e09|39|3 1,0,0,0,0,0,0,0,0,0,0,0,0,0,0,1,
scooby_state_400df3|39|3 1,0,0,0,0,0,0,0,0,0,0,0,0,0,0,1,
scooby_state_400df3|36|0 1,0,0,0,0,0,0,0,0,0,0,0,0,0,0,1,
scooby_state_400e09|36|-2 1,0,0,0,0,0,0,0,0,0,0,0,0,0,0,1,
scooby_state_400df3|36|-2 1,0,0,0,0,0,0,0,0,0,0,0,0,0,0,1,
scooby_state_4004c0|19|1 1,0,0,0,0,0,0,0,0,0,0,0,0,0,0,1,
scooby_state_400dcd|26|1 1,0,0,0,0,0,0,0,0,0,0,0,0,0,0,1,
scooby_state_400e09|8|-2 1,0,0,0,0,0,0,0,0,0,0,0,0,0,0,1,
scooby_state_400de5|59|-4 1,0,0,0,0,0,0,0,0,0,0,0,0,0,0,1,
scooby_state_400e5e|0|-19 1,0,0,0,0,0,0,0,0,0,0,0,0,0,0,1,
scooby_state_400e5e|43|-20 1,0,0,0,0,0,0,0,0,0,0,0,0,0,0,1,
scooby_state_400e44|35|-28 1,0,0,0,0,0,0,0,0,0,0,0,0,0,0,1,
scooby_state_400e09|21|3 1,0,0,0,0,0,0,0,0,0,0,0,0,0,0,1,
scooby_state_400e09|5|3 1,0,0,0,0,0,0,0,0,0,0,0,0,0,0,1,
scooby_state_400e38|2|-3 1,0,0,0,0,0,0,0,0,0,0,0,0,0,0,1,
scooby_state_400de5|3|-38 1,0,0,0,0,0,0,0,0,0,0,0,0,0,0,1,
scooby_state_400d85|54|1 1,0,0,0,0,0,0,0,0,0,0,0,0,0,0,1,
scooby_state_400df3|50|2 1,0,0,0,0,0,0,0,0,0,0,0,0,0,0,1,
scooby_state_400a05|40|-23 1,0,0,0,0,0,0,0,0,0,0,0,0,0,0,1,
scooby_state_400e5e|0|-35 1,0,0,0,0,0,0,0,0,0,0,0,0,0,0,1,
scooby_state_401082|2|0 1,0,0,0,0,0,0,0,0,0,0,0,0,0,0,1,
scooby_state_401003|0|0 1,0,0,0,0,0,0,0,0,0,0,0,0,0,0,1,
scooby_state_400c40|49|1 1,0,0,0,0,0,0,0,0,0,0,0,0,0,0,1,
scooby_state_400de5|0|-7 1,0,0,0,0,0,0,0,0,0,0,0,0,0,0,1,
scooby_state_400de5|63|0 1,0,0,0,0,0,0,0,0,0,0,0,0,0,0,1,
scooby_state_400df3|28|4 1,0,0,0,0,0,0,0,0,0,0,0,0,0,0,1,
scooby_state_400dfd|33|2 1,0,0,0,0,0,0,0,0,0,0,0,0,0,0,1,
scooby_state_400df3|34|-3 1,0,0,0,0,0,0,0,0,0,0,0,0,0,0,1,
scooby_state_400dda|5|-3 1,0,0,0,0,0,0,0,0,0,0,0,0,0,0,1,
scooby_state_400de5|0|-4 1,0,0,0,0,0,0,0,0,0,0,0,0,0,0,1,
scooby_state_400e44|33|-30 1,0,0,0,0,0,0,0,0,0,0,0,0,0,0,1,
scooby_state_400e2c|48|-1 1,0,0,0,0,0,0,0,0,0,0,0,0,0,0,1,
scooby_state_400e13|55|40 1,0,0,0,0,0,0,0,0,0,0,0,0,0,0,1,
scooby_state_400df3|42|2 1,0,0,0,0,0,0,0,0,0,0,0,0,0,0,1,
scooby_state_400e2c|30|-1 1,0,0,0,0,0,0,0,0,0,0,0,0,0,0,1,
scooby_state_400e44|0|-42 1,0,0,0,0,0,0,0,0,0,0,0,0,0,0,1,
scooby_state_400e01|56|1 1,0,0,0,0,0,0,0,0,0,0,0,0,0,0,1,
scooby_state_400b00|44|1 1,0,0,0,0,0,0,0,0,0,0,0,0,0,0,1,
scooby_state_400e09|35|-1 1,0,0,0,0,0,0,0,0,0,0,0,0,0,0,1,
scooby_state_400ec7|54|-2 1,0,0,0,0,0,0,0,0,0,0,0,0,0,0,1,
scooby_state_400e7c|60|5 1,0,0,0,0,0,0,0,0,0,0,0,0,0,0,1,
scooby_state_400e2c|57|39 1,0,0,0,0,0,0,0,0,0,0,0,0,0,0,1,
scooby_state_400e5e|0|-23 1,0,0,0,0,0,0,0,0,0,0,0,0,0,0,1,
scooby_state_400f87|62|1 1,0,0,0,0,0,0,0,0,0,0,0,0,0,0,1,
scooby_state_400ef0|53|-9 1,0,0,0,0,0,0,0,0,0,0,0,0,0,0,1,
scooby_state_400e38|24|4 1,0,0,0,0,0,0,0,0,0,0,0,0,0,0,1,
scooby_state_400e51|36|-2 1,0,0,0,0,0,0,0,0,0,0,0,0,0,0,1,
scooby_state_400e2c|3|-1 1,0,0,0,0,0,0,0,0,0,0,0,0,0,0,1,
scooby_state_400dc0|20|-3 1,0,0,0,0,0,0,0,0,0,0,0,0,0,0,1,
scooby_state_4009c2|39|1 1,0,0,0,0,0,0,0,0,0,0,0,0,0,0,1,
scooby_state_401783|30|1 1,0,0,0,0,0,0,0,0,0,0,0,0,0,0,1,
scooby_state_4027ee|1|-5 1,0,0,0,0,0,0,0,0,0,0,0,0,0,0,1,
scooby_state_400e2c|8|-1 1,0,0,0,0,0,0,0,0,0,0,0,0,0,0,1,
scooby_state_400ac4|43|1 1,0,0,0,0,0,0,0,0,0,0,0,0,0,0,1,
scooby_state_400e5e|43|2 1,0,0,0,0,0,0,0,0,0,0,0,0,0,0,1,
scooby_state_400fc1|63|13 1,0,0,0,0,0,0,0,0,0,0,0,0,0,0,1,
scooby_state_400f4f|57|6 1,0,0,0,0,0,0,0,0,0,0,0,0,0,0,1,
scooby_state_400e20|52|-1 1,0,0,0,0,0,0,0,0,0,0,0,0,0,0,1,
scooby_state_400e13|63|42 1,0,0,0,0,0,0,0,0,0,0,0,0,0,0,1,
scooby_state_4003de|15|1 1,0,0,0,0,0,0,0,0,0,0,0,0,0,0,1,
scooby_state_400e44|30|-33 1,0,0,0,0,0,0,0,0,0,0,0,0,0,0,1,
scooby_state_4016ad|26|6 1,0,0,0,0,0,0,0,0,0,0,0,0,0,0,1,
scooby_state_400e5e|42|0 1,0,0,0,0,0,0,0,0,0,0,0,0,0,0,1,
scooby_state_400e51|9|4 1,0,0,0,0,0,0,0,0,0,0,0,0,0,0,1,
scooby_state_400dda|22|4 1,0,0,0,0,0,0,0,0,0,0,0,0,0,0,1,
scooby_state_400e2c|13|-1 1,0,0,0,0,0,0,0,0,0,0,0,0,0,0,1,
scooby_state_400e5e|0|-16 1,0,0,0,0,0,0,0,0,0,0,0,0,0,0,1,
scooby_state_4008ba|34|0 1,0,0,0,0,0,0,0,0,0,0,0,0,0,0,1,
scooby_state_4002c1|11|1 1,0,0,0,0,0,0,0,0,0,0,0,0,0,0,1,
scooby_state_4014aa|18|1 1,0,0,0,0,0,0,0,0,0,0,0,0,0,0,1,
scooby_state_400de5|52|-11 1,0,0,0,0,0,0,0,0,0,0,0,0,0,0,1,
scooby_state_401040|1|1 0,1,0,0,0,0,0,0,0,0,0,0,0,0,0,1,
scooby_state_400e5e|0|-9 1,0,0,0,0,0,0,0,0,0,0,0,0,0,0,1,
scooby_state_400dfd|35|2 1,0,0,0,0,0,0,0,0,0,0,0,0,0,0,1,
scooby_state_400e51|5|-3 1,0,0,0,0,0,0,0,0,0,0,0,0,0,0,1,
scooby_state_400e20|5|-3 1,0,0,0,0,0,0,0,0,0,0,0,0,0,0,1,
scooby_state_400e20|39|3 1,0,0,0,0,0,0,0,0,0,0,0,0,0,0,1,
scooby_state_400dcd|46|41 1,0,0,0,0,0,0,0,0,0,0,0,0,0,0,1,
scooby_state_401400|16|0 1,0,0,0,0,0,0,0,0,0,0,0,0,0,0,1,
scooby_state_400643|25|1 1,0,0,0,0,0,0,0,0,0,0,0,0,0,0,1,
scooby_state_400e38|36|-2 1,0,0,0,0,0,0,0,0,0,0,0,0,0,0,1,
scooby_state_400e20|38|2 1,0,0,0,0,0,0,0,0,0,0,0,0,0,0,1,
scooby_state_400e2c|40|-1 1,0,0,0,0,0,0,0,0,0,0,0,0,0,0,1,
scooby_state_4014fa|19|-8 1,0,0,0,0,0,0,0,0,0,0,0,0,0,0,1,
scooby_state_4010c7|3|1 1,0,0,0,0,0,0,0,0,0,0,0,0,0,0,1,
scooby_state_400942|37|1 1,0,0,0,0,0,0,0,0,0,0,0,0,0,0,1,
scooby_state_400987|38|1 1,0,0,0,0,0,0,0,0,0,0,0,0,0,0,1,
scooby_state_400e2c|28|-1 1,0,0,0,0,0,0,0,0,0,0,0,0,0,0,1,
scooby_state_400d1d|61|7 1,0,0,0,0,0,0,0,0,0,0,0,0,0,0,1,
scooby_state_400e44|28|-35 1,0,0,0,0,0,0,0,0,0,0,0,0,0,0,1,
scooby_state_400dfd|30|2 1,0,0,0,0,0,0,0,0,0,0,0,0,0,0,1,
scooby_state_402901|36|0 1,0,0,0,0,0,0,0,0,0,0,0,0,0,0,1,
scooby_state_400dda|38|4 1,0,0,0,0,0,0,0,0,0,0,0,0,0,0,1,
scooby_state_400b80|46|1 1,0,0,0,0,0,0,0,0,0,0,0,0,0,0,1,
scooby_state_400de5|40|-23 1,0,0,0,0,0,0,0,0,0,0,0,0,0,0,1,
scooby_state_4007c0|31|1 1,0,0,0,0,0,0,0,0,0,0,0,0,0,0,1,
scooby_state_400dda|9|4 1,0,0,0,0,0,0,0,0,0,0,0,0,0,0,1,
scooby_state_400e2c|4|-1 1,0,0,0,0,0,0,0,0,0,0,0,0,0,0,1,
scooby_state_400de5|5|-38 1,0,0,0,0,0,0,0,0,0,0,0,0,0,0,1,
scooby_state_400e2c|34|-1 1,0,0,0,0,0,0,0,0,0,0,0,0,0,0,1,
scooby_state_400e44|52|-1 1,0,0,0,0,0,0,0,0,0,0,0,0,0,0,1,
scooby_state_400e5e|0|-38 1,0,0,0,0,0,0,0,0,0,0,0,0,0,0,1,
scooby_state_400dda|20|-3 1,0,0,0,0,0,0,0,0,0,0,0,0,0,0,1,
scooby_state_400e85|58|1 1,0,0,0,0,0,0,0,0,0,0,0,0,0,0,1,
scooby_state_400de5|21|-38 1,0,0,0,0,0,0,0,0,0,0,0,0,0,0,1,
scooby_state_400e38|20|-3 1,0,0,0,0,0,0,0,0,0,0,0,0,0,0,1,
scooby_state_400cc8|51|-8 1,0,0,0,0,0,0,0,0,0,0,0,0,0,0,1,
scooby_state_400e56|58|-1 1,0,0,0,0,0,0,0,0,0,0,0,0,0,0,1,
scooby_state_400e5e|0|-18 0,0,0,0,0,0,0,0,0,0,0,0,1,0,0,1,
scooby_state_400dfd|17|2 1,0,0,0,0,0,0,0,0,0,0,0,0,0,0,1,
scooby_state_400342|13|1 1,0,0,0,0,0,0,0,0,0,0,0,0,0,0,1,
scooby_state_4027ea|31|0 1,0,0,0,0,0,0,0,0,0,0,0,0,0,0,1,
scooby_state_402545|21|1 1,0,0,0,0,0,0,0,0,0,0,0,0,0,0,1,
scooby_state_400e2c|49|-1 1,0,0,0,0,0,0,0,0,0,0,0,0,0,0,1,
scooby_state_400de5|0|-9 1,0,0,0,0,0,0,0,0,0,0,0,0,0,0,1,
scooby_state_401383|16|-1 1,0,0,0,0,0,0,0,0,0,0,0,0,0,0,1,
scooby_state_4008c1|35|1 1,0,0,0,0,0,0,0,0,0,0,0,0,0,0,1,
scooby_state_400bc7|47|1 1,0,0,0,0,0,0,0,0,0,0,0,0,0,0,1,
scooby_state_400e44|46|-17 1,0,0,0,0,0,0,0,0,0,0,0,0,0,0,1,
scooby_state_401661|25|-5 1,0,0,0,0,0,0,0,0,0,0,0,0,0,0,1,
scooby_state_400de5|16|-38 1,0,0,0,0,0,0,0,0,0,0,0,0,0,0,1,
scooby_state_400e20|9|4 1,0,0,0,0,0,0,0,0,0,0,0,0,0,0,1,
scooby_state_400c04|48|1 1,0,0,0,0,0,0,0,0,0,0,0,0,0,0,1,
scooby_state_400dfd|36|2 1,0,0,0,0,0,0,0,0,0,0,0,0,0,0,1,
scooby_state_400e38|50|2 1,0,0,0,0,0,0,0,0,0,0,0,0,0,0,1,
scooby_state_400de5|30|-33 1,0,0,0,0,0,0,0,0,0,0,0,0,0,0,1,
scooby_state_402844|33|1 1,0,0,0,0,0,0,0,0,0,0,0,0,0,0,1,
scooby_state_400de5|0|-30 1,0,0,0,0,0,0,0,0,0,0,0,0,0,0,1,
scooby_state_400de5|61|-2 1,0,0,0,0,0,0,0,0,0,0,0,0,0,0,1,
scooby_state_400e44|37|-26 1,0,0,0,0,0,0,0,0,0,0,0,0,0,0,1,
scooby_state_400e5e|0|-4 1,0,0,0,0,0,0,0,0,0,0,0,0,0,0,1,
scooby_state_400dfd|22|2 1,0,0,0,0,0,0,0,0,0,0,0,0,0,0,1,
scooby_state_400b9c|49|-13 1,0,0,0,0,0,0,0,0,0,0,0,0,0,0,1,
scooby_state_400de5|0|-11 0,0,0,1,0,0,0,0,0,0,0,0,0,0,0,1,
scooby_state_402605|24|0 1,0,0,0,0,0,0,0,0,0,0,0,0,0,0,1,
scooby_state_400dcd|24|1 1,0,0,0,0,0,0,0,0,0,0,0,0,0,0,1,
scooby_state_400de5|7|-38 1,0,0,0,0,0,0,0,0,0,0,0,0,0,0,1,
scooby_state_400f8f|51|-12 1,0,0,0,0,0,0,0,0,0,0,0,0,0,0,1,
scooby_state_400de5|10|-38 1,0,0,0,0,0,0,0,0,0,0,0,0,0,0,1,
scooby_state_400de5|39|-24 1,0,0,0,0,0,0,0,0,0,0,0,0,0,0,1,
scooby_state_40294d|17|16 1,0,0,0,0,0,0,0,0,0,0,0,0,0,0,1,
scooby_state_400dfd|27|2 1,0,0,0,0,0,0,0,0,0,0,0,0,0,0,1,
scooby_state_400e09|2|-3 1,0,0,0,0,0,0,0,0,0,0,0,0,0,0,1,
scooby_state_400e2c|38|-1 1,0,0,0,0,0,0,0,0,0,0,0,0,0,0,1,
scooby_state_400e44|51|-12 1,0,0,0,0,0,0,0,0,0,0,0,0,0,0,1,
scooby_state_400b60|45|-17 1,0,0,0,0,0,0,0,0,0,0,0,0,0,0,1,
scooby_state_400d43|53|1 1,0,0,0,0,0,0,0,0,0,0,0,0,0,0,1,
scooby_state_400dc0|5|-3 1,0,0,0,0,0,0,0,0,0,0,0,0,0,0,1,
scooby_state_400c84|50|1 1,0,0,0,0,0,0,0,0,0,0,0,0,0,0,1,
scooby_state_400dfd|38|2 1,0,0,0,0,0,0,0,0,0,0,0,0,0,0,1,
scooby_state_400e66|51|-7 1,0,0,0,0,0,0,0,0,0,0,0,0,0,0,1,
scooby_state_401502|20|1 1,0,0,0,0,0,0,0,0,0,0,0,0,0,0,1,
scooby_state_400de5|0|-25 1,0,0,0,0,0,0,0,0,0,0,0,0,0,0,1,
scooby_state_400f42|61|1 1,0,0,0,0,0,0,0,0,0,0,0,0,0,0,1,
scooby_state_400e5e|41|-1 1,0,0,0,0,0,0,0,0,0,0,0,0,0,0,1,
scooby_state_400de5|0|-20 1,0,0,0,0,0,0,0,0,0,0,0,0,0,0,1,
scooby_state_400ec7|59|1 1,0,0,0,0,0,0,0,0,0,0,0,0,0,0,1,
scooby_state_400de5|9|-38 1,0,0,0,0,0,0,0,0,0,0,0,0,0,0,1,
scooby_state_400de5|23|-38 1,0,0,0,0,0,0,0,0,0,0,0,0,0,0,1,
scooby_state_400de5|57|-6 1,0,0,0,0,0,0,0,0,0,0,0,0,0,0,1,
scooby_state_400dcd|58|0 1,0,0,0,0,0,0,0,0,0,0,0,0,0,0,1,
scooby_state_400e09|39|0 1,0,0,0,0,0,0,0,0,0,0,0,0,0,0,1,
scooby_state_400e24|59|9 1,0,0,0,0,0,0,0,0,0,0,0,0,0,0,1,
scooby_state_400de5|0|-33 1,0,0,0,0,0,0,0,0,0,0,0,0,0,0,1,
scooby_state_400d00|52|1 1,0,0,0,0,0,0,0,0,0,0,0,0,0,0,1,
scooby_state_400de5|63|40 1,0,0,0,0,0,0,0,0,0,0,0,0,0,0,1,
scooby_state_400902|36|1 1,0,0,0,0,0,0,0,0,0,0,0,0,0,0,1,
scooby_state_400de5|24|-38 1,0,0,0,0,0,0,0,0,0,0,0,0,0,0,1,
scooby_state_400e2c|61|-1 1,0,0,0,0,0,0,0,0,0,0,0,0,0,0,1,
scooby_state_400a87|42|1 1,0,0,0,0,0,0,0,0,0,0,0,0,0,0,1,
scooby_state_400a40|41|1 1,0,0,0,0,0,0,0,0,0,0,0,0,0,0,1,
scooby_state_4025a0|19|0 1,0,0,0,0,0,0,0,0,0,0,0,0,0,0,1,
scooby_state_402883|34|1 1,0,0,0,0,0,0,0,0,0,0,0,0,0,0,1,
scooby_state_400dcd|41|41 1,0,0,0,0,0,0,0,0,0,0,0,0,0,0,1,
scooby_state_400e2c|20|-1 1,0,0,0,0,0,0,0,0,0,0,0,0,0,0,1,
scooby_state_400e13|11|0 1,0,0,0,0,0,0,0,0,0,0,0,0,0,0,1,
scooby_state_400de5|0|-23 1,0,0,0,0,0,0,0,0,0,0,0,0,0,0,1,
scooby_state_400dfd|4|2 1,0,0,0,0,0,0,0,0,0,0,0,0,0,0,1,
scooby_state_400dda|24|4 1,0,0,0,0,0,0,0,0,0,0,0,0,0,0,1,
scooby_state_400e44|25|-38 1,0,0,0,0,0,0,0,0,0,0,0,0,0,0,1,
scooby_state_400de5|20|-38 1,0,0,0,0,0,0,0,0,0,0,0,0,0,0,1,
scooby_state_400de5|60|43 1,0,0,0,0,0,0,0,0,0,0,0,0,0,0,1,
scooby_state_400525|20|1 1,0,0,0,0,0,0,0,0,0,0,0,0,0,0,1,
scooby_state_400df3|24|-3 1,0,0,0,0,0,0,0,0,0,0,0,0,0,0,1,
scooby_state_400e2c|26|-1 1,0,0,0,0,0,0,0,0,0,0,0,0,0,0,1,
scooby_state_400de5|44|-19 1,0,0,0,0,0,0,0,0,0,0,0,0,0,0,1,
scooby_state_401104|4|1 1,0,0,0,0,0,0,0,0,0,0,0,0,0,0,1,

scooby_action_0_deg_dist 0,1452,0,0,0,0,0,0,0,0,0,0,0,0,0,0,
scooby_action_12_deg_dist 0,2383,0,0,0,0,0,0,0,0,0,0,0,0,0,0,
scooby_action_3_deg_dist 0,1455,0,0,0,0,0,0,0,0,0,0,0,0,0,0,
scooby_action_32_deg_dist 0,1397,0,0,0,0,0,0,0,0,0,0,0,0,0,0,
scooby_action_5_deg_dist 0,1430,0,0,0,0,0,0,0,0,0,0,0,0,0,0,
scooby_action_1_deg_dist 0,550573,339407,0,850011,0,10243656,0,0,0,0,0,0,0,0,0,
scooby_action_30_deg_dist 0,1434,0,0,0,0,0,0,0,0,0,0,0,0,0,0,
scooby_action_4_deg_dist 0,1480,0,0,0,0,0,0,0,0,0,0,0,0,0,0,
scooby_action_-3_deg_dist 0,1441,0,0,0,0,0,0,0,0,0,0,0,0,0,0,
scooby_action_10_deg_dist 0,1492,0,0,0,0,0,0,0,0,0,0,0,0,0,0,
scooby_action_-1_deg_dist 0,1462,0,0,0,0,0,0,0,0,0,0,0,0,0,0,
scooby_action_23_deg_dist 0,1412,0,0,0,0,0,0,0,0,0,0,0,0,0,0,
scooby_action_-6_deg_dist 0,1428,2,0,0,0,0,0,0,0,0,0,0,0,0,0,
scooby_action_11_deg_dist 0,1451,0,0,0,0,0,0,0,0,0,0,0,0,0,0,
scooby_action_22_deg_dist 0,1473,0,0,0,0,0,0,0,0,0,0,0,0,0,0,

scooby_track_called 12004839
scooby_track_same_address 574145
scooby_track_evict 11430438

scooby_reward_demand_called 12004839
scooby_reward_demand_pt_not_found 251849
scooby_reward_demand_pt_found 11752990
scooby_reward_demand_pt_found_total 11752990
scooby_reward_demand_has_reward 570257
scooby_reward_train_called 23589
scooby_reward_assign_reward_called 11430679
scooby_reward_no_pref 1452
scooby_reward_incorrect 22137
scooby_reward_correct_untimely 9616553
scooby_reward_correct_timely 1566180
scooby_reward_out_of_bounds 224357
scooby_reward_tracker_hit 0

scooby_reward_none_low_bw 1452
scooby_reward_none_high_bw 0
scooby_reward_incorrect_low_bw 22137
scooby_reward_incorrect_high_bw 0
scooby_reward_correct_untimely_low_bw 9616553
scooby_reward_correct_untimely_high_bw 0
scooby_reward_correct_timely_low_bw 1566180
scooby_reward_correct_timely_high_bw 0
scooby_reward_out_of_bounds_low_bw 224357
scooby_reward_out_of_bounds_high_bw 0
scooby_reward_tracker_hit_low_bw 0
scooby_reward_tracker_hit_high_bw 0

scooby_reward_1 0,20886,9614557,1558437,219521,0,
scooby_reward_3 0,10,810,527,85,0,
scooby_reward_4 0,5,646,697,127,0,
scooby_reward_5 0,6,435,857,131,0,
scooby_reward_10 0,153,20,1051,268,0,
scooby_reward_11 0,132,16,1023,279,0,
scooby_reward_12 0,136,22,1022,1202,0,
scooby_reward_22 0,129,16,775,553,0,
scooby_reward_23 0,107,9,725,571,0,
scooby_reward_30 0,83,13,625,712,0,
scooby_reward_32 0,236,7,441,713,0,
scooby_reward_-1 0,36,2,0,23,0,
scooby_reward_-3 0,40,0,0,52,0,
scooby_reward_-6 0,178,0,0,120,0,
scooby_reward_0 1452,0,0,0,0,0,

scooby_train_called 11430437
scooby_train_compute_reward 23589

scooby_register_fill_called 8811228
scooby_register_fill_set 1568195
scooby_register_fill_set_total 1568195

scooby_register_prefetch_hit_called 21899109
scooby_register_prefetch_hit_set 7497473
scooby_register_prefetch_hit_set_total 7497473

scooby_pref_issue_scooby 58827314

learning_engine_featurewise.action.called 12004839
learning_engine_featurewise.action.explore 21793
learning_engine_featurewise.action.exploit 11983046
learning_engine_featurewise.action.fallback 0
learning_engine_featurewise.action.dyn_fallback_saved_bw 0
learning_engine_featurewise.action.dyn_fallback_saved_bw_acc 396749
learning_engine_featurewise.action.index_1_explored 1480
learning_engine_featurewise.action.index_1_exploited 11982167
learning_engine_featurewise.action.index_3_explored 1449
learning_engine_featurewise.action.index_3_exploited 6
learning_engine_featurewise.action.index_4_explored 1478
learning_engine_featurewise.action.index_4_exploited 2
learning_engine_featurewise.action.index_5_explored 1424
learning_engine_featurewise.action.index_5_exploited 6
learning_engine_featurewise.action.index_10_explored 1489
learning_engine_featurewise.action.index_10_exploited 3
learning_engine_featurewise.action.index_11_explored 1449
learning_engine_featurewise.action.index_11_exploited 2
learning_engine_featurewise.action.index_12_explored 1523
learning_engine_featurewise.action.index_12_exploited 860
learning_engine_featurewise.action.index_22_explored 1473
learning_engine_featurewise.action.index_22_exploited 0
learning_engine_featurewise.action.index_23_explored 1412
learning_engine_featurewise.action.index_23_exploited 0
learning_engine_featurewise.action.index_30_explored 1434
learning_engine_featurewise.action.index_30_exploited 0
learning_engine_featurewise.action.index_32_explored 1397
learning_engine_featurewise.action.index_32_exploited 0
learning_engine_featurewise.action.index_-1_explored 1462
learning_engine_featurewise.action.index_-1_exploited 0
learning_engine_featurewise.action.index_-3_explored 1441
learning_engine_featurewise.action.index_-3_exploited 0
learning_engine_featurewise.action.index_-6_explored 1430
learning_engine_featurewise.action.index_-6_exploited 0
learning_engine_featurewise.action.index_0_explored 1452
learning_engine_featurewise.action.index_0_exploited 0
learning_engine_featurewise.learn.called 11430437
learning_engine_featurewise.learn.su_skip_PC 0
learning_engine_featurewise.learn.su_skip_PC_Delta 0

learning_engine_featurewise.q_value_histogram.bucket_0 0
learning_engine_featurewise.q_value_histogram.bucket_1 0
learning_engine_featurewise.q_value_histogram.bucket_2 0
learning_engine_featurewise.q_value_histogram.bucket_3 0
learning_engine_featurewise.q_value_histogram.bucket_4 6313
learning_engine_featurewise.q_value_histogram.bucket_5 5364
learning_engine_featurewise.q_value_histogram.bucket_6 11971369
learning_engine_featurewise.q_value_histogram.bucket_7 0

learning_engine_featurewise.consensus.total 11983046
learning_engine_featurewise.consensus.feature_align_PC 11981416
learning_engine_featurewise.consensus.feature_align_PC_ratio 1.00
learning_engine_featurewise.consensus.feature_align_PC_Delta 11978042
learning_engine_featurewise.consensus.feature_align_PC_Delta_ratio 1.00
learning_engine_featurewise.consensus.feature_align_all 11976412
learning_engine_featurewise.consensus.feature_align_all_ratio 1.00

learning_engine_featurewise.feature_PC_min_weight 1000000.00000000
learning_engine_featurewise.feature_PC_max_weight 0.00000000
learning_engine_featurewise.feature_PC_Delta_min_weight 1000000.00000000
learning_engine_featurewise.feature_PC_Delta_max_weight 0.00000000
unique_pcs 153
unique_pages 102972
unique_trigger_pcs 34
total_bitmaps_seen 0
unique_bitmaps_seen 0

scooby_bw_epochs 4334549
scooby_bw_level_0 1569023
scooby_bw_level_1 497556
scooby_bw_level_2 0
scooby_bw_level_3 2267970

scooby_ipc_epochs 0
scooby_ipc_level_0 0
scooby_ipc_level_1 0
scooby_ipc_level_2 0
scooby_ipc_level_3 0

scooby_cache_acc_epochs 1069933
scooby_cache_acc_level_0 4976
scooby_cache_acc_level_1 24694
scooby_cache_acc_level_2 42356
scooby_cache_acc_level_3 53074
scooby_cache_acc_level_4 64451
scooby_cache_acc_level_5 59733
scooby_cache_acc_level_6 64437
scooby_cache_acc_level_7 74146
scooby_cache_acc_level_8 74499
scooby_cache_acc_level_9 607567

Channel_0_RQ_row_buffer_hit 6546014
Channel_0_RQ_row_buffer_miss 2700056
Channel_0_WQ_row_buffer_hit 97058
Channel_0_WQ_row_buffer_miss 290628
Channel_0_WQ_full 0
Channel_0_dbus_congested 9523908

avg_congested_cycle 103

DRAM_bw_pochs 4334549
DRAM_bw_level_0 1569023
DRAM_bw_level_1 497556
DRAM_bw_level_2 0
DRAM_bw_level_3 2267970
