*************************************************
   ChampSim Multicore Out-of-Order Simulator
   Last compiled: Dec 11 2024 17:59:53
*************************************************
parsing config file: /home/functionmain/桌面/Pythia/config/mlop.ini

trace_0 /home/functionmain/桌面/Pythia/traces/410.bwaves-1963B.champsimtrace.xz
adding L2C_PREFETCHER: MLOP
Initialize SHIP state
warmup_instructions 100000000
simulation_instructions 500000000
champsim_seed 277
measure_ipc 0
measure_ipc_epoch 1000
measure_dram_bw 1
measure_dram_bw_epoch 256
measure_cache_acc 1
measure_cache_acc_epoch 1024
l1d_perfect 0
l2c_perfect 0
llc_perfect 0
l1d_semi_perfect 0
l2c_semi_perfect 0
llc_semi_perfect 0
semi_perfect_cache_page_buffer_size 64

num_cpus 1
cpu_freq 4000
dram_io_freq 150
page_size 4096
block_size 64
max_read_per_cycle 8
max_fill_per_cycle 1
dram_channels 1
log2_dram_channels 0
dram_ranks 1
dram_banks 8
dram_rows 65536
dram_columns 128
dram_row_size 8
dram_size 4096
dram_pages 1048576

fetch_width 6
decode_width 6
exec_width 4
lq_width 2
sq_width 2
retire_width 4
scheduler_size 128
branch_mispredict_penalty 20
rob_size 256
lq_size 72
sq_size 56
num_instr_destinations_sparc 4
num_instr_destinations 2
num_instr_sources 4

itlb_set 16
itlb_way 8
itlb_rq_size 16
itlb_wq_size 16
itlb_pq_size 0
itlb_mshr_size 8
itlb_latency 1

dtlb_set 16
dtlb_way 4
dtlb_rq_size 16
dtlb_wq_size 16
dtlb_pq_size 0
dtlb_mshr_size 8
dtlb_latency 1

stlb_set 128
stlb_way 12
stlb_rq_size 32
stlb_wq_size 32
stlb_pq_size 0
stlb_mshr_size 16
stlb_latency 8

l1i_size 32
l1i_set 64
l1i_way 8
l1i_rq_size 64
l1i_wq_size 64
l1i_pq_size 8
l1i_mshr_size 8
l1i_latency 1

l1d_size 32
l1d_set 64
l1d_way 8
l1d_rq_size 64
l1d_wq_size 64
l1d_pq_size 8
l1d_mshr_size 16
l1d_latency 4

l2c_size 256
l2c_set 512
l2c_way 8
l2c_rq_size 32
l2c_wq_size 32
l2c_pq_size 32
l2c_mshr_size 32
l2c_latency 10

llc_size 2048
llc_set 2048
llc_way 16
llc_rq_size 32
llc_wq_size 32
llc_pq_size 32
llc_mshr_size 64
llc_latency 20

dram_channel_width 8
dram_wq_size 64
dram_rq_size 64
tRP 15
tRCD 15
tCAS 12.5
dram_dbus_turn_around_time 30
dram_write_high_wm 56
dram_write_low_wm 48
min_dram_writes_per_switch 16
dram_mtps 150
dram_dbus_return_time 213

mlop_pref_degree 16
mlop_num_updates 500
mlop_l1d_thresh 2
mlop_l2c_thresh 0.75
mlop_llc_thresh 0.3
mlop_debug_level 0
mlop_blocks_in_cache 4096
mlop_blocks_in_zone 64
mlop_amt_size 2048
mlop_PF_DEGREE 16
mlop_NUM_UPDATES 500
mlop_L1D_THRESH 1000
mlop_L2C_THRESH 375
mlop_LLC_THRESH 150
mlop_ORIGIN 63
mlop_MAX_OFFSET 63
mlop_MIN_OFFSET -63
mlop_ORIGIN 63
mlop_NUM_OFFSETS 127


Heartbeat CPU  0 instructions:    1000002 cycles:     658272 heartbeat IPC: 1.51913 cumulative IPC: 1.51913 (Simulation time: 0 hr 0 min 2 sec) 
Heartbeat CPU  0 instructions:    2000002 cycles:    1316172 heartbeat IPC: 1.51999 cumulative IPC: 1.51956 (Simulation time: 0 hr 0 min 4 sec) 
Heartbeat CPU  0 instructions:    3000002 cycles:    1974143 heartbeat IPC: 1.51982 cumulative IPC: 1.51965 (Simulation time: 0 hr 0 min 6 sec) 
Heartbeat CPU  0 instructions:    4000000 cycles:    2632031 heartbeat IPC: 1.52001 cumulative IPC: 1.51974 (Simulation time: 0 hr 0 min 9 sec) 
Heartbeat CPU  0 instructions:    5000002 cycles:    3290086 heartbeat IPC: 1.51963 cumulative IPC: 1.51972 (Simulation time: 0 hr 0 min 11 sec) 
Heartbeat CPU  0 instructions:    6000002 cycles:    3948023 heartbeat IPC: 1.51990 cumulative IPC: 1.51975 (Simulation time: 0 hr 0 min 13 sec) 
Heartbeat CPU  0 instructions:    7000000 cycles:    4605979 heartbeat IPC: 1.51986 cumulative IPC: 1.51976 (Simulation time: 0 hr 0 min 15 sec) 
Heartbeat CPU  0 instructions:    8000000 cycles:    5263863 heartbeat IPC: 1.52002 cumulative IPC: 1.51980 (Simulation time: 0 hr 0 min 17 sec) 
Heartbeat CPU  0 instructions:    9000001 cycles:    5921754 heartbeat IPC: 1.52001 cumulative IPC: 1.51982 (Simulation time: 0 hr 0 min 19 sec) 
Heartbeat CPU  0 instructions:   10000002 cycles:    6579668 heartbeat IPC: 1.51996 cumulative IPC: 1.51983 (Simulation time: 0 hr 0 min 21 sec) 
Heartbeat CPU  0 instructions:   11000001 cycles:    7237598 heartbeat IPC: 1.51992 cumulative IPC: 1.51984 (Simulation time: 0 hr 0 min 23 sec) 
Heartbeat CPU  0 instructions:   12000000 cycles:    7895410 heartbeat IPC: 1.52019 cumulative IPC: 1.51987 (Simulation time: 0 hr 0 min 25 sec) 
Heartbeat CPU  0 instructions:   13000001 cycles:    8553398 heartbeat IPC: 1.51979 cumulative IPC: 1.51986 (Simulation time: 0 hr 0 min 27 sec) 
Heartbeat CPU  0 instructions:   14000001 cycles:    9211191 heartbeat IPC: 1.52024 cumulative IPC: 1.51989 (Simulation time: 0 hr 0 min 29 sec) 
Heartbeat CPU  0 instructions:   15000000 cycles:    9868977 heartbeat IPC: 1.52025 cumulative IPC: 1.51991 (Simulation time: 0 hr 0 min 31 sec) 
Heartbeat CPU  0 instructions:   16000000 cycles:   10526811 heartbeat IPC: 1.52014 cumulative IPC: 1.51993 (Simulation time: 0 hr 0 min 33 sec) 
Heartbeat CPU  0 instructions:   17000002 cycles:   11184715 heartbeat IPC: 1.51998 cumulative IPC: 1.51993 (Simulation time: 0 hr 0 min 35 sec) 
Heartbeat CPU  0 instructions:   18000000 cycles:   11842555 heartbeat IPC: 1.52012 cumulative IPC: 1.51994 (Simulation time: 0 hr 0 min 37 sec) 
Heartbeat CPU  0 instructions:   19000001 cycles:   12500385 heartbeat IPC: 1.52015 cumulative IPC: 1.51995 (Simulation time: 0 hr 0 min 39 sec) 
Heartbeat CPU  0 instructions:   20000000 cycles:   13158191 heartbeat IPC: 1.52020 cumulative IPC: 1.51997 (Simulation time: 0 hr 0 min 41 sec) 
Heartbeat CPU  0 instructions:   21000003 cycles:   13816082 heartbeat IPC: 1.52001 cumulative IPC: 1.51997 (Simulation time: 0 hr 0 min 43 sec) 
Heartbeat CPU  0 instructions:   22000001 cycles:   14473847 heartbeat IPC: 1.52030 cumulative IPC: 1.51998 (Simulation time: 0 hr 0 min 46 sec) 
Heartbeat CPU  0 instructions:   23000001 cycles:   15131663 heartbeat IPC: 1.52018 cumulative IPC: 1.51999 (Simulation time: 0 hr 0 min 48 sec) 
Heartbeat CPU  0 instructions:   24000000 cycles:   15789388 heartbeat IPC: 1.52039 cumulative IPC: 1.52001 (Simulation time: 0 hr 0 min 50 sec) 
Heartbeat CPU  0 instructions:   25000001 cycles:   16447359 heartbeat IPC: 1.51983 cumulative IPC: 1.52000 (Simulation time: 0 hr 0 min 52 sec) 
Heartbeat CPU  0 instructions:   26000003 cycles:   17105030 heartbeat IPC: 1.52052 cumulative IPC: 1.52002 (Simulation time: 0 hr 0 min 54 sec) 
Heartbeat CPU  0 instructions:   27000000 cycles:   17762873 heartbeat IPC: 1.52012 cumulative IPC: 1.52002 (Simulation time: 0 hr 0 min 56 sec) 
Heartbeat CPU  0 instructions:   28000000 cycles:   18420655 heartbeat IPC: 1.52026 cumulative IPC: 1.52003 (Simulation time: 0 hr 0 min 58 sec) 
Heartbeat CPU  0 instructions:   29000000 cycles:   19078570 heartbeat IPC: 1.51995 cumulative IPC: 1.52003 (Simulation time: 0 hr 1 min 0 sec) 
Heartbeat CPU  0 instructions:   30000001 cycles:   19736367 heartbeat IPC: 1.52023 cumulative IPC: 1.52004 (Simulation time: 0 hr 1 min 2 sec) 
Heartbeat CPU  0 instructions:   31000002 cycles:   20394296 heartbeat IPC: 1.51992 cumulative IPC: 1.52003 (Simulation time: 0 hr 1 min 4 sec) 
Heartbeat CPU  0 instructions:   32000000 cycles:   21052224 heartbeat IPC: 1.51992 cumulative IPC: 1.52003 (Simulation time: 0 hr 1 min 6 sec) 
Heartbeat CPU  0 instructions:   33000000 cycles:   21710232 heartbeat IPC: 1.51974 cumulative IPC: 1.52002 (Simulation time: 0 hr 1 min 8 sec) 
Heartbeat CPU  0 instructions:   34000002 cycles:   22368157 heartbeat IPC: 1.51993 cumulative IPC: 1.52002 (Simulation time: 0 hr 1 min 10 sec) 
Heartbeat CPU  0 instructions:   35000000 cycles:   23026071 heartbeat IPC: 1.51995 cumulative IPC: 1.52002 (Simulation time: 0 hr 1 min 12 sec) 
Heartbeat CPU  0 instructions:   36000000 cycles:   23684015 heartbeat IPC: 1.51989 cumulative IPC: 1.52001 (Simulation time: 0 hr 1 min 14 sec) 
Heartbeat CPU  0 instructions:   37000002 cycles:   24342002 heartbeat IPC: 1.51979 cumulative IPC: 1.52001 (Simulation time: 0 hr 1 min 16 sec) 
Heartbeat CPU  0 instructions:   38000000 cycles:   24999899 heartbeat IPC: 1.51999 cumulative IPC: 1.52001 (Simulation time: 0 hr 1 min 18 sec) 
Heartbeat CPU  0 instructions:   39000000 cycles:   25657926 heartbeat IPC: 1.51969 cumulative IPC: 1.52000 (Simulation time: 0 hr 1 min 20 sec) 
Heartbeat CPU  0 instructions:   40000000 cycles:   26315772 heartbeat IPC: 1.52011 cumulative IPC: 1.52000 (Simulation time: 0 hr 1 min 23 sec) 
Heartbeat CPU  0 instructions:   41000000 cycles:   26973778 heartbeat IPC: 1.51974 cumulative IPC: 1.51999 (Simulation time: 0 hr 1 min 25 sec) 
Heartbeat CPU  0 instructions:   42000003 cycles:   27631728 heartbeat IPC: 1.51988 cumulative IPC: 1.51999 (Simulation time: 0 hr 1 min 27 sec) 
Heartbeat CPU  0 instructions:   43000001 cycles:   28289606 heartbeat IPC: 1.52004 cumulative IPC: 1.51999 (Simulation time: 0 hr 1 min 29 sec) 
Heartbeat CPU  0 instructions:   44000000 cycles:   28947411 heartbeat IPC: 1.52021 cumulative IPC: 1.52000 (Simulation time: 0 hr 1 min 31 sec) 
Heartbeat CPU  0 instructions:   45000000 cycles:   29605277 heartbeat IPC: 1.52007 cumulative IPC: 1.52000 (Simulation time: 0 hr 1 min 33 sec) 
Heartbeat CPU  0 instructions:   46000001 cycles:   30263116 heartbeat IPC: 1.52013 cumulative IPC: 1.52000 (Simulation time: 0 hr 1 min 35 sec) 
Heartbeat CPU  0 instructions:   47000003 cycles:   30920970 heartbeat IPC: 1.52010 cumulative IPC: 1.52000 (Simulation time: 0 hr 1 min 37 sec) 
Heartbeat CPU  0 instructions:   48000000 cycles:   31578649 heartbeat IPC: 1.52049 cumulative IPC: 1.52001 (Simulation time: 0 hr 1 min 39 sec) 
Heartbeat CPU  0 instructions:   49000000 cycles:   32236428 heartbeat IPC: 1.52027 cumulative IPC: 1.52002 (Simulation time: 0 hr 1 min 41 sec) 
Heartbeat CPU  0 instructions:   50000003 cycles:   32894359 heartbeat IPC: 1.51992 cumulative IPC: 1.52002 (Simulation time: 0 hr 1 min 43 sec) 
Heartbeat CPU  0 instructions:   51000000 cycles:   33552183 heartbeat IPC: 1.52016 cumulative IPC: 1.52002 (Simulation time: 0 hr 1 min 45 sec) 
Heartbeat CPU  0 instructions:   52000000 cycles:   34209986 heartbeat IPC: 1.52021 cumulative IPC: 1.52002 (Simulation time: 0 hr 1 min 47 sec) 
Heartbeat CPU  0 instructions:   53000003 cycles:   34867879 heartbeat IPC: 1.52001 cumulative IPC: 1.52002 (Simulation time: 0 hr 1 min 49 sec) 
Heartbeat CPU  0 instructions:   54000001 cycles:   35525759 heartbeat IPC: 1.52003 cumulative IPC: 1.52002 (Simulation time: 0 hr 1 min 51 sec) 
Heartbeat CPU  0 instructions:   55000003 cycles:   36183620 heartbeat IPC: 1.52008 cumulative IPC: 1.52002 (Simulation time: 0 hr 1 min 53 sec) 
Heartbeat CPU  0 instructions:   56000000 cycles:   36841488 heartbeat IPC: 1.52006 cumulative IPC: 1.52003 (Simulation time: 0 hr 1 min 55 sec) 
Heartbeat CPU  0 instructions:   57000001 cycles:   37499225 heartbeat IPC: 1.52037 cumulative IPC: 1.52003 (Simulation time: 0 hr 1 min 57 sec) 
Heartbeat CPU  0 instructions:   58000000 cycles:   38157158 heartbeat IPC: 1.51991 cumulative IPC: 1.52003 (Simulation time: 0 hr 2 min 0 sec) 
Heartbeat CPU  0 instructions:   59000002 cycles:   38815126 heartbeat IPC: 1.51983 cumulative IPC: 1.52003 (Simulation time: 0 hr 2 min 2 sec) 
Heartbeat CPU  0 instructions:   60000000 cycles:   39472883 heartbeat IPC: 1.52032 cumulative IPC: 1.52003 (Simulation time: 0 hr 2 min 4 sec) 
Heartbeat CPU  0 instructions:   61000002 cycles:   40130931 heartbeat IPC: 1.51965 cumulative IPC: 1.52002 (Simulation time: 0 hr 2 min 6 sec) 
Heartbeat CPU  0 instructions:   62000001 cycles:   40788860 heartbeat IPC: 1.51992 cumulative IPC: 1.52002 (Simulation time: 0 hr 2 min 8 sec) 
Heartbeat CPU  0 instructions:   63000002 cycles:   41446807 heartbeat IPC: 1.51988 cumulative IPC: 1.52002 (Simulation time: 0 hr 2 min 10 sec) 
Heartbeat CPU  0 instructions:   64000000 cycles:   42104738 heartbeat IPC: 1.51991 cumulative IPC: 1.52002 (Simulation time: 0 hr 2 min 12 sec) 
Heartbeat CPU  0 instructions:   65000002 cycles:   42762759 heartbeat IPC: 1.51971 cumulative IPC: 1.52001 (Simulation time: 0 hr 2 min 14 sec) 
Heartbeat CPU  0 instructions:   66000002 cycles:   43420679 heartbeat IPC: 1.51994 cumulative IPC: 1.52001 (Simulation time: 0 hr 2 min 17 sec) 
Heartbeat CPU  0 instructions:   67000002 cycles:   44078592 heartbeat IPC: 1.51996 cumulative IPC: 1.52001 (Simulation time: 0 hr 2 min 19 sec) 
Heartbeat CPU  0 instructions:   68000000 cycles:   44736473 heartbeat IPC: 1.52003 cumulative IPC: 1.52001 (Simulation time: 0 hr 2 min 21 sec) 
Heartbeat CPU  0 instructions:   69000000 cycles:   45394472 heartbeat IPC: 1.51976 cumulative IPC: 1.52001 (Simulation time: 0 hr 2 min 23 sec) 
Heartbeat CPU  0 instructions:   70000003 cycles:   46052298 heartbeat IPC: 1.52016 cumulative IPC: 1.52001 (Simulation time: 0 hr 2 min 25 sec) 
Heartbeat CPU  0 instructions:   71000003 cycles:   46710114 heartbeat IPC: 1.52018 cumulative IPC: 1.52001 (Simulation time: 0 hr 2 min 28 sec) 
Heartbeat CPU  0 instructions:   72000000 cycles:   47367970 heartbeat IPC: 1.52008 cumulative IPC: 1.52001 (Simulation time: 0 hr 2 min 30 sec) 
Heartbeat CPU  0 instructions:   73000001 cycles:   48025860 heartbeat IPC: 1.52001 cumulative IPC: 1.52001 (Simulation time: 0 hr 2 min 32 sec) 
Heartbeat CPU  0 instructions:   74000002 cycles:   48683683 heartbeat IPC: 1.52017 cumulative IPC: 1.52002 (Simulation time: 0 hr 2 min 34 sec) 
Heartbeat CPU  0 instructions:   75000001 cycles:   49341585 heartbeat IPC: 1.51998 cumulative IPC: 1.52002 (Simulation time: 0 hr 2 min 36 sec) 
Heartbeat CPU  0 instructions:   76000000 cycles:   49999404 heartbeat IPC: 1.52017 cumulative IPC: 1.52002 (Simulation time: 0 hr 2 min 38 sec) 
Heartbeat CPU  0 instructions:   77000002 cycles:   50657276 heartbeat IPC: 1.52006 cumulative IPC: 1.52002 (Simulation time: 0 hr 2 min 41 sec) 
Heartbeat CPU  0 instructions:   78000000 cycles:   51315254 heartbeat IPC: 1.51980 cumulative IPC: 1.52002 (Simulation time: 0 hr 2 min 43 sec) 
Heartbeat CPU  0 instructions:   79000003 cycles:   51973059 heartbeat IPC: 1.52021 cumulative IPC: 1.52002 (Simulation time: 0 hr 2 min 45 sec) 
Heartbeat CPU  0 instructions:   80000000 cycles:   52630889 heartbeat IPC: 1.52015 cumulative IPC: 1.52002 (Simulation time: 0 hr 2 min 47 sec) 
Heartbeat CPU  0 instructions:   81000001 cycles:   53288824 heartbeat IPC: 1.51991 cumulative IPC: 1.52002 (Simulation time: 0 hr 2 min 50 sec) 
Heartbeat CPU  0 instructions:   82000001 cycles:   53946679 heartbeat IPC: 1.52009 cumulative IPC: 1.52002 (Simulation time: 0 hr 2 min 52 sec) 
Heartbeat CPU  0 instructions:   83000001 cycles:   54604443 heartbeat IPC: 1.52030 cumulative IPC: 1.52002 (Simulation time: 0 hr 2 min 54 sec) 
Heartbeat CPU  0 instructions:   84000000 cycles:   55262262 heartbeat IPC: 1.52017 cumulative IPC: 1.52002 (Simulation time: 0 hr 2 min 56 sec) 
Heartbeat CPU  0 instructions:   85000000 cycles:   55920181 heartbeat IPC: 1.51994 cumulative IPC: 1.52002 (Simulation time: 0 hr 2 min 58 sec) 
Heartbeat CPU  0 instructions:   86000002 cycles:   56578038 heartbeat IPC: 1.52009 cumulative IPC: 1.52002 (Simulation time: 0 hr 3 min 1 sec) 
Heartbeat CPU  0 instructions:   87000001 cycles:   57236004 heartbeat IPC: 1.51983 cumulative IPC: 1.52002 (Simulation time: 0 hr 3 min 3 sec) 
Heartbeat CPU  0 instructions:   88000000 cycles:   57894057 heartbeat IPC: 1.51963 cumulative IPC: 1.52002 (Simulation time: 0 hr 3 min 5 sec) 
Heartbeat CPU  0 instructions:   89000001 cycles:   58551988 heartbeat IPC: 1.51992 cumulative IPC: 1.52002 (Simulation time: 0 hr 3 min 7 sec) 
Heartbeat CPU  0 instructions:   90000003 cycles:   59209941 heartbeat IPC: 1.51987 cumulative IPC: 1.52002 (Simulation time: 0 hr 3 min 9 sec) 
Heartbeat CPU  0 instructions:   91000000 cycles:   59867835 heartbeat IPC: 1.52000 cumulative IPC: 1.52001 (Simulation time: 0 hr 3 min 11 sec) 
Heartbeat CPU  0 instructions:   92000000 cycles:   60525792 heartbeat IPC: 1.51986 cumulative IPC: 1.52001 (Simulation time: 0 hr 3 min 14 sec) 
Heartbeat CPU  0 instructions:   93000001 cycles:   61183694 heartbeat IPC: 1.51998 cumulative IPC: 1.52001 (Simulation time: 0 hr 3 min 16 sec) 
Heartbeat CPU  0 instructions:   94000001 cycles:   61841623 heartbeat IPC: 1.51992 cumulative IPC: 1.52001 (Simulation time: 0 hr 3 min 18 sec) 
Heartbeat CPU  0 instructions:   95000000 cycles:   62499493 heartbeat IPC: 1.52006 cumulative IPC: 1.52001 (Simulation time: 0 hr 3 min 20 sec) 
Heartbeat CPU  0 instructions:   96000000 cycles:   63157352 heartbeat IPC: 1.52008 cumulative IPC: 1.52001 (Simulation time: 0 hr 3 min 22 sec) 
Heartbeat CPU  0 instructions:   97000000 cycles:   63815355 heartbeat IPC: 1.51975 cumulative IPC: 1.52001 (Simulation time: 0 hr 3 min 25 sec) 
Heartbeat CPU  0 instructions:   98000001 cycles:   64473294 heartbeat IPC: 1.51990 cumulative IPC: 1.52001 (Simulation time: 0 hr 3 min 27 sec) 
Heartbeat CPU  0 instructions:   99000003 cycles:   65131194 heartbeat IPC: 1.51999 cumulative IPC: 1.52001 (Simulation time: 0 hr 3 min 29 sec) 
Heartbeat CPU  0 instructions:  100000000 cycles:   65789031 heartbeat IPC: 1.52013 cumulative IPC: 1.52001 (Simulation time: 0 hr 3 min 31 sec) 

Warmup complete CPU  0 instructions:  100000002 cycles:   65789034 (Simulation time: 0 hr 3 min 31 sec) 

Heartbeat CPU  0 instructions:  101000001 cycles:   69718421 heartbeat IPC: 0.25449 cumulative IPC: 0.25449 (Simulation time: 0 hr 3 min 36 sec) 
Heartbeat CPU  0 instructions:  102000000 cycles:   73637822 heartbeat IPC: 0.25514 cumulative IPC: 0.25482 (Simulation time: 0 hr 3 min 40 sec) 
Heartbeat CPU  0 instructions:  103000001 cycles:   77553816 heartbeat IPC: 0.25536 cumulative IPC: 0.25500 (Simulation time: 0 hr 3 min 44 sec) 
Heartbeat CPU  0 instructions:  104000000 cycles:   81436132 heartbeat IPC: 0.25758 cumulative IPC: 0.25564 (Simulation time: 0 hr 3 min 49 sec) 
Heartbeat CPU  0 instructions:  105000002 cycles:   85377708 heartbeat IPC: 0.25371 cumulative IPC: 0.25525 (Simulation time: 0 hr 3 min 53 sec) 
Heartbeat CPU  0 instructions:  106000001 cycles:   89308696 heartbeat IPC: 0.25439 cumulative IPC: 0.25511 (Simulation time: 0 hr 3 min 57 sec) 
Heartbeat CPU  0 instructions:  107000001 cycles:   93267240 heartbeat IPC: 0.25262 cumulative IPC: 0.25475 (Simulation time: 0 hr 4 min 1 sec) 
Heartbeat CPU  0 instructions:  108000000 cycles:   97218053 heartbeat IPC: 0.25311 cumulative IPC: 0.25454 (Simulation time: 0 hr 4 min 6 sec) 
Heartbeat CPU  0 instructions:  109000001 cycles:  101154766 heartbeat IPC: 0.25402 cumulative IPC: 0.25448 (Simulation time: 0 hr 4 min 12 sec) 
Heartbeat CPU  0 instructions:  110000000 cycles:  105102798 heartbeat IPC: 0.25329 cumulative IPC: 0.25436 (Simulation time: 0 hr 4 min 18 sec) 
Heartbeat CPU  0 instructions:  111000000 cycles:  109064845 heartbeat IPC: 0.25239 cumulative IPC: 0.25418 (Simulation time: 0 hr 4 min 25 sec) 
Heartbeat CPU  0 instructions:  112000000 cycles:  113048992 heartbeat IPC: 0.25099 cumulative IPC: 0.25391 (Simulation time: 0 hr 4 min 30 sec) 
Heartbeat CPU  0 instructions:  113000000 cycles:  117023611 heartbeat IPC: 0.25160 cumulative IPC: 0.25373 (Simulation time: 0 hr 4 min 36 sec) 
Heartbeat CPU  0 instructions:  114000002 cycles:  121016127 heartbeat IPC: 0.25047 cumulative IPC: 0.25350 (Simulation time: 0 hr 4 min 41 sec) 
Heartbeat CPU  0 instructions:  115000000 cycles:  124976789 heartbeat IPC: 0.25248 cumulative IPC: 0.25343 (Simulation time: 0 hr 4 min 46 sec) 
Heartbeat CPU  0 instructions:  116000000 cycles:  128965353 heartbeat IPC: 0.25072 cumulative IPC: 0.25326 (Simulation time: 0 hr 4 min 53 sec) 
Heartbeat CPU  0 instructions:  117000003 cycles:  132960343 heartbeat IPC: 0.25031 cumulative IPC: 0.25308 (Simulation time: 0 hr 4 min 58 sec) 
Heartbeat CPU  0 instructions:  118000000 cycles:  136945151 heartbeat IPC: 0.25095 cumulative IPC: 0.25296 (Simulation time: 0 hr 5 min 4 sec) 
Heartbeat CPU  0 instructions:  119000001 cycles:  140933514 heartbeat IPC: 0.25073 cumulative IPC: 0.25285 (Simulation time: 0 hr 5 min 10 sec) 
Heartbeat CPU  0 instructions:  120000000 cycles:  144938729 heartbeat IPC: 0.24967 cumulative IPC: 0.25269 (Simulation time: 0 hr 5 min 15 sec) 
Heartbeat CPU  0 instructions:  121000003 cycles:  148922166 heartbeat IPC: 0.25104 cumulative IPC: 0.25261 (Simulation time: 0 hr 5 min 20 sec) 
Heartbeat CPU  0 instructions:  122000000 cycles:  152937537 heartbeat IPC: 0.24904 cumulative IPC: 0.25244 (Simulation time: 0 hr 5 min 25 sec) 
Heartbeat CPU  0 instructions:  123000002 cycles:  156925435 heartbeat IPC: 0.25076 cumulative IPC: 0.25237 (Simulation time: 0 hr 5 min 30 sec) 
Heartbeat CPU  0 instructions:  124000000 cycles:  160915970 heartbeat IPC: 0.25059 cumulative IPC: 0.25229 (Simulation time: 0 hr 5 min 36 sec) 
Heartbeat CPU  0 instructions:  125000003 cycles:  164921595 heartbeat IPC: 0.24965 cumulative IPC: 0.25219 (Simulation time: 0 hr 5 min 41 sec) 
Heartbeat CPU  0 instructions:  126000002 cycles:  168900135 heartbeat IPC: 0.25135 cumulative IPC: 0.25216 (Simulation time: 0 hr 5 min 46 sec) 
Heartbeat CPU  0 instructions:  127000000 cycles:  172871097 heartbeat IPC: 0.25183 cumulative IPC: 0.25214 (Simulation time: 0 hr 5 min 51 sec) 
Heartbeat CPU  0 instructions:  128000000 cycles:  176853152 heartbeat IPC: 0.25113 cumulative IPC: 0.25211 (Simulation time: 0 hr 5 min 56 sec) 
Heartbeat CPU  0 instructions:  129000000 cycles:  180867642 heartbeat IPC: 0.24910 cumulative IPC: 0.25200 (Simulation time: 0 hr 6 min 1 sec) 
Heartbeat CPU  0 instructions:  130000001 cycles:  184846923 heartbeat IPC: 0.25130 cumulative IPC: 0.25198 (Simulation time: 0 hr 6 min 7 sec) 
Heartbeat CPU  0 instructions:  131000000 cycles:  188874384 heartbeat IPC: 0.24830 cumulative IPC: 0.25186 (Simulation time: 0 hr 6 min 11 sec) 
Heartbeat CPU  0 instructions:  132000000 cycles:  192862447 heartbeat IPC: 0.25075 cumulative IPC: 0.25182 (Simulation time: 0 hr 6 min 16 sec) 
Heartbeat CPU  0 instructions:  133000001 cycles:  196891374 heartbeat IPC: 0.24821 cumulative IPC: 0.25171 (Simulation time: 0 hr 6 min 21 sec) 
Heartbeat CPU  0 instructions:  134000000 cycles:  200896922 heartbeat IPC: 0.24965 cumulative IPC: 0.25165 (Simulation time: 0 hr 6 min 26 sec) 
Heartbeat CPU  0 instructions:  135000002 cycles:  204894234 heartbeat IPC: 0.25017 cumulative IPC: 0.25161 (Simulation time: 0 hr 6 min 30 sec) 
Heartbeat CPU  0 instructions:  136000000 cycles:  208896502 heartbeat IPC: 0.24986 cumulative IPC: 0.25156 (Simulation time: 0 hr 6 min 35 sec) 
Heartbeat CPU  0 instructions:  137000002 cycles:  212920932 heartbeat IPC: 0.24848 cumulative IPC: 0.25148 (Simulation time: 0 hr 6 min 39 sec) 
Heartbeat CPU  0 instructions:  138000000 cycles:  216945622 heartbeat IPC: 0.24847 cumulative IPC: 0.25139 (Simulation time: 0 hr 6 min 44 sec) 
Heartbeat CPU  0 instructions:  139000002 cycles:  220978946 heartbeat IPC: 0.24793 cumulative IPC: 0.25130 (Simulation time: 0 hr 6 min 49 sec) 
Heartbeat CPU  0 instructions:  140000000 cycles:  224965562 heartbeat IPC: 0.25084 cumulative IPC: 0.25129 (Simulation time: 0 hr 6 min 54 sec) 
Heartbeat CPU  0 instructions:  141000003 cycles:  229016432 heartbeat IPC: 0.24686 cumulative IPC: 0.25118 (Simulation time: 0 hr 6 min 58 sec) 
Heartbeat CPU  0 instructions:  142000001 cycles:  232993307 heartbeat IPC: 0.25145 cumulative IPC: 0.25119 (Simulation time: 0 hr 7 min 3 sec) 
Heartbeat CPU  0 instructions:  143000001 cycles:  237007584 heartbeat IPC: 0.24911 cumulative IPC: 0.25114 (Simulation time: 0 hr 7 min 8 sec) 
Heartbeat CPU  0 instructions:  144000000 cycles:  241015107 heartbeat IPC: 0.24953 cumulative IPC: 0.25110 (Simulation time: 0 hr 7 min 12 sec) 
Heartbeat CPU  0 instructions:  145000001 cycles:  245029812 heartbeat IPC: 0.24908 cumulative IPC: 0.25106 (Simulation time: 0 hr 7 min 17 sec) 
Heartbeat CPU  0 instructions:  146000003 cycles:  249031829 heartbeat IPC: 0.24987 cumulative IPC: 0.25103 (Simulation time: 0 hr 7 min 22 sec) 
Heartbeat CPU  0 instructions:  147000002 cycles:  253038445 heartbeat IPC: 0.24959 cumulative IPC: 0.25100 (Simulation time: 0 hr 7 min 27 sec) 
Heartbeat CPU  0 instructions:  148000000 cycles:  257034924 heartbeat IPC: 0.25022 cumulative IPC: 0.25099 (Simulation time: 0 hr 7 min 31 sec) 
Heartbeat CPU  0 instructions:  149000001 cycles:  261028792 heartbeat IPC: 0.25038 cumulative IPC: 0.25097 (Simulation time: 0 hr 7 min 36 sec) 
Heartbeat CPU  0 instructions:  150000002 cycles:  265027458 heartbeat IPC: 0.25008 cumulative IPC: 0.25096 (Simulation time: 0 hr 7 min 41 sec) 
Heartbeat CPU  0 instructions:  151000001 cycles:  269044696 heartbeat IPC: 0.24893 cumulative IPC: 0.25092 (Simulation time: 0 hr 7 min 46 sec) 
Heartbeat CPU  0 instructions:  152000000 cycles:  273047409 heartbeat IPC: 0.24983 cumulative IPC: 0.25089 (Simulation time: 0 hr 7 min 51 sec) 
Heartbeat CPU  0 instructions:  153000002 cycles:  277062955 heartbeat IPC: 0.24903 cumulative IPC: 0.25086 (Simulation time: 0 hr 7 min 55 sec) 
Heartbeat CPU  0 instructions:  154000001 cycles:  281092349 heartbeat IPC: 0.24818 cumulative IPC: 0.25081 (Simulation time: 0 hr 8 min 0 sec) 
Heartbeat CPU  0 instructions:  155000002 cycles:  285120968 heartbeat IPC: 0.24822 cumulative IPC: 0.25076 (Simulation time: 0 hr 8 min 5 sec) 
Heartbeat CPU  0 instructions:  156000000 cycles:  289147899 heartbeat IPC: 0.24833 cumulative IPC: 0.25072 (Simulation time: 0 hr 8 min 9 sec) 
Heartbeat CPU  0 instructions:  157000002 cycles:  293129349 heartbeat IPC: 0.25117 cumulative IPC: 0.25073 (Simulation time: 0 hr 8 min 14 sec) 
Heartbeat CPU  0 instructions:  158000000 cycles:  297139035 heartbeat IPC: 0.24940 cumulative IPC: 0.25070 (Simulation time: 0 hr 8 min 19 sec) 
Heartbeat CPU  0 instructions:  159000000 cycles:  301168428 heartbeat IPC: 0.24818 cumulative IPC: 0.25066 (Simulation time: 0 hr 8 min 24 sec) 
Heartbeat CPU  0 instructions:  160000000 cycles:  305174462 heartbeat IPC: 0.24962 cumulative IPC: 0.25064 (Simulation time: 0 hr 8 min 29 sec) 
Heartbeat CPU  0 instructions:  161000000 cycles:  309188182 heartbeat IPC: 0.24915 cumulative IPC: 0.25062 (Simulation time: 0 hr 8 min 33 sec) 
Heartbeat CPU  0 instructions:  162000000 cycles:  313193075 heartbeat IPC: 0.24969 cumulative IPC: 0.25060 (Simulation time: 0 hr 8 min 38 sec) 
Heartbeat CPU  0 instructions:  163000001 cycles:  317199617 heartbeat IPC: 0.24959 cumulative IPC: 0.25059 (Simulation time: 0 hr 8 min 43 sec) 
Heartbeat CPU  0 instructions:  164000000 cycles:  321233026 heartbeat IPC: 0.24793 cumulative IPC: 0.25054 (Simulation time: 0 hr 8 min 48 sec) 
Heartbeat CPU  0 instructions:  165000001 cycles:  325219647 heartbeat IPC: 0.25084 cumulative IPC: 0.25055 (Simulation time: 0 hr 8 min 52 sec) 
Heartbeat CPU  0 instructions:  166000002 cycles:  329212584 heartbeat IPC: 0.25044 cumulative IPC: 0.25055 (Simulation time: 0 hr 8 min 57 sec) 
Heartbeat CPU  0 instructions:  167000001 cycles:  333227534 heartbeat IPC: 0.24907 cumulative IPC: 0.25052 (Simulation time: 0 hr 9 min 2 sec) 
Heartbeat CPU  0 instructions:  168000000 cycles:  337226858 heartbeat IPC: 0.25004 cumulative IPC: 0.25052 (Simulation time: 0 hr 9 min 8 sec) 
Heartbeat CPU  0 instructions:  169000002 cycles:  341222252 heartbeat IPC: 0.25029 cumulative IPC: 0.25051 (Simulation time: 0 hr 9 min 14 sec) 
Heartbeat CPU  0 instructions:  170000001 cycles:  345230636 heartbeat IPC: 0.24948 cumulative IPC: 0.25050 (Simulation time: 0 hr 9 min 19 sec) 
Heartbeat CPU  0 instructions:  171000000 cycles:  349257256 heartbeat IPC: 0.24835 cumulative IPC: 0.25047 (Simulation time: 0 hr 9 min 24 sec) 
Heartbeat CPU  0 instructions:  172000000 cycles:  353241588 heartbeat IPC: 0.25098 cumulative IPC: 0.25048 (Simulation time: 0 hr 9 min 29 sec) 
Heartbeat CPU  0 instructions:  173000000 cycles:  357262874 heartbeat IPC: 0.24868 cumulative IPC: 0.25045 (Simulation time: 0 hr 9 min 34 sec) 
Heartbeat CPU  0 instructions:  174000000 cycles:  361269299 heartbeat IPC: 0.24960 cumulative IPC: 0.25044 (Simulation time: 0 hr 9 min 39 sec) 
Heartbeat CPU  0 instructions:  175000003 cycles:  365271343 heartbeat IPC: 0.24987 cumulative IPC: 0.25043 (Simulation time: 0 hr 9 min 44 sec) 
Heartbeat CPU  0 instructions:  176000000 cycles:  369271610 heartbeat IPC: 0.24998 cumulative IPC: 0.25043 (Simulation time: 0 hr 9 min 49 sec) 
Heartbeat CPU  0 instructions:  177000000 cycles:  373278296 heartbeat IPC: 0.24958 cumulative IPC: 0.25042 (Simulation time: 0 hr 9 min 54 sec) 
Heartbeat CPU  0 instructions:  178000002 cycles:  377315541 heartbeat IPC: 0.24769 cumulative IPC: 0.25038 (Simulation time: 0 hr 9 min 59 sec) 
Heartbeat CPU  0 instructions:  179000001 cycles:  381333262 heartbeat IPC: 0.24890 cumulative IPC: 0.25036 (Simulation time: 0 hr 10 min 4 sec) 
Heartbeat CPU  0 instructions:  180000000 cycles:  385349107 heartbeat IPC: 0.24901 cumulative IPC: 0.25034 (Simulation time: 0 hr 10 min 9 sec) 
Heartbeat CPU  0 instructions:  181000001 cycles:  389361098 heartbeat IPC: 0.24925 cumulative IPC: 0.25033 (Simulation time: 0 hr 10 min 14 sec) 
Heartbeat CPU  0 instructions:  182000000 cycles:  393379697 heartbeat IPC: 0.24884 cumulative IPC: 0.25031 (Simulation time: 0 hr 10 min 19 sec) 
Heartbeat CPU  0 instructions:  183000002 cycles:  397362836 heartbeat IPC: 0.25106 cumulative IPC: 0.25032 (Simulation time: 0 hr 10 min 24 sec) 
Heartbeat CPU  0 instructions:  184000000 cycles:  401359937 heartbeat IPC: 0.25018 cumulative IPC: 0.25032 (Simulation time: 0 hr 10 min 29 sec) 
Heartbeat CPU  0 instructions:  185000000 cycles:  405396880 heartbeat IPC: 0.24771 cumulative IPC: 0.25029 (Simulation time: 0 hr 10 min 34 sec) 
Heartbeat CPU  0 instructions:  186000000 cycles:  409414375 heartbeat IPC: 0.24891 cumulative IPC: 0.25027 (Simulation time: 0 hr 10 min 39 sec) 
Heartbeat CPU  0 instructions:  187000003 cycles:  413439111 heartbeat IPC: 0.24846 cumulative IPC: 0.25025 (Simulation time: 0 hr 10 min 44 sec) 
Heartbeat CPU  0 instructions:  188000000 cycles:  417438263 heartbeat IPC: 0.25005 cumulative IPC: 0.25025 (Simulation time: 0 hr 10 min 49 sec) 
Heartbeat CPU  0 instructions:  189000000 cycles:  421457779 heartbeat IPC: 0.24879 cumulative IPC: 0.25023 (Simulation time: 0 hr 10 min 54 sec) 
Heartbeat CPU  0 instructions:  190000003 cycles:  425449884 heartbeat IPC: 0.25050 cumulative IPC: 0.25024 (Simulation time: 0 hr 10 min 59 sec) 
Heartbeat CPU  0 instructions:  191000001 cycles:  429453694 heartbeat IPC: 0.24976 cumulative IPC: 0.25023 (Simulation time: 0 hr 11 min 4 sec) 
Heartbeat CPU  0 instructions:  192000000 cycles:  433463384 heartbeat IPC: 0.24940 cumulative IPC: 0.25022 (Simulation time: 0 hr 11 min 9 sec) 
Heartbeat CPU  0 instructions:  193000001 cycles:  437455633 heartbeat IPC: 0.25049 cumulative IPC: 0.25022 (Simulation time: 0 hr 11 min 14 sec) 
Heartbeat CPU  0 instructions:  194000001 cycles:  441443110 heartbeat IPC: 0.25079 cumulative IPC: 0.25023 (Simulation time: 0 hr 11 min 19 sec) 
Heartbeat CPU  0 instructions:  195000002 cycles:  445471829 heartbeat IPC: 0.24822 cumulative IPC: 0.25021 (Simulation time: 0 hr 11 min 24 sec) 
Heartbeat CPU  0 instructions:  196000000 cycles:  449489335 heartbeat IPC: 0.24891 cumulative IPC: 0.25020 (Simulation time: 0 hr 11 min 29 sec) 
Heartbeat CPU  0 instructions:  197000001 cycles:  453488553 heartbeat IPC: 0.25005 cumulative IPC: 0.25019 (Simulation time: 0 hr 11 min 34 sec) 
Heartbeat CPU  0 instructions:  198000002 cycles:  457470774 heartbeat IPC: 0.25112 cumulative IPC: 0.25020 (Simulation time: 0 hr 11 min 39 sec) 
Heartbeat CPU  0 instructions:  199000003 cycles:  461492888 heartbeat IPC: 0.24863 cumulative IPC: 0.25019 (Simulation time: 0 hr 11 min 45 sec) 
Heartbeat CPU  0 instructions:  200000000 cycles:  465504601 heartbeat IPC: 0.24927 cumulative IPC: 0.25018 (Simulation time: 0 hr 11 min 50 sec) 
Heartbeat CPU  0 instructions:  201000002 cycles:  469492576 heartbeat IPC: 0.25075 cumulative IPC: 0.25018 (Simulation time: 0 hr 11 min 55 sec) 
Heartbeat CPU  0 instructions:  202000000 cycles:  473524457 heartbeat IPC: 0.24802 cumulative IPC: 0.25016 (Simulation time: 0 hr 12 min 0 sec) 
Heartbeat CPU  0 instructions:  203000000 cycles:  477537929 heartbeat IPC: 0.24916 cumulative IPC: 0.25015 (Simulation time: 0 hr 12 min 5 sec) 
Heartbeat CPU  0 instructions:  204000000 cycles:  481584604 heartbeat IPC: 0.24712 cumulative IPC: 0.25012 (Simulation time: 0 hr 12 min 10 sec) 
Heartbeat CPU  0 instructions:  205000003 cycles:  485609299 heartbeat IPC: 0.24847 cumulative IPC: 0.25011 (Simulation time: 0 hr 12 min 15 sec) 
Heartbeat CPU  0 instructions:  206000002 cycles:  489593411 heartbeat IPC: 0.25100 cumulative IPC: 0.25012 (Simulation time: 0 hr 12 min 20 sec) 
Heartbeat CPU  0 instructions:  207000000 cycles:  493582768 heartbeat IPC: 0.25067 cumulative IPC: 0.25012 (Simulation time: 0 hr 12 min 25 sec) 
Heartbeat CPU  0 instructions:  208000000 cycles:  497603406 heartbeat IPC: 0.24872 cumulative IPC: 0.25011 (Simulation time: 0 hr 12 min 30 sec) 
Heartbeat CPU  0 instructions:  209000002 cycles:  501593062 heartbeat IPC: 0.25065 cumulative IPC: 0.25011 (Simulation time: 0 hr 12 min 35 sec) 
Heartbeat CPU  0 instructions:  210000001 cycles:  505609704 heartbeat IPC: 0.24896 cumulative IPC: 0.25010 (Simulation time: 0 hr 12 min 40 sec) 
Heartbeat CPU  0 instructions:  211000000 cycles:  509610433 heartbeat IPC: 0.24995 cumulative IPC: 0.25010 (Simulation time: 0 hr 12 min 45 sec) 
Heartbeat CPU  0 instructions:  212000000 cycles:  513611682 heartbeat IPC: 0.24992 cumulative IPC: 0.25010 (Simulation time: 0 hr 12 min 50 sec) 
Heartbeat CPU  0 instructions:  213000001 cycles:  517661486 heartbeat IPC: 0.24693 cumulative IPC: 0.25007 (Simulation time: 0 hr 12 min 54 sec) 
Heartbeat CPU  0 instructions:  214000000 cycles:  521677006 heartbeat IPC: 0.24903 cumulative IPC: 0.25006 (Simulation time: 0 hr 13 min 0 sec) 
Heartbeat CPU  0 instructions:  215000002 cycles:  525653926 heartbeat IPC: 0.25145 cumulative IPC: 0.25007 (Simulation time: 0 hr 13 min 5 sec) 
Heartbeat CPU  0 instructions:  216000000 cycles:  529653780 heartbeat IPC: 0.25001 cumulative IPC: 0.25007 (Simulation time: 0 hr 13 min 10 sec) 
Heartbeat CPU  0 instructions:  217000001 cycles:  533643673 heartbeat IPC: 0.25063 cumulative IPC: 0.25008 (Simulation time: 0 hr 13 min 15 sec) 
Heartbeat CPU  0 instructions:  218000002 cycles:  537646948 heartbeat IPC: 0.24980 cumulative IPC: 0.25008 (Simulation time: 0 hr 13 min 20 sec) 
Heartbeat CPU  0 instructions:  219000001 cycles:  541669445 heartbeat IPC: 0.24860 cumulative IPC: 0.25006 (Simulation time: 0 hr 13 min 25 sec) 
Heartbeat CPU  0 instructions:  220000000 cycles:  545672143 heartbeat IPC: 0.24983 cumulative IPC: 0.25006 (Simulation time: 0 hr 13 min 31 sec) 
Heartbeat CPU  0 instructions:  221000001 cycles:  549701303 heartbeat IPC: 0.24819 cumulative IPC: 0.25005 (Simulation time: 0 hr 13 min 36 sec) 
Heartbeat CPU  0 instructions:  222000002 cycles:  553719216 heartbeat IPC: 0.24889 cumulative IPC: 0.25004 (Simulation time: 0 hr 13 min 41 sec) 
Heartbeat CPU  0 instructions:  223000000 cycles:  557746434 heartbeat IPC: 0.24831 cumulative IPC: 0.25002 (Simulation time: 0 hr 13 min 46 sec) 
Heartbeat CPU  0 instructions:  224000000 cycles:  561763917 heartbeat IPC: 0.24891 cumulative IPC: 0.25001 (Simulation time: 0 hr 13 min 51 sec) 
Heartbeat CPU  0 instructions:  225000002 cycles:  565839322 heartbeat IPC: 0.24537 cumulative IPC: 0.24997 (Simulation time: 0 hr 13 min 57 sec) 
Heartbeat CPU  0 instructions:  226000003 cycles:  569857405 heartbeat IPC: 0.24888 cumulative IPC: 0.24997 (Simulation time: 0 hr 14 min 2 sec) 
Heartbeat CPU  0 instructions:  227000002 cycles:  573894818 heartbeat IPC: 0.24768 cumulative IPC: 0.24995 (Simulation time: 0 hr 14 min 7 sec) 
Heartbeat CPU  0 instructions:  228000000 cycles:  577876292 heartbeat IPC: 0.25116 cumulative IPC: 0.24996 (Simulation time: 0 hr 14 min 13 sec) 
Heartbeat CPU  0 instructions:  229000000 cycles:  581931312 heartbeat IPC: 0.24661 cumulative IPC: 0.24993 (Simulation time: 0 hr 14 min 18 sec) 
Heartbeat CPU  0 instructions:  230000002 cycles:  585938991 heartbeat IPC: 0.24952 cumulative IPC: 0.24993 (Simulation time: 0 hr 14 min 23 sec) 
Heartbeat CPU  0 instructions:  231000001 cycles:  589928458 heartbeat IPC: 0.25066 cumulative IPC: 0.24993 (Simulation time: 0 hr 14 min 27 sec) 
Heartbeat CPU  0 instructions:  232000000 cycles:  593933970 heartbeat IPC: 0.24966 cumulative IPC: 0.24993 (Simulation time: 0 hr 14 min 32 sec) 
Heartbeat CPU  0 instructions:  233000000 cycles:  597966143 heartbeat IPC: 0.24801 cumulative IPC: 0.24992 (Simulation time: 0 hr 14 min 37 sec) 
Heartbeat CPU  0 instructions:  234000001 cycles:  601963688 heartbeat IPC: 0.25015 cumulative IPC: 0.24992 (Simulation time: 0 hr 14 min 42 sec) 
Heartbeat CPU  0 instructions:  235000001 cycles:  605969634 heartbeat IPC: 0.24963 cumulative IPC: 0.24992 (Simulation time: 0 hr 14 min 47 sec) 
Heartbeat CPU  0 instructions:  236000000 cycles:  609956737 heartbeat IPC: 0.25081 cumulative IPC: 0.24992 (Simulation time: 0 hr 14 min 52 sec) 
Heartbeat CPU  0 instructions:  237000000 cycles:  613972425 heartbeat IPC: 0.24902 cumulative IPC: 0.24992 (Simulation time: 0 hr 14 min 57 sec) 
Heartbeat CPU  0 instructions:  238000000 cycles:  617989155 heartbeat IPC: 0.24896 cumulative IPC: 0.24991 (Simulation time: 0 hr 15 min 2 sec) 
Heartbeat CPU  0 instructions:  239000001 cycles:  622002584 heartbeat IPC: 0.24916 cumulative IPC: 0.24990 (Simulation time: 0 hr 15 min 7 sec) 
Heartbeat CPU  0 instructions:  240000000 cycles:  625974592 heartbeat IPC: 0.25176 cumulative IPC: 0.24992 (Simulation time: 0 hr 15 min 12 sec) 
Heartbeat CPU  0 instructions:  241000000 cycles:  629974799 heartbeat IPC: 0.24999 cumulative IPC: 0.24992 (Simulation time: 0 hr 15 min 17 sec) 
Heartbeat CPU  0 instructions:  242000003 cycles:  633993033 heartbeat IPC: 0.24887 cumulative IPC: 0.24991 (Simulation time: 0 hr 15 min 22 sec) 
Heartbeat CPU  0 instructions:  243000000 cycles:  638021756 heartbeat IPC: 0.24822 cumulative IPC: 0.24990 (Simulation time: 0 hr 15 min 26 sec) 
Heartbeat CPU  0 instructions:  244000000 cycles:  642026064 heartbeat IPC: 0.24973 cumulative IPC: 0.24990 (Simulation time: 0 hr 15 min 31 sec) 
Heartbeat CPU  0 instructions:  245000001 cycles:  646034088 heartbeat IPC: 0.24950 cumulative IPC: 0.24989 (Simulation time: 0 hr 15 min 36 sec) 
Heartbeat CPU  0 instructions:  246000001 cycles:  650030246 heartbeat IPC: 0.25024 cumulative IPC: 0.24990 (Simulation time: 0 hr 15 min 41 sec) 
Heartbeat CPU  0 instructions:  247000001 cycles:  654059726 heartbeat IPC: 0.24817 cumulative IPC: 0.24988 (Simulation time: 0 hr 15 min 46 sec) 
Heartbeat CPU  0 instructions:  248000000 cycles:  658071257 heartbeat IPC: 0.24928 cumulative IPC: 0.24988 (Simulation time: 0 hr 15 min 50 sec) 
Heartbeat CPU  0 instructions:  249000003 cycles:  662065273 heartbeat IPC: 0.25038 cumulative IPC: 0.24988 (Simulation time: 0 hr 15 min 55 sec) 
Heartbeat CPU  0 instructions:  250000001 cycles:  666082463 heartbeat IPC: 0.24893 cumulative IPC: 0.24988 (Simulation time: 0 hr 16 min 0 sec) 
Heartbeat CPU  0 instructions:  251000000 cycles:  670148559 heartbeat IPC: 0.24594 cumulative IPC: 0.24985 (Simulation time: 0 hr 16 min 5 sec) 
Heartbeat CPU  0 instructions:  252000000 cycles:  674162198 heartbeat IPC: 0.24915 cumulative IPC: 0.24985 (Simulation time: 0 hr 16 min 10 sec) 
Heartbeat CPU  0 instructions:  253000000 cycles:  678141218 heartbeat IPC: 0.25132 cumulative IPC: 0.24986 (Simulation time: 0 hr 16 min 15 sec) 
Heartbeat CPU  0 instructions:  254000001 cycles:  682162663 heartbeat IPC: 0.24867 cumulative IPC: 0.24985 (Simulation time: 0 hr 16 min 20 sec) 
Heartbeat CPU  0 instructions:  255000000 cycles:  686133137 heartbeat IPC: 0.25186 cumulative IPC: 0.24986 (Simulation time: 0 hr 16 min 25 sec) 
Heartbeat CPU  0 instructions:  256000000 cycles:  690114453 heartbeat IPC: 0.25117 cumulative IPC: 0.24987 (Simulation time: 0 hr 16 min 30 sec) 
Heartbeat CPU  0 instructions:  257000000 cycles:  694129770 heartbeat IPC: 0.24905 cumulative IPC: 0.24986 (Simulation time: 0 hr 16 min 35 sec) 
Heartbeat CPU  0 instructions:  258000003 cycles:  698145245 heartbeat IPC: 0.24904 cumulative IPC: 0.24986 (Simulation time: 0 hr 16 min 40 sec) 
Heartbeat CPU  0 instructions:  259000002 cycles:  702143829 heartbeat IPC: 0.25009 cumulative IPC: 0.24986 (Simulation time: 0 hr 16 min 44 sec) 
Heartbeat CPU  0 instructions:  260000000 cycles:  706169244 heartbeat IPC: 0.24842 cumulative IPC: 0.24985 (Simulation time: 0 hr 16 min 49 sec) 
Heartbeat CPU  0 instructions:  261000003 cycles:  710156923 heartbeat IPC: 0.25077 cumulative IPC: 0.24986 (Simulation time: 0 hr 16 min 54 sec) 
Heartbeat CPU  0 instructions:  262000000 cycles:  714146215 heartbeat IPC: 0.25067 cumulative IPC: 0.24986 (Simulation time: 0 hr 16 min 59 sec) 
Heartbeat CPU  0 instructions:  263000000 cycles:  718153532 heartbeat IPC: 0.24954 cumulative IPC: 0.24986 (Simulation time: 0 hr 17 min 4 sec) 
Heartbeat CPU  0 instructions:  264000000 cycles:  722188104 heartbeat IPC: 0.24786 cumulative IPC: 0.24985 (Simulation time: 0 hr 17 min 8 sec) 
Heartbeat CPU  0 instructions:  265000002 cycles:  726196869 heartbeat IPC: 0.24945 cumulative IPC: 0.24985 (Simulation time: 0 hr 17 min 13 sec) 
Heartbeat CPU  0 instructions:  266000003 cycles:  730185588 heartbeat IPC: 0.25071 cumulative IPC: 0.24985 (Simulation time: 0 hr 17 min 18 sec) 
Heartbeat CPU  0 instructions:  267000003 cycles:  734218446 heartbeat IPC: 0.24796 cumulative IPC: 0.24984 (Simulation time: 0 hr 17 min 23 sec) 
Heartbeat CPU  0 instructions:  268000000 cycles:  738211210 heartbeat IPC: 0.25045 cumulative IPC: 0.24984 (Simulation time: 0 hr 17 min 28 sec) 
Heartbeat CPU  0 instructions:  269000000 cycles:  742250937 heartbeat IPC: 0.24754 cumulative IPC: 0.24983 (Simulation time: 0 hr 17 min 32 sec) 
Heartbeat CPU  0 instructions:  270000001 cycles:  746235391 heartbeat IPC: 0.25098 cumulative IPC: 0.24984 (Simulation time: 0 hr 17 min 37 sec) 
Heartbeat CPU  0 instructions:  271000001 cycles:  750250688 heartbeat IPC: 0.24905 cumulative IPC: 0.24983 (Simulation time: 0 hr 17 min 42 sec) 
Heartbeat CPU  0 instructions:  272000000 cycles:  754317298 heartbeat IPC: 0.24590 cumulative IPC: 0.24981 (Simulation time: 0 hr 17 min 47 sec) 
Heartbeat CPU  0 instructions:  273000003 cycles:  758305778 heartbeat IPC: 0.25072 cumulative IPC: 0.24981 (Simulation time: 0 hr 17 min 52 sec) 
Heartbeat CPU  0 instructions:  274000002 cycles:  762305550 heartbeat IPC: 0.25001 cumulative IPC: 0.24981 (Simulation time: 0 hr 17 min 56 sec) 
Heartbeat CPU  0 instructions:  275000000 cycles:  766319274 heartbeat IPC: 0.24914 cumulative IPC: 0.24981 (Simulation time: 0 hr 18 min 1 sec) 
Heartbeat CPU  0 instructions:  276000000 cycles:  770304216 heartbeat IPC: 0.25094 cumulative IPC: 0.24982 (Simulation time: 0 hr 18 min 6 sec) 
Heartbeat CPU  0 instructions:  277000002 cycles:  774308626 heartbeat IPC: 0.24973 cumulative IPC: 0.24982 (Simulation time: 0 hr 18 min 11 sec) 
Heartbeat CPU  0 instructions:  278000002 cycles:  778296702 heartbeat IPC: 0.25075 cumulative IPC: 0.24982 (Simulation time: 0 hr 18 min 16 sec) 
Heartbeat CPU  0 instructions:  279000001 cycles:  782307961 heartbeat IPC: 0.24930 cumulative IPC: 0.24982 (Simulation time: 0 hr 18 min 21 sec) 
Heartbeat CPU  0 instructions:  280000000 cycles:  786275444 heartbeat IPC: 0.25205 cumulative IPC: 0.24983 (Simulation time: 0 hr 18 min 26 sec) 
Heartbeat CPU  0 instructions:  281000000 cycles:  790302926 heartbeat IPC: 0.24829 cumulative IPC: 0.24982 (Simulation time: 0 hr 18 min 31 sec) 
Heartbeat CPU  0 instructions:  282000000 cycles:  794293272 heartbeat IPC: 0.25060 cumulative IPC: 0.24983 (Simulation time: 0 hr 18 min 36 sec) 
Heartbeat CPU  0 instructions:  283000003 cycles:  798291853 heartbeat IPC: 0.25009 cumulative IPC: 0.24983 (Simulation time: 0 hr 18 min 41 sec) 
Heartbeat CPU  0 instructions:  284000000 cycles:  802300249 heartbeat IPC: 0.24948 cumulative IPC: 0.24983 (Simulation time: 0 hr 18 min 45 sec) 
Heartbeat CPU  0 instructions:  285000000 cycles:  806284725 heartbeat IPC: 0.25097 cumulative IPC: 0.24983 (Simulation time: 0 hr 18 min 50 sec) 
Heartbeat CPU  0 instructions:  286000002 cycles:  810256390 heartbeat IPC: 0.25178 cumulative IPC: 0.24984 (Simulation time: 0 hr 18 min 55 sec) 
Heartbeat CPU  0 instructions:  287000000 cycles:  814257416 heartbeat IPC: 0.24994 cumulative IPC: 0.24984 (Simulation time: 0 hr 19 min 0 sec) 
Heartbeat CPU  0 instructions:  288000000 cycles:  818263505 heartbeat IPC: 0.24962 cumulative IPC: 0.24984 (Simulation time: 0 hr 19 min 4 sec) 
Heartbeat CPU  0 instructions:  289000001 cycles:  822264998 heartbeat IPC: 0.24991 cumulative IPC: 0.24984 (Simulation time: 0 hr 19 min 9 sec) 
Heartbeat CPU  0 instructions:  290000002 cycles:  826278857 heartbeat IPC: 0.24914 cumulative IPC: 0.24984 (Simulation time: 0 hr 19 min 14 sec) 
Heartbeat CPU  0 instructions:  291000002 cycles:  830303774 heartbeat IPC: 0.24845 cumulative IPC: 0.24983 (Simulation time: 0 hr 19 min 19 sec) 
Heartbeat CPU  0 instructions:  292000000 cycles:  834304079 heartbeat IPC: 0.24998 cumulative IPC: 0.24983 (Simulation time: 0 hr 19 min 24 sec) 
Heartbeat CPU  0 instructions:  293000001 cycles:  838274774 heartbeat IPC: 0.25185 cumulative IPC: 0.24984 (Simulation time: 0 hr 19 min 28 sec) 
Heartbeat CPU  0 instructions:  294000000 cycles:  842293071 heartbeat IPC: 0.24886 cumulative IPC: 0.24984 (Simulation time: 0 hr 19 min 33 sec) 
Heartbeat CPU  0 instructions:  295000003 cycles:  846279483 heartbeat IPC: 0.25085 cumulative IPC: 0.24984 (Simulation time: 0 hr 19 min 38 sec) 
Heartbeat CPU  0 instructions:  296000000 cycles:  850311583 heartbeat IPC: 0.24801 cumulative IPC: 0.24983 (Simulation time: 0 hr 19 min 43 sec) 
Heartbeat CPU  0 instructions:  297000001 cycles:  854332490 heartbeat IPC: 0.24870 cumulative IPC: 0.24983 (Simulation time: 0 hr 19 min 48 sec) 
Heartbeat CPU  0 instructions:  298000001 cycles:  858364995 heartbeat IPC: 0.24798 cumulative IPC: 0.24982 (Simulation time: 0 hr 19 min 53 sec) 
Heartbeat CPU  0 instructions:  299000000 cycles:  862350527 heartbeat IPC: 0.25091 cumulative IPC: 0.24982 (Simulation time: 0 hr 19 min 58 sec) 
Heartbeat CPU  0 instructions:  300000000 cycles:  866389295 heartbeat IPC: 0.24760 cumulative IPC: 0.24981 (Simulation time: 0 hr 20 min 3 sec) 
Heartbeat CPU  0 instructions:  301000000 cycles:  870400529 heartbeat IPC: 0.24930 cumulative IPC: 0.24981 (Simulation time: 0 hr 20 min 8 sec) 
Heartbeat CPU  0 instructions:  302000002 cycles:  874401217 heartbeat IPC: 0.24996 cumulative IPC: 0.24981 (Simulation time: 0 hr 20 min 13 sec) 
Heartbeat CPU  0 instructions:  303000000 cycles:  878393131 heartbeat IPC: 0.25051 cumulative IPC: 0.24981 (Simulation time: 0 hr 20 min 17 sec) 
Heartbeat CPU  0 instructions:  304000000 cycles:  882419754 heartbeat IPC: 0.24835 cumulative IPC: 0.24981 (Simulation time: 0 hr 20 min 23 sec) 
Heartbeat CPU  0 instructions:  305000001 cycles:  886410785 heartbeat IPC: 0.25056 cumulative IPC: 0.24981 (Simulation time: 0 hr 20 min 28 sec) 
Heartbeat CPU  0 instructions:  306000001 cycles:  890435126 heartbeat IPC: 0.24849 cumulative IPC: 0.24980 (Simulation time: 0 hr 20 min 32 sec) 
Heartbeat CPU  0 instructions:  307000002 cycles:  894437558 heartbeat IPC: 0.24985 cumulative IPC: 0.24980 (Simulation time: 0 hr 20 min 37 sec) 
Heartbeat CPU  0 instructions:  308000000 cycles:  898438525 heartbeat IPC: 0.24994 cumulative IPC: 0.24980 (Simulation time: 0 hr 20 min 42 sec) 
Heartbeat CPU  0 instructions:  309000002 cycles:  902445179 heartbeat IPC: 0.24959 cumulative IPC: 0.24980 (Simulation time: 0 hr 20 min 47 sec) 
Heartbeat CPU  0 instructions:  310000000 cycles:  906477414 heartbeat IPC: 0.24800 cumulative IPC: 0.24980 (Simulation time: 0 hr 20 min 51 sec) 
Heartbeat CPU  0 instructions:  311000002 cycles:  910489197 heartbeat IPC: 0.24927 cumulative IPC: 0.24979 (Simulation time: 0 hr 20 min 56 sec) 
Heartbeat CPU  0 instructions:  312000000 cycles:  914491927 heartbeat IPC: 0.24983 cumulative IPC: 0.24979 (Simulation time: 0 hr 21 min 1 sec) 
Heartbeat CPU  0 instructions:  313000003 cycles:  918501331 heartbeat IPC: 0.24941 cumulative IPC: 0.24979 (Simulation time: 0 hr 21 min 6 sec) 
Heartbeat CPU  0 instructions:  314000002 cycles:  922510343 heartbeat IPC: 0.24944 cumulative IPC: 0.24979 (Simulation time: 0 hr 21 min 11 sec) 
Heartbeat CPU  0 instructions:  315000000 cycles:  926543177 heartbeat IPC: 0.24796 cumulative IPC: 0.24978 (Simulation time: 0 hr 21 min 15 sec) 
Heartbeat CPU  0 instructions:  316000000 cycles:  930552313 heartbeat IPC: 0.24943 cumulative IPC: 0.24978 (Simulation time: 0 hr 21 min 20 sec) 
Heartbeat CPU  0 instructions:  317000001 cycles:  934558103 heartbeat IPC: 0.24964 cumulative IPC: 0.24978 (Simulation time: 0 hr 21 min 25 sec) 
Heartbeat CPU  0 instructions:  318000001 cycles:  938575279 heartbeat IPC: 0.24893 cumulative IPC: 0.24977 (Simulation time: 0 hr 21 min 30 sec) 
Heartbeat CPU  0 instructions:  319000000 cycles:  942598804 heartbeat IPC: 0.24854 cumulative IPC: 0.24977 (Simulation time: 0 hr 21 min 35 sec) 
Heartbeat CPU  0 instructions:  320000000 cycles:  946642637 heartbeat IPC: 0.24729 cumulative IPC: 0.24976 (Simulation time: 0 hr 21 min 40 sec) 
Heartbeat CPU  0 instructions:  321000000 cycles:  950663425 heartbeat IPC: 0.24871 cumulative IPC: 0.24975 (Simulation time: 0 hr 21 min 44 sec) 
Heartbeat CPU  0 instructions:  322000000 cycles:  954665911 heartbeat IPC: 0.24984 cumulative IPC: 0.24975 (Simulation time: 0 hr 21 min 49 sec) 
Heartbeat CPU  0 instructions:  323000002 cycles:  958657512 heartbeat IPC: 0.25053 cumulative IPC: 0.24976 (Simulation time: 0 hr 21 min 54 sec) 
Heartbeat CPU  0 instructions:  324000000 cycles:  962666273 heartbeat IPC: 0.24945 cumulative IPC: 0.24976 (Simulation time: 0 hr 21 min 59 sec) 
Heartbeat CPU  0 instructions:  325000002 cycles:  966708870 heartbeat IPC: 0.24737 cumulative IPC: 0.24974 (Simulation time: 0 hr 22 min 4 sec) 
Heartbeat CPU  0 instructions:  326000001 cycles:  970705984 heartbeat IPC: 0.25018 cumulative IPC: 0.24975 (Simulation time: 0 hr 22 min 9 sec) 
Heartbeat CPU  0 instructions:  327000000 cycles:  974705240 heartbeat IPC: 0.25005 cumulative IPC: 0.24975 (Simulation time: 0 hr 22 min 14 sec) 
Heartbeat CPU  0 instructions:  328000000 cycles:  978698116 heartbeat IPC: 0.25045 cumulative IPC: 0.24975 (Simulation time: 0 hr 22 min 18 sec) 
Heartbeat CPU  0 instructions:  329000003 cycles:  982734628 heartbeat IPC: 0.24774 cumulative IPC: 0.24974 (Simulation time: 0 hr 22 min 23 sec) 
Heartbeat CPU  0 instructions:  330000000 cycles:  986729606 heartbeat IPC: 0.25031 cumulative IPC: 0.24974 (Simulation time: 0 hr 22 min 28 sec) 
Heartbeat CPU  0 instructions:  331000000 cycles:  990768134 heartbeat IPC: 0.24761 cumulative IPC: 0.24974 (Simulation time: 0 hr 22 min 32 sec) 
Heartbeat CPU  0 instructions:  332000000 cycles:  994799049 heartbeat IPC: 0.24808 cumulative IPC: 0.24973 (Simulation time: 0 hr 22 min 37 sec) 
Heartbeat CPU  0 instructions:  333000002 cycles:  998839391 heartbeat IPC: 0.24750 cumulative IPC: 0.24972 (Simulation time: 0 hr 22 min 42 sec) 
Heartbeat CPU  0 instructions:  334000003 cycles: 1002863186 heartbeat IPC: 0.24852 cumulative IPC: 0.24971 (Simulation time: 0 hr 22 min 47 sec) 
Heartbeat CPU  0 instructions:  335000000 cycles: 1006845917 heartbeat IPC: 0.25108 cumulative IPC: 0.24972 (Simulation time: 0 hr 22 min 52 sec) 
Heartbeat CPU  0 instructions:  336000000 cycles: 1010851130 heartbeat IPC: 0.24967 cumulative IPC: 0.24972 (Simulation time: 0 hr 22 min 56 sec) 
Heartbeat CPU  0 instructions:  337000001 cycles: 1014929391 heartbeat IPC: 0.24520 cumulative IPC: 0.24970 (Simulation time: 0 hr 23 min 1 sec) 
Heartbeat CPU  0 instructions:  338000002 cycles: 1018935802 heartbeat IPC: 0.24960 cumulative IPC: 0.24970 (Simulation time: 0 hr 23 min 6 sec) 
Heartbeat CPU  0 instructions:  339000001 cycles: 1022965032 heartbeat IPC: 0.24819 cumulative IPC: 0.24969 (Simulation time: 0 hr 23 min 11 sec) 
Heartbeat CPU  0 instructions:  340000000 cycles: 1027065496 heartbeat IPC: 0.24387 cumulative IPC: 0.24967 (Simulation time: 0 hr 23 min 16 sec) 
Heartbeat CPU  0 instructions:  341000001 cycles: 1031090251 heartbeat IPC: 0.24846 cumulative IPC: 0.24966 (Simulation time: 0 hr 23 min 21 sec) 
Heartbeat CPU  0 instructions:  342000003 cycles: 1035114587 heartbeat IPC: 0.24849 cumulative IPC: 0.24966 (Simulation time: 0 hr 23 min 25 sec) 
Heartbeat CPU  0 instructions:  343000002 cycles: 1039131443 heartbeat IPC: 0.24895 cumulative IPC: 0.24966 (Simulation time: 0 hr 23 min 30 sec) 
Heartbeat CPU  0 instructions:  344000000 cycles: 1043197887 heartbeat IPC: 0.24591 cumulative IPC: 0.24964 (Simulation time: 0 hr 23 min 35 sec) 
Heartbeat CPU  0 instructions:  345000001 cycles: 1048166702 heartbeat IPC: 0.20126 cumulative IPC: 0.24939 (Simulation time: 0 hr 23 min 40 sec) 
Heartbeat CPU  0 instructions:  346000001 cycles: 1053129471 heartbeat IPC: 0.20150 cumulative IPC: 0.24915 (Simulation time: 0 hr 23 min 44 sec) 
Heartbeat CPU  0 instructions:  347000003 cycles: 1058051381 heartbeat IPC: 0.20317 cumulative IPC: 0.24893 (Simulation time: 0 hr 23 min 49 sec) 
Heartbeat CPU  0 instructions:  348000000 cycles: 1062971464 heartbeat IPC: 0.20325 cumulative IPC: 0.24870 (Simulation time: 0 hr 23 min 53 sec) 
Heartbeat CPU  0 instructions:  349000002 cycles: 1067890098 heartbeat IPC: 0.20331 cumulative IPC: 0.24848 (Simulation time: 0 hr 23 min 58 sec) 
Heartbeat CPU  0 instructions:  350000002 cycles: 1072815143 heartbeat IPC: 0.20304 cumulative IPC: 0.24826 (Simulation time: 0 hr 24 min 2 sec) 
Heartbeat CPU  0 instructions:  351000001 cycles: 1077735827 heartbeat IPC: 0.20322 cumulative IPC: 0.24804 (Simulation time: 0 hr 24 min 6 sec) 
Heartbeat CPU  0 instructions:  352000000 cycles: 1082660786 heartbeat IPC: 0.20305 cumulative IPC: 0.24782 (Simulation time: 0 hr 24 min 11 sec) 
Heartbeat CPU  0 instructions:  353000003 cycles: 1087579894 heartbeat IPC: 0.20329 cumulative IPC: 0.24760 (Simulation time: 0 hr 24 min 15 sec) 
Heartbeat CPU  0 instructions:  354000000 cycles: 1092499013 heartbeat IPC: 0.20329 cumulative IPC: 0.24739 (Simulation time: 0 hr 24 min 19 sec) 
Heartbeat CPU  0 instructions:  355000000 cycles: 1097418708 heartbeat IPC: 0.20326 cumulative IPC: 0.24718 (Simulation time: 0 hr 24 min 24 sec) 
Heartbeat CPU  0 instructions:  356000000 cycles: 1102341976 heartbeat IPC: 0.20312 cumulative IPC: 0.24697 (Simulation time: 0 hr 24 min 28 sec) 
Heartbeat CPU  0 instructions:  357000003 cycles: 1107239288 heartbeat IPC: 0.20419 cumulative IPC: 0.24677 (Simulation time: 0 hr 24 min 32 sec) 
Heartbeat CPU  0 instructions:  358000001 cycles: 1111874608 heartbeat IPC: 0.21573 cumulative IPC: 0.24663 (Simulation time: 0 hr 24 min 37 sec) 
Heartbeat CPU  0 instructions:  359000003 cycles: 1115726111 heartbeat IPC: 0.25964 cumulative IPC: 0.24668 (Simulation time: 0 hr 24 min 41 sec) 
Heartbeat CPU  0 instructions:  360000000 cycles: 1120008926 heartbeat IPC: 0.23349 cumulative IPC: 0.24663 (Simulation time: 0 hr 24 min 45 sec) 
Heartbeat CPU  0 instructions:  361000003 cycles: 1125057025 heartbeat IPC: 0.19809 cumulative IPC: 0.24640 (Simulation time: 0 hr 24 min 49 sec) 
Heartbeat CPU  0 instructions:  362000001 cycles: 1130755333 heartbeat IPC: 0.17549 cumulative IPC: 0.24602 (Simulation time: 0 hr 24 min 54 sec) 
Heartbeat CPU  0 instructions:  363000000 cycles: 1136480542 heartbeat IPC: 0.17467 cumulative IPC: 0.24564 (Simulation time: 0 hr 24 min 59 sec) 
Heartbeat CPU  0 instructions:  364000000 cycles: 1142291972 heartbeat IPC: 0.17207 cumulative IPC: 0.24524 (Simulation time: 0 hr 25 min 4 sec) 
Heartbeat CPU  0 instructions:  365000000 cycles: 1148191724 heartbeat IPC: 0.16950 cumulative IPC: 0.24483 (Simulation time: 0 hr 25 min 9 sec) 
Heartbeat CPU  0 instructions:  366000001 cycles: 1154247220 heartbeat IPC: 0.16514 cumulative IPC: 0.24438 (Simulation time: 0 hr 25 min 14 sec) 
Heartbeat CPU  0 instructions:  367000003 cycles: 1160546317 heartbeat IPC: 0.15875 cumulative IPC: 0.24389 (Simulation time: 0 hr 25 min 20 sec) 
Heartbeat CPU  0 instructions:  368000000 cycles: 1166758669 heartbeat IPC: 0.16097 cumulative IPC: 0.24342 (Simulation time: 0 hr 25 min 25 sec) 
Heartbeat CPU  0 instructions:  369000002 cycles: 1173012655 heartbeat IPC: 0.15990 cumulative IPC: 0.24295 (Simulation time: 0 hr 25 min 30 sec) 
Heartbeat CPU  0 instructions:  370000002 cycles: 1179279000 heartbeat IPC: 0.15958 cumulative IPC: 0.24248 (Simulation time: 0 hr 25 min 35 sec) 
Heartbeat CPU  0 instructions:  371000000 cycles: 1185574450 heartbeat IPC: 0.15884 cumulative IPC: 0.24201 (Simulation time: 0 hr 25 min 40 sec) 
Heartbeat CPU  0 instructions:  372000000 cycles: 1191891754 heartbeat IPC: 0.15830 cumulative IPC: 0.24154 (Simulation time: 0 hr 25 min 46 sec) 
Heartbeat CPU  0 instructions:  373000003 cycles: 1198197566 heartbeat IPC: 0.15858 cumulative IPC: 0.24108 (Simulation time: 0 hr 25 min 51 sec) 
Heartbeat CPU  0 instructions:  374000003 cycles: 1204527808 heartbeat IPC: 0.15797 cumulative IPC: 0.24062 (Simulation time: 0 hr 25 min 56 sec) 
Heartbeat CPU  0 instructions:  375000000 cycles: 1210794527 heartbeat IPC: 0.15957 cumulative IPC: 0.24017 (Simulation time: 0 hr 26 min 1 sec) 
Heartbeat CPU  0 instructions:  376000000 cycles: 1217047083 heartbeat IPC: 0.15993 cumulative IPC: 0.23974 (Simulation time: 0 hr 26 min 6 sec) 
Heartbeat CPU  0 instructions:  377000001 cycles: 1222290419 heartbeat IPC: 0.19072 cumulative IPC: 0.23952 (Simulation time: 0 hr 26 min 12 sec) 
Heartbeat CPU  0 instructions:  378000001 cycles: 1226564844 heartbeat IPC: 0.23395 cumulative IPC: 0.23949 (Simulation time: 0 hr 26 min 17 sec) 
Heartbeat CPU  0 instructions:  379000000 cycles: 1230845137 heartbeat IPC: 0.23363 cumulative IPC: 0.23947 (Simulation time: 0 hr 26 min 22 sec) 
Heartbeat CPU  0 instructions:  380000000 cycles: 1235146779 heartbeat IPC: 0.23247 cumulative IPC: 0.23945 (Simulation time: 0 hr 26 min 27 sec) 
Heartbeat CPU  0 instructions:  381000003 cycles: 1239394429 heartbeat IPC: 0.23542 cumulative IPC: 0.23943 (Simulation time: 0 hr 26 min 32 sec) 
Heartbeat CPU  0 instructions:  382000000 cycles: 1243673077 heartbeat IPC: 0.23372 cumulative IPC: 0.23941 (Simulation time: 0 hr 26 min 37 sec) 
Heartbeat CPU  0 instructions:  383000000 cycles: 1247984799 heartbeat IPC: 0.23193 cumulative IPC: 0.23939 (Simulation time: 0 hr 26 min 42 sec) 
Heartbeat CPU  0 instructions:  384000000 cycles: 1252245417 heartbeat IPC: 0.23471 cumulative IPC: 0.23937 (Simulation time: 0 hr 26 min 47 sec) 
Heartbeat CPU  0 instructions:  385000000 cycles: 1256386730 heartbeat IPC: 0.24147 cumulative IPC: 0.23938 (Simulation time: 0 hr 26 min 52 sec) 
Heartbeat CPU  0 instructions:  386000000 cycles: 1260596337 heartbeat IPC: 0.23755 cumulative IPC: 0.23937 (Simulation time: 0 hr 26 min 57 sec) 
Heartbeat CPU  0 instructions:  387000003 cycles: 1264843950 heartbeat IPC: 0.23543 cumulative IPC: 0.23936 (Simulation time: 0 hr 27 min 2 sec) 
Heartbeat CPU  0 instructions:  388000000 cycles: 1269050502 heartbeat IPC: 0.23772 cumulative IPC: 0.23935 (Simulation time: 0 hr 27 min 7 sec) 
Heartbeat CPU  0 instructions:  389000000 cycles: 1273142461 heartbeat IPC: 0.24438 cumulative IPC: 0.23937 (Simulation time: 0 hr 27 min 12 sec) 
Heartbeat CPU  0 instructions:  390000000 cycles: 1277309594 heartbeat IPC: 0.23997 cumulative IPC: 0.23937 (Simulation time: 0 hr 27 min 17 sec) 
Heartbeat CPU  0 instructions:  391000001 cycles: 1281451306 heartbeat IPC: 0.24145 cumulative IPC: 0.23938 (Simulation time: 0 hr 27 min 22 sec) 
Heartbeat CPU  0 instructions:  392000000 cycles: 1285555299 heartbeat IPC: 0.24366 cumulative IPC: 0.23939 (Simulation time: 0 hr 27 min 26 sec) 
Heartbeat CPU  0 instructions:  393000000 cycles: 1289614247 heartbeat IPC: 0.24637 cumulative IPC: 0.23941 (Simulation time: 0 hr 27 min 31 sec) 
Heartbeat CPU  0 instructions:  394000000 cycles: 1293691435 heartbeat IPC: 0.24527 cumulative IPC: 0.23943 (Simulation time: 0 hr 27 min 36 sec) 
Heartbeat CPU  0 instructions:  395000000 cycles: 1297800961 heartbeat IPC: 0.24334 cumulative IPC: 0.23945 (Simulation time: 0 hr 27 min 41 sec) 
Heartbeat CPU  0 instructions:  396000000 cycles: 1301860265 heartbeat IPC: 0.24635 cumulative IPC: 0.23947 (Simulation time: 0 hr 27 min 45 sec) 
Heartbeat CPU  0 instructions:  397000001 cycles: 1305896129 heartbeat IPC: 0.24778 cumulative IPC: 0.23950 (Simulation time: 0 hr 27 min 50 sec) 
Heartbeat CPU  0 instructions:  398000000 cycles: 1309935028 heartbeat IPC: 0.24759 cumulative IPC: 0.23952 (Simulation time: 0 hr 27 min 55 sec) 
Heartbeat CPU  0 instructions:  399000000 cycles: 1313994513 heartbeat IPC: 0.24634 cumulative IPC: 0.23954 (Simulation time: 0 hr 28 min 0 sec) 
Heartbeat CPU  0 instructions:  400000000 cycles: 1318039622 heartbeat IPC: 0.24721 cumulative IPC: 0.23957 (Simulation time: 0 hr 28 min 5 sec) 
Heartbeat CPU  0 instructions:  401000003 cycles: 1322081242 heartbeat IPC: 0.24743 cumulative IPC: 0.23959 (Simulation time: 0 hr 28 min 10 sec) 
Heartbeat CPU  0 instructions:  402000003 cycles: 1326104166 heartbeat IPC: 0.24858 cumulative IPC: 0.23962 (Simulation time: 0 hr 28 min 14 sec) 
Heartbeat CPU  0 instructions:  403000000 cycles: 1330163240 heartbeat IPC: 0.24636 cumulative IPC: 0.23964 (Simulation time: 0 hr 28 min 19 sec) 
Heartbeat CPU  0 instructions:  404000000 cycles: 1334170761 heartbeat IPC: 0.24953 cumulative IPC: 0.23968 (Simulation time: 0 hr 28 min 24 sec) 
Heartbeat CPU  0 instructions:  405000000 cycles: 1338194093 heartbeat IPC: 0.24855 cumulative IPC: 0.23970 (Simulation time: 0 hr 28 min 29 sec) 
Heartbeat CPU  0 instructions:  406000000 cycles: 1342212732 heartbeat IPC: 0.24884 cumulative IPC: 0.23973 (Simulation time: 0 hr 28 min 34 sec) 
Heartbeat CPU  0 instructions:  407000002 cycles: 1346230656 heartbeat IPC: 0.24889 cumulative IPC: 0.23976 (Simulation time: 0 hr 28 min 39 sec) 
Heartbeat CPU  0 instructions:  408000000 cycles: 1350249524 heartbeat IPC: 0.24883 cumulative IPC: 0.23979 (Simulation time: 0 hr 28 min 44 sec) 
Heartbeat CPU  0 instructions:  409000002 cycles: 1354274172 heartbeat IPC: 0.24847 cumulative IPC: 0.23982 (Simulation time: 0 hr 28 min 48 sec) 
Heartbeat CPU  0 instructions:  410000001 cycles: 1358298366 heartbeat IPC: 0.24850 cumulative IPC: 0.23984 (Simulation time: 0 hr 28 min 53 sec) 
Heartbeat CPU  0 instructions:  411000000 cycles: 1362338194 heartbeat IPC: 0.24754 cumulative IPC: 0.23987 (Simulation time: 0 hr 28 min 58 sec) 
Heartbeat CPU  0 instructions:  412000000 cycles: 1366377675 heartbeat IPC: 0.24756 cumulative IPC: 0.23989 (Simulation time: 0 hr 29 min 3 sec) 
Heartbeat CPU  0 instructions:  413000001 cycles: 1370356463 heartbeat IPC: 0.25133 cumulative IPC: 0.23993 (Simulation time: 0 hr 29 min 8 sec) 
Heartbeat CPU  0 instructions:  414000000 cycles: 1374387253 heartbeat IPC: 0.24809 cumulative IPC: 0.23995 (Simulation time: 0 hr 29 min 13 sec) 
Heartbeat CPU  0 instructions:  415000002 cycles: 1378420218 heartbeat IPC: 0.24796 cumulative IPC: 0.23998 (Simulation time: 0 hr 29 min 17 sec) 
Heartbeat CPU  0 instructions:  416000000 cycles: 1382432218 heartbeat IPC: 0.24925 cumulative IPC: 0.24000 (Simulation time: 0 hr 29 min 22 sec) 
Heartbeat CPU  0 instructions:  417000000 cycles: 1386439949 heartbeat IPC: 0.24952 cumulative IPC: 0.24003 (Simulation time: 0 hr 29 min 27 sec) 
Heartbeat CPU  0 instructions:  418000002 cycles: 1390473188 heartbeat IPC: 0.24794 cumulative IPC: 0.24006 (Simulation time: 0 hr 29 min 32 sec) 
Heartbeat CPU  0 instructions:  419000002 cycles: 1394495849 heartbeat IPC: 0.24859 cumulative IPC: 0.24008 (Simulation time: 0 hr 29 min 36 sec) 
Heartbeat CPU  0 instructions:  420000000 cycles: 1398501492 heartbeat IPC: 0.24965 cumulative IPC: 0.24011 (Simulation time: 0 hr 29 min 41 sec) 
Heartbeat CPU  0 instructions:  421000001 cycles: 1402486273 heartbeat IPC: 0.25096 cumulative IPC: 0.24014 (Simulation time: 0 hr 29 min 46 sec) 
Heartbeat CPU  0 instructions:  422000001 cycles: 1406523842 heartbeat IPC: 0.24767 cumulative IPC: 0.24017 (Simulation time: 0 hr 29 min 51 sec) 
Heartbeat CPU  0 instructions:  423000000 cycles: 1410518709 heartbeat IPC: 0.25032 cumulative IPC: 0.24020 (Simulation time: 0 hr 29 min 55 sec) 
Heartbeat CPU  0 instructions:  424000000 cycles: 1414515250 heartbeat IPC: 0.25022 cumulative IPC: 0.24023 (Simulation time: 0 hr 30 min 0 sec) 
Heartbeat CPU  0 instructions:  425000002 cycles: 1418521496 heartbeat IPC: 0.24961 cumulative IPC: 0.24025 (Simulation time: 0 hr 30 min 5 sec) 
Heartbeat CPU  0 instructions:  426000003 cycles: 1422547982 heartbeat IPC: 0.24836 cumulative IPC: 0.24028 (Simulation time: 0 hr 30 min 10 sec) 
Heartbeat CPU  0 instructions:  427000002 cycles: 1426552364 heartbeat IPC: 0.24973 cumulative IPC: 0.24031 (Simulation time: 0 hr 30 min 15 sec) 
Heartbeat CPU  0 instructions:  428000000 cycles: 1430518958 heartbeat IPC: 0.25210 cumulative IPC: 0.24034 (Simulation time: 0 hr 30 min 20 sec) 
Heartbeat CPU  0 instructions:  429000000 cycles: 1434509736 heartbeat IPC: 0.25058 cumulative IPC: 0.24037 (Simulation time: 0 hr 30 min 25 sec) 
Heartbeat CPU  0 instructions:  430000002 cycles: 1438493207 heartbeat IPC: 0.25104 cumulative IPC: 0.24040 (Simulation time: 0 hr 30 min 29 sec) 
Heartbeat CPU  0 instructions:  431000001 cycles: 1442518522 heartbeat IPC: 0.24843 cumulative IPC: 0.24042 (Simulation time: 0 hr 30 min 34 sec) 
Heartbeat CPU  0 instructions:  432000000 cycles: 1446489367 heartbeat IPC: 0.25184 cumulative IPC: 0.24046 (Simulation time: 0 hr 30 min 39 sec) 
Heartbeat CPU  0 instructions:  433000002 cycles: 1450485054 heartbeat IPC: 0.25027 cumulative IPC: 0.24049 (Simulation time: 0 hr 30 min 44 sec) 
Heartbeat CPU  0 instructions:  434000002 cycles: 1454504704 heartbeat IPC: 0.24878 cumulative IPC: 0.24051 (Simulation time: 0 hr 30 min 49 sec) 
Heartbeat CPU  0 instructions:  435000001 cycles: 1458513683 heartbeat IPC: 0.24944 cumulative IPC: 0.24054 (Simulation time: 0 hr 30 min 54 sec) 
Heartbeat CPU  0 instructions:  436000000 cycles: 1462487175 heartbeat IPC: 0.25167 cumulative IPC: 0.24057 (Simulation time: 0 hr 30 min 59 sec) 
Heartbeat CPU  0 instructions:  437000001 cycles: 1466513464 heartbeat IPC: 0.24837 cumulative IPC: 0.24059 (Simulation time: 0 hr 31 min 3 sec) 
Heartbeat CPU  0 instructions:  438000001 cycles: 1470513405 heartbeat IPC: 0.25000 cumulative IPC: 0.24062 (Simulation time: 0 hr 31 min 8 sec) 
Heartbeat CPU  0 instructions:  439000001 cycles: 1474526252 heartbeat IPC: 0.24920 cumulative IPC: 0.24064 (Simulation time: 0 hr 31 min 13 sec) 
Heartbeat CPU  0 instructions:  440000000 cycles: 1478518232 heartbeat IPC: 0.25050 cumulative IPC: 0.24067 (Simulation time: 0 hr 31 min 18 sec) 
Heartbeat CPU  0 instructions:  441000000 cycles: 1482514558 heartbeat IPC: 0.25023 cumulative IPC: 0.24070 (Simulation time: 0 hr 31 min 22 sec) 
Heartbeat CPU  0 instructions:  442000001 cycles: 1486520796 heartbeat IPC: 0.24961 cumulative IPC: 0.24072 (Simulation time: 0 hr 31 min 28 sec) 
Heartbeat CPU  0 instructions:  443000001 cycles: 1490543515 heartbeat IPC: 0.24859 cumulative IPC: 0.24074 (Simulation time: 0 hr 31 min 33 sec) 
Heartbeat CPU  0 instructions:  444000000 cycles: 1494541130 heartbeat IPC: 0.25015 cumulative IPC: 0.24077 (Simulation time: 0 hr 31 min 40 sec) 
Heartbeat CPU  0 instructions:  445000000 cycles: 1498594591 heartbeat IPC: 0.24670 cumulative IPC: 0.24079 (Simulation time: 0 hr 31 min 45 sec) 
Heartbeat CPU  0 instructions:  446000002 cycles: 1502601319 heartbeat IPC: 0.24958 cumulative IPC: 0.24081 (Simulation time: 0 hr 31 min 50 sec) 
Heartbeat CPU  0 instructions:  447000000 cycles: 1506609381 heartbeat IPC: 0.24950 cumulative IPC: 0.24084 (Simulation time: 0 hr 31 min 56 sec) 
Heartbeat CPU  0 instructions:  448000000 cycles: 1510586765 heartbeat IPC: 0.25142 cumulative IPC: 0.24086 (Simulation time: 0 hr 32 min 1 sec) 
Heartbeat CPU  0 instructions:  449000001 cycles: 1514615567 heartbeat IPC: 0.24821 cumulative IPC: 0.24088 (Simulation time: 0 hr 32 min 6 sec) 
Heartbeat CPU  0 instructions:  450000001 cycles: 1518638011 heartbeat IPC: 0.24861 cumulative IPC: 0.24091 (Simulation time: 0 hr 32 min 11 sec) 
Heartbeat CPU  0 instructions:  451000002 cycles: 1522635352 heartbeat IPC: 0.25017 cumulative IPC: 0.24093 (Simulation time: 0 hr 32 min 17 sec) 
Heartbeat CPU  0 instructions:  452000000 cycles: 1526650149 heartbeat IPC: 0.24908 cumulative IPC: 0.24095 (Simulation time: 0 hr 32 min 22 sec) 
Heartbeat CPU  0 instructions:  453000001 cycles: 1530633767 heartbeat IPC: 0.25103 cumulative IPC: 0.24098 (Simulation time: 0 hr 32 min 27 sec) 
Heartbeat CPU  0 instructions:  454000000 cycles: 1534629516 heartbeat IPC: 0.25027 cumulative IPC: 0.24101 (Simulation time: 0 hr 32 min 32 sec) 
Heartbeat CPU  0 instructions:  455000003 cycles: 1538626189 heartbeat IPC: 0.25021 cumulative IPC: 0.24103 (Simulation time: 0 hr 32 min 37 sec) 
Heartbeat CPU  0 instructions:  456000000 cycles: 1542618884 heartbeat IPC: 0.25046 cumulative IPC: 0.24106 (Simulation time: 0 hr 32 min 42 sec) 
Heartbeat CPU  0 instructions:  457000000 cycles: 1546620617 heartbeat IPC: 0.24989 cumulative IPC: 0.24108 (Simulation time: 0 hr 32 min 47 sec) 
Heartbeat CPU  0 instructions:  458000003 cycles: 1550659087 heartbeat IPC: 0.24762 cumulative IPC: 0.24110 (Simulation time: 0 hr 32 min 53 sec) 
Heartbeat CPU  0 instructions:  459000002 cycles: 1554648423 heartbeat IPC: 0.25067 cumulative IPC: 0.24112 (Simulation time: 0 hr 32 min 58 sec) 
Heartbeat CPU  0 instructions:  460000000 cycles: 1558620320 heartbeat IPC: 0.25177 cumulative IPC: 0.24115 (Simulation time: 0 hr 33 min 3 sec) 
Heartbeat CPU  0 instructions:  461000000 cycles: 1562625567 heartbeat IPC: 0.24967 cumulative IPC: 0.24118 (Simulation time: 0 hr 33 min 8 sec) 
Heartbeat CPU  0 instructions:  462000000 cycles: 1566634060 heartbeat IPC: 0.24947 cumulative IPC: 0.24120 (Simulation time: 0 hr 33 min 13 sec) 
Heartbeat CPU  0 instructions:  463000000 cycles: 1570643276 heartbeat IPC: 0.24943 cumulative IPC: 0.24122 (Simulation time: 0 hr 33 min 18 sec) 
Heartbeat CPU  0 instructions:  464000000 cycles: 1574619007 heartbeat IPC: 0.25153 cumulative IPC: 0.24125 (Simulation time: 0 hr 33 min 23 sec) 
Heartbeat CPU  0 instructions:  465000001 cycles: 1578621295 heartbeat IPC: 0.24986 cumulative IPC: 0.24127 (Simulation time: 0 hr 33 min 28 sec) 
Heartbeat CPU  0 instructions:  466000003 cycles: 1582619107 heartbeat IPC: 0.25014 cumulative IPC: 0.24129 (Simulation time: 0 hr 33 min 33 sec) 
Heartbeat CPU  0 instructions:  467000002 cycles: 1586627884 heartbeat IPC: 0.24945 cumulative IPC: 0.24131 (Simulation time: 0 hr 33 min 38 sec) 
Heartbeat CPU  0 instructions:  468000000 cycles: 1590674833 heartbeat IPC: 0.24710 cumulative IPC: 0.24133 (Simulation time: 0 hr 33 min 43 sec) 
Heartbeat CPU  0 instructions:  469000000 cycles: 1594744711 heartbeat IPC: 0.24571 cumulative IPC: 0.24134 (Simulation time: 0 hr 33 min 48 sec) 
Heartbeat CPU  0 instructions:  470000000 cycles: 1598789430 heartbeat IPC: 0.24724 cumulative IPC: 0.24136 (Simulation time: 0 hr 33 min 53 sec) 
Heartbeat CPU  0 instructions:  471000003 cycles: 1602855027 heartbeat IPC: 0.24597 cumulative IPC: 0.24137 (Simulation time: 0 hr 33 min 58 sec) 
Heartbeat CPU  0 instructions:  472000000 cycles: 1606864810 heartbeat IPC: 0.24939 cumulative IPC: 0.24139 (Simulation time: 0 hr 34 min 3 sec) 
Heartbeat CPU  0 instructions:  473000000 cycles: 1610856368 heartbeat IPC: 0.25053 cumulative IPC: 0.24141 (Simulation time: 0 hr 34 min 8 sec) 
Heartbeat CPU  0 instructions:  474000001 cycles: 1614837892 heartbeat IPC: 0.25116 cumulative IPC: 0.24144 (Simulation time: 0 hr 34 min 14 sec) 
Heartbeat CPU  0 instructions:  475000000 cycles: 1618820577 heartbeat IPC: 0.25109 cumulative IPC: 0.24146 (Simulation time: 0 hr 34 min 19 sec) 
Heartbeat CPU  0 instructions:  476000000 cycles: 1622818645 heartbeat IPC: 0.25012 cumulative IPC: 0.24149 (Simulation time: 0 hr 34 min 24 sec) 
Heartbeat CPU  0 instructions:  477000002 cycles: 1626791696 heartbeat IPC: 0.25170 cumulative IPC: 0.24151 (Simulation time: 0 hr 34 min 29 sec) 
Heartbeat CPU  0 instructions:  478000002 cycles: 1630811835 heartbeat IPC: 0.24875 cumulative IPC: 0.24153 (Simulation time: 0 hr 34 min 34 sec) 
Heartbeat CPU  0 instructions:  479000001 cycles: 1634839485 heartbeat IPC: 0.24828 cumulative IPC: 0.24155 (Simulation time: 0 hr 34 min 39 sec) 
Heartbeat CPU  0 instructions:  480000000 cycles: 1638898523 heartbeat IPC: 0.24636 cumulative IPC: 0.24156 (Simulation time: 0 hr 34 min 44 sec) 
Heartbeat CPU  0 instructions:  481000002 cycles: 1642909596 heartbeat IPC: 0.24931 cumulative IPC: 0.24158 (Simulation time: 0 hr 34 min 49 sec) 
Heartbeat CPU  0 instructions:  482000003 cycles: 1646908108 heartbeat IPC: 0.25009 cumulative IPC: 0.24160 (Simulation time: 0 hr 34 min 54 sec) 
Heartbeat CPU  0 instructions:  483000002 cycles: 1650920033 heartbeat IPC: 0.24926 cumulative IPC: 0.24162 (Simulation time: 0 hr 34 min 59 sec) 
Heartbeat CPU  0 instructions:  484000000 cycles: 1654898371 heartbeat IPC: 0.25136 cumulative IPC: 0.24164 (Simulation time: 0 hr 35 min 4 sec) 
Heartbeat CPU  0 instructions:  485000003 cycles: 1658878331 heartbeat IPC: 0.25126 cumulative IPC: 0.24167 (Simulation time: 0 hr 35 min 10 sec) 
Heartbeat CPU  0 instructions:  486000001 cycles: 1662876575 heartbeat IPC: 0.25011 cumulative IPC: 0.24169 (Simulation time: 0 hr 35 min 15 sec) 
Heartbeat CPU  0 instructions:  487000002 cycles: 1666860417 heartbeat IPC: 0.25101 cumulative IPC: 0.24171 (Simulation time: 0 hr 35 min 20 sec) 
Heartbeat CPU  0 instructions:  488000000 cycles: 1670845126 heartbeat IPC: 0.25096 cumulative IPC: 0.24174 (Simulation time: 0 hr 35 min 25 sec) 
Heartbeat CPU  0 instructions:  489000003 cycles: 1674837739 heartbeat IPC: 0.25046 cumulative IPC: 0.24176 (Simulation time: 0 hr 35 min 30 sec) 
Heartbeat CPU  0 instructions:  490000001 cycles: 1678859951 heartbeat IPC: 0.24862 cumulative IPC: 0.24177 (Simulation time: 0 hr 35 min 35 sec) 
Heartbeat CPU  0 instructions:  491000000 cycles: 1682872578 heartbeat IPC: 0.24921 cumulative IPC: 0.24179 (Simulation time: 0 hr 35 min 40 sec) 
Heartbeat CPU  0 instructions:  492000000 cycles: 1686852440 heartbeat IPC: 0.25126 cumulative IPC: 0.24182 (Simulation time: 0 hr 35 min 45 sec) 
Heartbeat CPU  0 instructions:  493000001 cycles: 1690837224 heartbeat IPC: 0.25095 cumulative IPC: 0.24184 (Simulation time: 0 hr 35 min 51 sec) 
Heartbeat CPU  0 instructions:  494000000 cycles: 1694875526 heartbeat IPC: 0.24763 cumulative IPC: 0.24185 (Simulation time: 0 hr 35 min 56 sec) 
Heartbeat CPU  0 instructions:  495000003 cycles: 1698874699 heartbeat IPC: 0.25005 cumulative IPC: 0.24187 (Simulation time: 0 hr 36 min 1 sec) 
Heartbeat CPU  0 instructions:  496000000 cycles: 1702843722 heartbeat IPC: 0.25195 cumulative IPC: 0.24190 (Simulation time: 0 hr 36 min 6 sec) 
Heartbeat CPU  0 instructions:  497000001 cycles: 1706859426 heartbeat IPC: 0.24902 cumulative IPC: 0.24192 (Simulation time: 0 hr 36 min 11 sec) 
Heartbeat CPU  0 instructions:  498000003 cycles: 1710861860 heartbeat IPC: 0.24985 cumulative IPC: 0.24193 (Simulation time: 0 hr 36 min 16 sec) 
Heartbeat CPU  0 instructions:  499000001 cycles: 1714857714 heartbeat IPC: 0.25026 cumulative IPC: 0.24195 (Simulation time: 0 hr 36 min 21 sec) 
Heartbeat CPU  0 instructions:  500000000 cycles: 1718877400 heartbeat IPC: 0.24878 cumulative IPC: 0.24197 (Simulation time: 0 hr 36 min 26 sec) 
Heartbeat CPU  0 instructions:  501000003 cycles: 1722855154 heartbeat IPC: 0.25140 cumulative IPC: 0.24199 (Simulation time: 0 hr 36 min 31 sec) 
Heartbeat CPU  0 instructions:  502000001 cycles: 1726856369 heartbeat IPC: 0.24992 cumulative IPC: 0.24201 (Simulation time: 0 hr 36 min 36 sec) 
Heartbeat CPU  0 instructions:  503000000 cycles: 1730850206 heartbeat IPC: 0.25039 cumulative IPC: 0.24203 (Simulation time: 0 hr 36 min 41 sec) 
Heartbeat CPU  0 instructions:  504000000 cycles: 1734828141 heartbeat IPC: 0.25139 cumulative IPC: 0.24206 (Simulation time: 0 hr 36 min 46 sec) 
Heartbeat CPU  0 instructions:  505000000 cycles: 1738852934 heartbeat IPC: 0.24846 cumulative IPC: 0.24207 (Simulation time: 0 hr 36 min 51 sec) 
Heartbeat CPU  0 instructions:  506000001 cycles: 1742860532 heartbeat IPC: 0.24953 cumulative IPC: 0.24209 (Simulation time: 0 hr 36 min 56 sec) 
Heartbeat CPU  0 instructions:  507000000 cycles: 1746865204 heartbeat IPC: 0.24971 cumulative IPC: 0.24211 (Simulation time: 0 hr 37 min 2 sec) 
Heartbeat CPU  0 instructions:  508000000 cycles: 1750843259 heartbeat IPC: 0.25138 cumulative IPC: 0.24213 (Simulation time: 0 hr 37 min 7 sec) 
Heartbeat CPU  0 instructions:  509000000 cycles: 1754858165 heartbeat IPC: 0.24907 cumulative IPC: 0.24215 (Simulation time: 0 hr 37 min 12 sec) 
Heartbeat CPU  0 instructions:  510000001 cycles: 1758874548 heartbeat IPC: 0.24898 cumulative IPC: 0.24216 (Simulation time: 0 hr 37 min 17 sec) 
Heartbeat CPU  0 instructions:  511000001 cycles: 1762867482 heartbeat IPC: 0.25044 cumulative IPC: 0.24218 (Simulation time: 0 hr 37 min 22 sec) 
Heartbeat CPU  0 instructions:  512000000 cycles: 1766872562 heartbeat IPC: 0.24968 cumulative IPC: 0.24220 (Simulation time: 0 hr 37 min 27 sec) 
Heartbeat CPU  0 instructions:  513000003 cycles: 1770914118 heartbeat IPC: 0.24743 cumulative IPC: 0.24221 (Simulation time: 0 hr 37 min 33 sec) 
Heartbeat CPU  0 instructions:  514000000 cycles: 1774945476 heartbeat IPC: 0.24805 cumulative IPC: 0.24222 (Simulation time: 0 hr 37 min 38 sec) 
Heartbeat CPU  0 instructions:  515000001 cycles: 1778906872 heartbeat IPC: 0.25244 cumulative IPC: 0.24225 (Simulation time: 0 hr 37 min 43 sec) 
Heartbeat CPU  0 instructions:  516000000 cycles: 1782913927 heartbeat IPC: 0.24956 cumulative IPC: 0.24227 (Simulation time: 0 hr 37 min 48 sec) 
Heartbeat CPU  0 instructions:  517000002 cycles: 1786948334 heartbeat IPC: 0.24787 cumulative IPC: 0.24228 (Simulation time: 0 hr 37 min 53 sec) 
Heartbeat CPU  0 instructions:  518000000 cycles: 1790971944 heartbeat IPC: 0.24853 cumulative IPC: 0.24229 (Simulation time: 0 hr 37 min 58 sec) 
Heartbeat CPU  0 instructions:  519000003 cycles: 1794949490 heartbeat IPC: 0.25141 cumulative IPC: 0.24231 (Simulation time: 0 hr 38 min 3 sec) 
Heartbeat CPU  0 instructions:  520000000 cycles: 1798955772 heartbeat IPC: 0.24961 cumulative IPC: 0.24233 (Simulation time: 0 hr 38 min 8 sec) 
Heartbeat CPU  0 instructions:  521000000 cycles: 1802949417 heartbeat IPC: 0.25040 cumulative IPC: 0.24235 (Simulation time: 0 hr 38 min 13 sec) 
Heartbeat CPU  0 instructions:  522000000 cycles: 1806958186 heartbeat IPC: 0.24945 cumulative IPC: 0.24237 (Simulation time: 0 hr 38 min 18 sec) 
Heartbeat CPU  0 instructions:  523000002 cycles: 1810939409 heartbeat IPC: 0.25118 cumulative IPC: 0.24239 (Simulation time: 0 hr 38 min 23 sec) 
Heartbeat CPU  0 instructions:  524000000 cycles: 1814925465 heartbeat IPC: 0.25087 cumulative IPC: 0.24241 (Simulation time: 0 hr 38 min 29 sec) 
Heartbeat CPU  0 instructions:  525000000 cycles: 1818907119 heartbeat IPC: 0.25115 cumulative IPC: 0.24243 (Simulation time: 0 hr 38 min 34 sec) 
Heartbeat CPU  0 instructions:  526000001 cycles: 1822902484 heartbeat IPC: 0.25029 cumulative IPC: 0.24244 (Simulation time: 0 hr 38 min 39 sec) 
Heartbeat CPU  0 instructions:  527000000 cycles: 1826903580 heartbeat IPC: 0.24993 cumulative IPC: 0.24246 (Simulation time: 0 hr 38 min 44 sec) 
[...]
Core_0_L1I_pq_forward 0
Core_0_L1I_pq_merged 0
Core_0_L1I_pq_to_cache 0
Core_0_L1I_pq_full 0

Core_0_L1I_acc_epochs 2055832
Core_0_L1I_acc_level_0 2055832
Core_0_L1I_acc_level_1 0
Core_0_L1I_acc_level_2 0
Core_0_L1I_acc_level_3 0
Core_0_L1I_acc_level_4 0
Core_0_L1I_acc_level_5 0
Core_0_L1I_acc_level_6 0
Core_0_L1I_acc_level_7 0
Core_0_L1I_acc_level_8 0
Core_0_L1I_acc_level_9 0

Core_0_L2C_total_access 18384415
Core_0_L2C_total_hit 9110770
Core_0_L2C_total_miss 9273645
Core_0_L2C_loads 9880232
Core_0_L2C_load_hit 8648816
Core_0_L2C_load_miss 1231416
Core_0_L2C_RFOs 238973
Core_0_L2C_RFO_hit 18746
Core_0_L2C_RFO_miss 220227
Core_0_L2C_prefetches 7820103
Core_0_L2C_prefetch_hit 166
Core_0_L2C_prefetch_miss 7819937
Core_0_L2C_writebacks 445107
Core_0_L2C_writeback_hit 443042
Core_0_L2C_writeback_miss 2065
Core_0_L2C_prefetch_requested 11250812
Core_0_L2C_prefetch_dropped 0
Core_0_L2C_prefetch_issued 11250812
Core_0_L2C_prefetch_filled 9566639
Core_0_L2C_prefetch_useful 9563149
Core_0_L2C_prefetch_useless 3395
Core_0_L2C_prefetch_late 532038
Core_0_L2C_average_miss_latency 3908.65128

Core_0_L2C_rq_access 10124322
Core_0_L2C_rq_forward 0
Core_0_L2C_rq_merged 0
Core_0_L2C_rq_to_cache 10119205
Core_0_L2C_rq_full 0

Core_0_L2C_wq_access 445107
Core_0_L2C_wq_forward 5118
Core_0_L2C_wq_merged 0
Core_0_L2C_wq_to_cache 445107
Core_0_L2C_wq_full 0

Core_0_L2C_pq_access 11250812
Core_0_L2C_pq_forward 0
Core_0_L2C_pq_merged 10525
Core_0_L2C_pq_to_cache 11240286
Core_0_L2C_pq_full 0

Core_0_L2C_acc_epochs 2055832
Core_0_L2C_acc_level_0 444121
Core_0_L2C_acc_level_1 222936
Core_0_L2C_acc_level_2 154400
Core_0_L2C_acc_level_3 114586
Core_0_L2C_acc_level_4 84444
Core_0_L2C_acc_level_5 89034
Core_0_L2C_acc_level_6 67404
Core_0_L2C_acc_level_7 59534
Core_0_L2C_acc_level_8 55760
Core_0_L2C_acc_level_9 763613

Core_0_LLC_total_access 9965160
Core_0_LLC_total_hit 381842
Core_0_LLC_total_miss 9583318
Core_0_LLC_loads 699494
Core_0_LLC_load_hit 16837
Core_0_LLC_load_miss 682657
Core_0_LLC_RFOs 220226
Core_0_LLC_RFO_hit 0
Core_0_LLC_RFO_miss 220226
Core_0_LLC_prefetches 8651391
Core_0_LLC_prefetch_hit 355299
Core_0_LLC_prefetch_miss 8296092
Core_0_LLC_writebacks 394049
Core_0_LLC_writeback_hit 9706
Core_0_LLC_writeback_miss 384343
Core_0_LLC_prefetch_requested 0
Core_0_LLC_prefetch_dropped 0
Core_0_LLC_prefetch_issued 0
Core_0_LLC_prefetch_filled 10023398
Core_0_LLC_prefetch_useful 15430
Core_0_LLC_prefetch_useless 9983607
Core_0_LLC_prefetch_late 682
Core_0_LLC_average_miss_latency 4214.60026

Core_0_LLC_rq_access 919720
Core_0_LLC_rq_forward 0
Core_0_LLC_rq_merged 0
Core_0_LLC_rq_to_cache 919720
Core_0_LLC_rq_full 0

Core_0_LLC_wq_access 394049
Core_0_LLC_wq_forward 3
Core_0_LLC_wq_merged 0
Core_0_LLC_wq_to_cache 394049
Core_0_LLC_wq_full 0

Core_0_LLC_pq_access 11206806
Core_0_LLC_pq_forward 0
Core_0_LLC_pq_merged 10127
Core_0_LLC_pq_to_cache 11196676
Core_0_LLC_pq_full 0

Core_0_LLC_acc_epochs 2069536
Core_0_LLC_acc_level_0 2054763
Core_0_LLC_acc_level_1 11225
Core_0_LLC_acc_level_2 2038
Core_0_LLC_acc_level_3 644
Core_0_LLC_acc_level_4 160
Core_0_LLC_acc_level_5 478
Core_0_LLC_acc_level_6 92
Core_0_LLC_acc_level_7 51
Core_0_LLC_acc_level_8 16
Core_0_LLC_acc_level_9 69

Core_0_major_page_fault 0
Core_0_minor_page_fault 104619

[MLOP] History of tracked zone:
IIIIIIIIIIIIIIIIIIIIIIIIIIIIIIIIIIIIIIIIIIIIIIIIIIIIIIIIIIIIIIII
A2IIIIIIIIIIIIIIIIIIIIIIIIIIIIIIIIIIIIIIIIIIIIIIIIIIIIIIIIIIIIII
AA2222222222222222IIIIIIIIIIIIIIIIIIIIIIIIIIIIIIIIIIIIIIIIIIIIII
AAA2222222222222222IIIIIIIIIIIIIIIIIIIIIIIIIIIIIIIIIIIIIIIIIIIII
AAAA2222222222222222IIIIIIIIIIIIIIIIIIIIIIIIIIIIIIIIIIIIIIIIIIII
AAAAA2222222222222222IIIIIIIIIIIIIIIIIIIIIIIIIIIIIIIIIIIIIIIIIII
AAAAAA2222222222222222IIIIIIIIIIIIIIIIIIIIIIIIIIIIIIIIIIIIIIIIII
AAAAAAA2222222222222222IIIIIIIIIIIIIIIIIIIIIIIIIIIIIIIIIIIIIIIII
AAAAAAAA2222222222222222IIIIIIIIIIIIIIIIIIIIIIIIIIIIIIIIIIIIIIII
AAAAAAAAA2222222222222222IIIIIIIIIIIIIIIIIIIIIIIIIIIIIIIIIIIIIII
AAAAAAAAAA2222222222222222IIIIIIIIIIIIIIIIIIIIIIIIIIIIIIIIIIIIII
AAAAAAAAAAA2222222222222222IIIIIIIIIIIIIIIIIIIIIIIIIIIIIIIIIIIII
AAAAAAAAAAAA2222222222222222IIIIIIIIIIIIIIIIIIIIIIIIIIIIIIIIIIII
AAAAAAAAAAAAA2222222222222222IIIIIIIIIIIIIIIIIIIIIIIIIIIIIIIIIII
AAAAAAAAAAAAAA2222222222222222IIIIIIIIIIIIIIIIIIIIIIIIIIIIIIIIII
AAAAAAAAAAAAAAA2222222222222222IIIIIIIIIIIIIIIIIIIIIIIIIIIIIIIII
AAAAAAAAAAAAAAAA2222222222222222IIIIIIIIIIIIIIIIIIIIIIIIIIIIIIII
AAAAAAAAAAAAAAAAA2222222222222222IIIIIIIIIIIIIIIIIIIIIIIIIIIIIII
AAAAAAAAAAAAAAAAAA2222222222222222IIIIIIIIIIIIIIIIIIIIIIIIIIIIII
AAAAAAAAAAAAAAAAAAA2222222222222222IIIIIIIIIIIIIIIIIIIIIIIIIIIII
AAAAAAAAAAAAAAAAAAAA2222222222222222IIIIIIIIIIIIIIIIIIIIIIIIIIII
AAAAAAAAAAAAAAAAAAAAA2222222222222222IIIIIIIIIIIIIIIIIIIIIIIIIII
AAAAAAAAAAAAAAAAAAAAAA2222222222222222IIIIIIIIIIIIIIIIIIIIIIIIII
AAAAAAAAAAAAAAAAAAAAAAA2222222222222222IIIIIIIIIIIIIIIIIIIIIIIII
AAAAAAAAAAAAAAAAAAAAAAAA2222222222222222IIIIIIIIIIIIIIIIIIIIIIII
AAAAAAAAAAAAAAAAAAAAAAAAA2222222222222222IIIIIIIIIIIIIIIIIIIIIII
AAAAAAAAAAAAAAAAAAAAAAAAAA2222222222222222IIIIIIIIIIIIIIIIIIIIII
AAAAAAAAAAAAAAAAAAAAAAAAAAA2222222222222222IIIIIIIIIIIIIIIIIIIII
AAAAAAAAAAAAAAAAAAAAAAAAAAAA2222222222222222IIIIIIIIIIIIIIIIIIII
AAAAAAAAAAAAAAAAAAAAAAAAAAAAA2222222222222222IIIIIIIIIIIIIIIIIII
AAAAAAAAAAAAAAAAAAAAAAAAAAAAAA2222222222222222IIIIIIIIIIIIIIIIII
AAAAAAAAAAAAAAAAAAAAAAAAAAAAAAA2222222222222222IIIIIIIIIIIIIIIII
AAAAAAAAAAAAAAAAAAAAAAAAAAAAAAAA2222222222222222IIIIIIIIIIIIIIII
AAAAAAAAAAAAAAAAAAAAAAAAAAAAAAAAA2222222222222222IIIIIIIIIIIIIII
AAAAAAAAAAAAAAAAAAAAAAAAAAAAAAAAAA2222222222222222IIIIIIIIIIIIII
AAAAAAAAAAAAAAAAAAAAAAAAAAAAAAAAAAA2222222222222222IIIIIIIIIIIII
AAAAAAAAAAAAAAAAAAAAAAAAAAAAAAAAAAAA2222222222222222IIIIIIIIIIII
AAAAAAAAAAAAAAAAAAAAAAAAAAAAAAAAAAAAA2222222222222222IIIIIIIIIII
AAAAAAAAAAAAAAAAAAAAAAAAAAAAAAAAAAAAAA2222222222222222IIIIIIIIII
AAAAAAAAAAAAAAAAAAAAAAAAAAAAAAAAAAAAAAA2222222222222222IIIIIIIII
AAAAAAAAAAAAAAAAAAAAAAAAAAAAAAAAAAAAAAAA2222222222222222IIIIIIII
AAAAAAAAAAAAAAAAAAAAAAAAAAAAAAAAAAAAAAAAA2222222222222222IIIIIII
AAAAAAAAAAAAAAAAAAAAAAAAAAAAAAAAAAAAAAAAAA2222222222222222IIIIII
AAAAAAAAAAAAAAAAAAAAAAAAAAAAAAAAAAAAAAAAAAA2222222222222222IIIII
AAAAAAAAAAAAAAAAAAAAAAAAAAAAAAAAAAAAAAAAAAAA2222222222222222IIII
AAAAAAAAAAAAAAAAAAAAAAAAAAAAAAAAAAAAAAAAAAAAA2222222222222222III
AAAAAAAAAAAAAAAAAAAAAAAAAAAAAAAAAAAAAAAAAAAAAA2222222222222222II
AAAAAAAAAAAAAAAAAAAAAAAAAAAAAAAAAAAAAAAAAAAAAAA2222222222222222I
AAAAAAAAAAAAAAAAAAAAAAAAAAAAAAAAAAAAAAAAAAAAAAAA2222222222222222
AAAAAAAAAAAAAAAAAAAAAAAAAAAAAAAAAAAAAAAAAAAAAAAAA222222222222222
AAAAAAAAAAAAAAAAAAAAAAAAAAAAAAAAAAAAAAAAAAAAAAAAAA22222222222222
AAAAAAAAAAAAAAAAAAAAAAAAAAAAAAAAAAAAAAAAAAAAAAAAAAA2222222222222
AAAAAAAAAAAAAAAAAAAAAAAAAAAAAAAAAAAAAAAAAAAAAAAAAAAA222222222222
AAAAAAAAAAAAAAAAAAAAAAAAAAAAAAAAAAAAAAAAAAAAAAAAAAAAA22222222222
AAAAAAAAAAAAAAAAAAAAAAAAAAAAAAAAAAAAAAAAAAAAAAAAAAAAAA2222222222
AAAAAAAAAAAAAAAAAAAAAAAAAAAAAAAAAAAAAAAAAAAAAAAAAAAAAAA222222222
AAAAAAAAAAAAAAAAAAAAAAAAAAAAAAAAAAAAAAAAAAAAAAAAAAAAAAAA22222222
AAAAAAAAAAAAAAAAAAAAAAAAAAAAAAAAAAAAAAAAAAAAAAAAAAAAAAAAA2222222
AAAAAAAAAAAAAAAAAAAAAAAAAAAAAAAAAAAAAAAAAAAAAAAAAAAAAAAAAA222222
AAAAAAAAAAAAAAAAAAAAAAAAAAAAAAAAAAAAAAAAAAAAAAAAAAAAAAAAAAA22222
AAAAAAAAAAAAAAAAAAAAAAAAAAAAAAAAAAAAAAAAAAAAAAAAAAAAAAAAAAAA2222
AAAAAAAAAAAAAAAAAAAAAAAAAAAAAAAAAAAAAAAAAAAAAAAAAAAAAAAAAAAAA222
AAAAAAAAAAAAAAAAAAAAAAAAAAAAAAAAAAAAAAAAAAAAAAAAAAAAAAAAAAAAAA22
AAAAAAAAAAAAAAAAAAAAAAAAAAAAAAAAAAAAAAAAAAAAAAAAAAAAAAAAAAAAAAA2
AAAAAAAAAAAAAAAAAAAAAAAAAAAAAAAAAAAAAAAAAAAAAAAAAAAAAAAAAAAAAAAA
AAAAAAAAAAAAAAAAAAAAAAAAAAAAAAAAAAAAAAAAAAAAAAAAAIAAAAAAAAAAAAAA
AAAAAAAAAAAAAAAAAAAAAAAAAAAAAAAAAAAAAAAAAAAAAAAAAIIAAAAAAAAAAAAA
AAAAAAAAAAAAAAAAAAAAAAAAAAAAAAAAAAAAAAAAAAAAAAAAAIIIAAAAAAAAAAAA
AAAAAAAAAAAAAAAAAAAAAAAAAAAAAAAAAAAAAAAAAAAAAAAAAIIIIAAAAAAAAAAA
AAAAAAAAAAAAAAAAAAAAAAAAAAAAAAAAAAAAAAAAAAAAAAAAAIIIIIAAAAAAAAAA
AAAAAAAAAAAAAAAAAAAAAAAAAAAAAAAAAAAAAAAAAAAAAAAAAIIIIIIAAAAAAAAA
AAAAAAAAAAAAAAAAAAAAAAAAAAAAAAAAAAAAAAAAAAAAAAAAAIIIIIIIAAAAAAAA
AAAAAAAAAAAAAAAAAAAAAAAAAAAAAAAAAAAAAAAAAAAAAAAAAIIIIIIIIAAAAAAA
AAAAAAAAAAAAAAAAAAAAAAAAAAAAAAAAAAAAAAAAAAAAAAAAAIIIIIIIIIAAAAAA
AAAAAAAAAAAAAAAAAAAAAAAAAAAAAAAAAAAAAAAAAAAAAAAAAIIIIIIIIIIAAAAA
AAAAAAAAAAAAAAAAAAAAAAAAAAAAAAAAAAAAAAAAAAAAAAAAAIIIIIIIIIIIAAAA
AAAAAAAAAAAAAAAAAAAAAAAAAAAAAAAAAAAAAAAAAAAAAAAAAIIIIIIIIIIIIAAA
AAAAAAAAAAAAAAAAAAAAAAAAAAAAAAAAAAAAAAAAAAAAAAAAAIIIIIIIIIIIIIAA
AAAAAAAAAAAAAAAAAAAAAAAAAAAAAAAAAAAAAAAAAAAAAAAAAIIIIIIIIIIIIIIA
AAAAAAAAAAAAAAAAAAAAAAAAAAAAAAAAAAAAAAAAAAAAAAAAAIIIIIIIIIIIIIII
AAIAAAAAAAAAAAAAAAAAAAAAAAAAAAAAAAAAAAAAAAAAAAAAAIIIIIIIIIIIIIII
AAIAAIAAAAAAAAAAAAAAAAAAAAAAAAAAAAAAAAAAAAAAAAAAAIIIIIIIIIIIIIII
AAIAAIIAAAAAAAAAAAAAAAAAAAAAAAAAAAAAAAAAAAAAAAAAAIIIIIIIIIIIIIII
AAIAAIIIAAAAAAAAAAAAAAAAAAAAAAAAAAAAAAAAAAAAAAAAAIIIIIIIIIIIIIII
AAIAAIIIIAAAAAAAAAAAAAAAAAAAAAAAAAAAAAAAAAAAAAAAAIIIIIIIIIIIIIII
AAIAAIIIIIAAAAAAAAAAAAAAAAAAAAAAAAAAAAAAAAAAAAAAAIIIIIIIIIIIIIII
AAIAAIIIIIIAAAAAAAAAAAAAAAAAAAAAAAAAAAAAAAAAAAAAAIIIIIIIIIIIIIII
AAIAAIIIIIIIAAAAAAAAAAAAAAAAAAAAAAAAAAAAAAAAAAAAAIIIIIIIIIIIIIII
AAIAAIIIIIIIIAAAAAAAAAAAAAAAAAAAAAAAAAAAAAAAAAAAAIIIIIIIIIIIIIII
AAIAAIIIIIIIIIAAAAAAAAAAAAAAAAAAAAAAAAAAAAAAAAAAAIIIIIIIIIIIIIII
AAIAAIIIIIIIIIIAAAAAAAAAAAAAAAAAAAAAAAAAAAAAAAAAAIIIIIIIIIIIIIII
AAIIAIIIIIIIIIIAAAAAAAAAAAAAAAAAAAAAAAAAAAAAAAAAAIIIIIIIIIIIIIII
AAIIIIIIIIIIIIIAAAAAAAAAAAAAAAAAAAAAAAAAAAAAAAAAAIIIIIIIIIIIIIII
AAIIIIIIIIIIIIIIAAAAAAAAAAAAAAAAAAAAAAAAAAAAAAAAAIIIIIIIIIIIIIII
AAIIIIIIIIIIIIIIIAAAAAAAAAAAAAAAAAAAAAAAAAAAAAAAAIIIIIIIIIIIIIII
AAIIIIIIIIIIIIIIIIAAAAAAAAAAAAAAAAAAAAAAAAAAAAAAAIIIIIIIIIIIIIII
AAIIIIIIIIIIIIIIIIIAAAAAAAAAAAAAAAAAAAAAAAAAAAAAAIIIIIIIIIIIIIII
AAIIIIIIIIIIIIIIIIIIAAAAAAAAAAAAAAAAAAAAAAAAAAAAAIIIIIIIIIIIIIII
AAIIIIIIIIIIIIIIIIIIIAAAAAAAAAAAAAAAAAAAAAAAAAAAAIIIIIIIIIIIIIII
AAIIIIIIIIIIIIIIIIIIIIAAAAAAAAAAAAAAAAAAAAAAAAAAAIIIIIIIIIIIIIII
AAIIIIIIIIIIIIIIIIIIIIIAAAAAAAAAAAAAAAAAAAAAAAAAAIIIIIIIIIIIIIII
AAIIIIIIIIIIIIIIIIIIIIIIAAAAAAAAAAAAAAAAAAAAAAAAAIIIIIIIIIIIIIII
AAIIIIIIIIIIIIIIIIIIIIIIIAAAAAAAAAAAAAAAAAAAAAAAAIIIIIIIIIIIIIII
AAIIIIIIIIIIIIIIIIIIIIIIIIAAAAAAAAAAAAAAAAAAAAAAAIIIIIIIIIIIIIII
AAIIIIIIIIIIIIIIIIIIIIIIIIIAAAAAAAAAAAAAAAAAAAAAAIIIIIIIIIIIIIII
AAIIIIIIIIIIIIIIIIIIIIIIIIIIAAAAAAAAAAAAAAAAAAAAAIIIIIIIIIIIIIII
AAIIIIIIIIIIIIIIIIIIIIIIIIIIIAAAAAAAAAAAAAAAAAAAAIIIIIIIIIIIIIII
AAIIIIIIIIIIIIIIIIIIIIIIIIIIIIAAAAAAAAAAAAAAAAAAAIIIIIIIIIIIIIII
AAIIIIIIIIIIIIIIIIIIIIIIIIIIIIIAAAAAAAAAAAAAAAAAAIIIIIIIIIIIIIII
AAIIIIIIIIIIIIIIIIIIIIIIIIIIIIIIAAAAAAAAAAAAAAAAAIIIIIIIIIIIIIII
AAIIIIIIIIIIIIIIIIIIIIIIIIIIIIIIIAAAAAAAAAAAAAAAAIIIIIIIIIIIIIII
AAIIIIIIIIIIIIIIIIIIIIIIIIIIIIIIIIAAAAAAAAAAAAAAAIIIIIIIIIIIIIII
AAIIIIIIIIIIIIIIIIIIIIIIIIIIIIIIIIIAAAAAAAAAAAAAAIIIIIIIIIIIIIII
AAIIIIIIIIIIIIIIIIIIIIIIIIIIIIIIIIIIAAAAAAAAAAAAAIIIIIIIIIIIIIII
AAIIIIIIIIIIIIIIIIIIIIIIIIIIIIIIIIIIIAAAAAAAAAAAAIIIIIIIIIIIIIII
AAIIIIIIIIIIIIIIIIIIIIIIIIIIIIIIIIIIIIAAAAAAAAAAAIIIIIIIIIIIIIII
AAIIIIIIIIIIIIIIIIIIIIIIIIIIIIIIIIIIIIIAAAAAAAAAAIIIIIIIIIIIIIII
AAIIIIIIIIIIIIIIIIIIIIIIIIIIIIIIIIIIIIIIAAAAAAAAAIIIIIIIIIIIIIII
AAIIIIIIIIIIIIIIIIIIIIIIIIIIIIIIIIIIIIIIIAAAAAAAAIIIIIIIIIIIIIII
AAIIIIIIIIIIIIIIIIIIIIIIIIIIIIIIIIIIIIIIIIAAAAAAAIIIIIIIIIIIIIII
AAIIIIIIIIIIIIIIIIIIIIIIIIIIIIIIIIIIIIIIIIIAAAAAAIIIIIIIIIIIIIII
AAIIIIIIIIIIIIIIIIIIIIIIIIIIIIIIIIIIIIIIIIIIAAAAAIIIIIIIIIIIIIII
AAIIIIIIIIIIIIIIIIIIIIIIIIIIIIIIIIIIIIIIIIIIIAAAAIIIIIIIIIIIIIII
AAIIIIIIIIIIIIIIIIIIIIIIIIIIIIIIIIIIIIIIIIIIIIAAAIIIIIIIIIIIIIII
AAIIIIIIIIIIIIIIIIIIIIIIIIIIIIIIIIIIIIIIIIIIIIIAAIIIIIIIIIIIIIII
AAIIIIIIIIIIIIIIIIIIIIIIIIIIIIIIIIIIIIIIIIIIIIIIAIIIIIIIIIIIIIII
AAIIIIIIIIIIIIIIIIIIIIIIIIIIIIIIIIIIIIIIIIIIIIIIIIIIIIIIIIIIIIII
A2222222222222222IIIIIIIIIIIIIIIIIIIIIIIIIIIIIIIIIIIIIIIIIIIIIII
AA2222222222222222IIIIIIIIIIIIIIIIIIIIIIIIIIIIIIIIIIIIIIIIIIIIII
AAA222222222222222IIIIIIIIIIIIIIIIIIIIIIIIIIIIIIIIIIIIIIIIIIIIII
AAAA22222222222222IIIIIIIIIIIIIIIIIIIIIIIIIIIIIIIIIIIIIIIIIIIIII
AAAAA2222222222222222IIIIIIIIIIIIIIIIIIIIIIIIIIIIIIIIIIIIIIIIIII
AAAAAA2222222222222222IIIIIIIIIIIIIIIIIIIIIIIIIIIIIIIIIIIIIIIIII
AAAAAAA222222222222222IIIIIIIIIIIIIIIIIIIIIIIIIIIIIIIIIIIIIIIIII
AAAAAAAA2222222222222222IIIIIIIIIIIIIIIIIIIIIIIIIIIIIIIIIIIIIIII
AAAAAAAAA2222222222222222IIIIIIIIIIIIIIIIIIIIIIIIIIIIIIIIIIIIIII
AAAAAAAAAA222222222222222IIIIIIIIIIIIIIIIIIIIIIIIIIIIIIIIIIIIIII
AAAAAAAAAAA22222222222222IIIIIIIIIIIIIIIIIIIIIIIIIIIIIIIIIIIIIII
AAAAAAAAAAA222222222222222IIIIIIIIIIIIIIIIIIIIIIIIIIIIIIIIIIIIII
AAAAAAAAAAAA2222222222222222IIIIIIIIIIIIIIIIIIIIIIIIIIIIIIIIIIII
AAAAAAAAAAAAA222222222222222IIIIIIIIIIIIIIIIIIIIIIIIIIIIIIIIIIII
AAAAAAAAAAAAAA22222222222222IIIIIIIIIIIIIIIIIIIIIIIIIIIIIIIIIIII
AAAAAAAAAAAAAAA2222222222222222IIIIIIIIIIIIIIIIIIIIIIIIIIIIIIIII
AAAAAAAAAAAAAAAA222222222222222IIIIIIIIIIIIIIIIIIIIIIIIIIIIIIIII
AAAAAAAAAAAAAAAAA22222222222222IIIIIIIIIIIIIIIIIIIIIIIIIIIIIIIII
AAAAAAAAAAAAAAAAAA2222222222222222IIIIIIIIIIIIIIIIIIIIIIIIIIIIII
AAAAAAAAAAAAAAAAAAA222222222222222IIIIIIIIIIIIIIIIIIIIIIIIIIIIII
AAAAAAAAAAAAAAAAAAAA22222222222222IIIIIIIIIIIIIIIIIIIIIIIIIIIIII
AAAAAAAAAAAAAAAAAAAAA2222222222222222IIIIIIIIIIIIIIIIIIIIIIIIIII
AAAAAAAAAAAAAAAAAAAAAA222222222222222IIIIIIIIIIIIIIIIIIIIIIIIIII
AAAAAAAAAAAAAAAAAAAAAAA22222222222222IIIIIIIIIIIIIIIIIIIIIIIIIII
AAAAAAAAAAAAAAAAAAAAAAAA2222222222222IIIIIIIIIIIIIIIIIIIIIIIIIII
AAAAAAAAAAAAAAAAAAAAAAAAA222222222222IIIIIIIIIIIIIIIIIIIIIIIIIII
AAAAAAAAAAAAAAAAAAAAAAAAAA22222222222IIIIIIIIIIIIIIIIIIIIIIIIIII
AAAAAAAAAAAAAAAAAAAAAAAAAAA2222222222IIIIIIIIIIIIIIIIIIIIIIIIIII
AAAAAAAAAAAAAAAAAAAAAAAAAAAA2222222222222222IIIIIIIIIIIIIIIIIIII
AAAAAAAAAAAAAAAAAAAAAAAAAAAAA222222222222222IIIIIIIIIIIIIIIIIIII
AAAAAAAAAAAAAAAAAAAAAAAAAAAAAA22222222222222IIIIIIIIIIIIIIIIIIII
AAAAAAAAAAAAAAAAAAAAAAAAAAAAAAA22222222222222IIIIIIIIIIIIIIIIIII
AAAAAAAAAAAAAAAAAAAAAAAAAAAAAAAA2222222222222IIIIIIIIIIIIIIIIIII
AAAAAAAAAAAAAAAAAAAAAAAAAAAAAAAAA222222222222IIIIIIIIIIIIIIIIIII
AAAAAAAAAAAAAAAAAAAAAAAAAAAAAAAAAA22222222222IIIIIIIIIIIIIIIIIII
AAAAAAAAAAAAAAAAAAAAAAAAAAAAAAAAAAA2222222222IIIIIIIIIIIIIIIIIII
AAAAAAAAAAAAAAAAAAAAAAAAAAAAAAAAAAAA222222222IIIIIIIIIIIIIIIIIII
AAAAAAAAAAAAAAAAAAAAAAAAAAAAAAAAAAAAA2222222222IIIIIIIIIIIIIIIII
AAAAAAAAAAAAAAAAAAAAAAAAAAAAAAAAAAAAAA222222222IIIIIIIIIIIIIIIII
AAAAAAAAAAAAAAAAAAAAAAAAAAAAAAAAAAAAAAA22222222IIIIIIIIIIIIIIIII
AAAAAAAAAAAAAAAAAAAAAAAAAAAAAAAAAAAAAAAA2222222222222222IIIIIIII
AAAAAAAAAAAAAAAAAAAAAAAAAAAAAAAAAAAAAAAAA222222222222222IIIIIIII
AAAAAAAAAAAAAAAAAAAAAAAAAAAAAAAAAAAAAAAAAA2222222222222222IIIIII
AAAAAAAAAAAAAAAAAAAAAAAAAAAAAAAAAAAAAAAAAAA2222222222222222IIIII
AAAAAAAAAAAAAAAAAAAAAAAAAAAAAAAAAAAAAAAAAAAA2222222222222222IIII
AAAAAAAAAAAAAAAAAAAAAAAAAAAAAAAAAAAAAAAAAAAAA2222222222222222III
AAAAAAAAAAAAAAAAAAAAAAAAAAAAAAAAAAAAAAAAAAAAAA2222222222222222II
AAAAAAAAAAAAAAAAAAAAAAAAAAAAAAAAAAAAAAAAAAAAAAA2222222222222222I
AAAAAAAAAAAAAAAAAAAAAAAAAAAAAAAAAAAAAAAAAAAAAAAA222222222222222I
AAAAAAAAAAAAAAAAAAAAAAAAAAAAAAAAAAAAAAAAAAAAAAAAA222222222222222
AAAAAAAAAAAAAAAAAAAAAAAAAAAAAAAAAAAAAAAAAAAAAAAAAA22222222222222
AAAAAAAAAAAAAAAAAAAAAAAAAAAAAAAAAAAAAAAAAAAAAAAAAAA2222222222222
AAAAAAAAAAAAAAAAAAAAAAAAAAAAAAAAAAAAAAAAAAAAAAAAAAAA222222222222
AAAAAAAAAAAAAAAAAAAAAAAAAAAAAAAAAAAAAAAAAAAAAAAAAAAAA22222222222
AAAAAAAAAAAAAAAAAAAAAAAAAAAAAAAAAAAAAAAAAAAAAAAAAAAAAA2222222222
AAAAAAAAAAAAAAAAAAAAAAAAAAAAAAAAAAAAAAAAAAAAAAAAAAAAAAA222222222
AAAAAAAAAAAAAAAAAAAAAAAAAAAAAAAAAAAAAAAAAAAAAAAAAAAAAAAA22222222
AAAAAAAAAAAAAAAAAAAAAAAAAAAAAAAAAAAAAAAAAAAAAAAAAAAAAAAAA2222222
AAAAAAAAAAAAAAAAAAAAAAAAAAAAAAAAAAAAAAAAAAAAAAAAAAAAAAAAAA222222
AAAAAAAAAAAAAAAAAAAAAAAAAAAAAAAAAAAAAAAAAAAAAAAAAAAAAAAAAAA22222
AAAAAAAAAAAAAAAAAAAAAAAAAAAAAAAAAAAAAAAAAAAAAAAAAAAAAAAAAAAA2222
AAAAAAAAAAAAAAAAAAAAAAAAAAAAAAAAAAAAAAAAAAAAAAAAAAAAAAAAAAAAA222
AAAAAAAAAAAAAAAAAAAAAAAAAAAAAAAAAAAAAAAAAAAAAAAAAAAAAAAAAAAAAA22
AAAAAAAAAAAAAAAAAAAAAAAAAAAAAAAAAAAAAAAAAAAAAAAAAAAAAAAAAAAAAAA2
AAAAAAAAAAAAAAAAAAAAAAAAAAAAAAAAAAAAAAAAAAAAAAAAAAAAAAAAAAAAAAAA
AAAIAAAAAAAAAAAAAAAAAAAAAAAAAAAAAAAAAAAAAAAAAAAAAAAAAAAAAAAAAAAA
AAAIIAAAAAAAAAAAAAAAAAAAAAAAAAAAAAAAAAAAAAAAAAAAAAAAAAAAAAAAAAAA
AAAIIIAAAAAAAAAAAAAAAAAAAAAAAAAAAAAAAAAAAAAAAAAAAAAAAAAAAAAAAAAA
AAAIIIIAAAAAAAAAAAAAAAAAAAAAAAAAAAAAAAAAAAAAAAAAAAAAAAAAAAAAAAAA
AAAIIIIIAAAAAAAAAAAAAAAAAAAAAAAAAAAAAAAAAAAAAAAAAAAAAAAAAAAAAAAA
AAAIIIIIIAAAAAAAAAAAAAAAAAAAAAAAAAAAAAAAAAAAAAAAAAAAAAAAAAAAAAAA
AAAIIIIIIAAIAAAAAAAAAAAAAAAAAAAAAAAAAAAAAAAAAAAAAAAAAAAAAAAAAAAA
AAAIIIIIIAAIIAAAAAAAAAAAAAAAAAAAAAAAAAAAAAAAAAAAAAAAAAAAAAAAAAAA
AAAIIIIIIAAIIIAAAAAAAAAAAAAAAAAAAAAAAAAAAAAAAAAAAAAAAAAAAAAAAAAA
AAAIIIIIIAAIIIIAAAAAAAAAAAAAAAAAAAAAAAAAAAAAAAAAAAAAAAAAAAAAAAAA
AAAIIIIIIAAIIIIIAAAAAAAAAAAAAAAAAAAAAAAAAAAAAAAAAAAAAAAAAAAAAAAA
AAAIIIIIIAAIIIIIIAAAAAAAAAAAAAAAAAAAAAAAAAAAAAAAAAAAAAAAAAAAAAAA
AAAIIIIIIAIIIIIIIAAAAAAAAAAAAAAAAAAAAAAAAAAAAAAAAAAAAAAAAAAAAAAA
AAAIIIIIIIIIIIIIIAAAAAAAAAAAAAAAAAAAAAAAAAAAAAAAAAAAAAAAAAAAAAAA
AAAIIIIIIIIIIIIIIIAAAAAAAAAAAAAAAAAAAAAAAAAAAAAAAAAAAAAAAAAAAAAA
AAAIIIIIIIIIIIIIIIIAAAAAAAAAAAAAAAAAAAAAAAAAAAAAAAAAAAAAAAAAAAAA
AAAIIIIIIIIIIIIIIIIAIAAAAAAAAAAAAAAAAAAAAAAAAAAAAAAAAAAAAAAAAAAA
AAAIIIIIIIIIIIIIIIIAIIAAAAAAAAAAAAAAAAAAAAAAAAAAAAAAAAAAAAAAAAAA
AAAIIIIIIIIIIIIIIIIAIIIAAAAAAAAAAAAAAAAAAAAAAAAAAAAAAAAAAAAAAAAA
AAAIIIIIIIIIIIIIIIIIIIIAAAAAAAAAAAAAAAAAAAAAAAAAAAAAAAAAAAAAAAAA
AAAIIIIIIIIIIIIIIIIIIIIAAAAAAAAIAAAAAAAAAAAAAAAAAAAAAAAAAAAAAAAA
AAAIIIIIIIIIIIIIIIIIIIIAAAAAIAAIAAAAAAAAAAAAAAAAAAAAAAAAAAAAAAAA
AAAIIIIIIIIIIIIIIIIIIIIAAAAAIIAIAAAAAAAAAAAAAAAAAAAAAAAAAAAAAAAA
AAAIIIIIIIIIIIIIIIIIIIIAAAAAIIIIAAAAAAAAAAAAAAAAAAAAAAAAAAAAAAAA
AAAIIIIIIIIIIIIIIIIIIIIAAAAAIIIIIAAAAAAAAAAAAAAAAAAAAAAAAAAAAAAA
AAAIIIIIIIIIIIIIIIIIIIIAAAAAIIIIIIAAAAAAAAAAAAAAAAAAAAAAAAAAAAAA
AAAIIIIIIIIIIIIIIIIIIIIAAAAAIIIIIIIAAAAAAAAAAAAAAAAAAAAAAAAAAAAA
AAAIIIIIIIIIIIIIIIIIIIIAAAAAIIIIIIIIAAAAAAAAAAAAAAAAAAAAAAAAAAAA
AAAIIIIIIIIIIIIIIIIIIIIAAAAAIIIIIIIIIAAAAAAAAAAAAAAAAAAAAAAAAAAA
AAAIIIIIIIIIIIIIIIIIIIIAAAAAIIIIIIIIIIAAAAAAAAAAAAAAAAAAAAAAAAAA
AAAIIIIIIIIIIIIIIIIIIIIAAAAAIIIIIIIIIIIAAAAAAAAAAAAAAAAAAAAAAAAA
AAAIIIIIIIIIIIIIIIIIIIIAAAAAIIIIIIIIIIIIAAAAAAAAAAAAAAAAAAAAAAAA
AAAIIIIIIIIIIIIIIIIIIIIAAAAAIIIIIIIIIIIIAAAIAAAAAAAAAAAAAAAAAAAA
AAAIIIIIIIIIIIIIIIIIIIIAAAAAIIIIIIIIIIIIAAAIIAAAAAAAAAAAAAAAAAAA
AAAIIIIIIIIIIIIIIIIIIIIAAAAAIIIIIIIIIIIIAAAIIIAAAAAAAAAAAAAAAAAA
AAAIIIIIIIIIIIIIIIIIIIIAAAAAIIIIIIIIIIIIAAAIIIIAAAAAAAAAAAAAAAAA
AAAIIIIIIIIIIIIIIIIIIIIAAAAAIIIIIIIIIIIIAAAIIIIIAAAAAAAAAAAAAAAA
AAAIIIIIIIIIIIIIIIIIIIIAAAAAIIIIIIIIIIIIIAAIIIIIAAAAAAAAAAAAAAAA
AAAIIIIIIIIIIIIIIIIIIIIAAAAAIIIIIIIIIIIIIAAIIIIIIAAAAAAAAAAAAAAA
AAAIIIIIIIIIIIIIIIIIIIIAAAAAIIIIIIIIIIIIIIAIIIIIIAAAAAAAAAAAAAAA
AAAIIIIIIIIIIIIIIIIIIIIAAAAAIIIIIIIIIIIIIIIIIIIIIAAAAAAAAAAAAAAA
AAAIIIIIIIIIIIIIIIIIIIIAAAAAIIIIIIIIIIIIIIIIIIIIIIAAAAAAAAAAAAAA
AAAIIIIIIIIIIIIIIIIIIIIAAAAAIIIIIIIIIIIIIIIIIIIIIIIAAAAAAAAAAAAA
AAAIIIIIIIIIIIIIIIIIIIIAAAAAIIIIIIIIIIIIIIIIIIIIIIIIAAAAAAAAAAAA
AAAIIIIIIIIIIIIIIIIIIIIAAAAAIIIIIIIIIIIIIIIIIIIIIIIIIAAAAAAAAAAA
AAAIIIIIIIIIIIIIIIIIIIIAAAAAIIIIIIIIIIIIIIIIIIIIIIIIIIAAAAAAAAAA
AAAIIIIIIIIIIIIIIIIIIIIAAAAAIIIIIIIIIIIIIIIIIIIIIIIIIIAIAAAAAAAA
AAAIIIIIIIIIIIIIIIIIIIIAAAAAIIIIIIIIIIIIIIIIIIIIIIIIIIIIAAAAAAAA
AAAIIIIIIIIIIIIIIIIIIIIAAAAAIIIIIIIIIIIIIIIIIIIIIIIIIIIIIAAAAAAA
AAAIIIIIIIIIIIIIIIIIIIIAAAAAIIIIIIIIIIIIIIIIIIIIIIIIIIIIIIAAAAAA
AAAIIIIIIIIIIIIIIIIIIIIAAAAAIIIIIIIIIIIIIIIIIIIIIIIIIIIIIIIAAAAA
AAAIIIIIIIIIIIIIIIIIIIIAAAAAIIIIIIIIIIIIIIIIIIIIIIIIIIIIIIIIAAAA
AAAIIIIIIIIIIIIIIIIIIIIAAAAAIIIIIIIIIIIIIIIIIIIIIIIIIIIIIIIIAIAA
AAAIIIIIIIIIIIIIIIIIIIIAAAAAIIIIIIIIIIIIIIIIIIIIIIIIIIIIIIIIIIAA
AAAIIIIIIIIIIIIIIIIIIIIAAAAAIIIIIIIIIIIIIIIIIIIIIIIIIIIIIIIIIIIA
AAAIIIIIIIIIIIIIIIIIIIIAAAAAIIIIIIIIIIIIIIIIIIIIIIIIIIIIIIIIIIII
[MLOP] Prefetch Degree Mean: 15.91051
[MLOP] Prefetch Degree SD: 0.32033
[MLOP] Max Score Left Mean (%): 76.12482
[MLOP] Max Score Left SD (%): 2.14413
[MLOP] Max Score Right Mean (%): 99.98523
[MLOP] Max Score Right SD (%): 0.06297

Channel_0_RQ_row_buffer_hit 6860365
Channel_0_RQ_row_buffer_miss 2338567
Channel_0_WQ_row_buffer_hit 45815
Channel_0_WQ_row_buffer_miss 338143
Channel_0_WQ_full 166
Channel_0_dbus_congested 9614984

avg_congested_cycle 208

DRAM_bw_pochs 8278143
DRAM_bw_level_0 5743178
DRAM_bw_level_1 0
DRAM_bw_level_2 0
DRAM_bw_level_3 2534965
