*************************************************
   ChampSim Multicore Out-of-Order Simulator
   Last compiled: Dec 11 2024 17:59:53
*************************************************
parsing config file: /home/functionmain/桌面/Pythia/config/bingo.ini

trace_0 /home/functionmain/桌面/Pythia/traces/410.bwaves-1963B.champsimtrace.xz
adding L2C_PREFETCHER: Bingo
Initialize SHIP state
warmup_instructions 100000000
simulation_instructions 500000000
champsim_seed 277
measure_ipc 0
measure_ipc_epoch 1000
measure_dram_bw 1
measure_dram_bw_epoch 256
measure_cache_acc 1
measure_cache_acc_epoch 1024
l1d_perfect 0
l2c_perfect 0
llc_perfect 0
l1d_semi_perfect 0
l2c_semi_perfect 0
llc_semi_perfect 0
semi_perfect_cache_page_buffer_size 64

num_cpus 1
cpu_freq 4000
dram_io_freq 2400
page_size 4096
block_size 64
max_read_per_cycle 8
max_fill_per_cycle 1
dram_channels 1
log2_dram_channels 0
dram_ranks 1
dram_banks 8
dram_rows 65536
dram_columns 128
dram_row_size 8
dram_size 4096
dram_pages 1048576

fetch_width 6
decode_width 6
exec_width 4
lq_width 2
sq_width 2
retire_width 4
scheduler_size 128
branch_mispredict_penalty 20
rob_size 256
lq_size 72
sq_size 56
num_instr_destinations_sparc 4
num_instr_destinations 2
num_instr_sources 4

itlb_set 16
itlb_way 8
itlb_rq_size 16
itlb_wq_size 16
itlb_pq_size 0
itlb_mshr_size 8
itlb_latency 1

dtlb_set 16
dtlb_way 4
dtlb_rq_size 16
dtlb_wq_size 16
dtlb_pq_size 0
dtlb_mshr_size 8
dtlb_latency 1

stlb_set 128
stlb_way 12
stlb_rq_size 32
stlb_wq_size 32
stlb_pq_size 0
stlb_mshr_size 16
stlb_latency 8

l1i_size 32
l1i_set 64
l1i_way 8
l1i_rq_size 64
l1i_wq_size 64
l1i_pq_size 8
l1i_mshr_size 8
l1i_latency 1

l1d_size 32
l1d_set 64
l1d_way 8
l1d_rq_size 64
l1d_wq_size 64
l1d_pq_size 8
l1d_mshr_size 16
l1d_latency 4

l2c_size 256
l2c_set 512
l2c_way 8
l2c_rq_size 32
l2c_wq_size 32
l2c_pq_size 32
l2c_mshr_size 32
l2c_latency 10

llc_size 2048
llc_set 2048
llc_way 16
llc_rq_size 32
llc_wq_size 32
llc_pq_size 32
llc_mshr_size 64
llc_latency 20

dram_channel_width 8
dram_wq_size 64
dram_rq_size 64
tRP 15
tRCD 15
tCAS 12.5
dram_dbus_turn_around_time 30
dram_write_high_wm 56
dram_write_low_wm 48
min_dram_writes_per_switch 16
dram_mtps 2400
dram_dbus_return_time 13

bingo_region_size 2048
bingo_pattern_len 32
bingo_pc_width 16
bingo_min_addr_width 5
bingo_max_addr_width 16
bingo_ft_size 64
bingo_at_size 128
bingo_pht_size 4096
bingo_pht_ways 16
bingo_pf_streamer_size 128
bingo_debug_level 0
bingo_l1d_thresh 1.01
bingo_l2c_thresh 0.8
bingo_llc_thresh 0.05
bingo_pc_address_fill_level L2


Heartbeat CPU  0 instructions:    1000002 cycles:     658387 heartbeat IPC: 1.51887 cumulative IPC: 1.51887 (Simulation time: 0 hr 0 min 3 sec) 
Heartbeat CPU  0 instructions:    2000002 cycles:    1316324 heartbeat IPC: 1.51990 cumulative IPC: 1.51938 (Simulation time: 0 hr 0 min 5 sec) 
Heartbeat CPU  0 instructions:    3000002 cycles:    1974294 heartbeat IPC: 1.51983 cumulative IPC: 1.51953 (Simulation time: 0 hr 0 min 7 sec) 
Heartbeat CPU  0 instructions:    4000000 cycles:    2632192 heartbeat IPC: 1.51999 cumulative IPC: 1.51965 (Simulation time: 0 hr 0 min 9 sec) 
Heartbeat CPU  0 instructions:    5000002 cycles:    3290251 heartbeat IPC: 1.51962 cumulative IPC: 1.51964 (Simulation time: 0 hr 0 min 12 sec) 
Heartbeat CPU  0 instructions:    6000002 cycles:    3948195 heartbeat IPC: 1.51989 cumulative IPC: 1.51968 (Simulation time: 0 hr 0 min 14 sec) 
Heartbeat CPU  0 instructions:    7000000 cycles:    4606175 heartbeat IPC: 1.51980 cumulative IPC: 1.51970 (Simulation time: 0 hr 0 min 16 sec) 
Heartbeat CPU  0 instructions:    8000000 cycles:    5264059 heartbeat IPC: 1.52002 cumulative IPC: 1.51974 (Simulation time: 0 hr 0 min 18 sec) 
Heartbeat CPU  0 instructions:    9000001 cycles:    5921981 heartbeat IPC: 1.51994 cumulative IPC: 1.51976 (Simulation time: 0 hr 0 min 20 sec) 
Heartbeat CPU  0 instructions:   10000002 cycles:    6579905 heartbeat IPC: 1.51993 cumulative IPC: 1.51978 (Simulation time: 0 hr 0 min 23 sec) 
Heartbeat CPU  0 instructions:   11000001 cycles:    7237855 heartbeat IPC: 1.51987 cumulative IPC: 1.51979 (Simulation time: 0 hr 0 min 25 sec) 
Heartbeat CPU  0 instructions:   12000000 cycles:    7895690 heartbeat IPC: 1.52014 cumulative IPC: 1.51982 (Simulation time: 0 hr 0 min 27 sec) 
Heartbeat CPU  0 instructions:   13000001 cycles:    8553703 heartbeat IPC: 1.51973 cumulative IPC: 1.51981 (Simulation time: 0 hr 0 min 29 sec) 
Heartbeat CPU  0 instructions:   14000001 cycles:    9211511 heartbeat IPC: 1.52020 cumulative IPC: 1.51984 (Simulation time: 0 hr 0 min 31 sec) 
Heartbeat CPU  0 instructions:   15000000 cycles:    9869291 heartbeat IPC: 1.52026 cumulative IPC: 1.51987 (Simulation time: 0 hr 0 min 34 sec) 
Heartbeat CPU  0 instructions:   16000000 cycles:   10527134 heartbeat IPC: 1.52012 cumulative IPC: 1.51988 (Simulation time: 0 hr 0 min 36 sec) 
Heartbeat CPU  0 instructions:   17000002 cycles:   11185048 heartbeat IPC: 1.51996 cumulative IPC: 1.51989 (Simulation time: 0 hr 0 min 38 sec) 
Heartbeat CPU  0 instructions:   18000000 cycles:   11842910 heartbeat IPC: 1.52007 cumulative IPC: 1.51990 (Simulation time: 0 hr 0 min 40 sec) 
Heartbeat CPU  0 instructions:   19000001 cycles:   12500770 heartbeat IPC: 1.52008 cumulative IPC: 1.51991 (Simulation time: 0 hr 0 min 42 sec) 
Heartbeat CPU  0 instructions:   20000000 cycles:   13158571 heartbeat IPC: 1.52022 cumulative IPC: 1.51992 (Simulation time: 0 hr 0 min 44 sec) 
Heartbeat CPU  0 instructions:   21000003 cycles:   13816472 heartbeat IPC: 1.51999 cumulative IPC: 1.51993 (Simulation time: 0 hr 0 min 46 sec) 
Heartbeat CPU  0 instructions:   22000001 cycles:   14474252 heartbeat IPC: 1.52026 cumulative IPC: 1.51994 (Simulation time: 0 hr 0 min 49 sec) 
Heartbeat CPU  0 instructions:   23000001 cycles:   15132080 heartbeat IPC: 1.52015 cumulative IPC: 1.51995 (Simulation time: 0 hr 0 min 51 sec) 
Heartbeat CPU  0 instructions:   24000000 cycles:   15789835 heartbeat IPC: 1.52032 cumulative IPC: 1.51997 (Simulation time: 0 hr 0 min 53 sec) 
Heartbeat CPU  0 instructions:   25000001 cycles:   16447806 heartbeat IPC: 1.51983 cumulative IPC: 1.51996 (Simulation time: 0 hr 0 min 55 sec) 
Heartbeat CPU  0 instructions:   26000003 cycles:   17105486 heartbeat IPC: 1.52050 cumulative IPC: 1.51998 (Simulation time: 0 hr 0 min 57 sec) 
Heartbeat CPU  0 instructions:   27000000 cycles:   17763329 heartbeat IPC: 1.52012 cumulative IPC: 1.51999 (Simulation time: 0 hr 0 min 59 sec) 
Heartbeat CPU  0 instructions:   28000000 cycles:   18421130 heartbeat IPC: 1.52022 cumulative IPC: 1.51999 (Simulation time: 0 hr 1 min 2 sec) 
Heartbeat CPU  0 instructions:   29000000 cycles:   19079058 heartbeat IPC: 1.51992 cumulative IPC: 1.51999 (Simulation time: 0 hr 1 min 4 sec) 
Heartbeat CPU  0 instructions:   30000001 cycles:   19736898 heartbeat IPC: 1.52013 cumulative IPC: 1.52000 (Simulation time: 0 hr 1 min 6 sec) 
Heartbeat CPU  0 instructions:   31000002 cycles:   20394818 heartbeat IPC: 1.51994 cumulative IPC: 1.51999 (Simulation time: 0 hr 1 min 8 sec) 
Heartbeat CPU  0 instructions:   32000000 cycles:   21052763 heartbeat IPC: 1.51988 cumulative IPC: 1.51999 (Simulation time: 0 hr 1 min 10 sec) 
Heartbeat CPU  0 instructions:   33000003 cycles:   21710778 heartbeat IPC: 1.51973 cumulative IPC: 1.51998 (Simulation time: 0 hr 1 min 13 sec) 
Heartbeat CPU  0 instructions:   34000002 cycles:   22368715 heartbeat IPC: 1.51990 cumulative IPC: 1.51998 (Simulation time: 0 hr 1 min 15 sec) 
Heartbeat CPU  0 instructions:   35000000 cycles:   23026647 heartbeat IPC: 1.51991 cumulative IPC: 1.51998 (Simulation time: 0 hr 1 min 17 sec) 
Heartbeat CPU  0 instructions:   36000000 cycles:   23684609 heartbeat IPC: 1.51984 cumulative IPC: 1.51997 (Simulation time: 0 hr 1 min 19 sec) 
Heartbeat CPU  0 instructions:   37000002 cycles:   24342610 heartbeat IPC: 1.51976 cumulative IPC: 1.51997 (Simulation time: 0 hr 1 min 21 sec) 
Heartbeat CPU  0 instructions:   38000000 cycles:   25000499 heartbeat IPC: 1.52001 cumulative IPC: 1.51997 (Simulation time: 0 hr 1 min 23 sec) 
Heartbeat CPU  0 instructions:   39000000 cycles:   25658529 heartbeat IPC: 1.51969 cumulative IPC: 1.51996 (Simulation time: 0 hr 1 min 26 sec) 
Heartbeat CPU  0 instructions:   40000000 cycles:   26316380 heartbeat IPC: 1.52010 cumulative IPC: 1.51997 (Simulation time: 0 hr 1 min 28 sec) 
Heartbeat CPU  0 instructions:   41000000 cycles:   26974412 heartbeat IPC: 1.51968 cumulative IPC: 1.51996 (Simulation time: 0 hr 1 min 30 sec) 
Heartbeat CPU  0 instructions:   42000003 cycles:   27632380 heartbeat IPC: 1.51984 cumulative IPC: 1.51996 (Simulation time: 0 hr 1 min 33 sec) 
Heartbeat CPU  0 instructions:   43000001 cycles:   28290251 heartbeat IPC: 1.52005 cumulative IPC: 1.51996 (Simulation time: 0 hr 1 min 35 sec) 
Heartbeat CPU  0 instructions:   44000000 cycles:   28948071 heartbeat IPC: 1.52017 cumulative IPC: 1.51996 (Simulation time: 0 hr 1 min 37 sec) 
Heartbeat CPU  0 instructions:   45000000 cycles:   29605946 heartbeat IPC: 1.52005 cumulative IPC: 1.51996 (Simulation time: 0 hr 1 min 39 sec) 
Heartbeat CPU  0 instructions:   46000001 cycles:   30263789 heartbeat IPC: 1.52012 cumulative IPC: 1.51997 (Simulation time: 0 hr 1 min 41 sec) 
Heartbeat CPU  0 instructions:   47000003 cycles:   30921669 heartbeat IPC: 1.52004 cumulative IPC: 1.51997 (Simulation time: 0 hr 1 min 44 sec) 
Heartbeat CPU  0 instructions:   48000000 cycles:   31579361 heartbeat IPC: 1.52046 cumulative IPC: 1.51998 (Simulation time: 0 hr 1 min 46 sec) 
Heartbeat CPU  0 instructions:   49000000 cycles:   32237153 heartbeat IPC: 1.52024 cumulative IPC: 1.51999 (Simulation time: 0 hr 1 min 48 sec) 
Heartbeat CPU  0 instructions:   50000003 cycles:   32895081 heartbeat IPC: 1.51993 cumulative IPC: 1.51998 (Simulation time: 0 hr 1 min 50 sec) 
Heartbeat CPU  0 instructions:   51000000 cycles:   33552927 heartbeat IPC: 1.52011 cumulative IPC: 1.51999 (Simulation time: 0 hr 1 min 52 sec) 
Heartbeat CPU  0 instructions:   52000000 cycles:   34210731 heartbeat IPC: 1.52021 cumulative IPC: 1.51999 (Simulation time: 0 hr 1 min 55 sec) 
Heartbeat CPU  0 instructions:   53000003 cycles:   34868647 heartbeat IPC: 1.51996 cumulative IPC: 1.51999 (Simulation time: 0 hr 1 min 57 sec) 
Heartbeat CPU  0 instructions:   54000001 cycles:   35526531 heartbeat IPC: 1.52002 cumulative IPC: 1.51999 (Simulation time: 0 hr 1 min 59 sec) 
Heartbeat CPU  0 instructions:   55000003 cycles:   36184401 heartbeat IPC: 1.52006 cumulative IPC: 1.51999 (Simulation time: 0 hr 2 min 1 sec) 
Heartbeat CPU  0 instructions:   56000000 cycles:   36842262 heartbeat IPC: 1.52007 cumulative IPC: 1.51999 (Simulation time: 0 hr 2 min 3 sec) 
Heartbeat CPU  0 instructions:   57000001 cycles:   37500006 heartbeat IPC: 1.52035 cumulative IPC: 1.52000 (Simulation time: 0 hr 2 min 6 sec) 
Heartbeat CPU  0 instructions:   58000000 cycles:   38157943 heartbeat IPC: 1.51990 cumulative IPC: 1.52000 (Simulation time: 0 hr 2 min 8 sec) 
Heartbeat CPU  0 instructions:   59000002 cycles:   38815906 heartbeat IPC: 1.51985 cumulative IPC: 1.52000 (Simulation time: 0 hr 2 min 10 sec) 
Heartbeat CPU  0 instructions:   60000000 cycles:   39473699 heartbeat IPC: 1.52023 cumulative IPC: 1.52000 (Simulation time: 0 hr 2 min 12 sec) 
Heartbeat CPU  0 instructions:   61000002 cycles:   40131735 heartbeat IPC: 1.51968 cumulative IPC: 1.51999 (Simulation time: 0 hr 2 min 15 sec) 
Heartbeat CPU  0 instructions:   62000001 cycles:   40789672 heartbeat IPC: 1.51990 cumulative IPC: 1.51999 (Simulation time: 0 hr 2 min 17 sec) 
Heartbeat CPU  0 instructions:   63000002 cycles:   41447624 heartbeat IPC: 1.51987 cumulative IPC: 1.51999 (Simulation time: 0 hr 2 min 19 sec) 
Heartbeat CPU  0 instructions:   64000000 cycles:   42105579 heartbeat IPC: 1.51986 cumulative IPC: 1.51999 (Simulation time: 0 hr 2 min 21 sec) 
Heartbeat CPU  0 instructions:   65000002 cycles:   42763617 heartbeat IPC: 1.51967 cumulative IPC: 1.51998 (Simulation time: 0 hr 2 min 24 sec) 
Heartbeat CPU  0 instructions:   66000002 cycles:   43421548 heartbeat IPC: 1.51992 cumulative IPC: 1.51998 (Simulation time: 0 hr 2 min 26 sec) 
Heartbeat CPU  0 instructions:   67000002 cycles:   44079467 heartbeat IPC: 1.51994 cumulative IPC: 1.51998 (Simulation time: 0 hr 2 min 28 sec) 
Heartbeat CPU  0 instructions:   68000000 cycles:   44737350 heartbeat IPC: 1.52002 cumulative IPC: 1.51998 (Simulation time: 0 hr 2 min 31 sec) 
Heartbeat CPU  0 instructions:   69000000 cycles:   45395369 heartbeat IPC: 1.51971 cumulative IPC: 1.51998 (Simulation time: 0 hr 2 min 33 sec) 
Heartbeat CPU  0 instructions:   70000003 cycles:   46053206 heartbeat IPC: 1.52014 cumulative IPC: 1.51998 (Simulation time: 0 hr 2 min 35 sec) 
Heartbeat CPU  0 instructions:   71000003 cycles:   46711029 heartbeat IPC: 1.52017 cumulative IPC: 1.51998 (Simulation time: 0 hr 2 min 37 sec) 
Heartbeat CPU  0 instructions:   72000000 cycles:   47368906 heartbeat IPC: 1.52004 cumulative IPC: 1.51998 (Simulation time: 0 hr 2 min 39 sec) 
Heartbeat CPU  0 instructions:   73000001 cycles:   48026789 heartbeat IPC: 1.52003 cumulative IPC: 1.51999 (Simulation time: 0 hr 2 min 42 sec) 
Heartbeat CPU  0 instructions:   74000002 cycles:   48684629 heartbeat IPC: 1.52013 cumulative IPC: 1.51999 (Simulation time: 0 hr 2 min 44 sec) 
Heartbeat CPU  0 instructions:   75000001 cycles:   49342512 heartbeat IPC: 1.52003 cumulative IPC: 1.51999 (Simulation time: 0 hr 2 min 46 sec) 
Heartbeat CPU  0 instructions:   76000000 cycles:   50000335 heartbeat IPC: 1.52016 cumulative IPC: 1.51999 (Simulation time: 0 hr 2 min 48 sec) 
Heartbeat CPU  0 instructions:   77000002 cycles:   50658233 heartbeat IPC: 1.52000 cumulative IPC: 1.51999 (Simulation time: 0 hr 2 min 50 sec) 
Heartbeat CPU  0 instructions:   78000000 cycles:   51316207 heartbeat IPC: 1.51981 cumulative IPC: 1.51999 (Simulation time: 0 hr 2 min 53 sec) 
Heartbeat CPU  0 instructions:   79000003 cycles:   51974037 heartbeat IPC: 1.52015 cumulative IPC: 1.51999 (Simulation time: 0 hr 2 min 56 sec) 
Heartbeat CPU  0 instructions:   80000000 cycles:   52631877 heartbeat IPC: 1.52012 cumulative IPC: 1.51999 (Simulation time: 0 hr 2 min 58 sec) 
Heartbeat CPU  0 instructions:   81000001 cycles:   53289849 heartbeat IPC: 1.51982 cumulative IPC: 1.51999 (Simulation time: 0 hr 3 min 1 sec) 
Heartbeat CPU  0 instructions:   82000001 cycles:   53947713 heartbeat IPC: 1.52007 cumulative IPC: 1.51999 (Simulation time: 0 hr 3 min 3 sec) 
Heartbeat CPU  0 instructions:   83000001 cycles:   54605507 heartbeat IPC: 1.52023 cumulative IPC: 1.51999 (Simulation time: 0 hr 3 min 6 sec) 
Heartbeat CPU  0 instructions:   84000000 cycles:   55263311 heartbeat IPC: 1.52021 cumulative IPC: 1.52000 (Simulation time: 0 hr 3 min 8 sec) 
Heartbeat CPU  0 instructions:   85000000 cycles:   55921236 heartbeat IPC: 1.51993 cumulative IPC: 1.51999 (Simulation time: 0 hr 3 min 10 sec) 
Heartbeat CPU  0 instructions:   86000002 cycles:   56579095 heartbeat IPC: 1.52009 cumulative IPC: 1.52000 (Simulation time: 0 hr 3 min 13 sec) 
Heartbeat CPU  0 instructions:   87000001 cycles:   57237064 heartbeat IPC: 1.51983 cumulative IPC: 1.51999 (Simulation time: 0 hr 3 min 15 sec) 
Heartbeat CPU  0 instructions:   88000000 cycles:   57895130 heartbeat IPC: 1.51960 cumulative IPC: 1.51999 (Simulation time: 0 hr 3 min 18 sec) 
Heartbeat CPU  0 instructions:   89000001 cycles:   58553088 heartbeat IPC: 1.51986 cumulative IPC: 1.51999 (Simulation time: 0 hr 3 min 20 sec) 
Heartbeat CPU  0 instructions:   90000003 cycles:   59211057 heartbeat IPC: 1.51983 cumulative IPC: 1.51999 (Simulation time: 0 hr 3 min 23 sec) 
Heartbeat CPU  0 instructions:   91000000 cycles:   59868968 heartbeat IPC: 1.51996 cumulative IPC: 1.51999 (Simulation time: 0 hr 3 min 25 sec) 
Heartbeat CPU  0 instructions:   92000000 cycles:   60526933 heartbeat IPC: 1.51984 cumulative IPC: 1.51998 (Simulation time: 0 hr 3 min 28 sec) 
Heartbeat CPU  0 instructions:   93000001 cycles:   61184862 heartbeat IPC: 1.51992 cumulative IPC: 1.51998 (Simulation time: 0 hr 3 min 30 sec) 
Heartbeat CPU  0 instructions:   94000001 cycles:   61842804 heartbeat IPC: 1.51989 cumulative IPC: 1.51998 (Simulation time: 0 hr 3 min 32 sec) 
Heartbeat CPU  0 instructions:   95000000 cycles:   62500697 heartbeat IPC: 1.52000 cumulative IPC: 1.51998 (Simulation time: 0 hr 3 min 35 sec) 
Heartbeat CPU  0 instructions:   96000000 cycles:   63158549 heartbeat IPC: 1.52010 cumulative IPC: 1.51998 (Simulation time: 0 hr 3 min 37 sec) 
Heartbeat CPU  0 instructions:   97000000 cycles:   63816557 heartbeat IPC: 1.51974 cumulative IPC: 1.51998 (Simulation time: 0 hr 3 min 39 sec) 
Heartbeat CPU  0 instructions:   98000001 cycles:   64474493 heartbeat IPC: 1.51991 cumulative IPC: 1.51998 (Simulation time: 0 hr 3 min 42 sec) 
Heartbeat CPU  0 instructions:   99000003 cycles:   65132391 heartbeat IPC: 1.52000 cumulative IPC: 1.51998 (Simulation time: 0 hr 3 min 44 sec) 
Heartbeat CPU  0 instructions:  100000000 cycles:   65790255 heartbeat IPC: 1.52007 cumulative IPC: 1.51998 (Simulation time: 0 hr 3 min 47 sec) 

Warmup complete CPU  0 instructions:  100000002 cycles:   65790258 (Simulation time: 0 hr 3 min 47 sec) 

Heartbeat CPU  0 instructions:  101000001 cycles:   66809607 heartbeat IPC: 0.98102 cumulative IPC: 0.98102 (Simulation time: 0 hr 3 min 50 sec) 
Heartbeat CPU  0 instructions:  102000000 cycles:   67833134 heartbeat IPC: 0.97701 cumulative IPC: 0.97901 (Simulation time: 0 hr 3 min 52 sec) 
Heartbeat CPU  0 instructions:  103000001 cycles:   68855243 heartbeat IPC: 0.97837 cumulative IPC: 0.97880 (Simulation time: 0 hr 3 min 55 sec) 
Heartbeat CPU  0 instructions:  104000000 cycles:   69878720 heartbeat IPC: 0.97706 cumulative IPC: 0.97836 (Simulation time: 0 hr 3 min 57 sec) 
Heartbeat CPU  0 instructions:  105000002 cycles:   70898815 heartbeat IPC: 0.98030 cumulative IPC: 0.97875 (Simulation time: 0 hr 4 min 0 sec) 
Heartbeat CPU  0 instructions:  106000001 cycles:   71917794 heartbeat IPC: 0.98137 cumulative IPC: 0.97919 (Simulation time: 0 hr 4 min 3 sec) 
Heartbeat CPU  0 instructions:  107000001 cycles:   72943988 heartbeat IPC: 0.97447 cumulative IPC: 0.97851 (Simulation time: 0 hr 4 min 5 sec) 
Heartbeat CPU  0 instructions:  108000000 cycles:   73961953 heartbeat IPC: 0.98235 cumulative IPC: 0.97899 (Simulation time: 0 hr 4 min 8 sec) 
Heartbeat CPU  0 instructions:  109000001 cycles:   74990019 heartbeat IPC: 0.97270 cumulative IPC: 0.97829 (Simulation time: 0 hr 4 min 11 sec) 
Heartbeat CPU  0 instructions:  110000000 cycles:   76010525 heartbeat IPC: 0.97991 cumulative IPC: 0.97845 (Simulation time: 0 hr 4 min 14 sec) 
Heartbeat CPU  0 instructions:  111000000 cycles:   77035537 heartbeat IPC: 0.97560 cumulative IPC: 0.97819 (Simulation time: 0 hr 4 min 17 sec) 
Heartbeat CPU  0 instructions:  112000000 cycles:   78053715 heartbeat IPC: 0.98215 cumulative IPC: 0.97852 (Simulation time: 0 hr 4 min 20 sec) 
Heartbeat CPU  0 instructions:  113000000 cycles:   79075068 heartbeat IPC: 0.97909 cumulative IPC: 0.97856 (Simulation time: 0 hr 4 min 23 sec) 
Heartbeat CPU  0 instructions:  114000002 cycles:   80101071 heartbeat IPC: 0.97466 cumulative IPC: 0.97828 (Simulation time: 0 hr 4 min 25 sec) 
Heartbeat CPU  0 instructions:  115000000 cycles:   81121702 heartbeat IPC: 0.97978 cumulative IPC: 0.97838 (Simulation time: 0 hr 4 min 28 sec) 
Heartbeat CPU  0 instructions:  116000000 cycles:   82152711 heartbeat IPC: 0.96992 cumulative IPC: 0.97785 (Simulation time: 0 hr 4 min 31 sec) 
Heartbeat CPU  0 instructions:  117000003 cycles:   83172852 heartbeat IPC: 0.98026 cumulative IPC: 0.97799 (Simulation time: 0 hr 4 min 34 sec) 
Heartbeat CPU  0 instructions:  118000000 cycles:   84192825 heartbeat IPC: 0.98042 cumulative IPC: 0.97812 (Simulation time: 0 hr 4 min 37 sec) 
Heartbeat CPU  0 instructions:  119000001 cycles:   85208256 heartbeat IPC: 0.98480 cumulative IPC: 0.97847 (Simulation time: 0 hr 4 min 40 sec) 
Heartbeat CPU  0 instructions:  120000000 cycles:   86232177 heartbeat IPC: 0.97664 cumulative IPC: 0.97838 (Simulation time: 0 hr 4 min 42 sec) 
Heartbeat CPU  0 instructions:  121000003 cycles:   87252709 heartbeat IPC: 0.97988 cumulative IPC: 0.97845 (Simulation time: 0 hr 4 min 45 sec) 
Heartbeat CPU  0 instructions:  122000000 cycles:   88281161 heartbeat IPC: 0.97233 cumulative IPC: 0.97817 (Simulation time: 0 hr 4 min 48 sec) 
Heartbeat CPU  0 instructions:  123000002 cycles:   89296913 heartbeat IPC: 0.98449 cumulative IPC: 0.97845 (Simulation time: 0 hr 4 min 51 sec) 
Heartbeat CPU  0 instructions:  124000000 cycles:   90319248 heartbeat IPC: 0.97815 cumulative IPC: 0.97843 (Simulation time: 0 hr 4 min 54 sec) 
Heartbeat CPU  0 instructions:  125000003 cycles:   91335702 heartbeat IPC: 0.98382 cumulative IPC: 0.97865 (Simulation time: 0 hr 4 min 56 sec) 
Heartbeat CPU  0 instructions:  126000002 cycles:   92350296 heartbeat IPC: 0.98561 cumulative IPC: 0.97891 (Simulation time: 0 hr 4 min 59 sec) 
Heartbeat CPU  0 instructions:  127000000 cycles:   93374775 heartbeat IPC: 0.97610 cumulative IPC: 0.97881 (Simulation time: 0 hr 5 min 2 sec) 
Heartbeat CPU  0 instructions:  128000000 cycles:   94398231 heartbeat IPC: 0.97708 cumulative IPC: 0.97875 (Simulation time: 0 hr 5 min 4 sec) 
Heartbeat CPU  0 instructions:  129000000 cycles:   95417770 heartbeat IPC: 0.98084 cumulative IPC: 0.97882 (Simulation time: 0 hr 5 min 7 sec) 
Heartbeat CPU  0 instructions:  130000001 cycles:   96437122 heartbeat IPC: 0.98102 cumulative IPC: 0.97889 (Simulation time: 0 hr 5 min 10 sec) 
Heartbeat CPU  0 instructions:  131000000 cycles:   97459739 heartbeat IPC: 0.97788 cumulative IPC: 0.97886 (Simulation time: 0 hr 5 min 13 sec) 
Heartbeat CPU  0 instructions:  132000000 cycles:   98480269 heartbeat IPC: 0.97988 cumulative IPC: 0.97889 (Simulation time: 0 hr 5 min 15 sec) 
Heartbeat CPU  0 instructions:  133000001 cycles:   99502350 heartbeat IPC: 0.97840 cumulative IPC: 0.97888 (Simulation time: 0 hr 5 min 18 sec) 
Heartbeat CPU  0 instructions:  134000000 cycles:  100524469 heartbeat IPC: 0.97836 cumulative IPC: 0.97886 (Simulation time: 0 hr 5 min 21 sec) 
Heartbeat CPU  0 instructions:  135000002 cycles:  101545709 heartbeat IPC: 0.97920 cumulative IPC: 0.97887 (Simulation time: 0 hr 5 min 23 sec) 
Heartbeat CPU  0 instructions:  136000000 cycles:  102563431 heartbeat IPC: 0.98258 cumulative IPC: 0.97897 (Simulation time: 0 hr 5 min 26 sec) 
Heartbeat CPU  0 instructions:  137000002 cycles:  103590947 heartbeat IPC: 0.97322 cumulative IPC: 0.97882 (Simulation time: 0 hr 5 min 29 sec) 
Heartbeat CPU  0 instructions:  138000000 cycles:  104610288 heartbeat IPC: 0.98102 cumulative IPC: 0.97888 (Simulation time: 0 hr 5 min 32 sec) 
Heartbeat CPU  0 instructions:  139000002 cycles:  105635631 heartbeat IPC: 0.97529 cumulative IPC: 0.97878 (Simulation time: 0 hr 5 min 34 sec) 
Heartbeat CPU  0 instructions:  140000000 cycles:  106659962 heartbeat IPC: 0.97624 cumulative IPC: 0.97872 (Simulation time: 0 hr 5 min 37 sec) 
Heartbeat CPU  0 instructions:  141000003 cycles:  107688571 heartbeat IPC: 0.97219 cumulative IPC: 0.97856 (Simulation time: 0 hr 5 min 40 sec) 
Heartbeat CPU  0 instructions:  142000001 cycles:  108710658 heartbeat IPC: 0.97839 cumulative IPC: 0.97856 (Simulation time: 0 hr 5 min 43 sec) 
Heartbeat CPU  0 instructions:  143000001 cycles:  109735685 heartbeat IPC: 0.97558 cumulative IPC: 0.97849 (Simulation time: 0 hr 5 min 45 sec) 
Heartbeat CPU  0 instructions:  144000000 cycles:  110764514 heartbeat IPC: 0.97198 cumulative IPC: 0.97834 (Simulation time: 0 hr 5 min 48 sec) 
Heartbeat CPU  0 instructions:  145000001 cycles:  111793325 heartbeat IPC: 0.97200 cumulative IPC: 0.97820 (Simulation time: 0 hr 5 min 51 sec) 
Heartbeat CPU  0 instructions:  146000003 cycles:  112813311 heartbeat IPC: 0.98041 cumulative IPC: 0.97824 (Simulation time: 0 hr 5 min 54 sec) 
Heartbeat CPU  0 instructions:  147000002 cycles:  113840880 heartbeat IPC: 0.97317 cumulative IPC: 0.97814 (Simulation time: 0 hr 5 min 57 sec) 
Heartbeat CPU  0 instructions:  148000000 cycles:  114868882 heartbeat IPC: 0.97276 cumulative IPC: 0.97802 (Simulation time: 0 hr 6 min 0 sec) 
Heartbeat CPU  0 instructions:  149000001 cycles:  115884123 heartbeat IPC: 0.98499 cumulative IPC: 0.97816 (Simulation time: 0 hr 6 min 2 sec) 
Heartbeat CPU  0 instructions:  150000002 cycles:  116908039 heartbeat IPC: 0.97664 cumulative IPC: 0.97813 (Simulation time: 0 hr 6 min 5 sec) 
Heartbeat CPU  0 instructions:  151000001 cycles:  117925689 heartbeat IPC: 0.98266 cumulative IPC: 0.97822 (Simulation time: 0 hr 6 min 8 sec) 
Heartbeat CPU  0 instructions:  152000000 cycles:  118949296 heartbeat IPC: 0.97694 cumulative IPC: 0.97820 (Simulation time: 0 hr 6 min 11 sec) 
Heartbeat CPU  0 instructions:  153000002 cycles:  119969492 heartbeat IPC: 0.98021 cumulative IPC: 0.97823 (Simulation time: 0 hr 6 min 13 sec) 
Heartbeat CPU  0 instructions:  154000001 cycles:  120996132 heartbeat IPC: 0.97405 cumulative IPC: 0.97816 (Simulation time: 0 hr 6 min 16 sec) 
Heartbeat CPU  0 instructions:  155000002 cycles:  122015356 heartbeat IPC: 0.98114 cumulative IPC: 0.97821 (Simulation time: 0 hr 6 min 19 sec) 
Heartbeat CPU  0 instructions:  156000000 cycles:  123046419 heartbeat IPC: 0.96987 cumulative IPC: 0.97806 (Simulation time: 0 hr 6 min 21 sec) 
Heartbeat CPU  0 instructions:  157000002 cycles:  124069480 heartbeat IPC: 0.97746 cumulative IPC: 0.97805 (Simulation time: 0 hr 6 min 24 sec) 
Heartbeat CPU  0 instructions:  158000000 cycles:  125091808 heartbeat IPC: 0.97816 cumulative IPC: 0.97805 (Simulation time: 0 hr 6 min 26 sec) 
Heartbeat CPU  0 instructions:  159000000 cycles:  126112048 heartbeat IPC: 0.98016 cumulative IPC: 0.97809 (Simulation time: 0 hr 6 min 29 sec) 
Heartbeat CPU  0 instructions:  160000000 cycles:  127133307 heartbeat IPC: 0.97918 cumulative IPC: 0.97811 (Simulation time: 0 hr 6 min 32 sec) 
Heartbeat CPU  0 instructions:  161000000 cycles:  128159146 heartbeat IPC: 0.97481 cumulative IPC: 0.97805 (Simulation time: 0 hr 6 min 34 sec) 
Heartbeat CPU  0 instructions:  162000000 cycles:  129175447 heartbeat IPC: 0.98396 cumulative IPC: 0.97815 (Simulation time: 0 hr 6 min 37 sec) 
Heartbeat CPU  0 instructions:  163000001 cycles:  130194716 heartbeat IPC: 0.98110 cumulative IPC: 0.97819 (Simulation time: 0 hr 6 min 40 sec) 
Heartbeat CPU  0 instructions:  164000000 cycles:  131224156 heartbeat IPC: 0.97140 cumulative IPC: 0.97809 (Simulation time: 0 hr 6 min 43 sec) 
Heartbeat CPU  0 instructions:  165000001 cycles:  132247309 heartbeat IPC: 0.97737 cumulative IPC: 0.97808 (Simulation time: 0 hr 6 min 45 sec) 
Heartbeat CPU  0 instructions:  166000002 cycles:  133267169 heartbeat IPC: 0.98053 cumulative IPC: 0.97811 (Simulation time: 0 hr 6 min 48 sec) 
Heartbeat CPU  0 instructions:  167000001 cycles:  134288135 heartbeat IPC: 0.97946 cumulative IPC: 0.97813 (Simulation time: 0 hr 6 min 51 sec) 
Heartbeat CPU  0 instructions:  168000000 cycles:  135314692 heartbeat IPC: 0.97413 cumulative IPC: 0.97807 (Simulation time: 0 hr 6 min 53 sec) 
Heartbeat CPU  0 instructions:  169000002 cycles:  136336644 heartbeat IPC: 0.97852 cumulative IPC: 0.97808 (Simulation time: 0 hr 6 min 56 sec) 
Heartbeat CPU  0 instructions:  170000001 cycles:  137367165 heartbeat IPC: 0.97038 cumulative IPC: 0.97797 (Simulation time: 0 hr 6 min 59 sec) 
Heartbeat CPU  0 instructions:  171000000 cycles:  138387813 heartbeat IPC: 0.97977 cumulative IPC: 0.97799 (Simulation time: 0 hr 7 min 1 sec) 
Heartbeat CPU  0 instructions:  172000000 cycles:  139413457 heartbeat IPC: 0.97500 cumulative IPC: 0.97795 (Simulation time: 0 hr 7 min 4 sec) 
Heartbeat CPU  0 instructions:  173000000 cycles:  140428867 heartbeat IPC: 0.98482 cumulative IPC: 0.97805 (Simulation time: 0 hr 7 min 7 sec) 
Heartbeat CPU  0 instructions:  174000000 cycles:  141451113 heartbeat IPC: 0.97824 cumulative IPC: 0.97805 (Simulation time: 0 hr 7 min 10 sec) 
Heartbeat CPU  0 instructions:  175000003 cycles:  142473830 heartbeat IPC: 0.97779 cumulative IPC: 0.97805 (Simulation time: 0 hr 7 min 12 sec) 
Heartbeat CPU  0 instructions:  176000000 cycles:  143498121 heartbeat IPC: 0.97628 cumulative IPC: 0.97802 (Simulation time: 0 hr 7 min 15 sec) 
Heartbeat CPU  0 instructions:  177000000 cycles:  144515391 heartbeat IPC: 0.98302 cumulative IPC: 0.97809 (Simulation time: 0 hr 7 min 18 sec) 
Heartbeat CPU  0 instructions:  178000002 cycles:  145542010 heartbeat IPC: 0.97407 cumulative IPC: 0.97803 (Simulation time: 0 hr 7 min 21 sec) 
Heartbeat CPU  0 instructions:  179000001 cycles:  146567480 heartbeat IPC: 0.97516 cumulative IPC: 0.97800 (Simulation time: 0 hr 7 min 24 sec) 
Heartbeat CPU  0 instructions:  180000000 cycles:  147586413 heartbeat IPC: 0.98142 cumulative IPC: 0.97804 (Simulation time: 0 hr 7 min 26 sec) 
Heartbeat CPU  0 instructions:  181000001 cycles:  148609170 heartbeat IPC: 0.97775 cumulative IPC: 0.97804 (Simulation time: 0 hr 7 min 29 sec) 
Heartbeat CPU  0 instructions:  182000000 cycles:  149629779 heartbeat IPC: 0.97981 cumulative IPC: 0.97806 (Simulation time: 0 hr 7 min 32 sec) 
Heartbeat CPU  0 instructions:  183000002 cycles:  150651004 heartbeat IPC: 0.97922 cumulative IPC: 0.97807 (Simulation time: 0 hr 7 min 35 sec) 
Heartbeat CPU  0 instructions:  184000000 cycles:  151679097 heartbeat IPC: 0.97267 cumulative IPC: 0.97801 (Simulation time: 0 hr 7 min 37 sec) 
Heartbeat CPU  0 instructions:  185000000 cycles:  152696109 heartbeat IPC: 0.98327 cumulative IPC: 0.97807 (Simulation time: 0 hr 7 min 40 sec) 
Heartbeat CPU  0 instructions:  186000000 cycles:  153713342 heartbeat IPC: 0.98306 cumulative IPC: 0.97813 (Simulation time: 0 hr 7 min 43 sec) 
Heartbeat CPU  0 instructions:  187000003 cycles:  154735002 heartbeat IPC: 0.97880 cumulative IPC: 0.97814 (Simulation time: 0 hr 7 min 46 sec) 
Heartbeat CPU  0 instructions:  188000000 cycles:  155751979 heartbeat IPC: 0.98330 cumulative IPC: 0.97819 (Simulation time: 0 hr 7 min 49 sec) 
Heartbeat CPU  0 instructions:  189000000 cycles:  156777076 heartbeat IPC: 0.97552 cumulative IPC: 0.97816 (Simulation time: 0 hr 7 min 52 sec) 
Heartbeat CPU  0 instructions:  190000003 cycles:  157800411 heartbeat IPC: 0.97720 cumulative IPC: 0.97815 (Simulation time: 0 hr 7 min 55 sec) 
Heartbeat CPU  0 instructions:  191000001 cycles:  158827427 heartbeat IPC: 0.97369 cumulative IPC: 0.97810 (Simulation time: 0 hr 7 min 58 sec) 
Heartbeat CPU  0 instructions:  192000000 cycles:  159847326 heartbeat IPC: 0.98049 cumulative IPC: 0.97813 (Simulation time: 0 hr 8 min 1 sec) 
Heartbeat CPU  0 instructions:  193000001 cycles:  160868224 heartbeat IPC: 0.97953 cumulative IPC: 0.97814 (Simulation time: 0 hr 8 min 4 sec) 
Heartbeat CPU  0 instructions:  194000001 cycles:  161888126 heartbeat IPC: 0.98049 cumulative IPC: 0.97817 (Simulation time: 0 hr 8 min 7 sec) 
Heartbeat CPU  0 instructions:  195000002 cycles:  162914484 heartbeat IPC: 0.97432 cumulative IPC: 0.97813 (Simulation time: 0 hr 8 min 10 sec) 
Heartbeat CPU  0 instructions:  196000000 cycles:  163937074 heartbeat IPC: 0.97791 cumulative IPC: 0.97813 (Simulation time: 0 hr 8 min 13 sec) 
Heartbeat CPU  0 instructions:  197000001 cycles:  164955391 heartbeat IPC: 0.98201 cumulative IPC: 0.97817 (Simulation time: 0 hr 8 min 16 sec) 
Heartbeat CPU  0 instructions:  198000002 cycles:  165976729 heartbeat IPC: 0.97911 cumulative IPC: 0.97818 (Simulation time: 0 hr 8 min 19 sec) 
Heartbeat CPU  0 instructions:  199000003 cycles:  166995124 heartbeat IPC: 0.98194 cumulative IPC: 0.97821 (Simulation time: 0 hr 8 min 22 sec) 
Heartbeat CPU  0 instructions:  200000000 cycles:  168014257 heartbeat IPC: 0.98122 cumulative IPC: 0.97824 (Simulation time: 0 hr 8 min 24 sec) 
Heartbeat CPU  0 instructions:  201000002 cycles:  169037078 heartbeat IPC: 0.97769 cumulative IPC: 0.97824 (Simulation time: 0 hr 8 min 27 sec) 
Heartbeat CPU  0 instructions:  202000000 cycles:  170060850 heartbeat IPC: 0.97678 cumulative IPC: 0.97822 (Simulation time: 0 hr 8 min 30 sec) 
Heartbeat CPU  0 instructions:  203000000 cycles:  171086956 heartbeat IPC: 0.97456 cumulative IPC: 0.97819 (Simulation time: 0 hr 8 min 33 sec) 
Heartbeat CPU  0 instructions:  204000000 cycles:  172111369 heartbeat IPC: 0.97617 cumulative IPC: 0.97817 (Simulation time: 0 hr 8 min 36 sec) 
Heartbeat CPU  0 instructions:  205000003 cycles:  173130219 heartbeat IPC: 0.98150 cumulative IPC: 0.97820 (Simulation time: 0 hr 8 min 39 sec) 
Heartbeat CPU  0 instructions:  206000002 cycles:  174158339 heartbeat IPC: 0.97265 cumulative IPC: 0.97815 (Simulation time: 0 hr 8 min 42 sec) 
Heartbeat CPU  0 instructions:  207000000 cycles:  175175579 heartbeat IPC: 0.98305 cumulative IPC: 0.97819 (Simulation time: 0 hr 8 min 45 sec) 
Heartbeat CPU  0 instructions:  208000000 cycles:  176196681 heartbeat IPC: 0.97933 cumulative IPC: 0.97820 (Simulation time: 0 hr 8 min 47 sec) 
Heartbeat CPU  0 instructions:  209000002 cycles:  177217032 heartbeat IPC: 0.98006 cumulative IPC: 0.97822 (Simulation time: 0 hr 8 min 50 sec) 
Heartbeat CPU  0 instructions:  210000001 cycles:  178244942 heartbeat IPC: 0.97285 cumulative IPC: 0.97817 (Simulation time: 0 hr 8 min 53 sec) 
Heartbeat CPU  0 instructions:  211000000 cycles:  179258367 heartbeat IPC: 0.98675 cumulative IPC: 0.97825 (Simulation time: 0 hr 8 min 56 sec) 
Heartbeat CPU  0 instructions:  212000000 cycles:  180284242 heartbeat IPC: 0.97478 cumulative IPC: 0.97822 (Simulation time: 0 hr 8 min 59 sec) 
Heartbeat CPU  0 instructions:  213000001 cycles:  181305821 heartbeat IPC: 0.97888 cumulative IPC: 0.97822 (Simulation time: 0 hr 9 min 1 sec) 
Heartbeat CPU  0 instructions:  214000000 cycles:  182332028 heartbeat IPC: 0.97446 cumulative IPC: 0.97819 (Simulation time: 0 hr 9 min 4 sec) 
Heartbeat CPU  0 instructions:  215000002 cycles:  183348331 heartbeat IPC: 0.98396 cumulative IPC: 0.97824 (Simulation time: 0 hr 9 min 7 sec) 
Heartbeat CPU  0 instructions:  216000000 cycles:  184367859 heartbeat IPC: 0.98084 cumulative IPC: 0.97826 (Simulation time: 0 hr 9 min 10 sec) 
Heartbeat CPU  0 instructions:  217000001 cycles:  185392814 heartbeat IPC: 0.97565 cumulative IPC: 0.97824 (Simulation time: 0 hr 9 min 12 sec) 
Heartbeat CPU  0 instructions:  218000002 cycles:  186416854 heartbeat IPC: 0.97653 cumulative IPC: 0.97823 (Simulation time: 0 hr 9 min 15 sec) 
Heartbeat CPU  0 instructions:  219000001 cycles:  187435234 heartbeat IPC: 0.98195 cumulative IPC: 0.97826 (Simulation time: 0 hr 9 min 19 sec) 
Heartbeat CPU  0 instructions:  220000000 cycles:  188452449 heartbeat IPC: 0.98308 cumulative IPC: 0.97830 (Simulation time: 0 hr 9 min 21 sec) 
Heartbeat CPU  0 instructions:  221000001 cycles:  189472361 heartbeat IPC: 0.98048 cumulative IPC: 0.97831 (Simulation time: 0 hr 9 min 24 sec) 
Heartbeat CPU  0 instructions:  222000002 cycles:  190492931 heartbeat IPC: 0.97985 cumulative IPC: 0.97833 (Simulation time: 0 hr 9 min 27 sec) 
Heartbeat CPU  0 instructions:  223000000 cycles:  191509848 heartbeat IPC: 0.98336 cumulative IPC: 0.97837 (Simulation time: 0 hr 9 min 30 sec) 
Heartbeat CPU  0 instructions:  224000000 cycles:  192539097 heartbeat IPC: 0.97158 cumulative IPC: 0.97831 (Simulation time: 0 hr 9 min 33 sec) 
Heartbeat CPU  0 instructions:  225000002 cycles:  193556437 heartbeat IPC: 0.98296 cumulative IPC: 0.97835 (Simulation time: 0 hr 9 min 36 sec) 
Heartbeat CPU  0 instructions:  226000003 cycles:  194577100 heartbeat IPC: 0.97976 cumulative IPC: 0.97836 (Simulation time: 0 hr 9 min 38 sec) 
Heartbeat CPU  0 instructions:  227000002 cycles:  195596652 heartbeat IPC: 0.98082 cumulative IPC: 0.97838 (Simulation time: 0 hr 9 min 41 sec) 
Heartbeat CPU  0 instructions:  228000000 cycles:  196617565 heartbeat IPC: 0.97951 cumulative IPC: 0.97839 (Simulation time: 0 hr 9 min 44 sec) 
Heartbeat CPU  0 instructions:  229000000 cycles:  197636699 heartbeat IPC: 0.98123 cumulative IPC: 0.97841 (Simulation time: 0 hr 9 min 46 sec) 
Heartbeat CPU  0 instructions:  230000002 cycles:  198656931 heartbeat IPC: 0.98017 cumulative IPC: 0.97842 (Simulation time: 0 hr 9 min 49 sec) 
Heartbeat CPU  0 instructions:  231000001 cycles:  199671380 heartbeat IPC: 0.98576 cumulative IPC: 0.97848 (Simulation time: 0 hr 9 min 52 sec) 
Heartbeat CPU  0 instructions:  232000000 cycles:  200696317 heartbeat IPC: 0.97567 cumulative IPC: 0.97846 (Simulation time: 0 hr 9 min 55 sec) 
Heartbeat CPU  0 instructions:  233000000 cycles:  201724219 heartbeat IPC: 0.97286 cumulative IPC: 0.97842 (Simulation time: 0 hr 9 min 58 sec) 
Heartbeat CPU  0 instructions:  234000001 cycles:  202739809 heartbeat IPC: 0.98465 cumulative IPC: 0.97846 (Simulation time: 0 hr 10 min 1 sec) 
Heartbeat CPU  0 instructions:  235000001 cycles:  203762260 heartbeat IPC: 0.97804 cumulative IPC: 0.97846 (Simulation time: 0 hr 10 min 4 sec) 
Heartbeat CPU  0 instructions:  236000000 cycles:  204787883 heartbeat IPC: 0.97502 cumulative IPC: 0.97843 (Simulation time: 0 hr 10 min 7 sec) 
Heartbeat CPU  0 instructions:  237000000 cycles:  205809296 heartbeat IPC: 0.97904 cumulative IPC: 0.97844 (Simulation time: 0 hr 10 min 10 sec) 
Heartbeat CPU  0 instructions:  238000000 cycles:  206820303 heartbeat IPC: 0.98911 cumulative IPC: 0.97851 (Simulation time: 0 hr 10 min 12 sec) 
Heartbeat CPU  0 instructions:  239000001 cycles:  207846550 heartbeat IPC: 0.97443 cumulative IPC: 0.97849 (Simulation time: 0 hr 10 min 15 sec) 
Heartbeat CPU  0 instructions:  240000000 cycles:  208869688 heartbeat IPC: 0.97738 cumulative IPC: 0.97848 (Simulation time: 0 hr 10 min 18 sec) 
Heartbeat CPU  0 instructions:  241000000 cycles:  209885397 heartbeat IPC: 0.98453 cumulative IPC: 0.97852 (Simulation time: 0 hr 10 min 20 sec) 
Heartbeat CPU  0 instructions:  242000003 cycles:  210908128 heartbeat IPC: 0.97778 cumulative IPC: 0.97851 (Simulation time: 0 hr 10 min 23 sec) 
Heartbeat CPU  0 instructions:  243000000 cycles:  211924928 heartbeat IPC: 0.98347 cumulative IPC: 0.97855 (Simulation time: 0 hr 10 min 26 sec) 
Heartbeat CPU  0 instructions:  244000000 cycles:  212949638 heartbeat IPC: 0.97589 cumulative IPC: 0.97853 (Simulation time: 0 hr 10 min 29 sec) 
Heartbeat CPU  0 instructions:  245000001 cycles:  213969596 heartbeat IPC: 0.98043 cumulative IPC: 0.97854 (Simulation time: 0 hr 10 min 31 sec) 
Heartbeat CPU  0 instructions:  246000001 cycles:  214988550 heartbeat IPC: 0.98140 cumulative IPC: 0.97856 (Simulation time: 0 hr 10 min 34 sec) 
Heartbeat CPU  0 instructions:  247000001 cycles:  216011210 heartbeat IPC: 0.97784 cumulative IPC: 0.97856 (Simulation time: 0 hr 10 min 37 sec) 
Heartbeat CPU  0 instructions:  248000000 cycles:  217028327 heartbeat IPC: 0.98317 cumulative IPC: 0.97859 (Simulation time: 0 hr 10 min 40 sec) 
Heartbeat CPU  0 instructions:  249000003 cycles:  218049785 heartbeat IPC: 0.97900 cumulative IPC: 0.97859 (Simulation time: 0 hr 10 min 43 sec) 
Heartbeat CPU  0 instructions:  250000001 cycles:  219075741 heartbeat IPC: 0.97470 cumulative IPC: 0.97857 (Simulation time: 0 hr 10 min 45 sec) 
Heartbeat CPU  0 instructions:  251000000 cycles:  220094729 heartbeat IPC: 0.98136 cumulative IPC: 0.97858 (Simulation time: 0 hr 10 min 48 sec) 
Heartbeat CPU  0 instructions:  252000000 cycles:  221116288 heartbeat IPC: 0.97890 cumulative IPC: 0.97859 (Simulation time: 0 hr 10 min 50 sec) 
Heartbeat CPU  0 instructions:  253000000 cycles:  222136418 heartbeat IPC: 0.98027 cumulative IPC: 0.97860 (Simulation time: 0 hr 10 min 53 sec) 
Heartbeat CPU  0 instructions:  254000001 cycles:  223158254 heartbeat IPC: 0.97863 cumulative IPC: 0.97860 (Simulation time: 0 hr 10 min 56 sec) 
Heartbeat CPU  0 instructions:  255000000 cycles:  224182698 heartbeat IPC: 0.97614 cumulative IPC: 0.97858 (Simulation time: 0 hr 10 min 58 sec) 
Heartbeat CPU  0 instructions:  256000000 cycles:  225206627 heartbeat IPC: 0.97663 cumulative IPC: 0.97857 (Simulation time: 0 hr 11 min 1 sec) 
Heartbeat CPU  0 instructions:  257000000 cycles:  226226800 heartbeat IPC: 0.98023 cumulative IPC: 0.97858 (Simulation time: 0 hr 11 min 4 sec) 
Heartbeat CPU  0 instructions:  258000003 cycles:  227249924 heartbeat IPC: 0.97740 cumulative IPC: 0.97857 (Simulation time: 0 hr 11 min 6 sec) 
Heartbeat CPU  0 instructions:  259000002 cycles:  228269930 heartbeat IPC: 0.98039 cumulative IPC: 0.97858 (Simulation time: 0 hr 11 min 9 sec) 
Heartbeat CPU  0 instructions:  260000000 cycles:  229290973 heartbeat IPC: 0.97939 cumulative IPC: 0.97859 (Simulation time: 0 hr 11 min 12 sec) 
Heartbeat CPU  0 instructions:  261000003 cycles:  230307666 heartbeat IPC: 0.98358 cumulative IPC: 0.97862 (Simulation time: 0 hr 11 min 15 sec) 
Heartbeat CPU  0 instructions:  262000000 cycles:  231332429 heartbeat IPC: 0.97583 cumulative IPC: 0.97860 (Simulation time: 0 hr 11 min 17 sec) 
Heartbeat CPU  0 instructions:  263000000 cycles:  232357554 heartbeat IPC: 0.97549 cumulative IPC: 0.97858 (Simulation time: 0 hr 11 min 20 sec) 
Heartbeat CPU  0 instructions:  264000000 cycles:  233377228 heartbeat IPC: 0.98071 cumulative IPC: 0.97860 (Simulation time: 0 hr 11 min 22 sec) 
Heartbeat CPU  0 instructions:  265000001 cycles:  234396827 heartbeat IPC: 0.98078 cumulative IPC: 0.97861 (Simulation time: 0 hr 11 min 25 sec) 
Heartbeat CPU  0 instructions:  266000003 cycles:  235418035 heartbeat IPC: 0.97923 cumulative IPC: 0.97861 (Simulation time: 0 hr 11 min 28 sec) 
Heartbeat CPU  0 instructions:  267000003 cycles:  236438411 heartbeat IPC: 0.98003 cumulative IPC: 0.97862 (Simulation time: 0 hr 11 min 30 sec) 
Heartbeat CPU  0 instructions:  268000000 cycles:  237456448 heartbeat IPC: 0.98228 cumulative IPC: 0.97864 (Simulation time: 0 hr 11 min 33 sec) 
Heartbeat CPU  0 instructions:  269000000 cycles:  238479637 heartbeat IPC: 0.97734 cumulative IPC: 0.97864 (Simulation time: 0 hr 11 min 36 sec) 
Heartbeat CPU  0 instructions:  270000001 cycles:  239505610 heartbeat IPC: 0.97469 cumulative IPC: 0.97861 (Simulation time: 0 hr 11 min 38 sec) 
Heartbeat CPU  0 instructions:  271000001 cycles:  240533201 heartbeat IPC: 0.97315 cumulative IPC: 0.97858 (Simulation time: 0 hr 11 min 41 sec) 
Heartbeat CPU  0 instructions:  272000000 cycles:  241562861 heartbeat IPC: 0.97119 cumulative IPC: 0.97854 (Simulation time: 0 hr 11 min 44 sec) 
Heartbeat CPU  0 instructions:  273000003 cycles:  242576286 heartbeat IPC: 0.98676 cumulative IPC: 0.97858 (Simulation time: 0 hr 11 min 46 sec) 
Heartbeat CPU  0 instructions:  274000002 cycles:  243602225 heartbeat IPC: 0.97472 cumulative IPC: 0.97856 (Simulation time: 0 hr 11 min 49 sec) 
Heartbeat CPU  0 instructions:  275000000 cycles:  244625644 heartbeat IPC: 0.97711 cumulative IPC: 0.97855 (Simulation time: 0 hr 11 min 52 sec) 
Heartbeat CPU  0 instructions:  276000000 cycles:  245644160 heartbeat IPC: 0.98182 cumulative IPC: 0.97857 (Simulation time: 0 hr 11 min 55 sec) 
Heartbeat CPU  0 instructions:  277000002 cycles:  246674245 heartbeat IPC: 0.97080 cumulative IPC: 0.97853 (Simulation time: 0 hr 11 min 58 sec) 
Heartbeat CPU  0 instructions:  278000002 cycles:  247690741 heartbeat IPC: 0.98377 cumulative IPC: 0.97856 (Simulation time: 0 hr 12 min 1 sec) 
Heartbeat CPU  0 instructions:  279000001 cycles:  248718335 heartbeat IPC: 0.97315 cumulative IPC: 0.97853 (Simulation time: 0 hr 12 min 4 sec) 
Heartbeat CPU  0 instructions:  280000000 cycles:  249740509 heartbeat IPC: 0.97831 cumulative IPC: 0.97853 (Simulation time: 0 hr 12 min 6 sec) 
Heartbeat CPU  0 instructions:  281000000 cycles:  250767357 heartbeat IPC: 0.97385 cumulative IPC: 0.97850 (Simulation time: 0 hr 12 min 9 sec) 
Heartbeat CPU  0 instructions:  282000000 cycles:  251785263 heartbeat IPC: 0.98241 cumulative IPC: 0.97852 (Simulation time: 0 hr 12 min 12 sec) 
Heartbeat CPU  0 instructions:  283000003 cycles:  252804149 heartbeat IPC: 0.98147 cumulative IPC: 0.97854 (Simulation time: 0 hr 12 min 15 sec) 
Heartbeat CPU  0 instructions:  284000000 cycles:  253823734 heartbeat IPC: 0.98079 cumulative IPC: 0.97855 (Simulation time: 0 hr 12 min 17 sec) 
Heartbeat CPU  0 instructions:  285000000 cycles:  254845942 heartbeat IPC: 0.97827 cumulative IPC: 0.97855 (Simulation time: 0 hr 12 min 20 sec) 
Heartbeat CPU  0 instructions:  286000002 cycles:  255870613 heartbeat IPC: 0.97592 cumulative IPC: 0.97853 (Simulation time: 0 hr 12 min 23 sec) 
Heartbeat CPU  0 instructions:  287000000 cycles:  256893382 heartbeat IPC: 0.97774 cumulative IPC: 0.97853 (Simulation time: 0 hr 12 min 25 sec) 
Heartbeat CPU  0 instructions:  288000000 cycles:  257912844 heartbeat IPC: 0.98091 cumulative IPC: 0.97854 (Simulation time: 0 hr 12 min 28 sec) 
Heartbeat CPU  0 instructions:  289000001 cycles:  258940605 heartbeat IPC: 0.97299 cumulative IPC: 0.97851 (Simulation time: 0 hr 12 min 31 sec) 
Heartbeat CPU  0 instructions:  290000002 cycles:  259959395 heartbeat IPC: 0.98156 cumulative IPC: 0.97853 (Simulation time: 0 hr 12 min 34 sec) 
Heartbeat CPU  0 instructions:  291000002 cycles:  260987108 heartbeat IPC: 0.97303 cumulative IPC: 0.97850 (Simulation time: 0 hr 12 min 37 sec) 
Heartbeat CPU  0 instructions:  292000000 cycles:  262007443 heartbeat IPC: 0.98007 cumulative IPC: 0.97851 (Simulation time: 0 hr 12 min 40 sec) 
Heartbeat CPU  0 instructions:  293000001 cycles:  263023451 heartbeat IPC: 0.98425 cumulative IPC: 0.97854 (Simulation time: 0 hr 12 min 43 sec) 
Heartbeat CPU  0 instructions:  294000000 cycles:  264048109 heartbeat IPC: 0.97593 cumulative IPC: 0.97852 (Simulation time: 0 hr 12 min 46 sec) 
Heartbeat CPU  0 instructions:  295000003 cycles:  265071829 heartbeat IPC: 0.97683 cumulative IPC: 0.97851 (Simulation time: 0 hr 12 min 49 sec) 
Heartbeat CPU  0 instructions:  296000000 cycles:  266088504 heartbeat IPC: 0.98360 cumulative IPC: 0.97854 (Simulation time: 0 hr 12 min 52 sec) 
Heartbeat CPU  0 instructions:  297000001 cycles:  267107765 heartbeat IPC: 0.98110 cumulative IPC: 0.97855 (Simulation time: 0 hr 12 min 55 sec) 
Heartbeat CPU  0 instructions:  298000001 cycles:  268124991 heartbeat IPC: 0.98307 cumulative IPC: 0.97858 (Simulation time: 0 hr 12 min 57 sec) 
Heartbeat CPU  0 instructions:  299000000 cycles:  269140846 heartbeat IPC: 0.98439 cumulative IPC: 0.97861 (Simulation time: 0 hr 13 min 0 sec) 
Heartbeat CPU  0 instructions:  300000000 cycles:  270161836 heartbeat IPC: 0.97944 cumulative IPC: 0.97861 (Simulation time: 0 hr 13 min 3 sec) 
Heartbeat CPU  0 instructions:  301000000 cycles:  271180995 heartbeat IPC: 0.98120 cumulative IPC: 0.97862 (Simulation time: 0 hr 13 min 6 sec) 
Heartbeat CPU  0 instructions:  302000002 cycles:  272201695 heartbeat IPC: 0.97972 cumulative IPC: 0.97863 (Simulation time: 0 hr 13 min 8 sec) 
Heartbeat CPU  0 instructions:  303000000 cycles:  273219406 heartbeat IPC: 0.98260 cumulative IPC: 0.97865 (Simulation time: 0 hr 13 min 11 sec) 
Heartbeat CPU  0 instructions:  304000000 cycles:  274242842 heartbeat IPC: 0.97710 cumulative IPC: 0.97864 (Simulation time: 0 hr 13 min 13 sec) 
Heartbeat CPU  0 instructions:  305000001 cycles:  275263475 heartbeat IPC: 0.97979 cumulative IPC: 0.97865 (Simulation time: 0 hr 13 min 16 sec) 
Heartbeat CPU  0 instructions:  306000001 cycles:  276295166 heartbeat IPC: 0.96928 cumulative IPC: 0.97860 (Simulation time: 0 hr 13 min 18 sec) 
Heartbeat CPU  0 instructions:  307000002 cycles:  277315935 heartbeat IPC: 0.97965 cumulative IPC: 0.97860 (Simulation time: 0 hr 13 min 21 sec) 
Heartbeat CPU  0 instructions:  308000000 cycles:  278336285 heartbeat IPC: 0.98005 cumulative IPC: 0.97861 (Simulation time: 0 hr 13 min 24 sec) 
Heartbeat CPU  0 instructions:  309000002 cycles:  279360353 heartbeat IPC: 0.97650 cumulative IPC: 0.97860 (Simulation time: 0 hr 13 min 26 sec) 
Heartbeat CPU  0 instructions:  310000000 cycles:  280381251 heartbeat IPC: 0.97953 cumulative IPC: 0.97861 (Simulation time: 0 hr 13 min 29 sec) 
Heartbeat CPU  0 instructions:  311000002 cycles:  281395430 heartbeat IPC: 0.98602 cumulative IPC: 0.97864 (Simulation time: 0 hr 13 min 32 sec) 
Heartbeat CPU  0 instructions:  312000000 cycles:  282426595 heartbeat IPC: 0.96977 cumulative IPC: 0.97860 (Simulation time: 0 hr 13 min 34 sec) 
Heartbeat CPU  0 instructions:  313000003 cycles:  283455588 heartbeat IPC: 0.97183 cumulative IPC: 0.97857 (Simulation time: 0 hr 13 min 37 sec) 
Heartbeat CPU  0 instructions:  314000002 cycles:  284475165 heartbeat IPC: 0.98080 cumulative IPC: 0.97858 (Simulation time: 0 hr 13 min 39 sec) 
Heartbeat CPU  0 instructions:  315000000 cycles:  285503073 heartbeat IPC: 0.97285 cumulative IPC: 0.97855 (Simulation time: 0 hr 13 min 42 sec) 
Heartbeat CPU  0 instructions:  316000000 cycles:  286519710 heartbeat IPC: 0.98364 cumulative IPC: 0.97857 (Simulation time: 0 hr 13 min 45 sec) 
Heartbeat CPU  0 instructions:  317000001 cycles:  287548694 heartbeat IPC: 0.97183 cumulative IPC: 0.97854 (Simulation time: 0 hr 13 min 48 sec) 
Heartbeat CPU  0 instructions:  318000001 cycles:  288573740 heartbeat IPC: 0.97557 cumulative IPC: 0.97853 (Simulation time: 0 hr 13 min 50 sec) 
Heartbeat CPU  0 instructions:  319000000 cycles:  289596773 heartbeat IPC: 0.97748 cumulative IPC: 0.97852 (Simulation time: 0 hr 13 min 53 sec) 
Heartbeat CPU  0 instructions:  320000000 cycles:  290616362 heartbeat IPC: 0.98079 cumulative IPC: 0.97853 (Simulation time: 0 hr 13 min 56 sec) 
Heartbeat CPU  0 instructions:  321000000 cycles:  291636882 heartbeat IPC: 0.97989 cumulative IPC: 0.97854 (Simulation time: 0 hr 13 min 58 sec) 
Heartbeat CPU  0 instructions:  322000000 cycles:  292652344 heartbeat IPC: 0.98477 cumulative IPC: 0.97857 (Simulation time: 0 hr 14 min 1 sec) 
Heartbeat CPU  0 instructions:  323000002 cycles:  293676298 heartbeat IPC: 0.97661 cumulative IPC: 0.97856 (Simulation time: 0 hr 14 min 3 sec) 
Heartbeat CPU  0 instructions:  324000000 cycles:  294696231 heartbeat IPC: 0.98045 cumulative IPC: 0.97857 (Simulation time: 0 hr 14 min 6 sec) 
Heartbeat CPU  0 instructions:  325000002 cycles:  295721325 heartbeat IPC: 0.97552 cumulative IPC: 0.97855 (Simulation time: 0 hr 14 min 9 sec) 
Heartbeat CPU  0 instructions:  326000001 cycles:  296742957 heartbeat IPC: 0.97883 cumulative IPC: 0.97856 (Simulation time: 0 hr 14 min 11 sec) 
Heartbeat CPU  0 instructions:  327000000 cycles:  297768081 heartbeat IPC: 0.97549 cumulative IPC: 0.97854 (Simulation time: 0 hr 14 min 14 sec) 
Heartbeat CPU  0 instructions:  328000000 cycles:  298792301 heartbeat IPC: 0.97635 cumulative IPC: 0.97853 (Simulation time: 0 hr 14 min 17 sec) 
Heartbeat CPU  0 instructions:  329000003 cycles:  299809188 heartbeat IPC: 0.98340 cumulative IPC: 0.97855 (Simulation time: 0 hr 14 min 19 sec) 
Heartbeat CPU  0 instructions:  330000000 cycles:  300827460 heartbeat IPC: 0.98205 cumulative IPC: 0.97857 (Simulation time: 0 hr 14 min 22 sec) 
Heartbeat CPU  0 instructions:  331000000 cycles:  301849594 heartbeat IPC: 0.97835 cumulative IPC: 0.97857 (Simulation time: 0 hr 14 min 25 sec) 
Heartbeat CPU  0 instructions:  332000000 cycles:  302869395 heartbeat IPC: 0.98058 cumulative IPC: 0.97858 (Simulation time: 0 hr 14 min 28 sec) 
Heartbeat CPU  0 instructions:  333000002 cycles:  303892129 heartbeat IPC: 0.97777 cumulative IPC: 0.97857 (Simulation time: 0 hr 14 min 31 sec) 
Heartbeat CPU  0 instructions:  334000003 cycles:  304910631 heartbeat IPC: 0.98184 cumulative IPC: 0.97859 (Simulation time: 0 hr 14 min 34 sec) 
Heartbeat CPU  0 instructions:  335000000 cycles:  305931260 heartbeat IPC: 0.97979 cumulative IPC: 0.97859 (Simulation time: 0 hr 14 min 37 sec) 
Heartbeat CPU  0 instructions:  336000000 cycles:  306954274 heartbeat IPC: 0.97750 cumulative IPC: 0.97859 (Simulation time: 0 hr 14 min 39 sec) 
Heartbeat CPU  0 instructions:  337000001 cycles:  307980510 heartbeat IPC: 0.97444 cumulative IPC: 0.97857 (Simulation time: 0 hr 14 min 42 sec) 
Heartbeat CPU  0 instructions:  338000003 cycles:  309004189 heartbeat IPC: 0.97687 cumulative IPC: 0.97856 (Simulation time: 0 hr 14 min 45 sec) 
Heartbeat CPU  0 instructions:  339000001 cycles:  310024970 heartbeat IPC: 0.97964 cumulative IPC: 0.97857 (Simulation time: 0 hr 14 min 48 sec) 
Heartbeat CPU  0 instructions:  340000000 cycles:  311046291 heartbeat IPC: 0.97912 cumulative IPC: 0.97857 (Simulation time: 0 hr 14 min 51 sec) 
Heartbeat CPU  0 instructions:  341000001 cycles:  312066791 heartbeat IPC: 0.97991 cumulative IPC: 0.97857 (Simulation time: 0 hr 14 min 53 sec) 
Heartbeat CPU  0 instructions:  342000003 cycles:  313083238 heartbeat IPC: 0.98382 cumulative IPC: 0.97860 (Simulation time: 0 hr 14 min 56 sec) 
Heartbeat CPU  0 instructions:  343000002 cycles:  314107456 heartbeat IPC: 0.97635 cumulative IPC: 0.97859 (Simulation time: 0 hr 14 min 59 sec) 
Heartbeat CPU  0 instructions:  344000000 cycles:  315122120 heartbeat IPC: 0.98555 cumulative IPC: 0.97862 (Simulation time: 0 hr 15 min 2 sec) 
Heartbeat CPU  0 instructions:  345000001 cycles:  316329720 heartbeat IPC: 0.82809 cumulative IPC: 0.97789 (Simulation time: 0 hr 15 min 4 sec) 
Heartbeat CPU  0 instructions:  346000001 cycles:  317103688 heartbeat IPC: 1.29204 cumulative IPC: 0.97886 (Simulation time: 0 hr 15 min 6 sec) 
Heartbeat CPU  0 instructions:  347000001 cycles:  317877998 heartbeat IPC: 1.29147 cumulative IPC: 0.97982 (Simulation time: 0 hr 15 min 8 sec) 
Heartbeat CPU  0 instructions:  348000000 cycles:  318652511 heartbeat IPC: 1.29113 cumulative IPC: 0.98077 (Simulation time: 0 hr 15 min 10 sec) 
Heartbeat CPU  0 instructions:  349000002 cycles:  319426613 heartbeat IPC: 1.29182 cumulative IPC: 0.98172 (Simulation time: 0 hr 15 min 12 sec) 
Heartbeat CPU  0 instructions:  350000002 cycles:  320200902 heartbeat IPC: 1.29151 cumulative IPC: 0.98266 (Simulation time: 0 hr 15 min 13 sec) 
Heartbeat CPU  0 instructions:  351000001 cycles:  320975587 heartbeat IPC: 1.29085 cumulative IPC: 0.98360 (Simulation time: 0 hr 15 min 15 sec) 
Heartbeat CPU  0 instructions:  352000000 cycles:  321749742 heartbeat IPC: 1.29173 cumulative IPC: 0.98453 (Simulation time: 0 hr 15 min 17 sec) 
Heartbeat CPU  0 instructions:  353000003 cycles:  322523708 heartbeat IPC: 1.29205 cumulative IPC: 0.98546 (Simulation time: 0 hr 15 min 19 sec) 
Heartbeat CPU  0 instructions:  354000000 cycles:  323298258 heartbeat IPC: 1.29107 cumulative IPC: 0.98638 (Simulation time: 0 hr 15 min 20 sec) 
Heartbeat CPU  0 instructions:  355000002 cycles:  324072948 heartbeat IPC: 1.29084 cumulative IPC: 0.98729 (Simulation time: 0 hr 15 min 22 sec) 
Heartbeat CPU  0 instructions:  356000000 cycles:  324847851 heartbeat IPC: 1.29048 cumulative IPC: 0.98820 (Simulation time: 0 hr 15 min 24 sec) 
Heartbeat CPU  0 instructions:  357000003 cycles:  325629295 heartbeat IPC: 1.27969 cumulative IPC: 0.98907 (Simulation time: 0 hr 15 min 26 sec) 
Heartbeat CPU  0 instructions:  358000003 cycles:  326413164 heartbeat IPC: 1.27572 cumulative IPC: 0.98994 (Simulation time: 0 hr 15 min 28 sec) 
Heartbeat CPU  0 instructions:  359000003 cycles:  327218871 heartbeat IPC: 1.24115 cumulative IPC: 0.99071 (Simulation time: 0 hr 15 min 30 sec) 
Heartbeat CPU  0 instructions:  360000000 cycles:  327909950 heartbeat IPC: 1.44701 cumulative IPC: 0.99191 (Simulation time: 0 hr 15 min 32 sec) 
Heartbeat CPU  0 instructions:  361000003 cycles:  328645411 heartbeat IPC: 1.35970 cumulative IPC: 0.99294 (Simulation time: 0 hr 15 min 34 sec) 
Heartbeat CPU  0 instructions:  362000003 cycles:  329386909 heartbeat IPC: 1.34862 cumulative IPC: 0.99394 (Simulation time: 0 hr 15 min 36 sec) 
Heartbeat CPU  0 instructions:  363000000 cycles:  330118105 heartbeat IPC: 1.36762 cumulative IPC: 0.99498 (Simulation time: 0 hr 15 min 38 sec) 
Heartbeat CPU  0 instructions:  364000000 cycles:  330870661 heartbeat IPC: 1.32880 cumulative IPC: 0.99592 (Simulation time: 0 hr 15 min 40 sec) 
Heartbeat CPU  0 instructions:  365000000 cycles:  331612376 heartbeat IPC: 1.34823 cumulative IPC: 0.99691 (Simulation time: 0 hr 15 min 42 sec) 
Heartbeat CPU  0 instructions:  366000003 cycles:  332348894 heartbeat IPC: 1.35774 cumulative IPC: 0.99790 (Simulation time: 0 hr 15 min 44 sec) 
Heartbeat CPU  0 instructions:  367000003 cycles:  333091562 heartbeat IPC: 1.34650 cumulative IPC: 0.99887 (Simulation time: 0 hr 15 min 46 sec) 
Heartbeat CPU  0 instructions:  368000000 cycles:  333826305 heartbeat IPC: 1.36102 cumulative IPC: 0.99987 (Simulation time: 0 hr 15 min 48 sec) 
Heartbeat CPU  0 instructions:  369000002 cycles:  334566561 heartbeat IPC: 1.35089 cumulative IPC: 1.00083 (Simulation time: 0 hr 15 min 50 sec) 
Heartbeat CPU  0 instructions:  370000002 cycles:  335312189 heartbeat IPC: 1.34115 cumulative IPC: 1.00177 (Simulation time: 0 hr 15 min 52 sec) 
Heartbeat CPU  0 instructions:  371000000 cycles:  336049869 heartbeat IPC: 1.35560 cumulative IPC: 1.00274 (Simulation time: 0 hr 15 min 54 sec) 
Heartbeat CPU  0 instructions:  372000000 cycles:  336784922 heartbeat IPC: 1.36045 cumulative IPC: 1.00371 (Simulation time: 0 hr 15 min 56 sec) 
Heartbeat CPU  0 instructions:  373000003 cycles:  337534513 heartbeat IPC: 1.33406 cumulative IPC: 1.00462 (Simulation time: 0 hr 15 min 59 sec) 
Heartbeat CPU  0 instructions:  374000003 cycles:  338281464 heartbeat IPC: 1.33878 cumulative IPC: 1.00554 (Simulation time: 0 hr 16 min 1 sec) 
Heartbeat CPU  0 instructions:  375000000 cycles:  339014874 heartbeat IPC: 1.36349 cumulative IPC: 1.00650 (Simulation time: 0 hr 16 min 3 sec) 
Heartbeat CPU  0 instructions:  376000000 cycles:  339745653 heartbeat IPC: 1.36840 cumulative IPC: 1.00746 (Simulation time: 0 hr 16 min 5 sec) 
Heartbeat CPU  0 instructions:  377000001 cycles:  340813780 heartbeat IPC: 0.93622 cumulative IPC: 1.00719 (Simulation time: 0 hr 16 min 8 sec) 
Heartbeat CPU  0 instructions:  378000001 cycles:  341834697 heartbeat IPC: 0.97951 cumulative IPC: 1.00708 (Simulation time: 0 hr 16 min 11 sec) 
Heartbeat CPU  0 instructions:  379000000 cycles:  342839053 heartbeat IPC: 0.99566 cumulative IPC: 1.00704 (Simulation time: 0 hr 16 min 14 sec) 
Heartbeat CPU  0 instructions:  380000000 cycles:  343844259 heartbeat IPC: 0.99482 cumulative IPC: 1.00700 (Simulation time: 0 hr 16 min 16 sec) 
Heartbeat CPU  0 instructions:  381000003 cycles:  344852313 heartbeat IPC: 0.99201 cumulative IPC: 1.00694 (Simulation time: 0 hr 16 min 19 sec) 
Heartbeat CPU  0 instructions:  382000000 cycles:  345860058 heartbeat IPC: 0.99231 cumulative IPC: 1.00689 (Simulation time: 0 hr 16 min 22 sec) 
Heartbeat CPU  0 instructions:  383000000 cycles:  346881889 heartbeat IPC: 0.97864 cumulative IPC: 1.00679 (Simulation time: 0 hr 16 min 25 sec) 
Heartbeat CPU  0 instructions:  384000000 cycles:  347897267 heartbeat IPC: 0.98485 cumulative IPC: 1.00671 (Simulation time: 0 hr 16 min 27 sec) 
Heartbeat CPU  0 instructions:  385000000 cycles:  348912666 heartbeat IPC: 0.98483 cumulative IPC: 1.00663 (Simulation time: 0 hr 16 min 30 sec) 
Heartbeat CPU  0 instructions:  386000000 cycles:  349930663 heartbeat IPC: 0.98232 cumulative IPC: 1.00654 (Simulation time: 0 hr 16 min 33 sec) 
Heartbeat CPU  0 instructions:  387000003 cycles:  350948784 heartbeat IPC: 0.98220 cumulative IPC: 1.00646 (Simulation time: 0 hr 16 min 36 sec) 
Heartbeat CPU  0 instructions:  388000000 cycles:  351969917 heartbeat IPC: 0.97930 cumulative IPC: 1.00636 (Simulation time: 0 hr 16 min 39 sec) 
Heartbeat CPU  0 instructions:  389000000 cycles:  352984745 heartbeat IPC: 0.98539 cumulative IPC: 1.00629 (Simulation time: 0 hr 16 min 42 sec) 
Heartbeat CPU  0 instructions:  390000000 cycles:  354004971 heartbeat IPC: 0.98017 cumulative IPC: 1.00619 (Simulation time: 0 hr 16 min 45 sec) 
Heartbeat CPU  0 instructions:  391000001 cycles:  355024894 heartbeat IPC: 0.98047 cumulative IPC: 1.00610 (Simulation time: 0 hr 16 min 48 sec) 
Heartbeat CPU  0 instructions:  392000000 cycles:  356035959 heartbeat IPC: 0.98906 cumulative IPC: 1.00604 (Simulation time: 0 hr 16 min 51 sec) 
Heartbeat CPU  0 instructions:  393000000 cycles:  357052926 heartbeat IPC: 0.98332 cumulative IPC: 1.00596 (Simulation time: 0 hr 16 min 53 sec) 
Heartbeat CPU  0 instructions:  394000000 cycles:  358072891 heartbeat IPC: 0.98043 cumulative IPC: 1.00588 (Simulation time: 0 hr 16 min 56 sec) 
Heartbeat CPU  0 instructions:  395000000 cycles:  359098821 heartbeat IPC: 0.97473 cumulative IPC: 1.00577 (Simulation time: 0 hr 16 min 59 sec) 
Heartbeat CPU  0 instructions:  396000000 cycles:  360115291 heartbeat IPC: 0.98380 cumulative IPC: 1.00569 (Simulation time: 0 hr 17 min 2 sec) 
Heartbeat CPU  0 instructions:  397000001 cycles:  361135454 heartbeat IPC: 0.98024 cumulative IPC: 1.00560 (Simulation time: 0 hr 17 min 4 sec) 
Heartbeat CPU  0 instructions:  398000000 cycles:  362159015 heartbeat IPC: 0.97698 cumulative IPC: 1.00550 (Simulation time: 0 hr 17 min 7 sec) 
Heartbeat CPU  0 instructions:  399000000 cycles:  363176746 heartbeat IPC: 0.98258 cumulative IPC: 1.00543 (Simulation time: 0 hr 17 min 10 sec) 
Heartbeat CPU  0 instructions:  400000000 cycles:  364192431 heartbeat IPC: 0.98456 cumulative IPC: 1.00535 (Simulation time: 0 hr 17 min 12 sec) 
Heartbeat CPU  0 instructions:  401000003 cycles:  365216344 heartbeat IPC: 0.97665 cumulative IPC: 1.00526 (Simulation time: 0 hr 17 min 15 sec) 
Heartbeat CPU  0 instructions:  402000003 cycles:  366236176 heartbeat IPC: 0.98055 cumulative IPC: 1.00517 (Simulation time: 0 hr 17 min 18 sec) 
Heartbeat CPU  0 instructions:  403000000 cycles:  367262838 heartbeat IPC: 0.97403 cumulative IPC: 1.00507 (Simulation time: 0 hr 17 min 20 sec) 
Heartbeat CPU  0 instructions:  404000000 cycles:  368282982 heartbeat IPC: 0.98025 cumulative IPC: 1.00498 (Simulation time: 0 hr 17 min 23 sec) 
Heartbeat CPU  0 instructions:  405000000 cycles:  369306557 heartbeat IPC: 0.97697 cumulative IPC: 1.00489 (Simulation time: 0 hr 17 min 25 sec) 
Heartbeat CPU  0 instructions:  406000000 cycles:  370323747 heartbeat IPC: 0.98310 cumulative IPC: 1.00482 (Simulation time: 0 hr 17 min 28 sec) 
Heartbeat CPU  0 instructions:  407000002 cycles:  371353826 heartbeat IPC: 0.97080 cumulative IPC: 1.00470 (Simulation time: 0 hr 17 min 31 sec) 
Heartbeat CPU  0 instructions:  408000000 cycles:  372374219 heartbeat IPC: 0.98001 cumulative IPC: 1.00462 (Simulation time: 0 hr 17 min 33 sec) 
Heartbeat CPU  0 instructions:  409000002 cycles:  373401606 heartbeat IPC: 0.97334 cumulative IPC: 1.00451 (Simulation time: 0 hr 17 min 36 sec) 
Heartbeat CPU  0 instructions:  410000001 cycles:  374426722 heartbeat IPC: 0.97550 cumulative IPC: 1.00442 (Simulation time: 0 hr 17 min 39 sec) 
Heartbeat CPU  0 instructions:  411000000 cycles:  375442305 heartbeat IPC: 0.98466 cumulative IPC: 1.00435 (Simulation time: 0 hr 17 min 42 sec) 
Heartbeat CPU  0 instructions:  412000000 cycles:  376468481 heartbeat IPC: 0.97449 cumulative IPC: 1.00425 (Simulation time: 0 hr 17 min 44 sec) 
Heartbeat CPU  0 instructions:  413000001 cycles:  377486827 heartbeat IPC: 0.98199 cumulative IPC: 1.00418 (Simulation time: 0 hr 17 min 47 sec) 
Heartbeat CPU  0 instructions:  414000000 cycles:  378501718 heartbeat IPC: 0.98533 cumulative IPC: 1.00412 (Simulation time: 0 hr 17 min 49 sec) 
Heartbeat CPU  0 instructions:  415000002 cycles:  379520977 heartbeat IPC: 0.98111 cumulative IPC: 1.00405 (Simulation time: 0 hr 17 min 52 sec) 
Heartbeat CPU  0 instructions:  416000000 cycles:  380547325 heartbeat IPC: 0.97433 cumulative IPC: 1.00395 (Simulation time: 0 hr 17 min 54 sec) 
Heartbeat CPU  0 instructions:  417000000 cycles:  381568748 heartbeat IPC: 0.97903 cumulative IPC: 1.00387 (Simulation time: 0 hr 17 min 57 sec) 
Heartbeat CPU  0 instructions:  418000002 cycles:  382586651 heartbeat IPC: 0.98241 cumulative IPC: 1.00380 (Simulation time: 0 hr 18 min 0 sec) 
Heartbeat CPU  0 instructions:  419000002 cycles:  383608668 heartbeat IPC: 0.97846 cumulative IPC: 1.00372 (Simulation time: 0 hr 18 min 2 sec) 
Heartbeat CPU  0 instructions:  420000000 cycles:  384628880 heartbeat IPC: 0.98019 cumulative IPC: 1.00364 (Simulation time: 0 hr 18 min 5 sec) 
Heartbeat CPU  0 instructions:  421000001 cycles:  385638635 heartbeat IPC: 0.99034 cumulative IPC: 1.00360 (Simulation time: 0 hr 18 min 8 sec) 
Heartbeat CPU  0 instructions:  422000001 cycles:  386663157 heartbeat IPC: 0.97606 cumulative IPC: 1.00351 (Simulation time: 0 hr 18 min 11 sec) 
Heartbeat CPU  0 instructions:  423000000 cycles:  387675331 heartbeat IPC: 0.98797 cumulative IPC: 1.00346 (Simulation time: 0 hr 18 min 13 sec) 
Heartbeat CPU  0 instructions:  424000000 cycles:  388693143 heartbeat IPC: 0.98250 cumulative IPC: 1.00340 (Simulation time: 0 hr 18 min 16 sec) 
Heartbeat CPU  0 instructions:  425000002 cycles:  389712982 heartbeat IPC: 0.98055 cumulative IPC: 1.00333 (Simulation time: 0 hr 18 min 19 sec) 
Heartbeat CPU  0 instructions:  426000003 cycles:  390734338 heartbeat IPC: 0.97909 cumulative IPC: 1.00325 (Simulation time: 0 hr 18 min 22 sec) 
Heartbeat CPU  0 instructions:  427000002 cycles:  391750691 heartbeat IPC: 0.98391 cumulative IPC: 1.00319 (Simulation time: 0 hr 18 min 24 sec) 
Heartbeat CPU  0 instructions:  428000000 cycles:  392766040 heartbeat IPC: 0.98488 cumulative IPC: 1.00313 (Simulation time: 0 hr 18 min 27 sec) 
Heartbeat CPU  0 instructions:  429000000 cycles:  393785048 heartbeat IPC: 0.98135 cumulative IPC: 1.00306 (Simulation time: 0 hr 18 min 30 sec) 
Heartbeat CPU  0 instructions:  430000002 cycles:  394805164 heartbeat IPC: 0.98028 cumulative IPC: 1.00299 (Simulation time: 0 hr 18 min 32 sec) 
Heartbeat CPU  0 instructions:  431000001 cycles:  395824959 heartbeat IPC: 0.98059 cumulative IPC: 1.00292 (Simulation time: 0 hr 18 min 35 sec) 
Heartbeat CPU  0 instructions:  432000000 cycles:  396838801 heartbeat IPC: 0.98635 cumulative IPC: 1.00287 (Simulation time: 0 hr 18 min 38 sec) 
Heartbeat CPU  0 instructions:  433000002 cycles:  397857739 heartbeat IPC: 0.98142 cumulative IPC: 1.00281 (Simulation time: 0 hr 18 min 40 sec) 
Heartbeat CPU  0 instructions:  434000003 cycles:  398877915 heartbeat IPC: 0.98022 cumulative IPC: 1.00274 (Simulation time: 0 hr 18 min 42 sec) 
Heartbeat CPU  0 instructions:  435000001 cycles:  399900874 heartbeat IPC: 0.97755 cumulative IPC: 1.00266 (Simulation time: 0 hr 18 min 45 sec) 
Heartbeat CPU  0 instructions:  436000000 cycles:  400918419 heartbeat IPC: 0.98276 cumulative IPC: 1.00260 (Simulation time: 0 hr 18 min 47 sec) 
Heartbeat CPU  0 instructions:  437000001 cycles:  401941310 heartbeat IPC: 0.97762 cumulative IPC: 1.00253 (Simulation time: 0 hr 18 min 50 sec) 
Heartbeat CPU  0 instructions:  438000001 cycles:  402958330 heartbeat IPC: 0.98326 cumulative IPC: 1.00247 (Simulation time: 0 hr 18 min 53 sec) 
Heartbeat CPU  0 instructions:  439000001 cycles:  403971014 heartbeat IPC: 0.98747 cumulative IPC: 1.00242 (Simulation time: 0 hr 18 min 55 sec) 
Heartbeat CPU  0 instructions:  440000000 cycles:  404992553 heartbeat IPC: 0.97891 cumulative IPC: 1.00235 (Simulation time: 0 hr 18 min 58 sec) 
Heartbeat CPU  0 instructions:  441000000 cycles:  406012601 heartbeat IPC: 0.98035 cumulative IPC: 1.00229 (Simulation time: 0 hr 19 min 0 sec) 
Heartbeat CPU  0 instructions:  442000001 cycles:  407034498 heartbeat IPC: 0.97857 cumulative IPC: 1.00221 (Simulation time: 0 hr 19 min 3 sec) 
Heartbeat CPU  0 instructions:  443000001 cycles:  408061891 heartbeat IPC: 0.97334 cumulative IPC: 1.00213 (Simulation time: 0 hr 19 min 5 sec) 
Heartbeat CPU  0 instructions:  444000000 cycles:  409080683 heartbeat IPC: 0.98155 cumulative IPC: 1.00207 (Simulation time: 0 hr 19 min 8 sec) 
Heartbeat CPU  0 instructions:  445000000 cycles:  410111000 heartbeat IPC: 0.97058 cumulative IPC: 1.00197 (Simulation time: 0 hr 19 min 11 sec) 
Heartbeat CPU  0 instructions:  446000002 cycles:  411125278 heartbeat IPC: 0.98592 cumulative IPC: 1.00193 (Simulation time: 0 hr 19 min 13 sec) 
Heartbeat CPU  0 instructions:  447000000 cycles:  412149428 heartbeat IPC: 0.97642 cumulative IPC: 1.00185 (Simulation time: 0 hr 19 min 16 sec) 
Heartbeat CPU  0 instructions:  448000000 cycles:  413163899 heartbeat IPC: 0.98574 cumulative IPC: 1.00180 (Simulation time: 0 hr 19 min 18 sec) 
Heartbeat CPU  0 instructions:  449000001 cycles:  414189904 heartbeat IPC: 0.97466 cumulative IPC: 1.00172 (Simulation time: 0 hr 19 min 21 sec) 
Heartbeat CPU  0 instructions:  450000001 cycles:  415207540 heartbeat IPC: 0.98267 cumulative IPC: 1.00167 (Simulation time: 0 hr 19 min 23 sec) 
Heartbeat CPU  0 instructions:  451000002 cycles:  416220007 heartbeat IPC: 0.98769 cumulative IPC: 1.00163 (Simulation time: 0 hr 19 min 26 sec) 
Heartbeat CPU  0 instructions:  452000000 cycles:  417240078 heartbeat IPC: 0.98032 cumulative IPC: 1.00157 (Simulation time: 0 hr 19 min 29 sec) 
Heartbeat CPU  0 instructions:  453000001 cycles:  418264922 heartbeat IPC: 0.97576 cumulative IPC: 1.00149 (Simulation time: 0 hr 19 min 32 sec) 
Heartbeat CPU  0 instructions:  454000000 cycles:  419283202 heartbeat IPC: 0.98205 cumulative IPC: 1.00143 (Simulation time: 0 hr 19 min 35 sec) 
Heartbeat CPU  0 instructions:  455000003 cycles:  420296738 heartbeat IPC: 0.98665 cumulative IPC: 1.00139 (Simulation time: 0 hr 19 min 37 sec) 
Heartbeat CPU  0 instructions:  456000000 cycles:  421317379 heartbeat IPC: 0.97977 cumulative IPC: 1.00133 (Simulation time: 0 hr 19 min 40 sec) 
Heartbeat CPU  0 instructions:  457000000 cycles:  422337613 heartbeat IPC: 0.98017 cumulative IPC: 1.00127 (Simulation time: 0 hr 19 min 43 sec) 
Heartbeat CPU  0 instructions:  458000003 cycles:  423362358 heartbeat IPC: 0.97586 cumulative IPC: 1.00120 (Simulation time: 0 hr 19 min 46 sec) 
Heartbeat CPU  0 instructions:  459000002 cycles:  424382931 heartbeat IPC: 0.97984 cumulative IPC: 1.00114 (Simulation time: 0 hr 19 min 49 sec) 
Heartbeat CPU  0 instructions:  460000000 cycles:  425406303 heartbeat IPC: 0.97716 cumulative IPC: 1.00107 (Simulation time: 0 hr 19 min 52 sec) 
Heartbeat CPU  0 instructions:  461000000 cycles:  426425312 heartbeat IPC: 0.98135 cumulative IPC: 1.00101 (Simulation time: 0 hr 19 min 55 sec) 
Heartbeat CPU  0 instructions:  462000000 cycles:  427449953 heartbeat IPC: 0.97595 cumulative IPC: 1.00094 (Simulation time: 0 hr 19 min 57 sec) 
Heartbeat CPU  0 instructions:  463000000 cycles:  428467012 heartbeat IPC: 0.98323 cumulative IPC: 1.00089 (Simulation time: 0 hr 20 min 0 sec) 
Heartbeat CPU  0 instructions:  464000000 cycles:  429489791 heartbeat IPC: 0.97773 cumulative IPC: 1.00083 (Simulation time: 0 hr 20 min 3 sec) 
Heartbeat CPU  0 instructions:  465000001 cycles:  430505162 heartbeat IPC: 0.98486 cumulative IPC: 1.00078 (Simulation time: 0 hr 20 min 5 sec) 
Heartbeat CPU  0 instructions:  466000003 cycles:  431526722 heartbeat IPC: 0.97890 cumulative IPC: 1.00072 (Simulation time: 0 hr 20 min 8 sec) 
Heartbeat CPU  0 instructions:  467000002 cycles:  432538688 heartbeat IPC: 0.98817 cumulative IPC: 1.00069 (Simulation time: 0 hr 20 min 11 sec) 
Heartbeat CPU  0 instructions:  468000000 cycles:  433562542 heartbeat IPC: 0.97670 cumulative IPC: 1.00062 (Simulation time: 0 hr 20 min 13 sec) 
Heartbeat CPU  0 instructions:  469000000 cycles:  434579680 heartbeat IPC: 0.98315 cumulative IPC: 1.00057 (Simulation time: 0 hr 20 min 16 sec) 
Heartbeat CPU  0 instructions:  470000000 cycles:  435601624 heartbeat IPC: 0.97853 cumulative IPC: 1.00051 (Simulation time: 0 hr 20 min 19 sec) 
Heartbeat CPU  0 instructions:  471000003 cycles:  436616154 heartbeat IPC: 0.98568 cumulative IPC: 1.00047 (Simulation time: 0 hr 20 min 21 sec) 
Heartbeat CPU  0 instructions:  472000000 cycles:  437641573 heartbeat IPC: 0.97521 cumulative IPC: 1.00040 (Simulation time: 0 hr 20 min 24 sec) 
Heartbeat CPU  0 instructions:  473000000 cycles:  438657199 heartbeat IPC: 0.98461 cumulative IPC: 1.00036 (Simulation time: 0 hr 20 min 27 sec) 
Heartbeat CPU  0 instructions:  474000001 cycles:  439674251 heartbeat IPC: 0.98323 cumulative IPC: 1.00031 (Simulation time: 0 hr 20 min 30 sec) 
Heartbeat CPU  0 instructions:  475000000 cycles:  440692319 heartbeat IPC: 0.98225 cumulative IPC: 1.00026 (Simulation time: 0 hr 20 min 32 sec) 
Heartbeat CPU  0 instructions:  476000000 cycles:  441711637 heartbeat IPC: 0.98105 cumulative IPC: 1.00021 (Simulation time: 0 hr 20 min 35 sec) 
Heartbeat CPU  0 instructions:  477000002 cycles:  442732767 heartbeat IPC: 0.97931 cumulative IPC: 1.00015 (Simulation time: 0 hr 20 min 38 sec) 
Heartbeat CPU  0 instructions:  478000002 cycles:  443751819 heartbeat IPC: 0.98130 cumulative IPC: 1.00010 (Simulation time: 0 hr 20 min 40 sec) 
Heartbeat CPU  0 instructions:  479000001 cycles:  444770566 heartbeat IPC: 0.98160 cumulative IPC: 1.00005 (Simulation time: 0 hr 20 min 43 sec) 
Heartbeat CPU  0 instructions:  480000000 cycles:  445787984 heartbeat IPC: 0.98288 cumulative IPC: 1.00001 (Simulation time: 0 hr 20 min 46 sec) 
Heartbeat CPU  0 instructions:  481000002 cycles:  446805263 heartbeat IPC: 0.98302 cumulative IPC: 0.99996 (Simulation time: 0 hr 20 min 48 sec) 
Heartbeat CPU  0 instructions:  482000003 cycles:  447822704 heartbeat IPC: 0.98286 cumulative IPC: 0.99992 (Simulation time: 0 hr 20 min 51 sec) 
Heartbeat CPU  0 instructions:  483000002 cycles:  448852065 heartbeat IPC: 0.97148 cumulative IPC: 0.99984 (Simulation time: 0 hr 20 min 54 sec) 
Heartbeat CPU  0 instructions:  484000000 cycles:  449879681 heartbeat IPC: 0.97312 cumulative IPC: 0.99977 (Simulation time: 0 hr 20 min 56 sec) 
Heartbeat CPU  0 instructions:  485000003 cycles:  450899571 heartbeat IPC: 0.98050 cumulative IPC: 0.99972 (Simulation time: 0 hr 20 min 59 sec) 
Heartbeat CPU  0 instructions:  486000001 cycles:  451917790 heartbeat IPC: 0.98211 cumulative IPC: 0.99967 (Simulation time: 0 hr 21 min 2 sec) 
Heartbeat CPU  0 instructions:  487000002 cycles:  452939746 heartbeat IPC: 0.97852 cumulative IPC: 0.99961 (Simulation time: 0 hr 21 min 4 sec) 
Heartbeat CPU  0 instructions:  488000000 cycles:  453958719 heartbeat IPC: 0.98138 cumulative IPC: 0.99957 (Simulation time: 0 hr 21 min 7 sec) 
Heartbeat CPU  0 instructions:  489000003 cycles:  454978266 heartbeat IPC: 0.98083 cumulative IPC: 0.99952 (Simulation time: 0 hr 21 min 10 sec) 
Heartbeat CPU  0 instructions:  490000001 cycles:  456001474 heartbeat IPC: 0.97732 cumulative IPC: 0.99946 (Simulation time: 0 hr 21 min 13 sec) 
Heartbeat CPU  0 instructions:  491000000 cycles:  457024183 heartbeat IPC: 0.97779 cumulative IPC: 0.99940 (Simulation time: 0 hr 21 min 15 sec) 
Heartbeat CPU  0 instructions:  492000000 cycles:  458035918 heartbeat IPC: 0.98840 cumulative IPC: 0.99937 (Simulation time: 0 hr 21 min 18 sec) 
Heartbeat CPU  0 instructions:  493000001 cycles:  459059358 heartbeat IPC: 0.97710 cumulative IPC: 0.99932 (Simulation time: 0 hr 21 min 21 sec) 
Heartbeat CPU  0 instructions:  494000000 cycles:  460078949 heartbeat IPC: 0.98078 cumulative IPC: 0.99927 (Simulation time: 0 hr 21 min 23 sec) 
Heartbeat CPU  0 instructions:  495000003 cycles:  461101931 heartbeat IPC: 0.97754 cumulative IPC: 0.99921 (Simulation time: 0 hr 21 min 26 sec) 
Heartbeat CPU  0 instructions:  496000000 cycles:  462121529 heartbeat IPC: 0.98078 cumulative IPC: 0.99916 (Simulation time: 0 hr 21 min 28 sec) 
Heartbeat CPU  0 instructions:  497000001 cycles:  463140992 heartbeat IPC: 0.98091 cumulative IPC: 0.99912 (Simulation time: 0 hr 21 min 31 sec) 
Heartbeat CPU  0 instructions:  498000003 cycles:  464163518 heartbeat IPC: 0.97797 cumulative IPC: 0.99906 (Simulation time: 0 hr 21 min 33 sec) 
Heartbeat CPU  0 instructions:  499000001 cycles:  465185018 heartbeat IPC: 0.97895 cumulative IPC: 0.99901 (Simulation time: 0 hr 21 min 36 sec) 
Heartbeat CPU  0 instructions:  500000000 cycles:  466207585 heartbeat IPC: 0.97793 cumulative IPC: 0.99896 (Simulation time: 0 hr 21 min 38 sec) 
Heartbeat CPU  0 instructions:  501000003 cycles:  467225004 heartbeat IPC: 0.98288 cumulative IPC: 0.99892 (Simulation time: 0 hr 21 min 41 sec) 
Heartbeat CPU  0 instructions:  502000001 cycles:  468251146 heartbeat IPC: 0.97452 cumulative IPC: 0.99885 (Simulation time: 0 hr 21 min 43 sec) 
Heartbeat CPU  0 instructions:  503000000 cycles:  469266013 heartbeat IPC: 0.98535 cumulative IPC: 0.99882 (Simulation time: 0 hr 21 min 46 sec) 
Heartbeat CPU  0 instructions:  504000000 cycles:  470286902 heartbeat IPC: 0.97954 cumulative IPC: 0.99877 (Simulation time: 0 hr 21 min 48 sec) 
Heartbeat CPU  0 instructions:  505000000 cycles:  471313102 heartbeat IPC: 0.97447 cumulative IPC: 0.99871 (Simulation time: 0 hr 21 min 51 sec) 
Heartbeat CPU  0 instructions:  506000001 cycles:  472330801 heartbeat IPC: 0.98261 cumulative IPC: 0.99867 (Simulation time: 0 hr 21 min 53 sec) 
Heartbeat CPU  0 instructions:  507000000 cycles:  473357870 heartbeat IPC: 0.97364 cumulative IPC: 0.99861 (Simulation time: 0 hr 21 min 56 sec) 
Heartbeat CPU  0 instructions:  508000000 cycles:  474384147 heartbeat IPC: 0.97440 cumulative IPC: 0.99855 (Simulation time: 0 hr 21 min 58 sec) 
Heartbeat CPU  0 instructions:  509000000 cycles:  475397786 heartbeat IPC: 0.98654 cumulative IPC: 0.99852 (Simulation time: 0 hr 22 min 1 sec) 
Heartbeat CPU  0 instructions:  510000001 cycles:  476412775 heartbeat IPC: 0.98523 cumulative IPC: 0.99848 (Simulation time: 0 hr 22 min 3 sec) 
Heartbeat CPU  0 instructions:  511000001 cycles:  477441053 heartbeat IPC: 0.97250 cumulative IPC: 0.99842 (Simulation time: 0 hr 22 min 6 sec) 
Heartbeat CPU  0 instructions:  512000000 cycles:  478459798 heartbeat IPC: 0.98160 cumulative IPC: 0.99838 (Simulation time: 0 hr 22 min 8 sec) 
Heartbeat CPU  0 instructions:  513000003 cycles:  479477928 heartbeat IPC: 0.98220 cumulative IPC: 0.99834 (Simulation time: 0 hr 22 min 11 sec) 
Heartbeat CPU  0 instructions:  514000000 cycles:  480502269 heartbeat IPC: 0.97623 cumulative IPC: 0.99828 (Simulation time: 0 hr 22 min 14 sec) 
Heartbeat CPU  0 instructions:  515000001 cycles:  481517468 heartbeat IPC: 0.98503 cumulative IPC: 0.99825 (Simulation time: 0 hr 22 min 16 sec) 
Heartbeat CPU  0 instructions:  516000000 cycles:  482536871 heartbeat IPC: 0.98097 cumulative IPC: 0.99821 (Simulation time: 0 hr 22 min 19 sec) 
Heartbeat CPU  0 instructions:  517000002 cycles:  483557005 heartbeat IPC: 0.98027 cumulative IPC: 0.99816 (Simulation time: 0 hr 22 min 21 sec) 
Heartbeat CPU  0 instructions:  518000000 cycles:  484585417 heartbeat IPC: 0.97237 cumulative IPC: 0.99810 (Simulation time: 0 hr 22 min 24 sec) 
Heartbeat CPU  0 instructions:  519000003 cycles:  485598902 heartbeat IPC: 0.98670 cumulative IPC: 0.99807 (Simulation time: 0 hr 22 min 26 sec) 
Heartbeat CPU  0 instructions:  520000000 cycles:  486618467 heartbeat IPC: 0.98081 cumulative IPC: 0.99803 (Simulation time: 0 hr 22 min 29 sec) 
Heartbeat CPU  0 instructions:  521000000 cycles:  487631119 heartbeat IPC: 0.98751 cumulative IPC: 0.99801 (Simulation time: 0 hr 22 min 31 sec) 
Heartbeat CPU  0 instructions:  522000000 cycles:  488647966 heartbeat IPC: 0.98343 cumulative IPC: 0.99797 (Simulation time: 0 hr 22 min 34 sec) 
Heartbeat CPU  0 instructions:  523000002 cycles:  489665347 heartbeat IPC: 0.98292 cumulative IPC: 0.99794 (Simulation time: 0 hr 22 min 36 sec) 
Heartbeat CPU  0 instructions:  524000000 cycles:  490682966 heartbeat IPC: 0.98268 cumulative IPC: 0.99790 (Simulation time: 0 hr 22 min 39 sec) 
Heartbeat CPU  0 instructions:  525000000 cycles:  491696780 heartbeat IPC: 0.98637 cumulative IPC: 0.99787 (Simulation time: 0 hr 22 min 41 sec) 
Heartbeat CPU  0 instructions:  526000001 cycles:  492715764 heartbeat IPC: 0.98137 cumulative IPC: 0.99783 (Simulation time: 0 hr 22 min 44 sec) 
Heartbeat CPU  0 instructions:  527000000 cycles:  493735751 heartbeat IPC: 0.98040 cumulative IPC: 0.99779 (Simulation time: 0 hr 22 min 46 sec) 
Heartbeat CPU  0 instructions:  528000000 cycles:  494759160 heartbeat IPC: 0.97713 cumulative IPC: 0.99774 (Simulation time: 0 hr 22 min 49 sec) 
Heartbeat CPU  0 instructions:  529000002 cycles:  495778677 heartbeat IPC: 0.98086 cumulative IPC: 0.99770 (Simulation time: 0 hr 22 min 51 sec) 
Heartbeat CPU  0 instructions:  530000001 cycles:  496799928 heartbeat IPC: 0.97919 cumulative IPC: 0.99766 (Simulation time: 0 hr 22 min 53 sec) 
Heartbeat CPU  0 instructions:  531000003 cycles:  497822677 heartbeat IPC: 0.97776 cumulative IPC: 0.99761 (Simulation time: 0 hr 22 min 56 sec) 
Heartbeat CPU  0 instructions:  532000000 cycles:  498840641 heartbeat IPC: 0.98235 cumulative IPC: 0.99757 (Simulation time: 0 hr 22 min 58 sec) 
Heartbeat CPU  0 instructions:  533000002 cycles:  499860321 heartbeat IPC: 0.98070 cumulative IPC: 0.99753 (Simulation time: 0 hr 23 min 1 sec) 
Heartbeat CPU  0 instructions:  534000000 cycles:  500878955 heartbeat IPC: 0.98170 cumulative IPC: 0.99750 (Simulation time: 0 hr 23 min 3 sec) 
Heartbeat CPU  0 instructions:  535000003 cycles:  501915343 heartbeat IPC: 0.96489 cumulative IPC: 0.99742 (Simulation time: 0 hr 23 min 6 sec) 
Heartbeat CPU  0 instructions:  536000000 cycles:  502942086 heartbeat IPC: 0.97395 cumulative IPC: 0.99737 (Simulation time: 0 hr 23 min 8 sec) 
Heartbeat CPU  0 instructions:  537000000 cycles:  503960955 heartbeat IPC: 0.98148 cumulative IPC: 0.99733 (Simulation time: 0 hr 23 min 11 sec) 
Heartbeat CPU  0 instructions:  538000002 cycles:  504980722 heartbeat IPC: 0.98062 cumulative IPC: 0.99729 (Simulation time: 0 hr 23 min 13 sec) 
Heartbeat CPU  0 instructions:  539000001 cycles:  506007170 heartbeat IPC: 0.97423 cumulative IPC: 0.99724 (Simulation time: 0 hr 23 min 16 sec) 
Heartbeat CPU  0 instructions:  540000000 cycles:  507026732 heartbeat IPC: 0.98081 cumulative IPC: 0.99720 (Simulation time: 0 hr 23 min 18 sec) 
Heartbeat CPU  0 instructions:  541000000 cycles:  508053206 heartbeat IPC: 0.97421 cumulative IPC: 0.99714 (Simulation time: 0 hr 23 min 20 sec) 
Heartbeat CPU  0 instructions:  542000003 cycles:  509069226 heartbeat IPC: 0.98424 cumulative IPC: 0.99711 (Simulation time: 0 hr 23 min 23 sec) 
Heartbeat CPU  0 instructions:  543000001 cycles:  510094153 heartbeat IPC: 0.97568 cumulative IPC: 0.99707 (Simulation time: 0 hr 23 min 25 sec) 
Heartbeat CPU  0 instructions:  544000000 cycles:  511115201 heartbeat IPC: 0.97938 cumulative IPC: 0.99702 (Simulation time: 0 hr 23 min 28 sec) 
Heartbeat CPU  0 instructions:  545000002 cycles:  512136361 heartbeat IPC: 0.97928 cumulative IPC: 0.99698 (Simulation time: 0 hr 23 min 30 sec) 
Heartbeat CPU  0 instructions:  546000000 cycles:  513159557 heartbeat IPC: 0.97733 cumulative IPC: 0.99694 (Simulation time: 0 hr 23 min 33 sec) 
Heartbeat CPU  0 instructions:  547000002 cycles:  514184709 heartbeat IPC: 0.97547 cumulative IPC: 0.99689 (Simulation time: 0 hr 23 min 35 sec) 
Heartbeat CPU  0 instructions:  548000000 cycles:  515204852 heartbeat IPC: 0.98025 cumulative IPC: 0.99685 (Simulation time: 0 hr 23 min 38 sec) 
Heartbeat CPU  0 instructions:  549000003 cycles:  516235637 heartbeat IPC: 0.97014 cumulative IPC: 0.99679 (Simulation time: 0 hr 23 min 40 sec) 
Heartbeat CPU  0 instructions:  550000002 cycles:  517251291 heartbeat IPC: 0.98459 cumulative IPC: 0.99676 (Simulation time: 0 hr 23 min 43 sec) 
Heartbeat CPU  0 instructions:  551000003 cycles:  518267018 heartbeat IPC: 0.98452 cumulative IPC: 0.99674 (Simulation time: 0 hr 23 min 45 sec) 
Heartbeat CPU  0 instructions:  552000000 cycles:  519289943 heartbeat IPC: 0.97759 cumulative IPC: 0.99669 (Simulation time: 0 hr 23 min 48 sec) 
Heartbeat CPU  0 instructions:  553000000 cycles:  520313191 heartbeat IPC: 0.97728 cumulative IPC: 0.99665 (Simulation time: 0 hr 23 min 50 sec) 
Heartbeat CPU  0 instructions:  554000000 cycles:  521325772 heartbeat IPC: 0.98758 cumulative IPC: 0.99663 (Simulation time: 0 hr 23 min 53 sec) 
Heartbeat CPU  0 instructions:  555000001 cycles:  522346014 heartbeat IPC: 0.98016 cumulative IPC: 0.99659 (Simulation time: 0 hr 23 min 55 sec) 
Heartbeat CPU  0 instructions:  556000000 cycles:  523371971 heartbeat IPC: 0.97470 cumulative IPC: 0.99654 (Simulation time: 0 hr 23 min 57 sec) 
Heartbeat CPU  0 instructions:  557000001 cycles:  524387859 heartbeat IPC: 0.98436 cumulative IPC: 0.99652 (Simulation time: 0 hr 24 min 0 sec) 
Heartbeat CPU  0 instructions:  558000001 cycles:  525412942 heartbeat IPC: 0.97553 cumulative IPC: 0.99647 (Simulation time: 0 hr 24 min 2 sec) 
Heartbeat CPU  0 instructions:  559000002 cycles:  526436014 heartbeat IPC: 0.97745 cumulative IPC: 0.99643 (Simulation time: 0 hr 24 min 5 sec) 
Heartbeat CPU  0 instructions:  560000000 cycles:  527459417 heartbeat IPC: 0.97713 cumulative IPC: 0.99638 (Simulation time: 0 hr 24 min 7 sec) 
Heartbeat CPU  0 instructions:  561000001 cycles:  528480031 heartbeat IPC: 0.97980 cumulative IPC: 0.99635 (Simulation time: 0 hr 24 min 10 sec) 
Heartbeat CPU  0 instructions:  562000002 cycles:  529507248 heartbeat IPC: 0.97351 cumulative IPC: 0.99630 (Simulation time: 0 hr 24 min 12 sec) 
Heartbeat CPU  0 instructions:  563000002 cycles:  530521637 heartbeat IPC: 0.98582 cumulative IPC: 0.99627 (Simulation time: 0 hr 24 min 15 sec) 
Heartbeat CPU  0 instructions:  564000000 cycles:  531545190 heartbeat IPC: 0.97699 cumulative IPC: 0.99623 (Simulation time: 0 hr 24 min 17 sec) 
Heartbeat CPU  0 instructions:  565000002 cycles:  532567660 heartbeat IPC: 0.97803 cumulative IPC: 0.99619 (Simulation time: 0 hr 24 min 20 sec) 
Heartbeat CPU  0 instructions:  566000001 cycles:  533588929 heartbeat IPC: 0.97917 cumulative IPC: 0.99616 (Simulation time: 0 hr 24 min 22 sec) 
Heartbeat CPU  0 instructions:  567000000 cycles:  534607984 heartbeat IPC: 0.98130 cumulative IPC: 0.99612 (Simulation time: 0 hr 24 min 25 sec) 
Heartbeat CPU  0 instructions:  568000000 cycles:  535630783 heartbeat IPC: 0.97771 cumulative IPC: 0.99608 (Simulation time: 0 hr 24 min 27 sec) 
Heartbeat CPU  0 instructions:  569000002 cycles:  536651052 heartbeat IPC: 0.98014 cumulative IPC: 0.99605 (Simulation time: 0 hr 24 min 30 sec) 
Heartbeat CPU  0 instructions:  570000000 cycles:  537680031 heartbeat IPC: 0.97184 cumulative IPC: 0.99600 (Simulation time: 0 hr 24 min 32 sec) 
Heartbeat CPU  0 instructions:  571000003 cycles:  538695791 heartbeat IPC: 0.98449 cumulative IPC: 0.99597 (Simulation time: 0 hr 24 min 34 sec) 
Heartbeat CPU  0 instructions:  572000000 cycles:  539719036 heartbeat IPC: 0.97728 cumulative IPC: 0.99593 (Simulation time: 0 hr 24 min 37 sec) 
Heartbeat CPU  0 instructions:  573000000 cycles:  540740252 heartbeat IPC: 0.97922 cumulative IPC: 0.99589 (Simulation time: 0 hr 24 min 39 sec) 
Heartbeat CPU  0 instructions:  574000000 cycles:  541752346 heartbeat IPC: 0.98805 cumulative IPC: 0.99588 (Simulation time: 0 hr 24 min 42 sec) 
Heartbeat CPU  0 instructions:  575000002 cycles:  542782073 heartbeat IPC: 0.97113 cumulative IPC: 0.99582 (Simulation time: 0 hr 24 min 44 sec) 
Heartbeat CPU  0 instructions:  576000000 cycles:  543797356 heartbeat IPC: 0.98495 cumulative IPC: 0.99580 (Simulation time: 0 hr 24 min 47 sec) 
Heartbeat CPU  0 instructions:  577000000 cycles:  544821125 heartbeat IPC: 0.97678 cumulative IPC: 0.99576 (Simulation time: 0 hr 24 min 49 sec) 
Heartbeat CPU  0 instructions:  578000001 cycles:  545836017 heartbeat IPC: 0.98533 cumulative IPC: 0.99574 (Simulation time: 0 hr 24 min 52 sec) 
Heartbeat CPU  0 instructions:  579000002 cycles:  546858541 heartbeat IPC: 0.97797 cumulative IPC: 0.99570 (Simulation time: 0 hr 24 min 54 sec) 
Heartbeat CPU  0 instructions:  580000000 cycles:  547873547 heartbeat IPC: 0.98521 cumulative IPC: 0.99568 (Simulation time: 0 hr 24 min 57 sec) 
Heartbeat CPU  0 instructions:  581000000 cycles:  548897086 heartbeat IPC: 0.97700 cumulative IPC: 0.99564 (Simulation time: 0 hr 24 min 59 sec) 
Heartbeat CPU  0 instructions:  582000001 cycles:  549917438 heartbeat IPC: 0.98005 cumulative IPC: 0.99561 (Simulation time: 0 hr 25 min 2 sec) 
Heartbeat CPU  0 instructions:  583000001 cycles:  550939485 heartbeat IPC: 0.97843 cumulative IPC: 0.99557 (Simulation time: 0 hr 25 min 4 sec) 
Heartbeat CPU  0 instructions:  584000000 cycles:  551957907 heartbeat IPC: 0.98191 cumulative IPC: 0.99554 (Simulation time: 0 hr 25 min 7 sec) 
Heartbeat CPU  0 instructions:  585000000 cycles:  552975273 heartbeat IPC: 0.98293 cumulative IPC: 0.99551 (Simulation time: 0 hr 25 min 9 sec) 
Heartbeat CPU  0 instructions:  586000000 cycles:  553996609 heartbeat IPC: 0.97911 cumulative IPC: 0.99548 (Simulation time: 0 hr 25 min 11 sec) 
Heartbeat CPU  0 instructions:  587000001 cycles:  555022538 heartbeat IPC: 0.97473 cumulative IPC: 0.99544 (Simulation time: 0 hr 25 min 14 sec) 
Heartbeat CPU  0 instructions:  588000000 cycles:  556039841 heartbeat IPC: 0.98299 cumulative IPC: 0.99541 (Simulation time: 0 hr 25 min 16 sec) 
Heartbeat CPU  0 instructions:  589000000 cycles:  557063704 heartbeat IPC: 0.97669 cumulative IPC: 0.99537 (Simulation time: 0 hr 25 min 19 sec) 
Heartbeat CPU  0 instructions:  590000001 cycles:  558083634 heartbeat IPC: 0.98046 cumulative IPC: 0.99534 (Simulation time: 0 hr 25 min 21 sec) 
Heartbeat CPU  0 instructions:  591000002 cycles:  559103610 heartbeat IPC: 0.98042 cumulative IPC: 0.99531 (Simulation time: 0 hr 25 min 24 sec) 
Heartbeat CPU  0 instructions:  592000000 cycles:  560122875 heartbeat IPC: 0.98110 cumulative IPC: 0.99528 (Simulation time: 0 hr 25 min 26 sec) 
Heartbeat CPU  0 instructions:  593000003 cycles:  561139930 heartbeat IPC: 0.98323 cumulative IPC: 0.99526 (Simulation time: 0 hr 25 min 29 sec) 
Heartbeat CPU  0 instructions:  594000000 cycles:  562167927 heartbeat IPC: 0.97276 cumulative IPC: 0.99521 (Simulation time: 0 hr 25 min 31 sec) 
Heartbeat CPU  0 instructions:  595000001 cycles:  563184112 heartbeat IPC: 0.98407 cumulative IPC: 0.99519 (Simulation time: 0 hr 25 min 34 sec) 
Heartbeat CPU  0 instructions:  596000000 cycles:  564204230 heartbeat IPC: 0.98028 cumulative IPC: 0.99516 (Simulation time: 0 hr 25 min 36 sec) 
Heartbeat CPU  0 instructions:  597000002 cycles:  565220301 heartbeat IPC: 0.98419 cumulative IPC: 0.99513 (Simulation time: 0 hr 25 min 38 sec) 
Heartbeat CPU  0 instructions:  598000001 cycles:  566241218 heartbeat IPC: 0.97951 cumulative IPC: 0.99510 (Simulation time: 0 hr 25 min 41 sec) 
Heartbeat CPU  0 instructions:  599000000 cycles:  567262534 heartbeat IPC: 0.97913 cumulative IPC: 0.99507 (Simulation time: 0 hr 25 min 43 sec) 
Heartbeat CPU  0 instructions:  600000000 cycles:  568285037 heartbeat IPC: 0.97799 cumulative IPC: 0.99504 (Simulation time: 0 hr 25 min 46 sec) 
Finished CPU 0 instructions: 500000000 cycles: 502494798 cumulative IPC: 0.99504 (Simulation time: 0 hr 25 min 46 sec) 

ChampSim completed all CPUs

[ROI Statistics]
Core_0_instructions 500000000
Core_0_cycles 502494798
Core_0_IPC 0.99504

Core_0_branch_prediction_accuracy 97.89350
Core_0_branch_MPKI 0.73267
Core_0_average_ROB_occupancy_at_mispredict 252.52882

Core_0_L1D_total_access 235759667
Core_0_L1D_total_hit 225569433
Core_0_L1D_total_miss 10190234
Core_0_L1D_loads 199710364
Core_0_L1D_load_hit 189782764
Core_0_L1D_load_miss 9927600
Core_0_L1D_RFOs 36049303
Core_0_L1D_RFO_hit 35786669
Core_0_L1D_RFO_miss 262634
Core_0_L1D_prefetches 0
Core_0_L1D_prefetch_hit 0
Core_0_L1D_prefetch_miss 0
Core_0_L1D_writebacks 0
Core_0_L1D_writeback_hit 0
Core_0_L1D_writeback_miss 0
Core_0_L1D_prefetch_requested 0
Core_0_L1D_prefetch_dropped 0
Core_0_L1D_prefetch_issued 0
Core_0_L1D_prefetch_filled 0
Core_0_L1D_prefetch_useful 0
Core_0_L1D_prefetch_useless 0
Core_0_L1D_prefetch_late 0
Core_0_L1D_average_miss_latency 70.78019

Core_0_L1D_rq_access 254237838
Core_0_L1D_rq_forward 0
Core_0_L1D_rq_merged 53117536
Core_0_L1D_rq_to_cache 201120302
Core_0_L1D_rq_full 0

Core_0_L1D_wq_access 36392435
Core_0_L1D_wq_forward 0
Core_0_L1D_wq_merged 0
Core_0_L1D_wq_to_cache 36392435
Core_0_L1D_wq_full 0

Core_0_L1D_pq_access 0
Core_0_L1D_pq_forward 0
Core_0_L1D_pq_merged 0
Core_0_L1D_pq_to_cache 0
Core_0_L1D_pq_full 0

Core_0_L1D_acc_epochs 541262
Core_0_L1D_acc_level_0 541262
Core_0_L1D_acc_level_1 0
Core_0_L1D_acc_level_2 0
Core_0_L1D_acc_level_3 0
Core_0_L1D_acc_level_4 0
Core_0_L1D_acc_level_5 0
Core_0_L1D_acc_level_6 0
Core_0_L1D_acc_level_7 0
Core_0_L1D_acc_level_8 0
Core_0_L1D_acc_level_9 0

Core_0_L1I_total_access 114836053
Core_0_L1I_total_hit 114835999
Core_0_L1I_total_miss 54
Core_0_L1I_loads 114836053
Core_0_L1I_load_hit 114835999
Core_0_L1I_load_miss 54
Core_0_L1I_RFOs 0
Core_0_L1I_RFO_hit 0
Core_0_L1I_RFO_miss 0
Core_0_L1I_prefetches 0
Core_0_L1I_prefetch_hit 0
Core_0_L1I_prefetch_miss 0
Core_0_L1I_writebacks 0
Core_0_L1I_writeback_hit 0
Core_0_L1I_writeback_miss 0
Core_0_L1I_prefetch_requested 0
Core_0_L1I_prefetch_dropped 0
Core_0_L1I_prefetch_issued 0
Core_0_L1I_prefetch_filled 0
Core_0_L1I_prefetch_useful 0
Core_0_L1I_prefetch_useless 0
Core_0_L1I_prefetch_late 0
Core_0_L1I_average_miss_latency 241.18519

Core_0_L1I_rq_access 500000250
Core_0_L1I_rq_forward 0
Core_0_L1I_rq_merged 385164185
Core_0_L1I_rq_to_cache 114836065
Core_0_L1I_rq_full 0

Core_0_L1I_wq_access 0
Core_0_L1I_wq_forward 0
Core_0_L1I_wq_merged 0
Core_0_L1I_wq_to_cache 0
Core_0_L1I_wq_full 0

Core_0_L1I_pq_access 0
Core_0_L1I_pq_forward 0
Core_0_L1I_pq_merged 0
Core_0_L1I_pq_to_cache 0
Core_0_L1I_pq_full 0

Core_0_L1I_acc_epochs 541262
Core_0_L1I_acc_level_0 541262
Core_0_L1I_acc_level_1 0
Core_0_L1I_acc_level_2 0
Core_0_L1I_acc_level_3 0
Core_0_L1I_acc_level_4 0
Core_0_L1I_acc_level_5 0
Core_0_L1I_acc_level_6 0
Core_0_L1I_acc_level_7 0
Core_0_L1I_acc_level_8 0
Core_0_L1I_acc_level_9 0

Core_0_L2C_total_access 18368623
Core_0_L2C_total_hit 9098164
Core_0_L2C_total_miss 9270459
Core_0_L2C_loads 9923964
Core_0_L2C_load_hit 8575934
Core_0_L2C_load_miss 1348030
Core_0_L2C_RFOs 259297
Core_0_L2C_RFO_hit 39070
Core_0_L2C_RFO_miss 220227
Core_0_L2C_prefetches 7715590
Core_0_L2C_prefetch_hit 15917
Core_0_L2C_prefetch_miss 7699673
Core_0_L2C_writebacks 469772
Core_0_L2C_writeback_hit 467243
Core_0_L2C_writeback_miss 2529
Core_0_L2C_prefetch_requested 9607372
Core_0_L2C_prefetch_dropped 0
Core_0_L2C_prefetch_issued 9607372
Core_0_L2C_prefetch_filled 9391502
Core_0_L2C_prefetch_useful 9390110
Core_0_L2C_prefetch_useless 1242
Core_0_L2C_prefetch_late 147978
Core_0_L2C_average_miss_latency 322.67407

Core_0_L2C_rq_access 10190288
Core_0_L2C_rq_forward 0
Core_0_L2C_rq_merged 0
Core_0_L2C_rq_to_cache 10183261
Core_0_L2C_rq_full 0

Core_0_L2C_wq_access 469772
Core_0_L2C_wq_forward 7028
Core_0_L2C_wq_merged 0
Core_0_L2C_wq_to_cache 469772
Core_0_L2C_wq_full 0

Core_0_L2C_pq_access 9607372
Core_0_L2C_pq_forward 0
Core_0_L2C_pq_merged 0
Core_0_L2C_pq_to_cache 9607371
Core_0_L2C_pq_full 0

Core_0_L2C_acc_epochs 541262
Core_0_L2C_acc_level_0 132593
Core_0_L2C_acc_level_1 94806
Core_0_L2C_acc_level_2 69241
Core_0_L2C_acc_level_3 46701
Core_0_L2C_acc_level_4 32410
Core_0_L2C_acc_level_5 21587
Core_0_L2C_acc_level_6 14595
Core_0_L2C_acc_level_7 13805
Core_0_L2C_acc_level_8 9581
Core_0_L2C_acc_level_9 105943

Core_0_LLC_total_access 9661107
Core_0_LLC_total_hit 44397
Core_0_LLC_total_miss 9616710
Core_0_LLC_loads 1200357
Core_0_LLC_load_hit 3142
Core_0_LLC_load_miss 1197215
Core_0_LLC_RFOs 220227
Core_0_LLC_RFO_hit 0
Core_0_LLC_RFO_miss 220227
Core_0_LLC_prefetches 7847359
Core_0_LLC_prefetch_hit 30843
Core_0_LLC_prefetch_miss 7816516
Core_0_LLC_writebacks 393164
Core_0_LLC_writeback_hit 10412
Core_0_LLC_writeback_miss 382752
Core_0_LLC_prefetch_requested 0
Core_0_LLC_prefetch_dropped 0
Core_0_LLC_prefetch_issued 0
Core_0_LLC_prefetch_filled 9506120
Core_0_LLC_prefetch_useful 96
Core_0_LLC_prefetch_useless 9504320
Core_0_LLC_prefetch_late 0
Core_0_LLC_average_miss_latency 281.62207

Core_0_LLC_rq_access 1420584
Core_0_LLC_rq_forward 0
Core_0_LLC_rq_merged 0
Core_0_LLC_rq_to_cache 1420584
Core_0_LLC_rq_full 0

Core_0_LLC_wq_access 393164
Core_0_LLC_wq_forward 0
Core_0_LLC_wq_merged 0
Core_0_LLC_wq_to_cache 393164
Core_0_LLC_wq_full 0

Core_0_LLC_pq_access 9539493
Core_0_LLC_pq_forward 0
Core_0_LLC_pq_merged 0
Core_0_LLC_pq_to_cache 9539493
Core_0_LLC_pq_full 0

Core_0_LLC_acc_epochs 554966
Core_0_LLC_acc_level_0 554960
Core_0_LLC_acc_level_1 2
Core_0_LLC_acc_level_2 2
Core_0_LLC_acc_level_3 0
Core_0_LLC_acc_level_4 0
Core_0_LLC_acc_level_5 2
Core_0_LLC_acc_level_6 0
Core_0_LLC_acc_level_7 0
Core_0_LLC_acc_level_8 0
Core_0_LLC_acc_level_9 0

Core_0_major_page_fault 0
Core_0_minor_page_fault 104619

[Bingo] PHT Access: 343041
[Bingo] PHT Hit PC+Addr: 5026
[Bingo] PHT Hit PC+Offs: 337218
[Bingo] PHT Miss: 797
[Bingo] Prefetch PC+Addr: 0
[Bingo] Prefetch PC+Offs: 0
[Bingo] Useful PC+Addr: 0
[Bingo] Useful PC+Offs: 0
[Bingo] Useless PC+Addr: 0
[Bingo] Useless PC+Offs: 0
[Bingo] L1 Prefetch per Region: 0.00000
[Bingo] L2 Prefetch per Region: 31.68991
[Bingo] L3 Prefetch per Region: 0.00004
[Bingo] No Prefetch per Region: 0.31005
[Bingo] Number of Voters Mean: 15.97720
[Bingo] Number of Voters SD: 0.39513

Channel_0_RQ_row_buffer_hit 7928730
Channel_0_RQ_row_buffer_miss 1305228
Channel_0_WQ_row_buffer_hit 197686
Channel_0_WQ_row_buffer_miss 190209
Channel_0_WQ_full 0
Channel_0_dbus_congested 8166857

avg_congested_cycle 11

DRAM_bw_pochs 2219864
DRAM_bw_level_0 1352230
DRAM_bw_level_1 232561
DRAM_bw_level_2 111206
DRAM_bw_level_3 523867
