*************************************************
   ChampSim Multicore Out-of-Order Simulator
   Last compiled: Dec 11 2024 17:59:53
*************************************************
parsing config file: /home/functionmain/桌面/Pythia/config/bingo.ini

trace_0 /home/functionmain/桌面/Pythia/traces/410.bwaves-1963B.champsimtrace.xz
adding L2C_PREFETCHER: Bingo
Initialize SHIP state
warmup_instructions 100000000
simulation_instructions 500000000
champsim_seed 277
measure_ipc 0
measure_ipc_epoch 1000
measure_dram_bw 1
measure_dram_bw_epoch 256
measure_cache_acc 1
measure_cache_acc_epoch 1024
l1d_perfect 0
l2c_perfect 0
llc_perfect 0
l1d_semi_perfect 0
l2c_semi_perfect 0
llc_semi_perfect 0
semi_perfect_cache_page_buffer_size 64

num_cpus 1
cpu_freq 4000
dram_io_freq 300
page_size 4096
block_size 64
max_read_per_cycle 8
max_fill_per_cycle 1
dram_channels 1
log2_dram_channels 0
dram_ranks 1
dram_banks 8
dram_rows 65536
dram_columns 128
dram_row_size 8
dram_size 4096
dram_pages 1048576

fetch_width 6
decode_width 6
exec_width 4
lq_width 2
sq_width 2
retire_width 4
scheduler_size 128
branch_mispredict_penalty 20
rob_size 256
lq_size 72
sq_size 56
num_instr_destinations_sparc 4
num_instr_destinations 2
num_instr_sources 4

itlb_set 16
itlb_way 8
itlb_rq_size 16
itlb_wq_size 16
itlb_pq_size 0
itlb_mshr_size 8
itlb_latency 1

dtlb_set 16
dtlb_way 4
dtlb_rq_size 16
dtlb_wq_size 16
dtlb_pq_size 0
dtlb_mshr_size 8
dtlb_latency 1

stlb_set 128
stlb_way 12
stlb_rq_size 32
stlb_wq_size 32
stlb_pq_size 0
stlb_mshr_size 16
stlb_latency 8

l1i_size 32
l1i_set 64
l1i_way 8
l1i_rq_size 64
l1i_wq_size 64
l1i_pq_size 8
l1i_mshr_size 8
l1i_latency 1

l1d_size 32
l1d_set 64
l1d_way 8
l1d_rq_size 64
l1d_wq_size 64
l1d_pq_size 8
l1d_mshr_size 16
l1d_latency 4

l2c_size 256
l2c_set 512
l2c_way 8
l2c_rq_size 32
l2c_wq_size 32
l2c_pq_size 32
l2c_mshr_size 32
l2c_latency 10

llc_size 2048
llc_set 2048
llc_way 16
llc_rq_size 32
llc_wq_size 32
llc_pq_size 32
llc_mshr_size 64
llc_latency 20

dram_channel_width 8
dram_wq_size 64
dram_rq_size 64
tRP 15
tRCD 15
tCAS 12.5
dram_dbus_turn_around_time 30
dram_write_high_wm 56
dram_write_low_wm 48
min_dram_writes_per_switch 16
dram_mtps 300
dram_dbus_return_time 106

bingo_region_size 2048
bingo_pattern_len 32
bingo_pc_width 16
bingo_min_addr_width 5
bingo_max_addr_width 16
bingo_ft_size 64
bingo_at_size 128
bingo_pht_size 4096
bingo_pht_ways 16
bingo_pf_streamer_size 128
bingo_debug_level 0
bingo_l1d_thresh 1.01
bingo_l2c_thresh 0.8
bingo_llc_thresh 0.05
bingo_pc_address_fill_level L2


Heartbeat CPU  0 instructions:    1000002 cycles:     658387 heartbeat IPC: 1.51887 cumulative IPC: 1.51887 (Simulation time: 0 hr 0 min 2 sec) 
Heartbeat CPU  0 instructions:    2000002 cycles:    1316324 heartbeat IPC: 1.51990 cumulative IPC: 1.51938 (Simulation time: 0 hr 0 min 4 sec) 
Heartbeat CPU  0 instructions:    3000002 cycles:    1974294 heartbeat IPC: 1.51983 cumulative IPC: 1.51953 (Simulation time: 0 hr 0 min 7 sec) 
Heartbeat CPU  0 instructions:    4000000 cycles:    2632192 heartbeat IPC: 1.51999 cumulative IPC: 1.51965 (Simulation time: 0 hr 0 min 9 sec) 
Heartbeat CPU  0 instructions:    5000002 cycles:    3290251 heartbeat IPC: 1.51962 cumulative IPC: 1.51964 (Simulation time: 0 hr 0 min 11 sec) 
Heartbeat CPU  0 instructions:    6000002 cycles:    3948195 heartbeat IPC: 1.51989 cumulative IPC: 1.51968 (Simulation time: 0 hr 0 min 14 sec) 
Heartbeat CPU  0 instructions:    7000000 cycles:    4606175 heartbeat IPC: 1.51980 cumulative IPC: 1.51970 (Simulation time: 0 hr 0 min 16 sec) 
Heartbeat CPU  0 instructions:    8000000 cycles:    5264059 heartbeat IPC: 1.52002 cumulative IPC: 1.51974 (Simulation time: 0 hr 0 min 18 sec) 
Heartbeat CPU  0 instructions:    9000001 cycles:    5921981 heartbeat IPC: 1.51994 cumulative IPC: 1.51976 (Simulation time: 0 hr 0 min 20 sec) 
Heartbeat CPU  0 instructions:   10000002 cycles:    6579905 heartbeat IPC: 1.51993 cumulative IPC: 1.51978 (Simulation time: 0 hr 0 min 23 sec) 
Heartbeat CPU  0 instructions:   11000001 cycles:    7237855 heartbeat IPC: 1.51987 cumulative IPC: 1.51979 (Simulation time: 0 hr 0 min 25 sec) 
Heartbeat CPU  0 instructions:   12000000 cycles:    7895690 heartbeat IPC: 1.52014 cumulative IPC: 1.51982 (Simulation time: 0 hr 0 min 27 sec) 
Heartbeat CPU  0 instructions:   13000001 cycles:    8553703 heartbeat IPC: 1.51973 cumulative IPC: 1.51981 (Simulation time: 0 hr 0 min 29 sec) 
Heartbeat CPU  0 instructions:   14000001 cycles:    9211511 heartbeat IPC: 1.52020 cumulative IPC: 1.51984 (Simulation time: 0 hr 0 min 32 sec) 
Heartbeat CPU  0 instructions:   15000000 cycles:    9869291 heartbeat IPC: 1.52026 cumulative IPC: 1.51987 (Simulation time: 0 hr 0 min 34 sec) 
Heartbeat CPU  0 instructions:   16000000 cycles:   10527134 heartbeat IPC: 1.52012 cumulative IPC: 1.51988 (Simulation time: 0 hr 0 min 36 sec) 
Heartbeat CPU  0 instructions:   17000002 cycles:   11185048 heartbeat IPC: 1.51996 cumulative IPC: 1.51989 (Simulation time: 0 hr 0 min 38 sec) 
Heartbeat CPU  0 instructions:   18000000 cycles:   11842910 heartbeat IPC: 1.52007 cumulative IPC: 1.51990 (Simulation time: 0 hr 0 min 40 sec) 
Heartbeat CPU  0 instructions:   19000001 cycles:   12500770 heartbeat IPC: 1.52008 cumulative IPC: 1.51991 (Simulation time: 0 hr 0 min 43 sec) 
Heartbeat CPU  0 instructions:   20000000 cycles:   13158571 heartbeat IPC: 1.52022 cumulative IPC: 1.51992 (Simulation time: 0 hr 0 min 45 sec) 
Heartbeat CPU  0 instructions:   21000003 cycles:   13816472 heartbeat IPC: 1.51999 cumulative IPC: 1.51993 (Simulation time: 0 hr 0 min 47 sec) 
Heartbeat CPU  0 instructions:   22000001 cycles:   14474252 heartbeat IPC: 1.52026 cumulative IPC: 1.51994 (Simulation time: 0 hr 0 min 49 sec) 
Heartbeat CPU  0 instructions:   23000001 cycles:   15132080 heartbeat IPC: 1.52015 cumulative IPC: 1.51995 (Simulation time: 0 hr 0 min 52 sec) 
Heartbeat CPU  0 instructions:   24000000 cycles:   15789835 heartbeat IPC: 1.52032 cumulative IPC: 1.51997 (Simulation time: 0 hr 0 min 54 sec) 
Heartbeat CPU  0 instructions:   25000001 cycles:   16447806 heartbeat IPC: 1.51983 cumulative IPC: 1.51996 (Simulation time: 0 hr 0 min 56 sec) 
Heartbeat CPU  0 instructions:   26000003 cycles:   17105486 heartbeat IPC: 1.52050 cumulative IPC: 1.51998 (Simulation time: 0 hr 0 min 58 sec) 
Heartbeat CPU  0 instructions:   27000000 cycles:   17763329 heartbeat IPC: 1.52012 cumulative IPC: 1.51999 (Simulation time: 0 hr 1 min 1 sec) 
Heartbeat CPU  0 instructions:   28000000 cycles:   18421130 heartbeat IPC: 1.52022 cumulative IPC: 1.51999 (Simulation time: 0 hr 1 min 3 sec) 
Heartbeat CPU  0 instructions:   29000000 cycles:   19079058 heartbeat IPC: 1.51992 cumulative IPC: 1.51999 (Simulation time: 0 hr 1 min 5 sec) 
Heartbeat CPU  0 instructions:   30000001 cycles:   19736898 heartbeat IPC: 1.52013 cumulative IPC: 1.52000 (Simulation time: 0 hr 1 min 7 sec) 
Heartbeat CPU  0 instructions:   31000002 cycles:   20394818 heartbeat IPC: 1.51994 cumulative IPC: 1.51999 (Simulation time: 0 hr 1 min 9 sec) 
Heartbeat CPU  0 instructions:   32000000 cycles:   21052763 heartbeat IPC: 1.51988 cumulative IPC: 1.51999 (Simulation time: 0 hr 1 min 12 sec) 
Heartbeat CPU  0 instructions:   33000003 cycles:   21710778 heartbeat IPC: 1.51973 cumulative IPC: 1.51998 (Simulation time: 0 hr 1 min 14 sec) 
Heartbeat CPU  0 instructions:   34000002 cycles:   22368715 heartbeat IPC: 1.51990 cumulative IPC: 1.51998 (Simulation time: 0 hr 1 min 16 sec) 
Heartbeat CPU  0 instructions:   35000000 cycles:   23026647 heartbeat IPC: 1.51991 cumulative IPC: 1.51998 (Simulation time: 0 hr 1 min 18 sec) 
Heartbeat CPU  0 instructions:   36000000 cycles:   23684609 heartbeat IPC: 1.51984 cumulative IPC: 1.51997 (Simulation time: 0 hr 1 min 20 sec) 
Heartbeat CPU  0 instructions:   37000002 cycles:   24342610 heartbeat IPC: 1.51976 cumulative IPC: 1.51997 (Simulation time: 0 hr 1 min 23 sec) 
Heartbeat CPU  0 instructions:   38000000 cycles:   25000499 heartbeat IPC: 1.52001 cumulative IPC: 1.51997 (Simulation time: 0 hr 1 min 25 sec) 
Heartbeat CPU  0 instructions:   39000000 cycles:   25658529 heartbeat IPC: 1.51969 cumulative IPC: 1.51996 (Simulation time: 0 hr 1 min 27 sec) 
Heartbeat CPU  0 instructions:   40000000 cycles:   26316380 heartbeat IPC: 1.52010 cumulative IPC: 1.51997 (Simulation time: 0 hr 1 min 29 sec) 
Heartbeat CPU  0 instructions:   41000000 cycles:   26974412 heartbeat IPC: 1.51968 cumulative IPC: 1.51996 (Simulation time: 0 hr 1 min 32 sec) 
Heartbeat CPU  0 instructions:   42000003 cycles:   27632380 heartbeat IPC: 1.51984 cumulative IPC: 1.51996 (Simulation time: 0 hr 1 min 34 sec) 
Heartbeat CPU  0 instructions:   43000001 cycles:   28290251 heartbeat IPC: 1.52005 cumulative IPC: 1.51996 (Simulation time: 0 hr 1 min 36 sec) 
Heartbeat CPU  0 instructions:   44000000 cycles:   28948071 heartbeat IPC: 1.52017 cumulative IPC: 1.51996 (Simulation time: 0 hr 1 min 38 sec) 
Heartbeat CPU  0 instructions:   45000000 cycles:   29605946 heartbeat IPC: 1.52005 cumulative IPC: 1.51996 (Simulation time: 0 hr 1 min 41 sec) 
Heartbeat CPU  0 instructions:   46000001 cycles:   30263789 heartbeat IPC: 1.52012 cumulative IPC: 1.51997 (Simulation time: 0 hr 1 min 43 sec) 
Heartbeat CPU  0 instructions:   47000003 cycles:   30921669 heartbeat IPC: 1.52004 cumulative IPC: 1.51997 (Simulation time: 0 hr 1 min 45 sec) 
Heartbeat CPU  0 instructions:   48000000 cycles:   31579361 heartbeat IPC: 1.52046 cumulative IPC: 1.51998 (Simulation time: 0 hr 1 min 47 sec) 
Heartbeat CPU  0 instructions:   49000000 cycles:   32237153 heartbeat IPC: 1.52024 cumulative IPC: 1.51999 (Simulation time: 0 hr 1 min 49 sec) 
Heartbeat CPU  0 instructions:   50000003 cycles:   32895081 heartbeat IPC: 1.51993 cumulative IPC: 1.51998 (Simulation time: 0 hr 1 min 52 sec) 
Heartbeat CPU  0 instructions:   51000000 cycles:   33552927 heartbeat IPC: 1.52011 cumulative IPC: 1.51999 (Simulation time: 0 hr 1 min 54 sec) 
Heartbeat CPU  0 instructions:   52000000 cycles:   34210731 heartbeat IPC: 1.52021 cumulative IPC: 1.51999 (Simulation time: 0 hr 1 min 56 sec) 
Heartbeat CPU  0 instructions:   53000003 cycles:   34868647 heartbeat IPC: 1.51996 cumulative IPC: 1.51999 (Simulation time: 0 hr 1 min 58 sec) 
Heartbeat CPU  0 instructions:   54000001 cycles:   35526531 heartbeat IPC: 1.52002 cumulative IPC: 1.51999 (Simulation time: 0 hr 2 min 0 sec) 
Heartbeat CPU  0 instructions:   55000003 cycles:   36184401 heartbeat IPC: 1.52006 cumulative IPC: 1.51999 (Simulation time: 0 hr 2 min 3 sec) 
Heartbeat CPU  0 instructions:   56000000 cycles:   36842262 heartbeat IPC: 1.52007 cumulative IPC: 1.51999 (Simulation time: 0 hr 2 min 5 sec) 
Heartbeat CPU  0 instructions:   57000001 cycles:   37500006 heartbeat IPC: 1.52035 cumulative IPC: 1.52000 (Simulation time: 0 hr 2 min 7 sec) 
Heartbeat CPU  0 instructions:   58000000 cycles:   38157943 heartbeat IPC: 1.51990 cumulative IPC: 1.52000 (Simulation time: 0 hr 2 min 9 sec) 
Heartbeat CPU  0 instructions:   59000002 cycles:   38815906 heartbeat IPC: 1.51985 cumulative IPC: 1.52000 (Simulation time: 0 hr 2 min 12 sec) 
Heartbeat CPU  0 instructions:   60000000 cycles:   39473699 heartbeat IPC: 1.52023 cumulative IPC: 1.52000 (Simulation time: 0 hr 2 min 14 sec) 
Heartbeat CPU  0 instructions:   61000002 cycles:   40131735 heartbeat IPC: 1.51968 cumulative IPC: 1.51999 (Simulation time: 0 hr 2 min 16 sec) 
Heartbeat CPU  0 instructions:   62000001 cycles:   40789672 heartbeat IPC: 1.51990 cumulative IPC: 1.51999 (Simulation time: 0 hr 2 min 18 sec) 
Heartbeat CPU  0 instructions:   63000002 cycles:   41447624 heartbeat IPC: 1.51987 cumulative IPC: 1.51999 (Simulation time: 0 hr 2 min 21 sec) 
Heartbeat CPU  0 instructions:   64000000 cycles:   42105579 heartbeat IPC: 1.51986 cumulative IPC: 1.51999 (Simulation time: 0 hr 2 min 23 sec) 
Heartbeat CPU  0 instructions:   65000002 cycles:   42763617 heartbeat IPC: 1.51967 cumulative IPC: 1.51998 (Simulation time: 0 hr 2 min 25 sec) 
Heartbeat CPU  0 instructions:   66000002 cycles:   43421548 heartbeat IPC: 1.51992 cumulative IPC: 1.51998 (Simulation time: 0 hr 2 min 27 sec) 
Heartbeat CPU  0 instructions:   67000002 cycles:   44079467 heartbeat IPC: 1.51994 cumulative IPC: 1.51998 (Simulation time: 0 hr 2 min 30 sec) 
Heartbeat CPU  0 instructions:   68000000 cycles:   44737350 heartbeat IPC: 1.52002 cumulative IPC: 1.51998 (Simulation time: 0 hr 2 min 32 sec) 
Heartbeat CPU  0 instructions:   69000000 cycles:   45395369 heartbeat IPC: 1.51971 cumulative IPC: 1.51998 (Simulation time: 0 hr 2 min 34 sec) 
Heartbeat CPU  0 instructions:   70000003 cycles:   46053206 heartbeat IPC: 1.52014 cumulative IPC: 1.51998 (Simulation time: 0 hr 2 min 36 sec) 
Heartbeat CPU  0 instructions:   71000003 cycles:   46711029 heartbeat IPC: 1.52017 cumulative IPC: 1.51998 (Simulation time: 0 hr 2 min 39 sec) 
Heartbeat CPU  0 instructions:   72000000 cycles:   47368906 heartbeat IPC: 1.52004 cumulative IPC: 1.51998 (Simulation time: 0 hr 2 min 41 sec) 
Heartbeat CPU  0 instructions:   73000001 cycles:   48026789 heartbeat IPC: 1.52003 cumulative IPC: 1.51999 (Simulation time: 0 hr 2 min 43 sec) 
Heartbeat CPU  0 instructions:   74000002 cycles:   48684629 heartbeat IPC: 1.52013 cumulative IPC: 1.51999 (Simulation time: 0 hr 2 min 45 sec) 
Heartbeat CPU  0 instructions:   75000001 cycles:   49342512 heartbeat IPC: 1.52003 cumulative IPC: 1.51999 (Simulation time: 0 hr 2 min 47 sec) 
Heartbeat CPU  0 instructions:   76000000 cycles:   50000335 heartbeat IPC: 1.52016 cumulative IPC: 1.51999 (Simulation time: 0 hr 2 min 50 sec) 
Heartbeat CPU  0 instructions:   77000002 cycles:   50658233 heartbeat IPC: 1.52000 cumulative IPC: 1.51999 (Simulation time: 0 hr 2 min 52 sec) 
Heartbeat CPU  0 instructions:   78000000 cycles:   51316207 heartbeat IPC: 1.51981 cumulative IPC: 1.51999 (Simulation time: 0 hr 2 min 54 sec) 
Heartbeat CPU  0 instructions:   79000003 cycles:   51974037 heartbeat IPC: 1.52015 cumulative IPC: 1.51999 (Simulation time: 0 hr 2 min 56 sec) 
Heartbeat CPU  0 instructions:   80000000 cycles:   52631877 heartbeat IPC: 1.52012 cumulative IPC: 1.51999 (Simulation time: 0 hr 2 min 58 sec) 
Heartbeat CPU  0 instructions:   81000001 cycles:   53289849 heartbeat IPC: 1.51982 cumulative IPC: 1.51999 (Simulation time: 0 hr 3 min 1 sec) 
Heartbeat CPU  0 instructions:   82000001 cycles:   53947713 heartbeat IPC: 1.52007 cumulative IPC: 1.51999 (Simulation time: 0 hr 3 min 3 sec) 
Heartbeat CPU  0 instructions:   83000001 cycles:   54605507 heartbeat IPC: 1.52023 cumulative IPC: 1.51999 (Simulation time: 0 hr 3 min 5 sec) 
Heartbeat CPU  0 instructions:   84000000 cycles:   55263311 heartbeat IPC: 1.52021 cumulative IPC: 1.52000 (Simulation time: 0 hr 3 min 7 sec) 
Heartbeat CPU  0 instructions:   85000000 cycles:   55921236 heartbeat IPC: 1.51993 cumulative IPC: 1.51999 (Simulation time: 0 hr 3 min 9 sec) 
Heartbeat CPU  0 instructions:   86000002 cycles:   56579095 heartbeat IPC: 1.52009 cumulative IPC: 1.52000 (Simulation time: 0 hr 3 min 11 sec) 
Heartbeat CPU  0 instructions:   87000001 cycles:   57237064 heartbeat IPC: 1.51983 cumulative IPC: 1.51999 (Simulation time: 0 hr 3 min 14 sec) 
Heartbeat CPU  0 instructions:   88000000 cycles:   57895130 heartbeat IPC: 1.51960 cumulative IPC: 1.51999 (Simulation time: 0 hr 3 min 16 sec) 
Heartbeat CPU  0 instructions:   89000001 cycles:   58553088 heartbeat IPC: 1.51986 cumulative IPC: 1.51999 (Simulation time: 0 hr 3 min 18 sec) 
Heartbeat CPU  0 instructions:   90000003 cycles:   59211057 heartbeat IPC: 1.51983 cumulative IPC: 1.51999 (Simulation time: 0 hr 3 min 20 sec) 
Heartbeat CPU  0 instructions:   91000000 cycles:   59868968 heartbeat IPC: 1.51996 cumulative IPC: 1.51999 (Simulation time: 0 hr 3 min 23 sec) 
Heartbeat CPU  0 instructions:   92000000 cycles:   60526933 heartbeat IPC: 1.51984 cumulative IPC: 1.51998 (Simulation time: 0 hr 3 min 25 sec) 
Heartbeat CPU  0 instructions:   93000001 cycles:   61184862 heartbeat IPC: 1.51992 cumulative IPC: 1.51998 (Simulation time: 0 hr 3 min 27 sec) 
Heartbeat CPU  0 instructions:   94000001 cycles:   61842804 heartbeat IPC: 1.51989 cumulative IPC: 1.51998 (Simulation time: 0 hr 3 min 29 sec) 
Heartbeat CPU  0 instructions:   95000000 cycles:   62500697 heartbeat IPC: 1.52000 cumulative IPC: 1.51998 (Simulation time: 0 hr 3 min 32 sec) 
Heartbeat CPU  0 instructions:   96000000 cycles:   63158549 heartbeat IPC: 1.52010 cumulative IPC: 1.51998 (Simulation time: 0 hr 3 min 34 sec) 
Heartbeat CPU  0 instructions:   97000000 cycles:   63816557 heartbeat IPC: 1.51974 cumulative IPC: 1.51998 (Simulation time: 0 hr 3 min 36 sec) 
Heartbeat CPU  0 instructions:   98000001 cycles:   64474493 heartbeat IPC: 1.51991 cumulative IPC: 1.51998 (Simulation time: 0 hr 3 min 38 sec) 
Heartbeat CPU  0 instructions:   99000003 cycles:   65132391 heartbeat IPC: 1.52000 cumulative IPC: 1.51998 (Simulation time: 0 hr 3 min 40 sec) 
Heartbeat CPU  0 instructions:  100000000 cycles:   65790255 heartbeat IPC: 1.52007 cumulative IPC: 1.51998 (Simulation time: 0 hr 3 min 43 sec) 

Warmup complete CPU  0 instructions:  100000002 cycles:   65790258 (Simulation time: 0 hr 3 min 43 sec) 

Heartbeat CPU  0 instructions:  101000001 cycles:   68164692 heartbeat IPC: 0.42115 cumulative IPC: 0.42115 (Simulation time: 0 hr 3 min 46 sec) 
Heartbeat CPU  0 instructions:  102000000 cycles:   70527833 heartbeat IPC: 0.42317 cumulative IPC: 0.42216 (Simulation time: 0 hr 3 min 49 sec) 
Heartbeat CPU  0 instructions:  103000001 cycles:   72894430 heartbeat IPC: 0.42255 cumulative IPC: 0.42229 (Simulation time: 0 hr 3 min 52 sec) 
Heartbeat CPU  0 instructions:  104000000 cycles:   75270557 heartbeat IPC: 0.42085 cumulative IPC: 0.42193 (Simulation time: 0 hr 3 min 56 sec) 
Heartbeat CPU  0 instructions:  105000002 cycles:   77630930 heartbeat IPC: 0.42366 cumulative IPC: 0.42227 (Simulation time: 0 hr 3 min 59 sec) 
Heartbeat CPU  0 instructions:  106000001 cycles:   79984696 heartbeat IPC: 0.42485 cumulative IPC: 0.42270 (Simulation time: 0 hr 4 min 2 sec) 
Heartbeat CPU  0 instructions:  107000001 cycles:   82353403 heartbeat IPC: 0.42217 cumulative IPC: 0.42263 (Simulation time: 0 hr 4 min 6 sec) 
Heartbeat CPU  0 instructions:  108000000 cycles:   84712255 heartbeat IPC: 0.42393 cumulative IPC: 0.42279 (Simulation time: 0 hr 4 min 9 sec) 
Heartbeat CPU  0 instructions:  109000001 cycles:   87081420 heartbeat IPC: 0.42209 cumulative IPC: 0.42271 (Simulation time: 0 hr 4 min 12 sec) 
Heartbeat CPU  0 instructions:  110000000 cycles:   89441597 heartbeat IPC: 0.42370 cumulative IPC: 0.42281 (Simulation time: 0 hr 4 min 15 sec) 
Heartbeat CPU  0 instructions:  111000000 cycles:   91816603 heartbeat IPC: 0.42105 cumulative IPC: 0.42265 (Simulation time: 0 hr 4 min 19 sec) 
Heartbeat CPU  0 instructions:  112000000 cycles:   94181351 heartbeat IPC: 0.42288 cumulative IPC: 0.42267 (Simulation time: 0 hr 4 min 22 sec) 
Heartbeat CPU  0 instructions:  113000000 cycles:   96534402 heartbeat IPC: 0.42498 cumulative IPC: 0.42284 (Simulation time: 0 hr 4 min 25 sec) 
Heartbeat CPU  0 instructions:  114000002 cycles:   98908314 heartbeat IPC: 0.42125 cumulative IPC: 0.42273 (Simulation time: 0 hr 4 min 29 sec) 
Heartbeat CPU  0 instructions:  115000000 cycles:  101266678 heartbeat IPC: 0.42402 cumulative IPC: 0.42282 (Simulation time: 0 hr 4 min 32 sec) 
Heartbeat CPU  0 instructions:  116000000 cycles:  103645766 heartbeat IPC: 0.42033 cumulative IPC: 0.42266 (Simulation time: 0 hr 4 min 35 sec) 
Heartbeat CPU  0 instructions:  117000003 cycles:  106003368 heartbeat IPC: 0.42416 cumulative IPC: 0.42275 (Simulation time: 0 hr 4 min 39 sec) 
Heartbeat CPU  0 instructions:  118000000 cycles:  108370475 heartbeat IPC: 0.42246 cumulative IPC: 0.42273 (Simulation time: 0 hr 4 min 42 sec) 
Heartbeat CPU  0 instructions:  119000001 cycles:  110716488 heartbeat IPC: 0.42626 cumulative IPC: 0.42292 (Simulation time: 0 hr 4 min 45 sec) 
Heartbeat CPU  0 instructions:  120000000 cycles:  113092300 heartbeat IPC: 0.42091 cumulative IPC: 0.42281 (Simulation time: 0 hr 4 min 49 sec) 
Heartbeat CPU  0 instructions:  121000003 cycles:  115443745 heartbeat IPC: 0.42527 cumulative IPC: 0.42293 (Simulation time: 0 hr 4 min 52 sec) 
Heartbeat CPU  0 instructions:  122000000 cycles:  117827607 heartbeat IPC: 0.41949 cumulative IPC: 0.42277 (Simulation time: 0 hr 4 min 55 sec) 
Heartbeat CPU  0 instructions:  123000002 cycles:  120187997 heartbeat IPC: 0.42366 cumulative IPC: 0.42281 (Simulation time: 0 hr 4 min 58 sec) 
Heartbeat CPU  0 instructions:  124000000 cycles:  122562518 heartbeat IPC: 0.42114 cumulative IPC: 0.42274 (Simulation time: 0 hr 5 min 2 sec) 
Heartbeat CPU  0 instructions:  125000003 cycles:  124918298 heartbeat IPC: 0.42449 cumulative IPC: 0.42281 (Simulation time: 0 hr 5 min 5 sec) 
Heartbeat CPU  0 instructions:  126000002 cycles:  127278257 heartbeat IPC: 0.42374 cumulative IPC: 0.42285 (Simulation time: 0 hr 5 min 8 sec) 
Heartbeat CPU  0 instructions:  127000000 cycles:  129638488 heartbeat IPC: 0.42369 cumulative IPC: 0.42288 (Simulation time: 0 hr 5 min 12 sec) 
Heartbeat CPU  0 instructions:  128000000 cycles:  132004131 heartbeat IPC: 0.42272 cumulative IPC: 0.42287 (Simulation time: 0 hr 5 min 15 sec) 
Heartbeat CPU  0 instructions:  129000000 cycles:  134360436 heartbeat IPC: 0.42439 cumulative IPC: 0.42292 (Simulation time: 0 hr 5 min 19 sec) 
Heartbeat CPU  0 instructions:  130000001 cycles:  136714243 heartbeat IPC: 0.42484 cumulative IPC: 0.42299 (Simulation time: 0 hr 5 min 22 sec) 
Heartbeat CPU  0 instructions:  131000000 cycles:  139082400 heartbeat IPC: 0.42227 cumulative IPC: 0.42296 (Simulation time: 0 hr 5 min 25 sec) 
Heartbeat CPU  0 instructions:  132000000 cycles:  141446670 heartbeat IPC: 0.42296 cumulative IPC: 0.42296 (Simulation time: 0 hr 5 min 28 sec) 
Heartbeat CPU  0 instructions:  133000001 cycles:  143820000 heartbeat IPC: 0.42135 cumulative IPC: 0.42292 (Simulation time: 0 hr 5 min 32 sec) 
Heartbeat CPU  0 instructions:  134000000 cycles:  146188623 heartbeat IPC: 0.42219 cumulative IPC: 0.42289 (Simulation time: 0 hr 5 min 35 sec) 
Heartbeat CPU  0 instructions:  135000002 cycles:  148567705 heartbeat IPC: 0.42033 cumulative IPC: 0.42282 (Simulation time: 0 hr 5 min 38 sec) 
Heartbeat CPU  0 instructions:  136000000 cycles:  150924690 heartbeat IPC: 0.42427 cumulative IPC: 0.42286 (Simulation time: 0 hr 5 min 41 sec) 
Heartbeat CPU  0 instructions:  137000002 cycles:  153312755 heartbeat IPC: 0.41875 cumulative IPC: 0.42275 (Simulation time: 0 hr 5 min 44 sec) 
Heartbeat CPU  0 instructions:  138000000 cycles:  155665192 heartbeat IPC: 0.42509 cumulative IPC: 0.42281 (Simulation time: 0 hr 5 min 48 sec) 
Heartbeat CPU  0 instructions:  139000002 cycles:  158036399 heartbeat IPC: 0.42173 cumulative IPC: 0.42278 (Simulation time: 0 hr 5 min 51 sec) 
Heartbeat CPU  0 instructions:  140000000 cycles:  160384201 heartbeat IPC: 0.42593 cumulative IPC: 0.42286 (Simulation time: 0 hr 5 min 54 sec) 
Heartbeat CPU  0 instructions:  141000003 cycles:  162774250 heartbeat IPC: 0.41840 cumulative IPC: 0.42275 (Simulation time: 0 hr 5 min 57 sec) 
Heartbeat CPU  0 instructions:  142000001 cycles:  165128823 heartbeat IPC: 0.42470 cumulative IPC: 0.42280 (Simulation time: 0 hr 6 min 1 sec) 
Heartbeat CPU  0 instructions:  143000001 cycles:  167504994 heartbeat IPC: 0.42085 cumulative IPC: 0.42275 (Simulation time: 0 hr 6 min 4 sec) 
Heartbeat CPU  0 instructions:  144000000 cycles:  169864252 heartbeat IPC: 0.42386 cumulative IPC: 0.42278 (Simulation time: 0 hr 6 min 7 sec) 
Heartbeat CPU  0 instructions:  145000001 cycles:  172235554 heartbeat IPC: 0.42171 cumulative IPC: 0.42275 (Simulation time: 0 hr 6 min 10 sec) 
Heartbeat CPU  0 instructions:  146000003 cycles:  174594247 heartbeat IPC: 0.42396 cumulative IPC: 0.42278 (Simulation time: 0 hr 6 min 14 sec) 
Heartbeat CPU  0 instructions:  147000002 cycles:  176974794 heartbeat IPC: 0.42007 cumulative IPC: 0.42272 (Simulation time: 0 hr 6 min 17 sec) 
Heartbeat CPU  0 instructions:  148000000 cycles:  179347620 heartbeat IPC: 0.42144 cumulative IPC: 0.42269 (Simulation time: 0 hr 6 min 20 sec) 
Heartbeat CPU  0 instructions:  149000001 cycles:  181718724 heartbeat IPC: 0.42174 cumulative IPC: 0.42267 (Simulation time: 0 hr 6 min 23 sec) 
Heartbeat CPU  0 instructions:  150000002 cycles:  184067572 heartbeat IPC: 0.42574 cumulative IPC: 0.42274 (Simulation time: 0 hr 6 min 27 sec) 
Heartbeat CPU  0 instructions:  151000001 cycles:  186426211 heartbeat IPC: 0.42397 cumulative IPC: 0.42276 (Simulation time: 0 hr 6 min 30 sec) 
Heartbeat CPU  0 instructions:  152000000 cycles:  188780267 heartbeat IPC: 0.42480 cumulative IPC: 0.42280 (Simulation time: 0 hr 6 min 33 sec) 
Heartbeat CPU  0 instructions:  153000002 cycles:  191155951 heartbeat IPC: 0.42093 cumulative IPC: 0.42276 (Simulation time: 0 hr 6 min 37 sec) 
Heartbeat CPU  0 instructions:  154000001 cycles:  193523232 heartbeat IPC: 0.42243 cumulative IPC: 0.42276 (Simulation time: 0 hr 6 min 40 sec) 
Heartbeat CPU  0 instructions:  155000002 cycles:  195887587 heartbeat IPC: 0.42295 cumulative IPC: 0.42276 (Simulation time: 0 hr 6 min 43 sec) 
Heartbeat CPU  0 instructions:  156000000 cycles:  198263314 heartbeat IPC: 0.42092 cumulative IPC: 0.42273 (Simulation time: 0 hr 6 min 47 sec) 
Heartbeat CPU  0 instructions:  157000002 cycles:  200619612 heartbeat IPC: 0.42440 cumulative IPC: 0.42276 (Simulation time: 0 hr 6 min 50 sec) 
Heartbeat CPU  0 instructions:  158000000 cycles:  203000497 heartbeat IPC: 0.42001 cumulative IPC: 0.42271 (Simulation time: 0 hr 6 min 53 sec) 
Heartbeat CPU  0 instructions:  159000000 cycles:  205354026 heartbeat IPC: 0.42489 cumulative IPC: 0.42275 (Simulation time: 0 hr 6 min 56 sec) 
Heartbeat CPU  0 instructions:  160000000 cycles:  207727142 heartbeat IPC: 0.42139 cumulative IPC: 0.42272 (Simulation time: 0 hr 7 min 0 sec) 
Heartbeat CPU  0 instructions:  161000000 cycles:  210089373 heartbeat IPC: 0.42333 cumulative IPC: 0.42273 (Simulation time: 0 hr 7 min 3 sec) 
Heartbeat CPU  0 instructions:  162000000 cycles:  212450430 heartbeat IPC: 0.42354 cumulative IPC: 0.42275 (Simulation time: 0 hr 7 min 6 sec) 
Heartbeat CPU  0 instructions:  163000001 cycles:  214800600 heartbeat IPC: 0.42550 cumulative IPC: 0.42279 (Simulation time: 0 hr 7 min 9 sec) 
Heartbeat CPU  0 instructions:  164000000 cycles:  217177529 heartbeat IPC: 0.42071 cumulative IPC: 0.42276 (Simulation time: 0 hr 7 min 13 sec) 
Heartbeat CPU  0 instructions:  165000001 cycles:  219543133 heartbeat IPC: 0.42273 cumulative IPC: 0.42276 (Simulation time: 0 hr 7 min 16 sec) 
Heartbeat CPU  0 instructions:  166000002 cycles:  221916076 heartbeat IPC: 0.42142 cumulative IPC: 0.42274 (Simulation time: 0 hr 7 min 19 sec) 
Heartbeat CPU  0 instructions:  167000001 cycles:  224266660 heartbeat IPC: 0.42543 cumulative IPC: 0.42278 (Simulation time: 0 hr 7 min 22 sec) 
Heartbeat CPU  0 instructions:  168000000 cycles:  226642267 heartbeat IPC: 0.42094 cumulative IPC: 0.42275 (Simulation time: 0 hr 7 min 26 sec) 
Heartbeat CPU  0 instructions:  169000002 cycles:  229009825 heartbeat IPC: 0.42238 cumulative IPC: 0.42274 (Simulation time: 0 hr 7 min 29 sec) 
Heartbeat CPU  0 instructions:  170000001 cycles:  231393102 heartbeat IPC: 0.41959 cumulative IPC: 0.42270 (Simulation time: 0 hr 7 min 32 sec) 
Heartbeat CPU  0 instructions:  171000000 cycles:  233748354 heartbeat IPC: 0.42458 cumulative IPC: 0.42272 (Simulation time: 0 hr 7 min 35 sec) 
Heartbeat CPU  0 instructions:  172000000 cycles:  236128170 heartbeat IPC: 0.42020 cumulative IPC: 0.42269 (Simulation time: 0 hr 7 min 39 sec) 
Heartbeat CPU  0 instructions:  173000000 cycles:  238478680 heartbeat IPC: 0.42544 cumulative IPC: 0.42273 (Simulation time: 0 hr 7 min 42 sec) 
Heartbeat CPU  0 instructions:  174000000 cycles:  240843312 heartbeat IPC: 0.42290 cumulative IPC: 0.42273 (Simulation time: 0 hr 7 min 45 sec) 
Heartbeat CPU  0 instructions:  175000003 cycles:  243201853 heartbeat IPC: 0.42399 cumulative IPC: 0.42275 (Simulation time: 0 hr 7 min 49 sec) 
Heartbeat CPU  0 instructions:  176000000 cycles:  245566030 heartbeat IPC: 0.42298 cumulative IPC: 0.42275 (Simulation time: 0 hr 7 min 52 sec) 
Heartbeat CPU  0 instructions:  177000000 cycles:  247922139 heartbeat IPC: 0.42443 cumulative IPC: 0.42277 (Simulation time: 0 hr 7 min 55 sec) 
Heartbeat CPU  0 instructions:  178000002 cycles:  250290553 heartbeat IPC: 0.42222 cumulative IPC: 0.42276 (Simulation time: 0 hr 7 min 59 sec) 
Heartbeat CPU  0 instructions:  179000001 cycles:  252653481 heartbeat IPC: 0.42320 cumulative IPC: 0.42277 (Simulation time: 0 hr 8 min 2 sec) 
Heartbeat CPU  0 instructions:  180000000 cycles:  255013986 heartbeat IPC: 0.42364 cumulative IPC: 0.42278 (Simulation time: 0 hr 8 min 5 sec) 
Heartbeat CPU  0 instructions:  181000001 cycles:  257383760 heartbeat IPC: 0.42198 cumulative IPC: 0.42277 (Simulation time: 0 hr 8 min 9 sec) 
Heartbeat CPU  0 instructions:  182000000 cycles:  259745086 heartbeat IPC: 0.42349 cumulative IPC: 0.42278 (Simulation time: 0 hr 8 min 12 sec) 
Heartbeat CPU  0 instructions:  183000002 cycles:  262112390 heartbeat IPC: 0.42242 cumulative IPC: 0.42277 (Simulation time: 0 hr 8 min 15 sec) 
Heartbeat CPU  0 instructions:  184000000 cycles:  264465981 heartbeat IPC: 0.42488 cumulative IPC: 0.42280 (Simulation time: 0 hr 8 min 19 sec) 
Heartbeat CPU  0 instructions:  185000000 cycles:  266842228 heartbeat IPC: 0.42083 cumulative IPC: 0.42278 (Simulation time: 0 hr 8 min 22 sec) 
Heartbeat CPU  0 instructions:  186000000 cycles:  269189744 heartbeat IPC: 0.42598 cumulative IPC: 0.42281 (Simulation time: 0 hr 8 min 25 sec) 
Heartbeat CPU  0 instructions:  187000003 cycles:  271560485 heartbeat IPC: 0.42181 cumulative IPC: 0.42280 (Simulation time: 0 hr 8 min 29 sec) 
Heartbeat CPU  0 instructions:  188000000 cycles:  273909499 heartbeat IPC: 0.42571 cumulative IPC: 0.42283 (Simulation time: 0 hr 8 min 32 sec) 
Heartbeat CPU  0 instructions:  189000000 cycles:  276275070 heartbeat IPC: 0.42273 cumulative IPC: 0.42283 (Simulation time: 0 hr 8 min 35 sec) 
Heartbeat CPU  0 instructions:  190000003 cycles:  278635123 heartbeat IPC: 0.42372 cumulative IPC: 0.42284 (Simulation time: 0 hr 8 min 39 sec) 
Heartbeat CPU  0 instructions:  191000001 cycles:  281007302 heartbeat IPC: 0.42155 cumulative IPC: 0.42283 (Simulation time: 0 hr 8 min 42 sec) 
Heartbeat CPU  0 instructions:  192000000 cycles:  283368911 heartbeat IPC: 0.42344 cumulative IPC: 0.42284 (Simulation time: 0 hr 8 min 45 sec) 
Heartbeat CPU  0 instructions:  193000001 cycles:  285748384 heartbeat IPC: 0.42026 cumulative IPC: 0.42281 (Simulation time: 0 hr 8 min 49 sec) 
Heartbeat CPU  0 instructions:  194000001 cycles:  288105460 heartbeat IPC: 0.42425 cumulative IPC: 0.42282 (Simulation time: 0 hr 8 min 52 sec) 
Heartbeat CPU  0 instructions:  195000002 cycles:  290479465 heartbeat IPC: 0.42123 cumulative IPC: 0.42281 (Simulation time: 0 hr 8 min 55 sec) 
Heartbeat CPU  0 instructions:  196000000 cycles:  292835526 heartbeat IPC: 0.42444 cumulative IPC: 0.42282 (Simulation time: 0 hr 8 min 58 sec) 
Heartbeat CPU  0 instructions:  197000001 cycles:  295203534 heartbeat IPC: 0.42230 cumulative IPC: 0.42282 (Simulation time: 0 hr 9 min 2 sec) 
Heartbeat CPU  0 instructions:  198000002 cycles:  297569084 heartbeat IPC: 0.42274 cumulative IPC: 0.42282 (Simulation time: 0 hr 9 min 5 sec) 
Heartbeat CPU  0 instructions:  199000003 cycles:  299925213 heartbeat IPC: 0.42443 cumulative IPC: 0.42283 (Simulation time: 0 hr 9 min 8 sec) 
Heartbeat CPU  0 instructions:  200000000 cycles:  302282698 heartbeat IPC: 0.42418 cumulative IPC: 0.42285 (Simulation time: 0 hr 9 min 12 sec) 
Heartbeat CPU  0 instructions:  201000002 cycles:  304649133 heartbeat IPC: 0.42258 cumulative IPC: 0.42284 (Simulation time: 0 hr 9 min 15 sec) 
Heartbeat CPU  0 instructions:  202000000 cycles:  307025590 heartbeat IPC: 0.42079 cumulative IPC: 0.42282 (Simulation time: 0 hr 9 min 18 sec) 
Heartbeat CPU  0 instructions:  203000000 cycles:  309389915 heartbeat IPC: 0.42295 cumulative IPC: 0.42282 (Simulation time: 0 hr 9 min 22 sec) 
Heartbeat CPU  0 instructions:  204000000 cycles:  311766868 heartbeat IPC: 0.42071 cumulative IPC: 0.42280 (Simulation time: 0 hr 9 min 25 sec) 
Heartbeat CPU  0 instructions:  205000003 cycles:  314127544 heartbeat IPC: 0.42361 cumulative IPC: 0.42281 (Simulation time: 0 hr 9 min 28 sec) 
Heartbeat CPU  0 instructions:  206000002 cycles:  316507545 heartbeat IPC: 0.42017 cumulative IPC: 0.42279 (Simulation time: 0 hr 9 min 31 sec) 
Heartbeat CPU  0 instructions:  207000000 cycles:  318861893 heartbeat IPC: 0.42475 cumulative IPC: 0.42281 (Simulation time: 0 hr 9 min 34 sec) 
Heartbeat CPU  0 instructions:  208000000 cycles:  321233309 heartbeat IPC: 0.42169 cumulative IPC: 0.42279 (Simulation time: 0 hr 9 min 38 sec) 
Heartbeat CPU  0 instructions:  209000002 cycles:  323587834 heartbeat IPC: 0.42471 cumulative IPC: 0.42281 (Simulation time: 0 hr 9 min 41 sec) 
Heartbeat CPU  0 instructions:  210000001 cycles:  325964371 heartbeat IPC: 0.42078 cumulative IPC: 0.42279 (Simulation time: 0 hr 9 min 44 sec) 
Heartbeat CPU  0 instructions:  211000000 cycles:  328305813 heartbeat IPC: 0.42709 cumulative IPC: 0.42283 (Simulation time: 0 hr 9 min 47 sec) 
Heartbeat CPU  0 instructions:  212000000 cycles:  330690014 heartbeat IPC: 0.41943 cumulative IPC: 0.42280 (Simulation time: 0 hr 9 min 50 sec) 
Heartbeat CPU  0 instructions:  213000001 cycles:  333035955 heartbeat IPC: 0.42627 cumulative IPC: 0.42283 (Simulation time: 0 hr 9 min 53 sec) 
Heartbeat CPU  0 instructions:  214000000 cycles:  335410800 heartbeat IPC: 0.42108 cumulative IPC: 0.42282 (Simulation time: 0 hr 9 min 57 sec) 
Heartbeat CPU  0 instructions:  215000002 cycles:  337750346 heartbeat IPC: 0.42743 cumulative IPC: 0.42286 (Simulation time: 0 hr 10 min 0 sec) 
Heartbeat CPU  0 instructions:  216000000 cycles:  340127591 heartbeat IPC: 0.42065 cumulative IPC: 0.42284 (Simulation time: 0 hr 10 min 3 sec) 
Heartbeat CPU  0 instructions:  217000001 cycles:  342489571 heartbeat IPC: 0.42337 cumulative IPC: 0.42284 (Simulation time: 0 hr 10 min 6 sec) 
Heartbeat CPU  0 instructions:  218000002 cycles:  344862257 heartbeat IPC: 0.42146 cumulative IPC: 0.42283 (Simulation time: 0 hr 10 min 9 sec) 
Heartbeat CPU  0 instructions:  219000001 cycles:  347217118 heartbeat IPC: 0.42465 cumulative IPC: 0.42285 (Simulation time: 0 hr 10 min 12 sec) 
Heartbeat CPU  0 instructions:  220000000 cycles:  349586960 heartbeat IPC: 0.42197 cumulative IPC: 0.42284 (Simulation time: 0 hr 10 min 15 sec) 
Heartbeat CPU  0 instructions:  221000001 cycles:  351946031 heartbeat IPC: 0.42390 cumulative IPC: 0.42285 (Simulation time: 0 hr 10 min 19 sec) 
Heartbeat CPU  0 instructions:  222000002 cycles:  354306735 heartbeat IPC: 0.42360 cumulative IPC: 0.42285 (Simulation time: 0 hr 10 min 22 sec) 
Heartbeat CPU  0 instructions:  223000000 cycles:  356663864 heartbeat IPC: 0.42424 cumulative IPC: 0.42286 (Simulation time: 0 hr 10 min 25 sec) 
Heartbeat CPU  0 instructions:  224000000 cycles:  359019499 heartbeat IPC: 0.42451 cumulative IPC: 0.42288 (Simulation time: 0 hr 10 min 28 sec) 
Heartbeat CPU  0 instructions:  225000002 cycles:  361380320 heartbeat IPC: 0.42358 cumulative IPC: 0.42288 (Simulation time: 0 hr 10 min 31 sec) 
Heartbeat CPU  0 instructions:  226000003 cycles:  363745143 heartbeat IPC: 0.42287 cumulative IPC: 0.42288 (Simulation time: 0 hr 10 min 34 sec) 
Heartbeat CPU  0 instructions:  227000002 cycles:  366106223 heartbeat IPC: 0.42353 cumulative IPC: 0.42289 (Simulation time: 0 hr 10 min 37 sec) 
Heartbeat CPU  0 instructions:  228000000 cycles:  368468388 heartbeat IPC: 0.42334 cumulative IPC: 0.42289 (Simulation time: 0 hr 10 min 41 sec) 
Heartbeat CPU  0 instructions:  229000000 cycles:  370832523 heartbeat IPC: 0.42299 cumulative IPC: 0.42289 (Simulation time: 0 hr 10 min 44 sec) 
Heartbeat CPU  0 instructions:  230000002 cycles:  373187696 heartbeat IPC: 0.42460 cumulative IPC: 0.42291 (Simulation time: 0 hr 10 min 47 sec) 
Heartbeat CPU  0 instructions:  231000001 cycles:  375547041 heartbeat IPC: 0.42385 cumulative IPC: 0.42291 (Simulation time: 0 hr 10 min 50 sec) 
Heartbeat CPU  0 instructions:  232000000 cycles:  377894379 heartbeat IPC: 0.42601 cumulative IPC: 0.42294 (Simulation time: 0 hr 10 min 53 sec) 
Heartbeat CPU  0 instructions:  233000000 cycles:  380274666 heartbeat IPC: 0.42012 cumulative IPC: 0.42291 (Simulation time: 0 hr 10 min 56 sec) 
Heartbeat CPU  0 instructions:  234000001 cycles:  382620035 heartbeat IPC: 0.42637 cumulative IPC: 0.42294 (Simulation time: 0 hr 10 min 59 sec) 
Heartbeat CPU  0 instructions:  235000001 cycles:  385000605 heartbeat IPC: 0.42007 cumulative IPC: 0.42292 (Simulation time: 0 hr 11 min 2 sec) 
Heartbeat CPU  0 instructions:  236000000 cycles:  387355763 heartbeat IPC: 0.42460 cumulative IPC: 0.42293 (Simulation time: 0 hr 11 min 6 sec) 
Heartbeat CPU  0 instructions:  237000000 cycles:  389728872 heartbeat IPC: 0.42139 cumulative IPC: 0.42292 (Simulation time: 0 hr 11 min 9 sec) 
Heartbeat CPU  0 instructions:  238000000 cycles:  392072733 heartbeat IPC: 0.42665 cumulative IPC: 0.42295 (Simulation time: 0 hr 11 min 12 sec) 
Heartbeat CPU  0 instructions:  239000001 cycles:  394457080 heartbeat IPC: 0.41940 cumulative IPC: 0.42292 (Simulation time: 0 hr 11 min 15 sec) 
Heartbeat CPU  0 instructions:  240000000 cycles:  396820645 heartbeat IPC: 0.42309 cumulative IPC: 0.42292 (Simulation time: 0 hr 11 min 18 sec) 
Heartbeat CPU  0 instructions:  241000000 cycles:  399183778 heartbeat IPC: 0.42317 cumulative IPC: 0.42292 (Simulation time: 0 hr 11 min 21 sec) 
Heartbeat CPU  0 instructions:  242000003 cycles:  401541550 heartbeat IPC: 0.42413 cumulative IPC: 0.42293 (Simulation time: 0 hr 11 min 24 sec) 
Heartbeat CPU  0 instructions:  243000000 cycles:  403907080 heartbeat IPC: 0.42274 cumulative IPC: 0.42293 (Simulation time: 0 hr 11 min 28 sec) 
Heartbeat CPU  0 instructions:  244000000 cycles:  406265189 heartbeat IPC: 0.42407 cumulative IPC: 0.42294 (Simulation time: 0 hr 11 min 31 sec) 
Heartbeat CPU  0 instructions:  245000001 cycles:  408622014 heartbeat IPC: 0.42430 cumulative IPC: 0.42295 (Simulation time: 0 hr 11 min 34 sec) 
Heartbeat CPU  0 instructions:  246000001 cycles:  410986429 heartbeat IPC: 0.42294 cumulative IPC: 0.42295 (Simulation time: 0 hr 11 min 37 sec) 
Heartbeat CPU  0 instructions:  247000001 cycles:  413344963 heartbeat IPC: 0.42399 cumulative IPC: 0.42296 (Simulation time: 0 hr 11 min 40 sec) 
Heartbeat CPU  0 instructions:  248000000 cycles:  415701059 heartbeat IPC: 0.42443 cumulative IPC: 0.42296 (Simulation time: 0 hr 11 min 43 sec) 
Heartbeat CPU  0 instructions:  249000003 cycles:  418052497 heartbeat IPC: 0.42527 cumulative IPC: 0.42298 (Simulation time: 0 hr 11 min 47 sec) 
Heartbeat CPU  0 instructions:  250000001 cycles:  420425082 heartbeat IPC: 0.42148 cumulative IPC: 0.42297 (Simulation time: 0 hr 11 min 50 sec) 
Heartbeat CPU  0 instructions:  251000000 cycles:  422781788 heartbeat IPC: 0.42432 cumulative IPC: 0.42298 (Simulation time: 0 hr 11 min 53 sec) 
Heartbeat CPU  0 instructions:  252000000 cycles:  425140889 heartbeat IPC: 0.42389 cumulative IPC: 0.42299 (Simulation time: 0 hr 11 min 56 sec) 
Heartbeat CPU  0 instructions:  253000000 cycles:  427490149 heartbeat IPC: 0.42567 cumulative IPC: 0.42300 (Simulation time: 0 hr 11 min 59 sec) 
Heartbeat CPU  0 instructions:  254000001 cycles:  429870673 heartbeat IPC: 0.42008 cumulative IPC: 0.42298 (Simulation time: 0 hr 12 min 2 sec) 
Heartbeat CPU  0 instructions:  255000000 cycles:  432225200 heartbeat IPC: 0.42471 cumulative IPC: 0.42299 (Simulation time: 0 hr 12 min 5 sec) 
Heartbeat CPU  0 instructions:  256000000 cycles:  434598004 heartbeat IPC: 0.42144 cumulative IPC: 0.42298 (Simulation time: 0 hr 12 min 8 sec) 
Heartbeat CPU  0 instructions:  257000000 cycles:  436947577 heartbeat IPC: 0.42561 cumulative IPC: 0.42300 (Simulation time: 0 hr 12 min 12 sec) 
Heartbeat CPU  0 instructions:  258000003 cycles:  439322867 heartbeat IPC: 0.42100 cumulative IPC: 0.42299 (Simulation time: 0 hr 12 min 15 sec) 
Heartbeat CPU  0 instructions:  259000002 cycles:  441652964 heartbeat IPC: 0.42917 cumulative IPC: 0.42303 (Simulation time: 0 hr 12 min 18 sec) 
Heartbeat CPU  0 instructions:  260000000 cycles:  444033969 heartbeat IPC: 0.41999 cumulative IPC: 0.42301 (Simulation time: 0 hr 12 min 21 sec) 
Heartbeat CPU  0 instructions:  261000003 cycles:  446386180 heartbeat IPC: 0.42513 cumulative IPC: 0.42302 (Simulation time: 0 hr 12 min 25 sec) 
Heartbeat CPU  0 instructions:  262000000 cycles:  448769170 heartbeat IPC: 0.41964 cumulative IPC: 0.42300 (Simulation time: 0 hr 12 min 28 sec) 
Heartbeat CPU  0 instructions:  263000000 cycles:  451137396 heartbeat IPC: 0.42226 cumulative IPC: 0.42300 (Simulation time: 0 hr 12 min 31 sec) 
Heartbeat CPU  0 instructions:  264000000 cycles:  453504676 heartbeat IPC: 0.42243 cumulative IPC: 0.42299 (Simulation time: 0 hr 12 min 34 sec) 
Heartbeat CPU  0 instructions:  265000001 cycles:  455858597 heartbeat IPC: 0.42482 cumulative IPC: 0.42300 (Simulation time: 0 hr 12 min 37 sec) 
Heartbeat CPU  0 instructions:  266000003 cycles:  458223903 heartbeat IPC: 0.42278 cumulative IPC: 0.42300 (Simulation time: 0 hr 12 min 41 sec) 
Heartbeat CPU  0 instructions:  267000003 cycles:  460589352 heartbeat IPC: 0.42275 cumulative IPC: 0.42300 (Simulation time: 0 hr 12 min 44 sec) 
Heartbeat CPU  0 instructions:  268000000 cycles:  462948277 heartbeat IPC: 0.42392 cumulative IPC: 0.42301 (Simulation time: 0 hr 12 min 47 sec) 
Heartbeat CPU  0 instructions:  269000000 cycles:  465323264 heartbeat IPC: 0.42105 cumulative IPC: 0.42299 (Simulation time: 0 hr 12 min 50 sec) 
Heartbeat CPU  0 instructions:  270000001 cycles:  467682667 heartbeat IPC: 0.42384 cumulative IPC: 0.42300 (Simulation time: 0 hr 12 min 53 sec) 
Heartbeat CPU  0 instructions:  271000001 cycles:  470057023 heartbeat IPC: 0.42117 cumulative IPC: 0.42299 (Simulation time: 0 hr 12 min 57 sec) 
Heartbeat CPU  0 instructions:  272000000 cycles:  472425618 heartbeat IPC: 0.42219 cumulative IPC: 0.42298 (Simulation time: 0 hr 13 min 0 sec) 
Heartbeat CPU  0 instructions:  273000003 cycles:  474777510 heartbeat IPC: 0.42519 cumulative IPC: 0.42300 (Simulation time: 0 hr 13 min 3 sec) 
Heartbeat CPU  0 instructions:  274000002 cycles:  477142682 heartbeat IPC: 0.42280 cumulative IPC: 0.42299 (Simulation time: 0 hr 13 min 6 sec) 
Heartbeat CPU  0 instructions:  275000000 cycles:  479518017 heartbeat IPC: 0.42099 cumulative IPC: 0.42298 (Simulation time: 0 hr 13 min 10 sec) 
Heartbeat CPU  0 instructions:  276000000 cycles:  481866813 heartbeat IPC: 0.42575 cumulative IPC: 0.42300 (Simulation time: 0 hr 13 min 13 sec) 
Heartbeat CPU  0 instructions:  277000002 cycles:  484249729 heartbeat IPC: 0.41965 cumulative IPC: 0.42298 (Simulation time: 0 hr 13 min 16 sec) 
Heartbeat CPU  0 instructions:  278000002 cycles:  486593478 heartbeat IPC: 0.42667 cumulative IPC: 0.42300 (Simulation time: 0 hr 13 min 20 sec) 
Heartbeat CPU  0 instructions:  279000001 cycles:  488974469 heartbeat IPC: 0.41999 cumulative IPC: 0.42298 (Simulation time: 0 hr 13 min 23 sec) 
Heartbeat CPU  0 instructions:  280000000 cycles:  491327629 heartbeat IPC: 0.42496 cumulative IPC: 0.42299 (Simulation time: 0 hr 13 min 26 sec) 
Heartbeat CPU  0 instructions:  281000000 cycles:  493704941 heartbeat IPC: 0.42064 cumulative IPC: 0.42298 (Simulation time: 0 hr 13 min 30 sec) 
Heartbeat CPU  0 instructions:  282000000 cycles:  496044862 heartbeat IPC: 0.42736 cumulative IPC: 0.42301 (Simulation time: 0 hr 13 min 33 sec) 
Heartbeat CPU  0 instructions:  283000003 cycles:  498398058 heartbeat IPC: 0.42496 cumulative IPC: 0.42302 (Simulation time: 0 hr 13 min 36 sec) 
Heartbeat CPU  0 instructions:  284000000 cycles:  500759825 heartbeat IPC: 0.42341 cumulative IPC: 0.42302 (Simulation time: 0 hr 13 min 40 sec) 
Heartbeat CPU  0 instructions:  285000000 cycles:  503139185 heartbeat IPC: 0.42028 cumulative IPC: 0.42300 (Simulation time: 0 hr 13 min 43 sec) 
Heartbeat CPU  0 instructions:  286000002 cycles:  505502584 heartbeat IPC: 0.42312 cumulative IPC: 0.42300 (Simulation time: 0 hr 13 min 47 sec) 
Heartbeat CPU  0 instructions:  287000000 cycles:  507871245 heartbeat IPC: 0.42218 cumulative IPC: 0.42300 (Simulation time: 0 hr 13 min 50 sec) 
Heartbeat CPU  0 instructions:  288000000 cycles:  510226071 heartbeat IPC: 0.42466 cumulative IPC: 0.42301 (Simulation time: 0 hr 13 min 53 sec) 
Heartbeat CPU  0 instructions:  289000001 cycles:  512599445 heartbeat IPC: 0.42134 cumulative IPC: 0.42300 (Simulation time: 0 hr 13 min 56 sec) 
Heartbeat CPU  0 instructions:  290000002 cycles:  514951175 heartbeat IPC: 0.42522 cumulative IPC: 0.42301 (Simulation time: 0 hr 14 min 0 sec) 
Heartbeat CPU  0 instructions:  291000002 cycles:  517323146 heartbeat IPC: 0.42159 cumulative IPC: 0.42300 (Simulation time: 0 hr 14 min 3 sec) 
Heartbeat CPU  0 instructions:  292000000 cycles:  519686038 heartbeat IPC: 0.42321 cumulative IPC: 0.42300 (Simulation time: 0 hr 14 min 6 sec) 
Heartbeat CPU  0 instructions:  293000001 cycles:  522036848 heartbeat IPC: 0.42539 cumulative IPC: 0.42302 (Simulation time: 0 hr 14 min 9 sec) 
Heartbeat CPU  0 instructions:  294000000 cycles:  524389590 heartbeat IPC: 0.42504 cumulative IPC: 0.42303 (Simulation time: 0 hr 14 min 13 sec) 
Heartbeat CPU  0 instructions:  295000003 cycles:  526739600 heartbeat IPC: 0.42553 cumulative IPC: 0.42304 (Simulation time: 0 hr 14 min 16 sec) 
Heartbeat CPU  0 instructions:  296000000 cycles:  529106789 heartbeat IPC: 0.42244 cumulative IPC: 0.42304 (Simulation time: 0 hr 14 min 19 sec) 
Heartbeat CPU  0 instructions:  297000001 cycles:  531464097 heartbeat IPC: 0.42421 cumulative IPC: 0.42304 (Simulation time: 0 hr 14 min 22 sec) 
Heartbeat CPU  0 instructions:  298000001 cycles:  533828851 heartbeat IPC: 0.42288 cumulative IPC: 0.42304 (Simulation time: 0 hr 14 min 26 sec) 
Heartbeat CPU  0 instructions:  299000000 cycles:  536166736 heartbeat IPC: 0.42774 cumulative IPC: 0.42307 (Simulation time: 0 hr 14 min 29 sec) 
Heartbeat CPU  0 instructions:  300000000 cycles:  538547035 heartbeat IPC: 0.42012 cumulative IPC: 0.42305 (Simulation time: 0 hr 14 min 32 sec) 
Heartbeat CPU  0 instructions:  301000000 cycles:  540904599 heartbeat IPC: 0.42417 cumulative IPC: 0.42306 (Simulation time: 0 hr 14 min 35 sec) 
Heartbeat CPU  0 instructions:  302000002 cycles:  543280177 heartbeat IPC: 0.42095 cumulative IPC: 0.42305 (Simulation time: 0 hr 14 min 38 sec) 
Heartbeat CPU  0 instructions:  303000000 cycles:  545622998 heartbeat IPC: 0.42684 cumulative IPC: 0.42306 (Simulation time: 0 hr 14 min 42 sec) 
Heartbeat CPU  0 instructions:  304000000 cycles:  548001811 heartbeat IPC: 0.42038 cumulative IPC: 0.42305 (Simulation time: 0 hr 14 min 45 sec) 
Heartbeat CPU  0 instructions:  305000001 cycles:  550353104 heartbeat IPC: 0.42530 cumulative IPC: 0.42306 (Simulation time: 0 hr 14 min 48 sec) 
Heartbeat CPU  0 instructions:  306000001 cycles:  552724172 heartbeat IPC: 0.42175 cumulative IPC: 0.42306 (Simulation time: 0 hr 14 min 51 sec) 
Heartbeat CPU  0 instructions:  307000002 cycles:  555081552 heartbeat IPC: 0.42420 cumulative IPC: 0.42306 (Simulation time: 0 hr 14 min 54 sec) 
Heartbeat CPU  0 instructions:  308000000 cycles:  557456331 heartbeat IPC: 0.42109 cumulative IPC: 0.42305 (Simulation time: 0 hr 14 min 58 sec) 
Heartbeat CPU  0 instructions:  309000002 cycles:  559808785 heartbeat IPC: 0.42509 cumulative IPC: 0.42306 (Simulation time: 0 hr 15 min 1 sec) 
Heartbeat CPU  0 instructions:  310000000 cycles:  562176577 heartbeat IPC: 0.42233 cumulative IPC: 0.42306 (Simulation time: 0 hr 15 min 4 sec) 
Heartbeat CPU  0 instructions:  311000002 cycles:  564522657 heartbeat IPC: 0.42624 cumulative IPC: 0.42307 (Simulation time: 0 hr 15 min 7 sec) 
Heartbeat CPU  0 instructions:  312000000 cycles:  566899481 heartbeat IPC: 0.42073 cumulative IPC: 0.42306 (Simulation time: 0 hr 15 min 11 sec) 
Heartbeat CPU  0 instructions:  313000003 cycles:  569272561 heartbeat IPC: 0.42139 cumulative IPC: 0.42305 (Simulation time: 0 hr 15 min 14 sec) 
Heartbeat CPU  0 instructions:  314000002 cycles:  571631435 heartbeat IPC: 0.42393 cumulative IPC: 0.42306 (Simulation time: 0 hr 15 min 17 sec) 
Heartbeat CPU  0 instructions:  315000000 cycles:  574003671 heartbeat IPC: 0.42154 cumulative IPC: 0.42305 (Simulation time: 0 hr 15 min 20 sec) 
Heartbeat CPU  0 instructions:  316000000 cycles:  576368954 heartbeat IPC: 0.42278 cumulative IPC: 0.42305 (Simulation time: 0 hr 15 min 23 sec) 
Heartbeat CPU  0 instructions:  317000001 cycles:  578754186 heartbeat IPC: 0.41925 cumulative IPC: 0.42303 (Simulation time: 0 hr 15 min 27 sec) 
Heartbeat CPU  0 instructions:  318000001 cycles:  581116115 heartbeat IPC: 0.42338 cumulative IPC: 0.42303 (Simulation time: 0 hr 15 min 30 sec) 
Heartbeat CPU  0 instructions:  319000000 cycles:  583486805 heartbeat IPC: 0.42182 cumulative IPC: 0.42303 (Simulation time: 0 hr 15 min 33 sec) 
Heartbeat CPU  0 instructions:  320000000 cycles:  585848718 heartbeat IPC: 0.42339 cumulative IPC: 0.42303 (Simulation time: 0 hr 15 min 36 sec) 
Heartbeat CPU  0 instructions:  321000000 cycles:  588211832 heartbeat IPC: 0.42317 cumulative IPC: 0.42303 (Simulation time: 0 hr 15 min 40 sec) 
Heartbeat CPU  0 instructions:  322000000 cycles:  590556873 heartbeat IPC: 0.42643 cumulative IPC: 0.42305 (Simulation time: 0 hr 15 min 43 sec) 
Heartbeat CPU  0 instructions:  323000002 cycles:  592929163 heartbeat IPC: 0.42153 cumulative IPC: 0.42304 (Simulation time: 0 hr 15 min 46 sec) 
Heartbeat CPU  0 instructions:  324000000 cycles:  595286255 heartbeat IPC: 0.42425 cumulative IPC: 0.42304 (Simulation time: 0 hr 15 min 50 sec) 
Heartbeat CPU  0 instructions:  325000002 cycles:  597662373 heartbeat IPC: 0.42086 cumulative IPC: 0.42303 (Simulation time: 0 hr 15 min 53 sec) 
Heartbeat CPU  0 instructions:  326000001 cycles:  600006110 heartbeat IPC: 0.42667 cumulative IPC: 0.42305 (Simulation time: 0 hr 15 min 56 sec) 
Heartbeat CPU  0 instructions:  327000000 cycles:  602377215 heartbeat IPC: 0.42174 cumulative IPC: 0.42304 (Simulation time: 0 hr 16 min 0 sec) 
Heartbeat CPU  0 instructions:  328000000 cycles:  604737876 heartbeat IPC: 0.42361 cumulative IPC: 0.42305 (Simulation time: 0 hr 16 min 3 sec) 
Heartbeat CPU  0 instructions:  329000003 cycles:  607106196 heartbeat IPC: 0.42224 cumulative IPC: 0.42304 (Simulation time: 0 hr 16 min 6 sec) 
Heartbeat CPU  0 instructions:  330000000 cycles:  609460158 heartbeat IPC: 0.42481 cumulative IPC: 0.42305 (Simulation time: 0 hr 16 min 9 sec) 
Heartbeat CPU  0 instructions:  331000000 cycles:  611835619 heartbeat IPC: 0.42097 cumulative IPC: 0.42304 (Simulation time: 0 hr 16 min 13 sec) 
Heartbeat CPU  0 instructions:  332000000 cycles:  614188168 heartbeat IPC: 0.42507 cumulative IPC: 0.42305 (Simulation time: 0 hr 16 min 16 sec) 
Heartbeat CPU  0 instructions:  333000002 cycles:  616558809 heartbeat IPC: 0.42183 cumulative IPC: 0.42305 (Simulation time: 0 hr 16 min 19 sec) 
Heartbeat CPU  0 instructions:  334000003 cycles:  618919306 heartbeat IPC: 0.42364 cumulative IPC: 0.42305 (Simulation time: 0 hr 16 min 23 sec) 
Heartbeat CPU  0 instructions:  335000000 cycles:  621285935 heartbeat IPC: 0.42254 cumulative IPC: 0.42305 (Simulation time: 0 hr 16 min 26 sec) 
Heartbeat CPU  0 instructions:  336000000 cycles:  623635471 heartbeat IPC: 0.42562 cumulative IPC: 0.42306 (Simulation time: 0 hr 16 min 30 sec) 
Heartbeat CPU  0 instructions:  337000001 cycles:  626006239 heartbeat IPC: 0.42180 cumulative IPC: 0.42305 (Simulation time: 0 hr 16 min 33 sec) 
Heartbeat CPU  0 instructions:  338000003 cycles:  628366226 heartbeat IPC: 0.42373 cumulative IPC: 0.42305 (Simulation time: 0 hr 16 min 37 sec) 
Heartbeat CPU  0 instructions:  339000001 cycles:  630735638 heartbeat IPC: 0.42204 cumulative IPC: 0.42305 (Simulation time: 0 hr 16 min 40 sec) 
Heartbeat CPU  0 instructions:  340000000 cycles:  633095216 heartbeat IPC: 0.42380 cumulative IPC: 0.42305 (Simulation time: 0 hr 16 min 43 sec) 
Heartbeat CPU  0 instructions:  341000001 cycles:  635446650 heartbeat IPC: 0.42527 cumulative IPC: 0.42306 (Simulation time: 0 hr 16 min 46 sec) 
Heartbeat CPU  0 instructions:  342000003 cycles:  637808602 heartbeat IPC: 0.42338 cumulative IPC: 0.42306 (Simulation time: 0 hr 16 min 50 sec) 
Heartbeat CPU  0 instructions:  343000002 cycles:  640156646 heartbeat IPC: 0.42589 cumulative IPC: 0.42307 (Simulation time: 0 hr 16 min 53 sec) 
Heartbeat CPU  0 instructions:  344000000 cycles:  642537859 heartbeat IPC: 0.41995 cumulative IPC: 0.42306 (Simulation time: 0 hr 16 min 56 sec) 
Heartbeat CPU  0 instructions:  345000001 cycles:  645650085 heartbeat IPC: 0.32131 cumulative IPC: 0.42252 (Simulation time: 0 hr 16 min 59 sec) 
Heartbeat CPU  0 instructions:  346000001 cycles:  648122715 heartbeat IPC: 0.40443 cumulative IPC: 0.42244 (Simulation time: 0 hr 17 min 2 sec) 
Heartbeat CPU  0 instructions:  347000003 cycles:  650568141 heartbeat IPC: 0.40893 cumulative IPC: 0.42238 (Simulation time: 0 hr 17 min 4 sec) 
Heartbeat CPU  0 instructions:  348000000 cycles:  653013622 heartbeat IPC: 0.40892 cumulative IPC: 0.42233 (Simulation time: 0 hr 17 min 7 sec) 
Heartbeat CPU  0 instructions:  349000002 cycles:  655459190 heartbeat IPC: 0.40890 cumulative IPC: 0.42227 (Simulation time: 0 hr 17 min 10 sec) 
Heartbeat CPU  0 instructions:  350000002 cycles:  657904393 heartbeat IPC: 0.40896 cumulative IPC: 0.42222 (Simulation time: 0 hr 17 min 12 sec) 
Heartbeat CPU  0 instructions:  351000001 cycles:  660349813 heartbeat IPC: 0.40893 cumulative IPC: 0.42216 (Simulation time: 0 hr 17 min 15 sec) 
Heartbeat CPU  0 instructions:  352000000 cycles:  662795311 heartbeat IPC: 0.40891 cumulative IPC: 0.42211 (Simulation time: 0 hr 17 min 17 sec) 
Heartbeat CPU  0 instructions:  353000003 cycles:  665240871 heartbeat IPC: 0.40891 cumulative IPC: 0.42205 (Simulation time: 0 hr 17 min 20 sec) 
Heartbeat CPU  0 instructions:  354000000 cycles:  667684381 heartbeat IPC: 0.40925 cumulative IPC: 0.42200 (Simulation time: 0 hr 17 min 23 sec) 
Heartbeat CPU  0 instructions:  355000000 cycles:  670129796 heartbeat IPC: 0.40893 cumulative IPC: 0.42195 (Simulation time: 0 hr 17 min 26 sec) 
Heartbeat CPU  0 instructions:  356000000 cycles:  672540795 heartbeat IPC: 0.41477 cumulative IPC: 0.42192 (Simulation time: 0 hr 17 min 28 sec) 
Heartbeat CPU  0 instructions:  357000003 cycles:  674526194 heartbeat IPC: 0.50368 cumulative IPC: 0.42219 (Simulation time: 0 hr 17 min 31 sec) 
Heartbeat CPU  0 instructions:  358000003 cycles:  676113388 heartbeat IPC: 0.63004 cumulative IPC: 0.42273 (Simulation time: 0 hr 17 min 33 sec) 
Heartbeat CPU  0 instructions:  359000003 cycles:  677566236 heartbeat IPC: 0.68830 cumulative IPC: 0.42336 (Simulation time: 0 hr 17 min 36 sec) 
Heartbeat CPU  0 instructions:  360000000 cycles:  680405960 heartbeat IPC: 0.35215 cumulative IPC: 0.42303 (Simulation time: 0 hr 17 min 39 sec) 
Heartbeat CPU  0 instructions:  361000003 cycles:  683531786 heartbeat IPC: 0.31992 cumulative IPC: 0.42251 (Simulation time: 0 hr 17 min 42 sec) 
Heartbeat CPU  0 instructions:  362000001 cycles:  686754733 heartbeat IPC: 0.31027 cumulative IPC: 0.42192 (Simulation time: 0 hr 17 min 45 sec) 
Heartbeat CPU  0 instructions:  363000000 cycles:  689957570 heartbeat IPC: 0.31222 cumulative IPC: 0.42136 (Simulation time: 0 hr 17 min 49 sec) 
Heartbeat CPU  0 instructions:  364000000 cycles:  693216419 heartbeat IPC: 0.30686 cumulative IPC: 0.42077 (Simulation time: 0 hr 17 min 52 sec) 
Heartbeat CPU  0 instructions:  365000000 cycles:  696481588 heartbeat IPC: 0.30626 cumulative IPC: 0.42017 (Simulation time: 0 hr 17 min 55 sec) 
Heartbeat CPU  0 instructions:  366000001 cycles:  699730803 heartbeat IPC: 0.30777 cumulative IPC: 0.41960 (Simulation time: 0 hr 17 min 58 sec) 
Heartbeat CPU  0 instructions:  367000003 cycles:  703036891 heartbeat IPC: 0.30247 cumulative IPC: 0.41899 (Simulation time: 0 hr 18 min 2 sec) 
Heartbeat CPU  0 instructions:  368000000 cycles:  706250098 heartbeat IPC: 0.31121 cumulative IPC: 0.41845 (Simulation time: 0 hr 18 min 5 sec) 
Heartbeat CPU  0 instructions:  369000002 cycles:  709494265 heartbeat IPC: 0.30825 cumulative IPC: 0.41789 (Simulation time: 0 hr 18 min 9 sec) 
Heartbeat CPU  0 instructions:  370000002 cycles:  712740208 heartbeat IPC: 0.30808 cumulative IPC: 0.41734 (Simulation time: 0 hr 18 min 12 sec) 
Heartbeat CPU  0 instructions:  371000000 cycles:  716006527 heartbeat IPC: 0.30615 cumulative IPC: 0.41678 (Simulation time: 0 hr 18 min 15 sec) 
Heartbeat CPU  0 instructions:  372000000 cycles:  719283610 heartbeat IPC: 0.30515 cumulative IPC: 0.41622 (Simulation time: 0 hr 18 min 18 sec) 
Heartbeat CPU  0 instructions:  373000003 cycles:  722550805 heartbeat IPC: 0.30607 cumulative IPC: 0.41568 (Simulation time: 0 hr 18 min 22 sec) 
Heartbeat CPU  0 instructions:  374000003 cycles:  725834920 heartbeat IPC: 0.30450 cumulative IPC: 0.41512 (Simulation time: 0 hr 18 min 25 sec) 
Heartbeat CPU  0 instructions:  375000000 cycles:  729078180 heartbeat IPC: 0.30833 cumulative IPC: 0.41460 (Simulation time: 0 hr 18 min 28 sec) 
Heartbeat CPU  0 instructions:  376000000 cycles:  732319289 heartbeat IPC: 0.30854 cumulative IPC: 0.41409 (Simulation time: 0 hr 18 min 31 sec) 
Heartbeat CPU  0 instructions:  377000001 cycles:  735051702 heartbeat IPC: 0.36598 cumulative IPC: 0.41389 (Simulation time: 0 hr 18 min 34 sec) 
Heartbeat CPU  0 instructions:  378000001 cycles:  737377386 heartbeat IPC: 0.42998 cumulative IPC: 0.41394 (Simulation time: 0 hr 18 min 37 sec) 
Heartbeat CPU  0 instructions:  379000000 cycles:  739663886 heartbeat IPC: 0.43735 cumulative IPC: 0.41402 (Simulation time: 0 hr 18 min 40 sec) 
Heartbeat CPU  0 instructions:  380000000 cycles:  741975302 heartbeat IPC: 0.43264 cumulative IPC: 0.41409 (Simulation time: 0 hr 18 min 44 sec) 
Heartbeat CPU  0 instructions:  381000003 cycles:  744272267 heartbeat IPC: 0.43536 cumulative IPC: 0.41416 (Simulation time: 0 hr 18 min 47 sec) 
Heartbeat CPU  0 instructions:  382000000 cycles:  746582846 heartbeat IPC: 0.43279 cumulative IPC: 0.41422 (Simulation time: 0 hr 18 min 50 sec) 
Heartbeat CPU  0 instructions:  383000000 cycles:  748934476 heartbeat IPC: 0.42524 cumulative IPC: 0.41426 (Simulation time: 0 hr 18 min 53 sec) 
Heartbeat CPU  0 instructions:  384000000 cycles:  751302044 heartbeat IPC: 0.42237 cumulative IPC: 0.41429 (Simulation time: 0 hr 18 min 56 sec) 
Heartbeat CPU  0 instructions:  385000000 cycles:  753636429 heartbeat IPC: 0.42838 cumulative IPC: 0.41434 (Simulation time: 0 hr 18 min 59 sec) 
Heartbeat CPU  0 instructions:  386000000 cycles:  755988639 heartbeat IPC: 0.42513 cumulative IPC: 0.41437 (Simulation time: 0 hr 19 min 2 sec) 
Heartbeat CPU  0 instructions:  387000003 cycles:  758332420 heartbeat IPC: 0.42666 cumulative IPC: 0.41442 (Simulation time: 0 hr 19 min 5 sec) 
Heartbeat CPU  0 instructions:  388000000 cycles:  760694229 heartbeat IPC: 0.42340 cumulative IPC: 0.41445 (Simulation time: 0 hr 19 min 8 sec) 
Heartbeat CPU  0 instructions:  389000000 cycles:  763046636 heartbeat IPC: 0.42510 cumulative IPC: 0.41448 (Simulation time: 0 hr 19 min 11 sec) 
Heartbeat CPU  0 instructions:  390000000 cycles:  765397692 heartbeat IPC: 0.42534 cumulative IPC: 0.41452 (Simulation time: 0 hr 19 min 15 sec) 
Heartbeat CPU  0 instructions:  391000001 cycles:  767760361 heartbeat IPC: 0.42325 cumulative IPC: 0.41455 (Simulation time: 0 hr 19 min 18 sec) 
Heartbeat CPU  0 instructions:  392000000 cycles:  770108894 heartbeat IPC: 0.42580 cumulative IPC: 0.41459 (Simulation time: 0 hr 19 min 21 sec) 
Heartbeat CPU  0 instructions:  393000000 cycles:  772469862 heartbeat IPC: 0.42356 cumulative IPC: 0.41462 (Simulation time: 0 hr 19 min 24 sec) 
Heartbeat CPU  0 instructions:  394000000 cycles:  774814691 heartbeat IPC: 0.42647 cumulative IPC: 0.41465 (Simulation time: 0 hr 19 min 27 sec) 
Heartbeat CPU  0 instructions:  395000000 cycles:  777183901 heartbeat IPC: 0.42208 cumulative IPC: 0.41468 (Simulation time: 0 hr 19 min 30 sec) 
Heartbeat CPU  0 instructions:  396000000 cycles:  779524408 heartbeat IPC: 0.42726 cumulative IPC: 0.41472 (Simulation time: 0 hr 19 min 33 sec) 
Heartbeat CPU  0 instructions:  397000001 cycles:  781877994 heartbeat IPC: 0.42488 cumulative IPC: 0.41475 (Simulation time: 0 hr 19 min 36 sec) 
Heartbeat CPU  0 instructions:  398000000 cycles:  784238043 heartbeat IPC: 0.42372 cumulative IPC: 0.41478 (Simulation time: 0 hr 19 min 39 sec) 
Heartbeat CPU  0 instructions:  399000000 cycles:  786596295 heartbeat IPC: 0.42404 cumulative IPC: 0.41481 (Simulation time: 0 hr 19 min 42 sec) 
Heartbeat CPU  0 instructions:  400000000 cycles:  788946559 heartbeat IPC: 0.42548 cumulative IPC: 0.41485 (Simulation time: 0 hr 19 min 45 sec) 
Heartbeat CPU  0 instructions:  401000003 cycles:  791312926 heartbeat IPC: 0.42259 cumulative IPC: 0.41487 (Simulation time: 0 hr 19 min 48 sec) 
Heartbeat CPU  0 instructions:  402000003 cycles:  793660221 heartbeat IPC: 0.42602 cumulative IPC: 0.41491 (Simulation time: 0 hr 19 min 51 sec) 
Heartbeat CPU  0 instructions:  403000000 cycles:  796030631 heartbeat IPC: 0.42187 cumulative IPC: 0.41493 (Simulation time: 0 hr 19 min 54 sec) 
Heartbeat CPU  0 instructions:  404000000 cycles:  798378921 heartbeat IPC: 0.42584 cumulative IPC: 0.41497 (Simulation time: 0 hr 19 min 57 sec) 
Heartbeat CPU  0 instructions:  405000000 cycles:  800740245 heartbeat IPC: 0.42349 cumulative IPC: 0.41499 (Simulation time: 0 hr 20 min 1 sec) 
Heartbeat CPU  0 instructions:  406000000 cycles:  803087626 heartbeat IPC: 0.42601 cumulative IPC: 0.41503 (Simulation time: 0 hr 20 min 4 sec) 
Heartbeat CPU  0 instructions:  407000002 cycles:  805460025 heartbeat IPC: 0.42152 cumulative IPC: 0.41505 (Simulation time: 0 hr 20 min 7 sec) 
Heartbeat CPU  0 instructions:  408000000 cycles:  807801242 heartbeat IPC: 0.42713 cumulative IPC: 0.41509 (Simulation time: 0 hr 20 min 10 sec) 
Heartbeat CPU  0 instructions:  409000002 cycles:  810172203 heartbeat IPC: 0.42177 cumulative IPC: 0.41511 (Simulation time: 0 hr 20 min 13 sec) 
Heartbeat CPU  0 instructions:  410000001 cycles:  812525751 heartbeat IPC: 0.42489 cumulative IPC: 0.41514 (Simulation time: 0 hr 20 min 16 sec) 
Heartbeat CPU  0 instructions:  411000000 cycles:  814879764 heartbeat IPC: 0.42481 cumulative IPC: 0.41517 (Simulation time: 0 hr 20 min 19 sec) 
Heartbeat CPU  0 instructions:  412000000 cycles:  817233133 heartbeat IPC: 0.42492 cumulative IPC: 0.41520 (Simulation time: 0 hr 20 min 22 sec) 
Heartbeat CPU  0 instructions:  413000001 cycles:  819583347 heartbeat IPC: 0.42549 cumulative IPC: 0.41523 (Simulation time: 0 hr 20 min 25 sec) 
Heartbeat CPU  0 instructions:  414000000 cycles:  821939651 heartbeat IPC: 0.42439 cumulative IPC: 0.41526 (Simulation time: 0 hr 20 min 28 sec) 
Heartbeat CPU  0 instructions:  415000002 cycles:  824292854 heartbeat IPC: 0.42495 cumulative IPC: 0.41529 (Simulation time: 0 hr 20 min 31 sec) 
Heartbeat CPU  0 instructions:  416000000 cycles:  826659302 heartbeat IPC: 0.42257 cumulative IPC: 0.41531 (Simulation time: 0 hr 20 min 34 sec) 
Heartbeat CPU  0 instructions:  417000000 cycles:  829011868 heartbeat IPC: 0.42507 cumulative IPC: 0.41534 (Simulation time: 0 hr 20 min 37 sec) 
Heartbeat CPU  0 instructions:  418000002 cycles:  831371666 heartbeat IPC: 0.42377 cumulative IPC: 0.41537 (Simulation time: 0 hr 20 min 40 sec) 
Heartbeat CPU  0 instructions:  419000002 cycles:  833720560 heartbeat IPC: 0.42573 cumulative IPC: 0.41540 (Simulation time: 0 hr 20 min 43 sec) 
Heartbeat CPU  0 instructions:  420000000 cycles:  836070868 heartbeat IPC: 0.42548 cumulative IPC: 0.41543 (Simulation time: 0 hr 20 min 46 sec) 
Heartbeat CPU  0 instructions:  421000001 cycles:  838415274 heartbeat IPC: 0.42655 cumulative IPC: 0.41547 (Simulation time: 0 hr 20 min 49 sec) 
Heartbeat CPU  0 instructions:  422000001 cycles:  840787525 heartbeat IPC: 0.42154 cumulative IPC: 0.41549 (Simulation time: 0 hr 20 min 53 sec) 
Heartbeat CPU  0 instructions:  423000000 cycles:  843132377 heartbeat IPC: 0.42647 cumulative IPC: 0.41552 (Simulation time: 0 hr 20 min 56 sec) 
Heartbeat CPU  0 instructions:  424000000 cycles:  845487659 heartbeat IPC: 0.42458 cumulative IPC: 0.41555 (Simulation time: 0 hr 20 min 59 sec) 
Heartbeat CPU  0 instructions:  425000002 cycles:  847834151 heartbeat IPC: 0.42617 cumulative IPC: 0.41558 (Simulation time: 0 hr 21 min 2 sec) 
Heartbeat CPU  0 instructions:  426000003 cycles:  850208664 heartbeat IPC: 0.42114 cumulative IPC: 0.41559 (Simulation time: 0 hr 21 min 5 sec) 
Heartbeat CPU  0 instructions:  427000002 cycles:  852546789 heartbeat IPC: 0.42769 cumulative IPC: 0.41563 (Simulation time: 0 hr 21 min 8 sec) 
Heartbeat CPU  0 instructions:  428000000 cycles:  854904752 heartbeat IPC: 0.42409 cumulative IPC: 0.41566 (Simulation time: 0 hr 21 min 11 sec) 
Heartbeat CPU  0 instructions:  429000000 cycles:  857248045 heartbeat IPC: 0.42675 cumulative IPC: 0.41569 (Simulation time: 0 hr 21 min 14 sec) 
Heartbeat CPU  0 instructions:  430000002 cycles:  859614985 heartbeat IPC: 0.42249 cumulative IPC: 0.41571 (Simulation time: 0 hr 21 min 17 sec) 
Heartbeat CPU  0 instructions:  431000001 cycles:  861958925 heartbeat IPC: 0.42663 cumulative IPC: 0.41574 (Simulation time: 0 hr 21 min 20 sec) 
Heartbeat CPU  0 instructions:  432000000 cycles:  864310998 heartbeat IPC: 0.42516 cumulative IPC: 0.41577 (Simulation time: 0 hr 21 min 24 sec) 
Heartbeat CPU  0 instructions:  433000002 cycles:  866665627 heartbeat IPC: 0.42470 cumulative IPC: 0.41580 (Simulation time: 0 hr 21 min 27 sec) 
Heartbeat CPU  0 instructions:  434000003 cycles:  869036416 heartbeat IPC: 0.42180 cumulative IPC: 0.41581 (Simulation time: 0 hr 21 min 30 sec) 
Heartbeat CPU  0 instructions:  435000001 cycles:  871395166 heartbeat IPC: 0.42395 cumulative IPC: 0.41584 (Simulation time: 0 hr 21 min 33 sec) 
Heartbeat CPU  0 instructions:  436000000 cycles:  873748545 heartbeat IPC: 0.42492 cumulative IPC: 0.41586 (Simulation time: 0 hr 21 min 36 sec) 
Heartbeat CPU  0 instructions:  437000001 cycles:  876111476 heartbeat IPC: 0.42320 cumulative IPC: 0.41588 (Simulation time: 0 hr 21 min 39 sec) 
Heartbeat CPU  0 instructions:  438000001 cycles:  878460519 heartbeat IPC: 0.42571 cumulative IPC: 0.41591 (Simulation time: 0 hr 21 min 42 sec) 
Heartbeat CPU  0 instructions:  439000001 cycles:  880822314 heartbeat IPC: 0.42341 cumulative IPC: 0.41593 (Simulation time: 0 hr 21 min 45 sec) 
Heartbeat CPU  0 instructions:  440000000 cycles:  883172449 heartbeat IPC: 0.42551 cumulative IPC: 0.41596 (Simulation time: 0 hr 21 min 48 sec) 
Heartbeat CPU  0 instructions:  441000000 cycles:  885535464 heartbeat IPC: 0.42319 cumulative IPC: 0.41598 (Simulation time: 0 hr 21 min 51 sec) 
Heartbeat CPU  0 instructions:  442000001 cycles:  887881338 heartbeat IPC: 0.42628 cumulative IPC: 0.41601 (Simulation time: 0 hr 21 min 54 sec) 
Heartbeat CPU  0 instructions:  443000001 cycles:  890253015 heartbeat IPC: 0.42164 cumulative IPC: 0.41603 (Simulation time: 0 hr 21 min 57 sec) 
Heartbeat CPU  0 instructions:  444000000 cycles:  892592577 heartbeat IPC: 0.42743 cumulative IPC: 0.41606 (Simulation time: 0 hr 22 min 0 sec) 
Heartbeat CPU  0 instructions:  445000000 cycles:  894964838 heartbeat IPC: 0.42154 cumulative IPC: 0.41608 (Simulation time: 0 hr 22 min 3 sec) 
Heartbeat CPU  0 instructions:  446000002 cycles:  897297739 heartbeat IPC: 0.42865 cumulative IPC: 0.41611 (Simulation time: 0 hr 22 min 6 sec) 
Heartbeat CPU  0 instructions:  447000000 cycles:  899671986 heartbeat IPC: 0.42119 cumulative IPC: 0.41613 (Simulation time: 0 hr 22 min 9 sec) 
Heartbeat CPU  0 instructions:  448000000 cycles:  902020483 heartbeat IPC: 0.42580 cumulative IPC: 0.41615 (Simulation time: 0 hr 22 min 13 sec) 
Heartbeat CPU  0 instructions:  449000001 cycles:  904393951 heartbeat IPC: 0.42132 cumulative IPC: 0.41617 (Simulation time: 0 hr 22 min 16 sec) 
Heartbeat CPU  0 instructions:  450000001 cycles:  906735694 heartbeat IPC: 0.42703 cumulative IPC: 0.41620 (Simulation time: 0 hr 22 min 19 sec) 
Heartbeat CPU  0 instructions:  451000002 cycles:  909098243 heartbeat IPC: 0.42327 cumulative IPC: 0.41622 (Simulation time: 0 hr 22 min 22 sec) 
Heartbeat CPU  0 instructions:  452000000 cycles:  911443608 heartbeat IPC: 0.42637 cumulative IPC: 0.41625 (Simulation time: 0 hr 22 min 25 sec) 
Heartbeat CPU  0 instructions:  453000001 cycles:  913807582 heartbeat IPC: 0.42302 cumulative IPC: 0.41627 (Simulation time: 0 hr 22 min 28 sec) 
Heartbeat CPU  0 instructions:  454000000 cycles:  916154427 heartbeat IPC: 0.42610 cumulative IPC: 0.41629 (Simulation time: 0 hr 22 min 31 sec) 
Heartbeat CPU  0 instructions:  455000003 cycles:  918499568 heartbeat IPC: 0.42641 cumulative IPC: 0.41632 (Simulation time: 0 hr 22 min 34 sec) 
Heartbeat CPU  0 instructions:  456000000 cycles:  920856626 heartbeat IPC: 0.42426 cumulative IPC: 0.41634 (Simulation time: 0 hr 22 min 37 sec) 
Heartbeat CPU  0 instructions:  457000000 cycles:  923224431 heartbeat IPC: 0.42233 cumulative IPC: 0.41636 (Simulation time: 0 hr 22 min 40 sec) 
Heartbeat CPU  0 instructions:  458000003 cycles:  925590929 heartbeat IPC: 0.42257 cumulative IPC: 0.41638 (Simulation time: 0 hr 22 min 43 sec) 
Heartbeat CPU  0 instructions:  459000002 cycles:  927938108 heartbeat IPC: 0.42604 cumulative IPC: 0.41640 (Simulation time: 0 hr 22 min 46 sec) 
Heartbeat CPU  0 instructions:  460000000 cycles:  930292916 heartbeat IPC: 0.42466 cumulative IPC: 0.41642 (Simulation time: 0 hr 22 min 49 sec) 
Heartbeat CPU  0 instructions:  461000000 cycles:  932636572 heartbeat IPC: 0.42668 cumulative IPC: 0.41645 (Simulation time: 0 hr 22 min 52 sec) 
Heartbeat CPU  0 instructions:  462000000 cycles:  935002089 heartbeat IPC: 0.42274 cumulative IPC: 0.41647 (Simulation time: 0 hr 22 min 55 sec) 
Heartbeat CPU  0 instructions:  463000000 cycles:  937347007 heartbeat IPC: 0.42645 cumulative IPC: 0.41650 (Simulation time: 0 hr 22 min 58 sec) 
Heartbeat CPU  0 instructions:  464000000 cycles:  939710224 heartbeat IPC: 0.42315 cumulative IPC: 0.41651 (Simulation time: 0 hr 23 min 1 sec) 
Heartbeat CPU  0 instructions:  465000001 cycles:  942056564 heartbeat IPC: 0.42620 cumulative IPC: 0.41654 (Simulation time: 0 hr 23 min 4 sec) 
Heartbeat CPU  0 instructions:  466000003 cycles:  944419852 heartbeat IPC: 0.42314 cumulative IPC: 0.41656 (Simulation time: 0 hr 23 min 7 sec) 
Heartbeat CPU  0 instructions:  467000002 cycles:  946755073 heartbeat IPC: 0.42822 cumulative IPC: 0.41659 (Simulation time: 0 hr 23 min 10 sec) 
Heartbeat CPU  0 instructions:  468000000 cycles:  949126525 heartbeat IPC: 0.42168 cumulative IPC: 0.41660 (Simulation time: 0 hr 23 min 14 sec) 
Heartbeat CPU  0 instructions:  469000000 cycles:  951471015 heartbeat IPC: 0.42653 cumulative IPC: 0.41663 (Simulation time: 0 hr 23 min 17 sec) 
Heartbeat CPU  0 instructions:  470000000 cycles:  953834980 heartbeat IPC: 0.42302 cumulative IPC: 0.41665 (Simulation time: 0 hr 23 min 20 sec) 
Heartbeat CPU  0 instructions:  471000003 cycles:  956178393 heartbeat IPC: 0.42673 cumulative IPC: 0.41667 (Simulation time: 0 hr 23 min 23 sec) 
Heartbeat CPU  0 instructions:  472000000 cycles:  958538574 heartbeat IPC: 0.42370 cumulative IPC: 0.41669 (Simulation time: 0 hr 23 min 26 sec) 
Heartbeat CPU  0 instructions:  473000000 cycles:  960874498 heartbeat IPC: 0.42810 cumulative IPC: 0.41672 (Simulation time: 0 hr 23 min 29 sec) 
Heartbeat CPU  0 instructions:  474000001 cycles:  963244014 heartbeat IPC: 0.42203 cumulative IPC: 0.41673 (Simulation time: 0 hr 23 min 32 sec) 
Heartbeat CPU  0 instructions:  475000000 cycles:  965581561 heartbeat IPC: 0.42780 cumulative IPC: 0.41676 (Simulation time: 0 hr 23 min 35 sec) 
Heartbeat CPU  0 instructions:  476000000 cycles:  967948137 heartbeat IPC: 0.42255 cumulative IPC: 0.41678 (Simulation time: 0 hr 23 min 38 sec) 
Heartbeat CPU  0 instructions:  477000002 cycles:  970311678 heartbeat IPC: 0.42309 cumulative IPC: 0.41679 (Simulation time: 0 hr 23 min 41 sec) 
Heartbeat CPU  0 instructions:  478000002 cycles:  972664361 heartbeat IPC: 0.42505 cumulative IPC: 0.41682 (Simulation time: 0 hr 23 min 44 sec) 
Heartbeat CPU  0 instructions:  479000001 cycles:  975021670 heartbeat IPC: 0.42421 cumulative IPC: 0.41684 (Simulation time: 0 hr 23 min 47 sec) 
Heartbeat CPU  0 instructions:  480000000 cycles:  977374297 heartbeat IPC: 0.42506 cumulative IPC: 0.41686 (Simulation time: 0 hr 23 min 50 sec) 
Heartbeat CPU  0 instructions:  481000002 cycles:  979735027 heartbeat IPC: 0.42360 cumulative IPC: 0.41687 (Simulation time: 0 hr 23 min 53 sec) 
Heartbeat CPU  0 instructions:  482000003 cycles:  982085436 heartbeat IPC: 0.42546 cumulative IPC: 0.41690 (Simulation time: 0 hr 23 min 56 sec) 
Heartbeat CPU  0 instructions:  483000002 cycles:  984449232 heartbeat IPC: 0.42305 cumulative IPC: 0.41691 (Simulation time: 0 hr 23 min 59 sec) 
Heartbeat CPU  0 instructions:  484000000 cycles:  986806539 heartbeat IPC: 0.42421 cumulative IPC: 0.41693 (Simulation time: 0 hr 24 min 2 sec) 
Heartbeat CPU  0 instructions:  485000003 cycles:  989164865 heartbeat IPC: 0.42403 cumulative IPC: 0.41695 (Simulation time: 0 hr 24 min 5 sec) 
Heartbeat CPU  0 instructions:  486000001 cycles:  991521374 heartbeat IPC: 0.42436 cumulative IPC: 0.41697 (Simulation time: 0 hr 24 min 8 sec) 
Heartbeat CPU  0 instructions:  487000002 cycles:  993900818 heartbeat IPC: 0.42027 cumulative IPC: 0.41698 (Simulation time: 0 hr 24 min 11 sec) 
Heartbeat CPU  0 instructions:  488000000 cycles:  996251390 heartbeat IPC: 0.42543 cumulative IPC: 0.41700 (Simulation time: 0 hr 24 min 14 sec) 
Heartbeat CPU  0 instructions:  489000003 cycles:  998613294 heartbeat IPC: 0.42339 cumulative IPC: 0.41701 (Simulation time: 0 hr 24 min 17 sec) 
Heartbeat CPU  0 instructions:  490000001 cycles: 1000960080 heartbeat IPC: 0.42611 cumulative IPC: 0.41704 (Simulation time: 0 hr 24 min 20 sec) 
Heartbeat CPU  0 instructions:  491000000 cycles: 1003334722 heartbeat IPC: 0.42112 cumulative IPC: 0.41705 (Simulation time: 0 hr 24 min 23 sec) 
Heartbeat CPU  0 instructions:  492000000 cycles: 1005670971 heartbeat IPC: 0.42804 cumulative IPC: 0.41707 (Simulation time: 0 hr 24 min 26 sec) 
Heartbeat CPU  0 instructions:  493000001 cycles: 1008032461 heartbeat IPC: 0.42346 cumulative IPC: 0.41709 (Simulation time: 0 hr 24 min 29 sec) 
Heartbeat CPU  0 instructions:  494000000 cycles: 1010387404 heartbeat IPC: 0.42464 cumulative IPC: 0.41711 (Simulation time: 0 hr 24 min 32 sec) 
Heartbeat CPU  0 instructions:  495000003 cycles: 1012745922 heartbeat IPC: 0.42400 cumulative IPC: 0.41713 (Simulation time: 0 hr 24 min 36 sec) 
Heartbeat CPU  0 instructions:  496000000 cycles: 1015078691 heartbeat IPC: 0.42867 cumulative IPC: 0.41715 (Simulation time: 0 hr 24 min 39 sec) 
Heartbeat CPU  0 instructions:  497000001 cycles: 1017445581 heartbeat IPC: 0.42250 cumulative IPC: 0.41717 (Simulation time: 0 hr 24 min 42 sec) 
Heartbeat CPU  0 instructions:  498000003 cycles: 1019800721 heartbeat IPC: 0.42460 cumulative IPC: 0.41719 (Simulation time: 0 hr 24 min 45 sec) 
Heartbeat CPU  0 instructions:  499000001 cycles: 1022166023 heartbeat IPC: 0.42278 cumulative IPC: 0.41720 (Simulation time: 0 hr 24 min 48 sec) 
Heartbeat CPU  0 instructions:  500000000 cycles: 1024513981 heartbeat IPC: 0.42590 cumulative IPC: 0.41722 (Simulation time: 0 hr 24 min 51 sec) 
Heartbeat CPU  0 instructions:  501000003 cycles: 1026868823 heartbeat IPC: 0.42466 cumulative IPC: 0.41724 (Simulation time: 0 hr 24 min 54 sec) 
Heartbeat CPU  0 instructions:  502000001 cycles: 1029228772 heartbeat IPC: 0.42374 cumulative IPC: 0.41726 (Simulation time: 0 hr 24 min 57 sec) 
Heartbeat CPU  0 instructions:  503000000 cycles: 1031579700 heartbeat IPC: 0.42536 cumulative IPC: 0.41728 (Simulation time: 0 hr 25 min 0 sec) 
Heartbeat CPU  0 instructions:  504000000 cycles: 1033935823 heartbeat IPC: 0.42443 cumulative IPC: 0.41729 (Simulation time: 0 hr 25 min 3 sec) 
Heartbeat CPU  0 instructions:  505000000 cycles: 1036295437 heartbeat IPC: 0.42380 cumulative IPC: 0.41731 (Simulation time: 0 hr 25 min 6 sec) 
Heartbeat CPU  0 instructions:  506000001 cycles: 1038651534 heartbeat IPC: 0.42443 cumulative IPC: 0.41733 (Simulation time: 0 hr 25 min 9 sec) 
Heartbeat CPU  0 instructions:  507000000 cycles: 1041009448 heartbeat IPC: 0.42410 cumulative IPC: 0.41734 (Simulation time: 0 hr 25 min 12 sec) 
Heartbeat CPU  0 instructions:  508000000 cycles: 1043381030 heartbeat IPC: 0.42166 cumulative IPC: 0.41735 (Simulation time: 0 hr 25 min 15 sec) 
Heartbeat CPU  0 instructions:  509000000 cycles: 1045719719 heartbeat IPC: 0.42759 cumulative IPC: 0.41738 (Simulation time: 0 hr 25 min 18 sec) 
Heartbeat CPU  0 instructions:  510000001 cycles: 1048075986 heartbeat IPC: 0.42440 cumulative IPC: 0.41739 (Simulation time: 0 hr 25 min 21 sec) 
Heartbeat CPU  0 instructions:  511000001 cycles: 1050431574 heartbeat IPC: 0.42452 cumulative IPC: 0.41741 (Simulation time: 0 hr 25 min 24 sec) 
Heartbeat CPU  0 instructions:  512000000 cycles: 1052796699 heartbeat IPC: 0.42281 cumulative IPC: 0.41742 (Simulation time: 0 hr 25 min 27 sec) 
Heartbeat CPU  0 instructions:  513000003 cycles: 1055142761 heartbeat IPC: 0.42625 cumulative IPC: 0.41744 (Simulation time: 0 hr 25 min 30 sec) 
Heartbeat CPU  0 instructions:  514000000 cycles: 1057501286 heartbeat IPC: 0.42399 cumulative IPC: 0.41746 (Simulation time: 0 hr 25 min 33 sec) 
Heartbeat CPU  0 instructions:  515000001 cycles: 1059845406 heartbeat IPC: 0.42660 cumulative IPC: 0.41748 (Simulation time: 0 hr 25 min 36 sec) 
Heartbeat CPU  0 instructions:  516000000 cycles: 1062206975 heartbeat IPC: 0.42345 cumulative IPC: 0.41750 (Simulation time: 0 hr 25 min 39 sec) 
Heartbeat CPU  0 instructions:  517000002 cycles: 1064547049 heartbeat IPC: 0.42734 cumulative IPC: 0.41752 (Simulation time: 0 hr 25 min 42 sec) 
Heartbeat CPU  0 instructions:  518000000 cycles: 1066921891 heartbeat IPC: 0.42108 cumulative IPC: 0.41753 (Simulation time: 0 hr 25 min 45 sec) 
Heartbeat CPU  0 instructions:  519000003 cycles: 1069263477 heartbeat IPC: 0.42706 cumulative IPC: 0.41755 (Simulation time: 0 hr 25 min 48 sec) 
Heartbeat CPU  0 instructions:  520000000 cycles: 1071634337 heartbeat IPC: 0.42179 cumulative IPC: 0.41756 (Simulation time: 0 hr 25 min 51 sec) 
Heartbeat CPU  0 instructions:  521000000 cycles: 1073967839 heartbeat IPC: 0.42854 cumulative IPC: 0.41759 (Simulation time: 0 hr 25 min 54 sec) 
Heartbeat CPU  0 instructions:  522000000 cycles: 1076334669 heartbeat IPC: 0.42251 cumulative IPC: 0.41760 (Simulation time: 0 hr 25 min 57 sec) 
Heartbeat CPU  0 instructions:  523000002 cycles: 1078694077 heartbeat IPC: 0.42384 cumulative IPC: 0.41761 (Simulation time: 0 hr 26 min 1 sec) 
Heartbeat CPU  0 instructions:  524000000 cycles: 1081050358 heartbeat IPC: 0.42440 cumulative IPC: 0.41763 (Simulation time: 0 hr 26 min 4 sec) 
Heartbeat CPU  0 instructions:  525000000 cycles: 1083396756 heartbeat IPC: 0.42619 cumulative IPC: 0.41765 (Simulation time: 0 hr 26 min 7 sec) 
Heartbeat CPU  0 instructions:  526000001 cycles: 1085747280 heartbeat IPC: 0.42544 cumulative IPC: 0.41766 (Simulation time: 0 hr 26 min 10 sec) 
Heartbeat CPU  0 instructions:  527000000 cycles: 1088102144 heartbeat IPC: 0.42465 cumulative IPC: 0.41768 (Simulation time: 0 hr 26 min 13 sec) 
Heartbeat CPU  0 instructions:  528000000 cycles: 1090463838 heartbeat IPC: 0.42342 cumulative IPC: 0.41769 (Simulation time: 0 hr 26 min 16 sec) 
Heartbeat CPU  0 instructions:  529000002 cycles: 1092823394 heartbeat IPC: 0.42381 cumulative IPC: 0.41771 (Simulation time: 0 hr 26 min 19 sec) 
Heartbeat CPU  0 instructions:  530000001 cycles: 1095165072 heartbeat IPC: 0.42704 cumulative IPC: 0.41773 (Simulation time: 0 hr 26 min 22 sec) 
Heartbeat CPU  0 instructions:  531000003 cycles: 1097533011 heartbeat IPC: 0.42231 cumulative IPC: 0.41774 (Simulation time: 0 hr 26 min 25 sec) 
Heartbeat CPU  0 instructions:  532000000 cycles: 1099887476 heartbeat IPC: 0.42472 cumulative IPC: 0.41776 (Simulation time: 0 hr 26 min 28 sec) 
Heartbeat CPU  0 instructions:  533000002 cycles: 1102246991 heartbeat IPC: 0.42382 cumulative IPC: 0.41777 (Simulation time: 0 hr 26 min 31 sec) 
Heartbeat CPU  0 instructions:  534000000 cycles: 1104580806 heartbeat IPC: 0.42848 cumulative IPC: 0.41779 (Simulation time: 0 hr 26 min 34 sec) 
Heartbeat CPU  0 instructions:  535000003 cycles: 1106967791 heartbeat IPC: 0.41894 cumulative IPC: 0.41780 (Simulation time: 0 hr 26 min 37 sec) 
Heartbeat CPU  0 instructions:  536000000 cycles: 1109319961 heartbeat IPC: 0.42514 cumulative IPC: 0.41781 (Simulation time: 0 hr 26 min 40 sec) 
Heartbeat CPU  0 instructions:  537000000 cycles: 1111675450 heartbeat IPC: 0.42454 cumulative IPC: 0.41783 (Simulation time: 0 hr 26 min 43 sec) 
Heartbeat CPU  0 instructions:  538000002 cycles: 1114019385 heartbeat IPC: 0.42663 cumulative IPC: 0.41785 (Simulation time: 0 hr 26 min 46 sec) 
Heartbeat CPU  0 instructions:  539000001 cycles: 1116404386 heartbeat IPC: 0.41929 cumulative IPC: 0.41785 (Simulation time: 0 hr 26 min 49 sec) 
Heartbeat CPU  0 instructions:  540000000 cycles: 1118761420 heartbeat IPC: 0.42426 cumulative IPC: 0.41787 (Simulation time: 0 hr 26 min 52 sec) 
Heartbeat CPU  0 instructions:  541000000 cycles: 1121141434 heartbeat IPC: 0.42017 cumulative IPC: 0.41787 (Simulation time: 0 hr 26 min 55 sec) 
Heartbeat CPU  0 instructions:  542000003 cycles: 1123475708 heartbeat IPC: 0.42840 cumulative IPC: 0.41789 (Simulation time: 0 hr 26 min 58 sec) 
Heartbeat CPU  0 instructions:  543000001 cycles: 1125841802 heartbeat IPC: 0.42264 cumulative IPC: 0.41790 (Simulation time: 0 hr 27 min 1 sec) 
Heartbeat CPU  0 instructions:  544000000 cycles: 1128198999 heartbeat IPC: 0.42423 cumulative IPC: 0.41792 (Simulation time: 0 hr 27 min 4 sec) 
Heartbeat CPU  0 instructions:  545000002 cycles: 1130546046 heartbeat IPC: 0.42607 cumulative IPC: 0.41794 (Simulation time: 0 hr 27 min 8 sec) 
Heartbeat CPU  0 instructions:  546000000 cycles: 1132892659 heartbeat IPC: 0.42615 cumulative IPC: 0.41795 (Simulation time: 0 hr 27 min 11 sec) 
Heartbeat CPU  0 instructions:  547000002 cycles: 1135263267 heartbeat IPC: 0.42183 cumulative IPC: 0.41796 (Simulation time: 0 hr 27 min 14 sec) 
Heartbeat CPU  0 instructions:  548000000 cycles: 1137625924 heartbeat IPC: 0.42325 cumulative IPC: 0.41797 (Simulation time: 0 hr 27 min 17 sec) 
Heartbeat CPU  0 instructions:  549000003 cycles: 1139987456 heartbeat IPC: 0.42346 cumulative IPC: 0.41799 (Simulation time: 0 hr 27 min 20 sec) 
Heartbeat CPU  0 instructions:  550000002 cycles: 1142345360 heartbeat IPC: 0.42411 cumulative IPC: 0.41800 (Simulation time: 0 hr 27 min 23 sec) 
Heartbeat CPU  0 instructions:  551000003 cycles: 1144692423 heartbeat IPC: 0.42606 cumulative IPC: 0.41802 (Simulation time: 0 hr 27 min 26 sec) 
Heartbeat CPU  0 instructions:  552000000 cycles: 1147061044 heartbeat IPC: 0.42219 cumulative IPC: 0.41803 (Simulation time: 0 hr 27 min 29 sec) 
Heartbeat CPU  0 instructions:  553000000 cycles: 1149414961 heartbeat IPC: 0.42482 cumulative IPC: 0.41804 (Simulation time: 0 hr 27 min 32 sec) 
Heartbeat CPU  0 instructions:  554000000 cycles: 1151762497 heartbeat IPC: 0.42598 cumulative IPC: 0.41806 (Simulation time: 0 hr 27 min 35 sec) 
Heartbeat CPU  0 instructions:  555000001 cycles: 1154114910 heartbeat IPC: 0.42510 cumulative IPC: 0.41807 (Simulation time: 0 hr 27 min 38 sec) 
Heartbeat CPU  0 instructions:  556000000 cycles: 1156485316 heartbeat IPC: 0.42187 cumulative IPC: 0.41808 (Simulation time: 0 hr 27 min 41 sec) 
Heartbeat CPU  0 instructions:  557000001 cycles: 1158825837 heartbeat IPC: 0.42726 cumulative IPC: 0.41810 (Simulation time: 0 hr 27 min 44 sec) 
Heartbeat CPU  0 instructions:  558000001 cycles: 1161194247 heartbeat IPC: 0.42222 cumulative IPC: 0.41811 (Simulation time: 0 hr 27 min 47 sec) 
Heartbeat CPU  0 instructions:  559000002 cycles: 1163544536 heartbeat IPC: 0.42548 cumulative IPC: 0.41813 (Simulation time: 0 hr 27 min 50 sec) 
Heartbeat CPU  0 instructions:  560000000 cycles: 1165920358 heartbeat IPC: 0.42091 cumulative IPC: 0.41813 (Simulation time: 0 hr 27 min 53 sec) 
Heartbeat CPU  0 instructions:  561000001 cycles: 1168257922 heartbeat IPC: 0.42780 cumulative IPC: 0.41815 (Simulation time: 0 hr 27 min 56 sec) 
Heartbeat CPU  0 instructions:  562000002 cycles: 1170628317 heartbeat IPC: 0.42187 cumulative IPC: 0.41816 (Simulation time: 0 hr 27 min 59 sec) 
Heartbeat CPU  0 instructions:  563000002 cycles: 1172976926 heartbeat IPC: 0.42578 cumulative IPC: 0.41818 (Simulation time: 0 hr 28 min 2 sec) 
Heartbeat CPU  0 instructions:  564000000 cycles: 1175346898 heartbeat IPC: 0.42195 cumulative IPC: 0.41819 (Simulation time: 0 hr 28 min 5 sec) 
Heartbeat CPU  0 instructions:  565000002 cycles: 1177697879 heartbeat IPC: 0.42536 cumulative IPC: 0.41820 (Simulation time: 0 hr 28 min 8 sec) 
Heartbeat CPU  0 instructions:  566000001 cycles: 1180059093 heartbeat IPC: 0.42351 cumulative IPC: 0.41821 (Simulation time: 0 hr 28 min 11 sec) 
Heartbeat CPU  0 instructions:  567000000 cycles: 1182394451 heartbeat IPC: 0.42820 cumulative IPC: 0.41823 (Simulation time: 0 hr 28 min 14 sec) 
Heartbeat CPU  0 instructions:  568000000 cycles: 1184762093 heartbeat IPC: 0.42236 cumulative IPC: 0.41824 (Simulation time: 0 hr 28 min 17 sec) 
Heartbeat CPU  0 instructions:  569000002 cycles: 1187105881 heartbeat IPC: 0.42666 cumulative IPC: 0.41826 (Simulation time: 0 hr 28 min 20 sec) 
Heartbeat CPU  0 instructions:  570000002 cycles: 1189474004 heartbeat IPC: 0.42228 cumulative IPC: 0.41827 (Simulation time: 0 hr 28 min 23 sec) 
Heartbeat CPU  0 instructions:  571000003 cycles: 1191821612 heartbeat IPC: 0.42597 cumulative IPC: 0.41828 (Simulation time: 0 hr 28 min 26 sec) 
Heartbeat CPU  0 instructions:  572000000 cycles: 1194173196 heartbeat IPC: 0.42524 cumulative IPC: 0.41830 (Simulation time: 0 hr 28 min 29 sec) 
Heartbeat CPU  0 instructions:  573000000 cycles: 1196521994 heartbeat IPC: 0.42575 cumulative IPC: 0.41831 (Simulation time: 0 hr 28 min 33 sec) 
Heartbeat CPU  0 instructions:  574000000 cycles: 1198875562 heartbeat IPC: 0.42489 cumulative IPC: 0.41833 (Simulation time: 0 hr 28 min 36 sec) 
Heartbeat CPU  0 instructions:  575000002 cycles: 1201254528 heartbeat IPC: 0.42035 cumulative IPC: 0.41833 (Simulation time: 0 hr 28 min 39 sec) 
Heartbeat CPU  0 instructions:  576000000 cycles: 1203602710 heartbeat IPC: 0.42586 cumulative IPC: 0.41835 (Simulation time: 0 hr 28 min 42 sec) 
Heartbeat CPU  0 instructions:  577000000 cycles: 1205963641 heartbeat IPC: 0.42356 cumulative IPC: 0.41836 (Simulation time: 0 hr 28 min 45 sec) 
Heartbeat CPU  0 instructions:  578000001 cycles: 1208310704 heartbeat IPC: 0.42606 cumulative IPC: 0.41837 (Simulation time: 0 hr 28 min 48 sec) 
Heartbeat CPU  0 instructions:  579000002 cycles: 1210678393 heartbeat IPC: 0.42235 cumulative IPC: 0.41838 (Simulation time: 0 hr 28 min 51 sec) 
Heartbeat CPU  0 instructions:  580000000 cycles: 1213013567 heartbeat IPC: 0.42823 cumulative IPC: 0.41840 (Simulation time: 0 hr 28 min 54 sec) 
Heartbeat CPU  0 instructions:  581000000 cycles: 1215375654 heartbeat IPC: 0.42335 cumulative IPC: 0.41841 (Simulation time: 0 hr 28 min 57 sec) 
Heartbeat CPU  0 instructions:  582000001 cycles: 1217721915 heartbeat IPC: 0.42621 cumulative IPC: 0.41843 (Simulation time: 0 hr 29 min 0 sec) 
Heartbeat CPU  0 instructions:  583000001 cycles: 1220083030 heartbeat IPC: 0.42353 cumulative IPC: 0.41844 (Simulation time: 0 hr 29 min 3 sec) 
Heartbeat CPU  0 instructions:  584000000 cycles: 1222420624 heartbeat IPC: 0.42779 cumulative IPC: 0.41846 (Simulation time: 0 hr 29 min 6 sec) 
Heartbeat CPU  0 instructions:  585000000 cycles: 1224781668 heartbeat IPC: 0.42354 cumulative IPC: 0.41847 (Simulation time: 0 hr 29 min 9 sec) 
Heartbeat CPU  0 instructions:  586000000 cycles: 1227134788 heartbeat IPC: 0.42497 cumulative IPC: 0.41848 (Simulation time: 0 hr 29 min 12 sec) 
Heartbeat CPU  0 instructions:  587000001 cycles: 1229504774 heartbeat IPC: 0.42194 cumulative IPC: 0.41849 (Simulation time: 0 hr 29 min 15 sec) 
Heartbeat CPU  0 instructions:  588000000 cycles: 1231854140 heartbeat IPC: 0.42565 cumulative IPC: 0.41850 (Simulation time: 0 hr 29 min 18 sec) 
Heartbeat CPU  0 instructions:  589000000 cycles: 1234226838 heartbeat IPC: 0.42146 cumulative IPC: 0.41851 (Simulation time: 0 hr 29 min 21 sec) 
Heartbeat CPU  0 instructions:  590000001 cycles: 1236572910 heartbeat IPC: 0.42624 cumulative IPC: 0.41852 (Simulation time: 0 hr 29 min 24 sec) 
Heartbeat CPU  0 instructions:  591000002 cycles: 1238937832 heartbeat IPC: 0.42285 cumulative IPC: 0.41853 (Simulation time: 0 hr 29 min 27 sec) 
Heartbeat CPU  0 instructions:  592000000 cycles: 1241285722 heartbeat IPC: 0.42591 cumulative IPC: 0.41855 (Simulation time: 0 hr 29 min 30 sec) 
Heartbeat CPU  0 instructions:  593000003 cycles: 1243644721 heartbeat IPC: 0.42391 cumulative IPC: 0.41856 (Simulation time: 0 hr 29 min 33 sec) 
Heartbeat CPU  0 instructions:  594000000 cycles: 1246001414 heartbeat IPC: 0.42432 cumulative IPC: 0.41857 (Simulation time: 0 hr 29 min 36 sec) 
Heartbeat CPU  0 instructions:  595000001 cycles: 1248351913 heartbeat IPC: 0.42544 cumulative IPC: 0.41858 (Simulation time: 0 hr 29 min 39 sec) 
Heartbeat CPU  0 instructions:  596000000 cycles: 1250706745 heartbeat IPC: 0.42466 cumulative IPC: 0.41859 (Simulation time: 0 hr 29 min 42 sec) 
Heartbeat CPU  0 instructions:  597000002 cycles: 1253058494 heartbeat IPC: 0.42522 cumulative IPC: 0.41861 (Simulation time: 0 hr 29 min 45 sec) 
Heartbeat CPU  0 instructions:  598000001 cycles: 1255421339 heartbeat IPC: 0.42322 cumulative IPC: 0.41862 (Simulation time: 0 hr 29 min 48 sec) 
Heartbeat CPU  0 instructions:  599000000 cycles: 1257777997 heartbeat IPC: 0.42433 cumulative IPC: 0.41863 (Simulation time: 0 hr 29 min 51 sec) 
Heartbeat CPU  0 instructions:  600000000 cycles: 1260129419 heartbeat IPC: 0.42527 cumulative IPC: 0.41864 (Simulation time: 0 hr 29 min 54 sec) 
Finished CPU 0 instructions: 500000000 cycles: 1194339180 cumulative IPC: 0.41864 (Simulation time: 0 hr 29 min 54 sec) 

ChampSim completed all CPUs

[ROI Statistics]
Core_0_instructions 500000000
Core_0_cycles 1194339180
Core_0_IPC 0.41864

Core_0_branch_prediction_accuracy 97.89350
Core_0_branch_MPKI 0.73267
Core_0_average_ROB_occupancy_at_mispredict 252.53566

Core_0_L1D_total_access 234938172
Core_0_L1D_total_hit 224771442
Core_0_L1D_total_miss 10166730
Core_0_L1D_loads 199486969
Core_0_L1D_load_hit 189575714
Core_0_L1D_load_miss 9911255
Core_0_L1D_RFOs 35451203
Core_0_L1D_RFO_hit 35195728
Core_0_L1D_RFO_miss 255475
Core_0_L1D_prefetches 0
Core_0_L1D_prefetch_hit 0
Core_0_L1D_prefetch_miss 0
Core_0_L1D_writebacks 0
Core_0_L1D_writeback_hit 0
Core_0_L1D_writeback_miss 0
Core_0_L1D_prefetch_requested 0
Core_0_L1D_prefetch_dropped 0
Core_0_L1D_prefetch_issued 0
Core_0_L1D_prefetch_filled 0
Core_0_L1D_prefetch_useful 0
Core_0_L1D_prefetch_useless 0
Core_0_L1D_prefetch_late 0
Core_0_L1D_average_miss_latency 366.33655

Core_0_L1D_rq_access 254237998
Core_0_L1D_rq_forward 0
Core_0_L1D_rq_merged 53078112
Core_0_L1D_rq_to_cache 201159886
Core_0_L1D_rq_full 0

Core_0_L1D_wq_access 36392435
Core_0_L1D_wq_forward 0
Core_0_L1D_wq_merged 0
Core_0_L1D_wq_to_cache 36392435
Core_0_L1D_wq_full 0

Core_0_L1D_pq_access 0
Core_0_L1D_pq_forward 0
Core_0_L1D_pq_merged 0
Core_0_L1D_pq_to_cache 0
Core_0_L1D_pq_full 0

Core_0_L1D_acc_epochs 1216891
Core_0_L1D_acc_level_0 1216891
Core_0_L1D_acc_level_1 0
Core_0_L1D_acc_level_2 0
Core_0_L1D_acc_level_3 0
Core_0_L1D_acc_level_4 0
Core_0_L1D_acc_level_5 0
Core_0_L1D_acc_level_6 0
Core_0_L1D_acc_level_7 0
Core_0_L1D_acc_level_8 0
Core_0_L1D_acc_level_9 0

Core_0_L1I_total_access 115123580
Core_0_L1I_total_hit 115123526
Core_0_L1I_total_miss 54
Core_0_L1I_loads 115123580
Core_0_L1I_load_hit 115123526
Core_0_L1I_load_miss 54
Core_0_L1I_RFOs 0
Core_0_L1I_RFO_hit 0
Core_0_L1I_RFO_miss 0
Core_0_L1I_prefetches 0
Core_0_L1I_prefetch_hit 0
Core_0_L1I_prefetch_miss 0
Core_0_L1I_writebacks 0
Core_0_L1I_writeback_hit 0
Core_0_L1I_writeback_miss 0
Core_0_L1I_prefetch_requested 0
Core_0_L1I_prefetch_dropped 0
Core_0_L1I_prefetch_issued 0
Core_0_L1I_prefetch_filled 0
Core_0_L1I_prefetch_useful 0
Core_0_L1I_prefetch_useless 0
Core_0_L1I_prefetch_late 0
Core_0_L1I_average_miss_latency 739.64815

Core_0_L1I_rq_access 500000250
Core_0_L1I_rq_forward 0
Core_0_L1I_rq_merged 384876658
Core_0_L1I_rq_to_cache 115123592
Core_0_L1I_rq_full 0

Core_0_L1I_wq_access 0
Core_0_L1I_wq_forward 0
Core_0_L1I_wq_merged 0
Core_0_L1I_wq_to_cache 0
Core_0_L1I_wq_full 0

Core_0_L1I_pq_access 0
Core_0_L1I_pq_forward 0
Core_0_L1I_pq_merged 0
Core_0_L1I_pq_to_cache 0
Core_0_L1I_pq_full 0

Core_0_L1I_acc_epochs 1216891
Core_0_L1I_acc_level_0 1216891
Core_0_L1I_acc_level_1 0
Core_0_L1I_acc_level_2 0
Core_0_L1I_acc_level_3 0
Core_0_L1I_acc_level_4 0
Core_0_L1I_acc_level_5 0
Core_0_L1I_acc_level_6 0
Core_0_L1I_acc_level_7 0
Core_0_L1I_acc_level_8 0
Core_0_L1I_acc_level_9 0

Core_0_L2C_total_access 18038358
Core_0_L2C_total_hit 8767937
Core_0_L2C_total_miss 9270421
Core_0_L2C_loads 9907637
Core_0_L2C_load_hit 8259991
Core_0_L2C_load_miss 1647646
Core_0_L2C_RFOs 252628
Core_0_L2C_RFO_hit 32400
Core_0_L2C_RFO_miss 220228
Core_0_L2C_prefetches 7415616
Core_0_L2C_prefetch_hit 15610
Core_0_L2C_prefetch_miss 7400006
Core_0_L2C_writebacks 462477
Core_0_L2C_writeback_hit 459936
Core_0_L2C_writeback_miss 2541
Core_0_L2C_prefetch_requested 9534008
Core_0_L2C_prefetch_dropped 0
Core_0_L2C_prefetch_issued 9534008
Core_0_L2C_prefetch_filled 9091835
Core_0_L2C_prefetch_useful 9090485
Core_0_L2C_prefetch_useless 1222
Core_0_L2C_prefetch_late 379489
Core_0_L2C_average_miss_latency 1930.80911

Core_0_L2C_rq_access 10166784
Core_0_L2C_rq_forward 0
Core_0_L2C_rq_merged 0
Core_0_L2C_rq_to_cache 10160265
Core_0_L2C_rq_full 0

Core_0_L2C_wq_access 462477
Core_0_L2C_wq_forward 6520
Core_0_L2C_wq_merged 0
Core_0_L2C_wq_to_cache 462477
Core_0_L2C_wq_full 0

Core_0_L2C_pq_access 9534008
Core_0_L2C_pq_forward 0
Core_0_L2C_pq_merged 0
Core_0_L2C_pq_to_cache 9534007
Core_0_L2C_pq_full 0

Core_0_L2C_acc_epochs 1216891
Core_0_L2C_acc_level_0 230912
Core_0_L2C_acc_level_1 188395
Core_0_L2C_acc_level_2 125633
Core_0_L2C_acc_level_3 91143
Core_0_L2C_acc_level_4 63404
Core_0_L2C_acc_level_5 59629
Core_0_L2C_acc_level_6 44802
Core_0_L2C_acc_level_7 37757
Core_0_L2C_acc_level_8 30935
Core_0_L2C_acc_level_9 344281

Core_0_LLC_total_access 9661022
Core_0_LLC_total_hit 44373
Core_0_LLC_total_miss 9616649
Core_0_LLC_loads 1268462
Core_0_LLC_load_hit 3112
Core_0_LLC_load_miss 1265350
Core_0_LLC_RFOs 220228
Core_0_LLC_RFO_hit 1
Core_0_LLC_RFO_miss 220227
Core_0_LLC_prefetches 7779201
Core_0_LLC_prefetch_hit 30871
Core_0_LLC_prefetch_miss 7748330
Core_0_LLC_writebacks 393131
Core_0_LLC_writeback_hit 10389
Core_0_LLC_writeback_miss 382742
Core_0_LLC_prefetch_requested 0
Core_0_LLC_prefetch_dropped 0
Core_0_LLC_prefetch_issued 0
Core_0_LLC_prefetch_filled 9437934
Core_0_LLC_prefetch_useful 94
Core_0_LLC_prefetch_useless 9436165
Core_0_LLC_prefetch_late 0
Core_0_LLC_average_miss_latency 1888.14651

Core_0_LLC_rq_access 1488690
Core_0_LLC_rq_forward 0
Core_0_LLC_rq_merged 0
Core_0_LLC_rq_to_cache 1488690
Core_0_LLC_rq_full 0

Core_0_LLC_wq_access 393131
Core_0_LLC_wq_forward 0
Core_0_LLC_wq_merged 0
Core_0_LLC_wq_to_cache 393131
Core_0_LLC_wq_full 0

Core_0_LLC_pq_access 9471335
Core_0_LLC_pq_forward 0
Core_0_LLC_pq_merged 0
Core_0_LLC_pq_to_cache 9471335
Core_0_LLC_pq_full 0

Core_0_LLC_acc_epochs 1230596
Core_0_LLC_acc_level_0 1230590
Core_0_LLC_acc_level_1 2
Core_0_LLC_acc_level_2 2
Core_0_LLC_acc_level_3 0
Core_0_LLC_acc_level_4 0
Core_0_LLC_acc_level_5 2
Core_0_LLC_acc_level_6 0
Core_0_LLC_acc_level_7 0
Core_0_LLC_acc_level_8 0
Core_0_LLC_acc_level_9 0

Core_0_major_page_fault 0
Core_0_minor_page_fault 104619

[Bingo] PHT Access: 342981
[Bingo] PHT Hit PC+Addr: 4982
[Bingo] PHT Hit PC+Offs: 337210
[Bingo] PHT Miss: 789
[Bingo] Prefetch PC+Addr: 0
[Bingo] Prefetch PC+Offs: 0
[Bingo] Useful PC+Addr: 0
[Bingo] Useful PC+Offs: 0
[Bingo] Useless PC+Addr: 0
[Bingo] Useless PC+Offs: 0
[Bingo] L1 Prefetch per Region: 0.00000
[Bingo] L2 Prefetch per Region: 31.69365
[Bingo] L3 Prefetch per Region: 0.00003
[Bingo] No Prefetch per Region: 0.30631
[Bingo] Number of Voters Mean: 15.97733
[Bingo] Number of Voters SD: 0.39176

Channel_0_RQ_row_buffer_hit 7760804
Channel_0_RQ_row_buffer_miss 1473103
Channel_0_WQ_row_buffer_hit 119520
Channel_0_WQ_row_buffer_miss 268363
Channel_0_WQ_full 0
Channel_0_dbus_congested 9302646

avg_congested_cycle 103

DRAM_bw_pochs 4922381
DRAM_bw_level_0 2919871
DRAM_bw_level_1 490137
DRAM_bw_level_2 0
DRAM_bw_level_3 1512373
