*************************************************
   ChampSim Multicore Out-of-Order Simulator
   Last compiled: Dec 11 2024 17:59:53
*************************************************
parsing config file: /home/functionmain/桌面/Pythia/config/bingo.ini

trace_0 /home/functionmain/桌面/Pythia/traces/410.bwaves-1963B.champsimtrace.xz
adding L2C_PREFETCHER: Bingo
Initialize SHIP state
warmup_instructions 100000000
simulation_instructions 500000000
champsim_seed 277
measure_ipc 0
measure_ipc_epoch 1000
measure_dram_bw 1
measure_dram_bw_epoch 256
measure_cache_acc 1
measure_cache_acc_epoch 1024
l1d_perfect 0
l2c_perfect 0
llc_perfect 0
l1d_semi_perfect 0
l2c_semi_perfect 0
llc_semi_perfect 0
semi_perfect_cache_page_buffer_size 64

num_cpus 1
cpu_freq 4000
dram_io_freq 150
page_size 4096
block_size 64
max_read_per_cycle 8
max_fill_per_cycle 1
dram_channels 1
log2_dram_channels 0
dram_ranks 1
dram_banks 8
dram_rows 65536
dram_columns 128
dram_row_size 8
dram_size 4096
dram_pages 1048576

fetch_width 6
decode_width 6
exec_width 4
lq_width 2
sq_width 2
retire_width 4
scheduler_size 128
branch_mispredict_penalty 20
rob_size 256
lq_size 72
sq_size 56
num_instr_destinations_sparc 4
num_instr_destinations 2
num_instr_sources 4

itlb_set 16
itlb_way 8
itlb_rq_size 16
itlb_wq_size 16
itlb_pq_size 0
itlb_mshr_size 8
itlb_latency 1

dtlb_set 16
dtlb_way 4
dtlb_rq_size 16
dtlb_wq_size 16
dtlb_pq_size 0
dtlb_mshr_size 8
dtlb_latency 1

stlb_set 128
stlb_way 12
stlb_rq_size 32
stlb_wq_size 32
stlb_pq_size 0
stlb_mshr_size 16
stlb_latency 8

l1i_size 32
l1i_set 64
l1i_way 8
l1i_rq_size 64
l1i_wq_size 64
l1i_pq_size 8
l1i_mshr_size 8
l1i_latency 1

l1d_size 32
l1d_set 64
l1d_way 8
l1d_rq_size 64
l1d_wq_size 64
l1d_pq_size 8
l1d_mshr_size 16
l1d_latency 4

l2c_size 256
l2c_set 512
l2c_way 8
l2c_rq_size 32
l2c_wq_size 32
l2c_pq_size 32
l2c_mshr_size 32
l2c_latency 10

llc_size 2048
llc_set 2048
llc_way 16
llc_rq_size 32
llc_wq_size 32
llc_pq_size 32
llc_mshr_size 64
llc_latency 20

dram_channel_width 8
dram_wq_size 64
dram_rq_size 64
tRP 15
tRCD 15
tCAS 12.5
dram_dbus_turn_around_time 30
dram_write_high_wm 56
dram_write_low_wm 48
min_dram_writes_per_switch 16
dram_mtps 150
dram_dbus_return_time 213

bingo_region_size 2048
bingo_pattern_len 32
bingo_pc_width 16
bingo_min_addr_width 5
bingo_max_addr_width 16
bingo_ft_size 64
bingo_at_size 128
bingo_pht_size 4096
bingo_pht_ways 16
bingo_pf_streamer_size 128
bingo_debug_level 0
bingo_l1d_thresh 1.01
bingo_l2c_thresh 0.8
bingo_llc_thresh 0.05
bingo_pc_address_fill_level L2


Heartbeat CPU  0 instructions:    1000002 cycles:     658387 heartbeat IPC: 1.51887 cumulative IPC: 1.51887 (Simulation time: 0 hr 0 min 2 sec) 
Heartbeat CPU  0 instructions:    2000002 cycles:    1316324 heartbeat IPC: 1.51990 cumulative IPC: 1.51938 (Simulation time: 0 hr 0 min 4 sec) 
Heartbeat CPU  0 instructions:    3000002 cycles:    1974294 heartbeat IPC: 1.51983 cumulative IPC: 1.51953 (Simulation time: 0 hr 0 min 6 sec) 
Heartbeat CPU  0 instructions:    4000000 cycles:    2632192 heartbeat IPC: 1.51999 cumulative IPC: 1.51965 (Simulation time: 0 hr 0 min 8 sec) 
Heartbeat CPU  0 instructions:    5000002 cycles:    3290251 heartbeat IPC: 1.51962 cumulative IPC: 1.51964 (Simulation time: 0 hr 0 min 10 sec) 
Heartbeat CPU  0 instructions:    6000002 cycles:    3948195 heartbeat IPC: 1.51989 cumulative IPC: 1.51968 (Simulation time: 0 hr 0 min 12 sec) 
Heartbeat CPU  0 instructions:    7000000 cycles:    4606175 heartbeat IPC: 1.51980 cumulative IPC: 1.51970 (Simulation time: 0 hr 0 min 14 sec) 
Heartbeat CPU  0 instructions:    8000000 cycles:    5264059 heartbeat IPC: 1.52002 cumulative IPC: 1.51974 (Simulation time: 0 hr 0 min 16 sec) 
Heartbeat CPU  0 instructions:    9000001 cycles:    5921981 heartbeat IPC: 1.51994 cumulative IPC: 1.51976 (Simulation time: 0 hr 0 min 18 sec) 
Heartbeat CPU  0 instructions:   10000002 cycles:    6579905 heartbeat IPC: 1.51993 cumulative IPC: 1.51978 (Simulation time: 0 hr 0 min 20 sec) 
Heartbeat CPU  0 instructions:   11000001 cycles:    7237855 heartbeat IPC: 1.51987 cumulative IPC: 1.51979 (Simulation time: 0 hr 0 min 22 sec) 
Heartbeat CPU  0 instructions:   12000000 cycles:    7895690 heartbeat IPC: 1.52014 cumulative IPC: 1.51982 (Simulation time: 0 hr 0 min 24 sec) 
Heartbeat CPU  0 instructions:   13000001 cycles:    8553703 heartbeat IPC: 1.51973 cumulative IPC: 1.51981 (Simulation time: 0 hr 0 min 26 sec) 
Heartbeat CPU  0 instructions:   14000001 cycles:    9211511 heartbeat IPC: 1.52020 cumulative IPC: 1.51984 (Simulation time: 0 hr 0 min 28 sec) 
Heartbeat CPU  0 instructions:   15000000 cycles:    9869291 heartbeat IPC: 1.52026 cumulative IPC: 1.51987 (Simulation time: 0 hr 0 min 30 sec) 
Heartbeat CPU  0 instructions:   16000000 cycles:   10527134 heartbeat IPC: 1.52012 cumulative IPC: 1.51988 (Simulation time: 0 hr 0 min 32 sec) 
Heartbeat CPU  0 instructions:   17000002 cycles:   11185048 heartbeat IPC: 1.51996 cumulative IPC: 1.51989 (Simulation time: 0 hr 0 min 34 sec) 
Heartbeat CPU  0 instructions:   18000000 cycles:   11842910 heartbeat IPC: 1.52007 cumulative IPC: 1.51990 (Simulation time: 0 hr 0 min 36 sec) 
Heartbeat CPU  0 instructions:   19000001 cycles:   12500770 heartbeat IPC: 1.52008 cumulative IPC: 1.51991 (Simulation time: 0 hr 0 min 38 sec) 
Heartbeat CPU  0 instructions:   20000000 cycles:   13158571 heartbeat IPC: 1.52022 cumulative IPC: 1.51992 (Simulation time: 0 hr 0 min 40 sec) 
Heartbeat CPU  0 instructions:   21000003 cycles:   13816472 heartbeat IPC: 1.51999 cumulative IPC: 1.51993 (Simulation time: 0 hr 0 min 42 sec) 
Heartbeat CPU  0 instructions:   22000001 cycles:   14474252 heartbeat IPC: 1.52026 cumulative IPC: 1.51994 (Simulation time: 0 hr 0 min 44 sec) 
Heartbeat CPU  0 instructions:   23000001 cycles:   15132080 heartbeat IPC: 1.52015 cumulative IPC: 1.51995 (Simulation time: 0 hr 0 min 46 sec) 
Heartbeat CPU  0 instructions:   24000000 cycles:   15789835 heartbeat IPC: 1.52032 cumulative IPC: 1.51997 (Simulation time: 0 hr 0 min 48 sec) 
Heartbeat CPU  0 instructions:   25000001 cycles:   16447806 heartbeat IPC: 1.51983 cumulative IPC: 1.51996 (Simulation time: 0 hr 0 min 50 sec) 
Heartbeat CPU  0 instructions:   26000003 cycles:   17105486 heartbeat IPC: 1.52050 cumulative IPC: 1.51998 (Simulation time: 0 hr 0 min 52 sec) 
Heartbeat CPU  0 instructions:   27000000 cycles:   17763329 heartbeat IPC: 1.52012 cumulative IPC: 1.51999 (Simulation time: 0 hr 0 min 55 sec) 
Heartbeat CPU  0 instructions:   28000000 cycles:   18421130 heartbeat IPC: 1.52022 cumulative IPC: 1.51999 (Simulation time: 0 hr 0 min 57 sec) 
Heartbeat CPU  0 instructions:   29000000 cycles:   19079058 heartbeat IPC: 1.51992 cumulative IPC: 1.51999 (Simulation time: 0 hr 0 min 59 sec) 
Heartbeat CPU  0 instructions:   30000001 cycles:   19736898 heartbeat IPC: 1.52013 cumulative IPC: 1.52000 (Simulation time: 0 hr 1 min 1 sec) 
Heartbeat CPU  0 instructions:   31000002 cycles:   20394818 heartbeat IPC: 1.51994 cumulative IPC: 1.51999 (Simulation time: 0 hr 1 min 3 sec) 
Heartbeat CPU  0 instructions:   32000000 cycles:   21052763 heartbeat IPC: 1.51988 cumulative IPC: 1.51999 (Simulation time: 0 hr 1 min 5 sec) 
Heartbeat CPU  0 instructions:   33000003 cycles:   21710778 heartbeat IPC: 1.51973 cumulative IPC: 1.51998 (Simulation time: 0 hr 1 min 7 sec) 
Heartbeat CPU  0 instructions:   34000002 cycles:   22368715 heartbeat IPC: 1.51990 cumulative IPC: 1.51998 (Simulation time: 0 hr 1 min 9 sec) 
Heartbeat CPU  0 instructions:   35000000 cycles:   23026647 heartbeat IPC: 1.51991 cumulative IPC: 1.51998 (Simulation time: 0 hr 1 min 11 sec) 
Heartbeat CPU  0 instructions:   36000000 cycles:   23684609 heartbeat IPC: 1.51984 cumulative IPC: 1.51997 (Simulation time: 0 hr 1 min 13 sec) 
Heartbeat CPU  0 instructions:   37000002 cycles:   24342610 heartbeat IPC: 1.51976 cumulative IPC: 1.51997 (Simulation time: 0 hr 1 min 15 sec) 
Heartbeat CPU  0 instructions:   38000000 cycles:   25000499 heartbeat IPC: 1.52001 cumulative IPC: 1.51997 (Simulation time: 0 hr 1 min 17 sec) 
Heartbeat CPU  0 instructions:   39000000 cycles:   25658529 heartbeat IPC: 1.51969 cumulative IPC: 1.51996 (Simulation time: 0 hr 1 min 19 sec) 
Heartbeat CPU  0 instructions:   40000000 cycles:   26316380 heartbeat IPC: 1.52010 cumulative IPC: 1.51997 (Simulation time: 0 hr 1 min 21 sec) 
Heartbeat CPU  0 instructions:   41000000 cycles:   26974412 heartbeat IPC: 1.51968 cumulative IPC: 1.51996 (Simulation time: 0 hr 1 min 23 sec) 
Heartbeat CPU  0 instructions:   42000003 cycles:   27632380 heartbeat IPC: 1.51984 cumulative IPC: 1.51996 (Simulation time: 0 hr 1 min 25 sec) 
Heartbeat CPU  0 instructions:   43000001 cycles:   28290251 heartbeat IPC: 1.52005 cumulative IPC: 1.51996 (Simulation time: 0 hr 1 min 27 sec) 
Heartbeat CPU  0 instructions:   44000000 cycles:   28948071 heartbeat IPC: 1.52017 cumulative IPC: 1.51996 (Simulation time: 0 hr 1 min 29 sec) 
Heartbeat CPU  0 instructions:   45000000 cycles:   29605946 heartbeat IPC: 1.52005 cumulative IPC: 1.51996 (Simulation time: 0 hr 1 min 31 sec) 
Heartbeat CPU  0 instructions:   46000001 cycles:   30263789 heartbeat IPC: 1.52012 cumulative IPC: 1.51997 (Simulation time: 0 hr 1 min 33 sec) 
Heartbeat CPU  0 instructions:   47000003 cycles:   30921669 heartbeat IPC: 1.52004 cumulative IPC: 1.51997 (Simulation time: 0 hr 1 min 35 sec) 
Heartbeat CPU  0 instructions:   48000000 cycles:   31579361 heartbeat IPC: 1.52046 cumulative IPC: 1.51998 (Simulation time: 0 hr 1 min 37 sec) 
Heartbeat CPU  0 instructions:   49000000 cycles:   32237153 heartbeat IPC: 1.52024 cumulative IPC: 1.51999 (Simulation time: 0 hr 1 min 39 sec) 
Heartbeat CPU  0 instructions:   50000003 cycles:   32895081 heartbeat IPC: 1.51993 cumulative IPC: 1.51998 (Simulation time: 0 hr 1 min 41 sec) 
Heartbeat CPU  0 instructions:   51000000 cycles:   33552927 heartbeat IPC: 1.52011 cumulative IPC: 1.51999 (Simulation time: 0 hr 1 min 43 sec) 
Heartbeat CPU  0 instructions:   52000000 cycles:   34210731 heartbeat IPC: 1.52021 cumulative IPC: 1.51999 (Simulation time: 0 hr 1 min 45 sec) 
Heartbeat CPU  0 instructions:   53000003 cycles:   34868647 heartbeat IPC: 1.51996 cumulative IPC: 1.51999 (Simulation time: 0 hr 1 min 47 sec) 
Heartbeat CPU  0 instructions:   54000001 cycles:   35526531 heartbeat IPC: 1.52002 cumulative IPC: 1.51999 (Simulation time: 0 hr 1 min 49 sec) 
Heartbeat CPU  0 instructions:   55000003 cycles:   36184401 heartbeat IPC: 1.52006 cumulative IPC: 1.51999 (Simulation time: 0 hr 1 min 51 sec) 
Heartbeat CPU  0 instructions:   56000000 cycles:   36842262 heartbeat IPC: 1.52007 cumulative IPC: 1.51999 (Simulation time: 0 hr 1 min 53 sec) 
Heartbeat CPU  0 instructions:   57000001 cycles:   37500006 heartbeat IPC: 1.52035 cumulative IPC: 1.52000 (Simulation time: 0 hr 1 min 55 sec) 
Heartbeat CPU  0 instructions:   58000000 cycles:   38157943 heartbeat IPC: 1.51990 cumulative IPC: 1.52000 (Simulation time: 0 hr 1 min 57 sec) 
Heartbeat CPU  0 instructions:   59000002 cycles:   38815906 heartbeat IPC: 1.51985 cumulative IPC: 1.52000 (Simulation time: 0 hr 1 min 59 sec) 
Heartbeat CPU  0 instructions:   60000000 cycles:   39473699 heartbeat IPC: 1.52023 cumulative IPC: 1.52000 (Simulation time: 0 hr 2 min 1 sec) 
Heartbeat CPU  0 instructions:   61000002 cycles:   40131735 heartbeat IPC: 1.51968 cumulative IPC: 1.51999 (Simulation time: 0 hr 2 min 3 sec) 
Heartbeat CPU  0 instructions:   62000001 cycles:   40789672 heartbeat IPC: 1.51990 cumulative IPC: 1.51999 (Simulation time: 0 hr 2 min 5 sec) 
Heartbeat CPU  0 instructions:   63000002 cycles:   41447624 heartbeat IPC: 1.51987 cumulative IPC: 1.51999 (Simulation time: 0 hr 2 min 7 sec) 
Heartbeat CPU  0 instructions:   64000000 cycles:   42105579 heartbeat IPC: 1.51986 cumulative IPC: 1.51999 (Simulation time: 0 hr 2 min 9 sec) 
Heartbeat CPU  0 instructions:   65000002 cycles:   42763617 heartbeat IPC: 1.51967 cumulative IPC: 1.51998 (Simulation time: 0 hr 2 min 11 sec) 
Heartbeat CPU  0 instructions:   66000002 cycles:   43421548 heartbeat IPC: 1.51992 cumulative IPC: 1.51998 (Simulation time: 0 hr 2 min 13 sec) 
Heartbeat CPU  0 instructions:   67000002 cycles:   44079467 heartbeat IPC: 1.51994 cumulative IPC: 1.51998 (Simulation time: 0 hr 2 min 15 sec) 
Heartbeat CPU  0 instructions:   68000000 cycles:   44737350 heartbeat IPC: 1.52002 cumulative IPC: 1.51998 (Simulation time: 0 hr 2 min 17 sec) 
Heartbeat CPU  0 instructions:   69000000 cycles:   45395369 heartbeat IPC: 1.51971 cumulative IPC: 1.51998 (Simulation time: 0 hr 2 min 19 sec) 
Heartbeat CPU  0 instructions:   70000003 cycles:   46053206 heartbeat IPC: 1.52014 cumulative IPC: 1.51998 (Simulation time: 0 hr 2 min 21 sec) 
Heartbeat CPU  0 instructions:   71000003 cycles:   46711029 heartbeat IPC: 1.52017 cumulative IPC: 1.51998 (Simulation time: 0 hr 2 min 23 sec) 
Heartbeat CPU  0 instructions:   72000000 cycles:   47368906 heartbeat IPC: 1.52004 cumulative IPC: 1.51998 (Simulation time: 0 hr 2 min 25 sec) 
Heartbeat CPU  0 instructions:   73000001 cycles:   48026789 heartbeat IPC: 1.52003 cumulative IPC: 1.51999 (Simulation time: 0 hr 2 min 27 sec) 
Heartbeat CPU  0 instructions:   74000002 cycles:   48684629 heartbeat IPC: 1.52013 cumulative IPC: 1.51999 (Simulation time: 0 hr 2 min 29 sec) 
Heartbeat CPU  0 instructions:   75000001 cycles:   49342512 heartbeat IPC: 1.52003 cumulative IPC: 1.51999 (Simulation time: 0 hr 2 min 31 sec) 
Heartbeat CPU  0 instructions:   76000000 cycles:   50000335 heartbeat IPC: 1.52016 cumulative IPC: 1.51999 (Simulation time: 0 hr 2 min 33 sec) 
Heartbeat CPU  0 instructions:   77000002 cycles:   50658233 heartbeat IPC: 1.52000 cumulative IPC: 1.51999 (Simulation time: 0 hr 2 min 35 sec) 
Heartbeat CPU  0 instructions:   78000000 cycles:   51316207 heartbeat IPC: 1.51981 cumulative IPC: 1.51999 (Simulation time: 0 hr 2 min 37 sec) 
Heartbeat CPU  0 instructions:   79000003 cycles:   51974037 heartbeat IPC: 1.52015 cumulative IPC: 1.51999 (Simulation time: 0 hr 2 min 39 sec) 
Heartbeat CPU  0 instructions:   80000000 cycles:   52631877 heartbeat IPC: 1.52012 cumulative IPC: 1.51999 (Simulation time: 0 hr 2 min 41 sec) 
Heartbeat CPU  0 instructions:   81000001 cycles:   53289849 heartbeat IPC: 1.51982 cumulative IPC: 1.51999 (Simulation time: 0 hr 2 min 43 sec) 
Heartbeat CPU  0 instructions:   82000001 cycles:   53947713 heartbeat IPC: 1.52007 cumulative IPC: 1.51999 (Simulation time: 0 hr 2 min 45 sec) 
Heartbeat CPU  0 instructions:   83000001 cycles:   54605507 heartbeat IPC: 1.52023 cumulative IPC: 1.51999 (Simulation time: 0 hr 2 min 47 sec) 
Heartbeat CPU  0 instructions:   84000000 cycles:   55263311 heartbeat IPC: 1.52021 cumulative IPC: 1.52000 (Simulation time: 0 hr 2 min 49 sec) 
Heartbeat CPU  0 instructions:   85000000 cycles:   55921236 heartbeat IPC: 1.51993 cumulative IPC: 1.51999 (Simulation time: 0 hr 2 min 51 sec) 
Heartbeat CPU  0 instructions:   86000002 cycles:   56579095 heartbeat IPC: 1.52009 cumulative IPC: 1.52000 (Simulation time: 0 hr 2 min 53 sec) 
Heartbeat CPU  0 instructions:   87000001 cycles:   57237064 heartbeat IPC: 1.51983 cumulative IPC: 1.51999 (Simulation time: 0 hr 2 min 55 sec) 
Heartbeat CPU  0 instructions:   88000000 cycles:   57895130 heartbeat IPC: 1.51960 cumulative IPC: 1.51999 (Simulation time: 0 hr 2 min 57 sec) 
Heartbeat CPU  0 instructions:   89000001 cycles:   58553088 heartbeat IPC: 1.51986 cumulative IPC: 1.51999 (Simulation time: 0 hr 2 min 59 sec) 
Heartbeat CPU  0 instructions:   90000003 cycles:   59211057 heartbeat IPC: 1.51983 cumulative IPC: 1.51999 (Simulation time: 0 hr 3 min 1 sec) 
Heartbeat CPU  0 instructions:   91000000 cycles:   59868968 heartbeat IPC: 1.51996 cumulative IPC: 1.51999 (Simulation time: 0 hr 3 min 3 sec) 
Heartbeat CPU  0 instructions:   92000000 cycles:   60526933 heartbeat IPC: 1.51984 cumulative IPC: 1.51998 (Simulation time: 0 hr 3 min 5 sec) 
Heartbeat CPU  0 instructions:   93000001 cycles:   61184862 heartbeat IPC: 1.51992 cumulative IPC: 1.51998 (Simulation time: 0 hr 3 min 8 sec) 
Heartbeat CPU  0 instructions:   94000001 cycles:   61842804 heartbeat IPC: 1.51989 cumulative IPC: 1.51998 (Simulation time: 0 hr 3 min 10 sec) 
Heartbeat CPU  0 instructions:   95000000 cycles:   62500697 heartbeat IPC: 1.52000 cumulative IPC: 1.51998 (Simulation time: 0 hr 3 min 12 sec) 
Heartbeat CPU  0 instructions:   96000000 cycles:   63158549 heartbeat IPC: 1.52010 cumulative IPC: 1.51998 (Simulation time: 0 hr 3 min 14 sec) 
Heartbeat CPU  0 instructions:   97000000 cycles:   63816557 heartbeat IPC: 1.51974 cumulative IPC: 1.51998 (Simulation time: 0 hr 3 min 16 sec) 
Heartbeat CPU  0 instructions:   98000001 cycles:   64474493 heartbeat IPC: 1.51991 cumulative IPC: 1.51998 (Simulation time: 0 hr 3 min 18 sec) 
Heartbeat CPU  0 instructions:   99000003 cycles:   65132391 heartbeat IPC: 1.52000 cumulative IPC: 1.51998 (Simulation time: 0 hr 3 min 20 sec) 
Heartbeat CPU  0 instructions:  100000000 cycles:   65790255 heartbeat IPC: 1.52007 cumulative IPC: 1.51998 (Simulation time: 0 hr 3 min 22 sec) 

Warmup complete CPU  0 instructions:  100000002 cycles:   65790258 (Simulation time: 0 hr 3 min 22 sec) 

Heartbeat CPU  0 instructions:  101000001 cycles:   69934936 heartbeat IPC: 0.24127 cumulative IPC: 0.24127 (Simulation time: 0 hr 3 min 25 sec) 
Heartbeat CPU  0 instructions:  102000000 cycles:   74046734 heartbeat IPC: 0.24320 cumulative IPC: 0.24223 (Simulation time: 0 hr 3 min 29 sec) 
Heartbeat CPU  0 instructions:  103000001 cycles:   78175714 heartbeat IPC: 0.24219 cumulative IPC: 0.24222 (Simulation time: 0 hr 3 min 33 sec) 
Heartbeat CPU  0 instructions:  104000000 cycles:   82303213 heartbeat IPC: 0.24228 cumulative IPC: 0.24223 (Simulation time: 0 hr 3 min 37 sec) 
Heartbeat CPU  0 instructions:  105000002 cycles:   86444900 heartbeat IPC: 0.24145 cumulative IPC: 0.24208 (Simulation time: 0 hr 3 min 41 sec) 
Heartbeat CPU  0 instructions:  106000001 cycles:   90547308 heartbeat IPC: 0.24376 cumulative IPC: 0.24236 (Simulation time: 0 hr 3 min 45 sec) 
Heartbeat CPU  0 instructions:  107000001 cycles:   94690947 heartbeat IPC: 0.24133 cumulative IPC: 0.24221 (Simulation time: 0 hr 3 min 49 sec) 
Heartbeat CPU  0 instructions:  108000000 cycles:   98815929 heartbeat IPC: 0.24243 cumulative IPC: 0.24224 (Simulation time: 0 hr 3 min 53 sec) 
Heartbeat CPU  0 instructions:  109000001 cycles:  102946524 heartbeat IPC: 0.24210 cumulative IPC: 0.24222 (Simulation time: 0 hr 3 min 57 sec) 
Heartbeat CPU  0 instructions:  110000000 cycles:  107077457 heartbeat IPC: 0.24208 cumulative IPC: 0.24221 (Simulation time: 0 hr 4 min 1 sec) 
Heartbeat CPU  0 instructions:  111000000 cycles:  111195415 heartbeat IPC: 0.24284 cumulative IPC: 0.24226 (Simulation time: 0 hr 4 min 5 sec) 
Heartbeat CPU  0 instructions:  112000000 cycles:  115323789 heartbeat IPC: 0.24223 cumulative IPC: 0.24226 (Simulation time: 0 hr 4 min 9 sec) 
Heartbeat CPU  0 instructions:  113000000 cycles:  119416730 heartbeat IPC: 0.24432 cumulative IPC: 0.24242 (Simulation time: 0 hr 4 min 12 sec) 
Heartbeat CPU  0 instructions:  114000002 cycles:  123568042 heartbeat IPC: 0.24089 cumulative IPC: 0.24231 (Simulation time: 0 hr 4 min 16 sec) 
Heartbeat CPU  0 instructions:  115000000 cycles:  127672969 heartbeat IPC: 0.24361 cumulative IPC: 0.24239 (Simulation time: 0 hr 4 min 20 sec) 
Heartbeat CPU  0 instructions:  116000000 cycles:  131825499 heartbeat IPC: 0.24082 cumulative IPC: 0.24229 (Simulation time: 0 hr 4 min 24 sec) 
Heartbeat CPU  0 instructions:  117000003 cycles:  135941921 heartbeat IPC: 0.24293 cumulative IPC: 0.24233 (Simulation time: 0 hr 4 min 28 sec) 
Heartbeat CPU  0 instructions:  118000000 cycles:  140075244 heartbeat IPC: 0.24194 cumulative IPC: 0.24231 (Simulation time: 0 hr 4 min 32 sec) 
Heartbeat CPU  0 instructions:  119000001 cycles:  144179587 heartbeat IPC: 0.24364 cumulative IPC: 0.24238 (Simulation time: 0 hr 4 min 36 sec) 
Heartbeat CPU  0 instructions:  120000000 cycles:  148320463 heartbeat IPC: 0.24149 cumulative IPC: 0.24234 (Simulation time: 0 hr 4 min 40 sec) 
Heartbeat CPU  0 instructions:  121000003 cycles:  152421654 heartbeat IPC: 0.24383 cumulative IPC: 0.24241 (Simulation time: 0 hr 4 min 44 sec) 
Heartbeat CPU  0 instructions:  122000000 cycles:  156572088 heartbeat IPC: 0.24094 cumulative IPC: 0.24234 (Simulation time: 0 hr 4 min 48 sec) 
Heartbeat CPU  0 instructions:  123000002 cycles:  160662126 heartbeat IPC: 0.24450 cumulative IPC: 0.24243 (Simulation time: 0 hr 4 min 52 sec) 
Heartbeat CPU  0 instructions:  124000000 cycles:  164816661 heartbeat IPC: 0.24070 cumulative IPC: 0.24236 (Simulation time: 0 hr 4 min 56 sec) 
Heartbeat CPU  0 instructions:  125000003 cycles:  168915714 heartbeat IPC: 0.24396 cumulative IPC: 0.24242 (Simulation time: 0 hr 4 min 59 sec) 
Heartbeat CPU  0 instructions:  126000002 cycles:  173045501 heartbeat IPC: 0.24214 cumulative IPC: 0.24241 (Simulation time: 0 hr 5 min 3 sec) 
Heartbeat CPU  0 instructions:  127000000 cycles:  177170869 heartbeat IPC: 0.24240 cumulative IPC: 0.24241 (Simulation time: 0 hr 5 min 7 sec) 
Heartbeat CPU  0 instructions:  128000000 cycles:  181301100 heartbeat IPC: 0.24212 cumulative IPC: 0.24240 (Simulation time: 0 hr 5 min 11 sec) 
Heartbeat CPU  0 instructions:  129000000 cycles:  185421871 heartbeat IPC: 0.24267 cumulative IPC: 0.24241 (Simulation time: 0 hr 5 min 15 sec) 
Heartbeat CPU  0 instructions:  130000001 cycles:  189527813 heartbeat IPC: 0.24355 cumulative IPC: 0.24245 (Simulation time: 0 hr 5 min 19 sec) 
Heartbeat CPU  0 instructions:  131000000 cycles:  193671149 heartbeat IPC: 0.24135 cumulative IPC: 0.24241 (Simulation time: 0 hr 5 min 23 sec) 
Heartbeat CPU  0 instructions:  132000000 cycles:  197792074 heartbeat IPC: 0.24266 cumulative IPC: 0.24242 (Simulation time: 0 hr 5 min 27 sec) 
Heartbeat CPU  0 instructions:  133000001 cycles:  201934707 heartbeat IPC: 0.24139 cumulative IPC: 0.24239 (Simulation time: 0 hr 5 min 31 sec) 
Heartbeat CPU  0 instructions:  134000000 cycles:  206040285 heartbeat IPC: 0.24357 cumulative IPC: 0.24242 (Simulation time: 0 hr 5 min 35 sec) 
Heartbeat CPU  0 instructions:  135000002 cycles:  210179632 heartbeat IPC: 0.24158 cumulative IPC: 0.24240 (Simulation time: 0 hr 5 min 39 sec) 
Heartbeat CPU  0 instructions:  136000000 cycles:  214290855 heartbeat IPC: 0.24324 cumulative IPC: 0.24242 (Simulation time: 0 hr 5 min 43 sec) 
Heartbeat CPU  0 instructions:  137000002 cycles:  218459881 heartbeat IPC: 0.23986 cumulative IPC: 0.24235 (Simulation time: 0 hr 5 min 46 sec) 
Heartbeat CPU  0 instructions:  138000000 cycles:  222557864 heartbeat IPC: 0.24402 cumulative IPC: 0.24240 (Simulation time: 0 hr 5 min 50 sec) 
Heartbeat CPU  0 instructions:  139000002 cycles:  226701427 heartbeat IPC: 0.24134 cumulative IPC: 0.24237 (Simulation time: 0 hr 5 min 54 sec) 
Heartbeat CPU  0 instructions:  140000000 cycles:  230802679 heartbeat IPC: 0.24383 cumulative IPC: 0.24241 (Simulation time: 0 hr 5 min 58 sec) 
Heartbeat CPU  0 instructions:  141000003 cycles:  234947488 heartbeat IPC: 0.24127 cumulative IPC: 0.24238 (Simulation time: 0 hr 6 min 2 sec) 
Heartbeat CPU  0 instructions:  142000001 cycles:  239056268 heartbeat IPC: 0.24338 cumulative IPC: 0.24240 (Simulation time: 0 hr 6 min 6 sec) 
Heartbeat CPU  0 instructions:  143000001 cycles:  243205132 heartbeat IPC: 0.24103 cumulative IPC: 0.24237 (Simulation time: 0 hr 6 min 10 sec) 
Heartbeat CPU  0 instructions:  144000000 cycles:  247306434 heartbeat IPC: 0.24382 cumulative IPC: 0.24240 (Simulation time: 0 hr 6 min 14 sec) 
Heartbeat CPU  0 instructions:  145000001 cycles:  251472768 heartbeat IPC: 0.24002 cumulative IPC: 0.24235 (Simulation time: 0 hr 6 min 18 sec) 
Heartbeat CPU  0 instructions:  146000003 cycles:  255576053 heartbeat IPC: 0.24371 cumulative IPC: 0.24238 (Simulation time: 0 hr 6 min 22 sec) 
Heartbeat CPU  0 instructions:  147000002 cycles:  259724506 heartbeat IPC: 0.24105 cumulative IPC: 0.24235 (Simulation time: 0 hr 6 min 26 sec) 
Heartbeat CPU  0 instructions:  148000000 cycles:  263859072 heartbeat IPC: 0.24186 cumulative IPC: 0.24234 (Simulation time: 0 hr 6 min 30 sec) 
Heartbeat CPU  0 instructions:  149000001 cycles:  267988917 heartbeat IPC: 0.24214 cumulative IPC: 0.24234 (Simulation time: 0 hr 6 min 34 sec) 
Heartbeat CPU  0 instructions:  150000002 cycles:  272088283 heartbeat IPC: 0.24394 cumulative IPC: 0.24237 (Simulation time: 0 hr 6 min 37 sec) 
Heartbeat CPU  0 instructions:  151000001 cycles:  276228946 heartbeat IPC: 0.24151 cumulative IPC: 0.24235 (Simulation time: 0 hr 6 min 41 sec) 
Heartbeat CPU  0 instructions:  152000000 cycles:  280354600 heartbeat IPC: 0.24239 cumulative IPC: 0.24235 (Simulation time: 0 hr 6 min 45 sec) 
Heartbeat CPU  0 instructions:  153000002 cycles:  284486996 heartbeat IPC: 0.24199 cumulative IPC: 0.24234 (Simulation time: 0 hr 6 min 49 sec) 
Heartbeat CPU  0 instructions:  154000001 cycles:  288617847 heartbeat IPC: 0.24208 cumulative IPC: 0.24234 (Simulation time: 0 hr 6 min 53 sec) 
Heartbeat CPU  0 instructions:  155000002 cycles:  292744176 heartbeat IPC: 0.24235 cumulative IPC: 0.24234 (Simulation time: 0 hr 6 min 57 sec) 
Heartbeat CPU  0 instructions:  156000000 cycles:  296878108 heartbeat IPC: 0.24190 cumulative IPC: 0.24233 (Simulation time: 0 hr 7 min 1 sec) 
Heartbeat CPU  0 instructions:  157000002 cycles:  300977722 heartbeat IPC: 0.24393 cumulative IPC: 0.24236 (Simulation time: 0 hr 7 min 5 sec) 
Heartbeat CPU  0 instructions:  158000000 cycles:  305130960 heartbeat IPC: 0.24078 cumulative IPC: 0.24233 (Simulation time: 0 hr 7 min 9 sec) 
Heartbeat CPU  0 instructions:  159000000 cycles:  309239202 heartbeat IPC: 0.24341 cumulative IPC: 0.24235 (Simulation time: 0 hr 7 min 13 sec) 
Heartbeat CPU  0 instructions:  160000000 cycles:  313387280 heartbeat IPC: 0.24108 cumulative IPC: 0.24233 (Simulation time: 0 hr 7 min 17 sec) 
Heartbeat CPU  0 instructions:  161000000 cycles:  317509875 heartbeat IPC: 0.24257 cumulative IPC: 0.24233 (Simulation time: 0 hr 7 min 21 sec) 
Heartbeat CPU  0 instructions:  162000000 cycles:  321641535 heartbeat IPC: 0.24203 cumulative IPC: 0.24233 (Simulation time: 0 hr 7 min 25 sec) 
Heartbeat CPU  0 instructions:  163000001 cycles:  325751479 heartbeat IPC: 0.24331 cumulative IPC: 0.24234 (Simulation time: 0 hr 7 min 28 sec) 
Heartbeat CPU  0 instructions:  164000000 cycles:  329885126 heartbeat IPC: 0.24192 cumulative IPC: 0.24234 (Simulation time: 0 hr 7 min 32 sec) 
Heartbeat CPU  0 instructions:  165000001 cycles:  334000964 heartbeat IPC: 0.24296 cumulative IPC: 0.24235 (Simulation time: 0 hr 7 min 36 sec) 
Heartbeat CPU  0 instructions:  166000002 cycles:  338142980 heartbeat IPC: 0.24143 cumulative IPC: 0.24233 (Simulation time: 0 hr 7 min 40 sec) 
Heartbeat CPU  0 instructions:  167000001 cycles:  342251617 heartbeat IPC: 0.24339 cumulative IPC: 0.24235 (Simulation time: 0 hr 7 min 44 sec) 
Heartbeat CPU  0 instructions:  168000000 cycles:  346401441 heartbeat IPC: 0.24097 cumulative IPC: 0.24233 (Simulation time: 0 hr 7 min 48 sec) 
Heartbeat CPU  0 instructions:  169000002 cycles:  350527031 heartbeat IPC: 0.24239 cumulative IPC: 0.24233 (Simulation time: 0 hr 7 min 52 sec) 
Heartbeat CPU  0 instructions:  170000001 cycles:  354685384 heartbeat IPC: 0.24048 cumulative IPC: 0.24230 (Simulation time: 0 hr 7 min 56 sec) 
Heartbeat CPU  0 instructions:  171000000 cycles:  358795070 heartbeat IPC: 0.24333 cumulative IPC: 0.24232 (Simulation time: 0 hr 8 min 0 sec) 
Heartbeat CPU  0 instructions:  172000000 cycles:  362946862 heartbeat IPC: 0.24086 cumulative IPC: 0.24230 (Simulation time: 0 hr 8 min 4 sec) 
Heartbeat CPU  0 instructions:  173000000 cycles:  367047011 heartbeat IPC: 0.24389 cumulative IPC: 0.24232 (Simulation time: 0 hr 8 min 8 sec) 
Heartbeat CPU  0 instructions:  174000000 cycles:  371170143 heartbeat IPC: 0.24253 cumulative IPC: 0.24232 (Simulation time: 0 hr 8 min 12 sec) 
Heartbeat CPU  0 instructions:  175000003 cycles:  375299354 heartbeat IPC: 0.24218 cumulative IPC: 0.24232 (Simulation time: 0 hr 8 min 15 sec) 
Heartbeat CPU  0 instructions:  176000000 cycles:  379426614 heartbeat IPC: 0.24229 cumulative IPC: 0.24232 (Simulation time: 0 hr 8 min 19 sec) 
Heartbeat CPU  0 instructions:  177000000 cycles:  383543498 heartbeat IPC: 0.24290 cumulative IPC: 0.24233 (Simulation time: 0 hr 8 min 23 sec) 
Heartbeat CPU  0 instructions:  178000002 cycles:  387667154 heartbeat IPC: 0.24250 cumulative IPC: 0.24233 (Simulation time: 0 hr 8 min 27 sec) 
Heartbeat CPU  0 instructions:  179000001 cycles:  391808207 heartbeat IPC: 0.24148 cumulative IPC: 0.24232 (Simulation time: 0 hr 8 min 31 sec) 
Heartbeat CPU  0 instructions:  180000000 cycles:  395921202 heartbeat IPC: 0.24313 cumulative IPC: 0.24233 (Simulation time: 0 hr 8 min 35 sec) 
Heartbeat CPU  0 instructions:  181000001 cycles:  400070752 heartbeat IPC: 0.24099 cumulative IPC: 0.24231 (Simulation time: 0 hr 8 min 39 sec) 
Heartbeat CPU  0 instructions:  182000000 cycles:  404199676 heartbeat IPC: 0.24219 cumulative IPC: 0.24231 (Simulation time: 0 hr 8 min 43 sec) 
Heartbeat CPU  0 instructions:  183000002 cycles:  408328741 heartbeat IPC: 0.24219 cumulative IPC: 0.24231 (Simulation time: 0 hr 8 min 47 sec) 
Heartbeat CPU  0 instructions:  184000000 cycles:  412431543 heartbeat IPC: 0.24374 cumulative IPC: 0.24233 (Simulation time: 0 hr 8 min 51 sec) 
Heartbeat CPU  0 instructions:  185000000 cycles:  416578828 heartbeat IPC: 0.24112 cumulative IPC: 0.24231 (Simulation time: 0 hr 8 min 55 sec) 
Heartbeat CPU  0 instructions:  186000000 cycles:  420672979 heartbeat IPC: 0.24425 cumulative IPC: 0.24233 (Simulation time: 0 hr 8 min 59 sec) 
Heartbeat CPU  0 instructions:  187000003 cycles:  424809521 heartbeat IPC: 0.24175 cumulative IPC: 0.24233 (Simulation time: 0 hr 9 min 2 sec) 
Heartbeat CPU  0 instructions:  188000000 cycles:  428892564 heartbeat IPC: 0.24491 cumulative IPC: 0.24236 (Simulation time: 0 hr 9 min 6 sec) 
Heartbeat CPU  0 instructions:  189000000 cycles:  433028574 heartbeat IPC: 0.24178 cumulative IPC: 0.24235 (Simulation time: 0 hr 9 min 10 sec) 
Heartbeat CPU  0 instructions:  190000003 cycles:  437133899 heartbeat IPC: 0.24359 cumulative IPC: 0.24236 (Simulation time: 0 hr 9 min 14 sec) 
Heartbeat CPU  0 instructions:  191000001 cycles:  441281805 heartbeat IPC: 0.24109 cumulative IPC: 0.24235 (Simulation time: 0 hr 9 min 18 sec) 
Heartbeat CPU  0 instructions:  192000000 cycles:  445404736 heartbeat IPC: 0.24255 cumulative IPC: 0.24235 (Simulation time: 0 hr 9 min 22 sec) 
Heartbeat CPU  0 instructions:  193000001 cycles:  449556499 heartbeat IPC: 0.24086 cumulative IPC: 0.24234 (Simulation time: 0 hr 9 min 26 sec) 
Heartbeat CPU  0 instructions:  194000001 cycles:  453656228 heartbeat IPC: 0.24392 cumulative IPC: 0.24235 (Simulation time: 0 hr 9 min 30 sec) 
Heartbeat CPU  0 instructions:  195000002 cycles:  457809779 heartbeat IPC: 0.24076 cumulative IPC: 0.24233 (Simulation time: 0 hr 9 min 34 sec) 
Heartbeat CPU  0 instructions:  196000000 cycles:  461922339 heartbeat IPC: 0.24316 cumulative IPC: 0.24234 (Simulation time: 0 hr 9 min 38 sec) 
Heartbeat CPU  0 instructions:  197000001 cycles:  466041549 heartbeat IPC: 0.24277 cumulative IPC: 0.24235 (Simulation time: 0 hr 9 min 41 sec) 
Heartbeat CPU  0 instructions:  198000002 cycles:  470148689 heartbeat IPC: 0.24348 cumulative IPC: 0.24236 (Simulation time: 0 hr 9 min 45 sec) 
Heartbeat CPU  0 instructions:  199000003 cycles:  474277481 heartbeat IPC: 0.24220 cumulative IPC: 0.24236 (Simulation time: 0 hr 9 min 49 sec) 
Heartbeat CPU  0 instructions:  200000000 cycles:  478400279 heartbeat IPC: 0.24255 cumulative IPC: 0.24236 (Simulation time: 0 hr 9 min 53 sec) 
Heartbeat CPU  0 instructions:  201000002 cycles:  482530365 heartbeat IPC: 0.24213 cumulative IPC: 0.24236 (Simulation time: 0 hr 9 min 57 sec) 
Heartbeat CPU  0 instructions:  202000000 cycles:  486680069 heartbeat IPC: 0.24098 cumulative IPC: 0.24234 (Simulation time: 0 hr 10 min 1 sec) 
Heartbeat CPU  0 instructions:  203000000 cycles:  490802622 heartbeat IPC: 0.24257 cumulative IPC: 0.24235 (Simulation time: 0 hr 10 min 5 sec) 
Heartbeat CPU  0 instructions:  204000000 cycles:  494954977 heartbeat IPC: 0.24083 cumulative IPC: 0.24233 (Simulation time: 0 hr 10 min 9 sec) 
Heartbeat CPU  0 instructions:  205000003 cycles:  499064226 heartbeat IPC: 0.24335 cumulative IPC: 0.24234 (Simulation time: 0 hr 10 min 13 sec) 
Heartbeat CPU  0 instructions:  206000002 cycles:  503207522 heartbeat IPC: 0.24135 cumulative IPC: 0.24233 (Simulation time: 0 hr 10 min 17 sec) 
Heartbeat CPU  0 instructions:  207000000 cycles:  507298814 heartbeat IPC: 0.24442 cumulative IPC: 0.24235 (Simulation time: 0 hr 10 min 21 sec) 
Heartbeat CPU  0 instructions:  208000000 cycles:  511433289 heartbeat IPC: 0.24187 cumulative IPC: 0.24235 (Simulation time: 0 hr 10 min 24 sec) 
Heartbeat CPU  0 instructions:  209000002 cycles:  515543650 heartbeat IPC: 0.24329 cumulative IPC: 0.24236 (Simulation time: 0 hr 10 min 29 sec) 
Heartbeat CPU  0 instructions:  210000001 cycles:  519692862 heartbeat IPC: 0.24101 cumulative IPC: 0.24234 (Simulation time: 0 hr 10 min 32 sec) 
Heartbeat CPU  0 instructions:  211000000 cycles:  523777092 heartbeat IPC: 0.24484 cumulative IPC: 0.24237 (Simulation time: 0 hr 10 min 36 sec) 
Heartbeat CPU  0 instructions:  212000000 cycles:  527948826 heartbeat IPC: 0.23971 cumulative IPC: 0.24234 (Simulation time: 0 hr 10 min 40 sec) 
Heartbeat CPU  0 instructions:  213000001 cycles:  532059671 heartbeat IPC: 0.24326 cumulative IPC: 0.24235 (Simulation time: 0 hr 10 min 44 sec) 
Heartbeat CPU  0 instructions:  214000000 cycles:  536200696 heartbeat IPC: 0.24149 cumulative IPC: 0.24234 (Simulation time: 0 hr 10 min 48 sec) 
Heartbeat CPU  0 instructions:  215000002 cycles:  540300576 heartbeat IPC: 0.24391 cumulative IPC: 0.24236 (Simulation time: 0 hr 10 min 52 sec) 
Heartbeat CPU  0 instructions:  216000000 cycles:  544452204 heartbeat IPC: 0.24087 cumulative IPC: 0.24234 (Simulation time: 0 hr 10 min 56 sec) 
Heartbeat CPU  0 instructions:  217000001 cycles:  548575326 heartbeat IPC: 0.24253 cumulative IPC: 0.24234 (Simulation time: 0 hr 11 min 0 sec) 
Heartbeat CPU  0 instructions:  218000002 cycles:  552724919 heartbeat IPC: 0.24099 cumulative IPC: 0.24233 (Simulation time: 0 hr 11 min 4 sec) 
Heartbeat CPU  0 instructions:  219000001 cycles:  556827629 heartbeat IPC: 0.24374 cumulative IPC: 0.24234 (Simulation time: 0 hr 11 min 8 sec) 
Heartbeat CPU  0 instructions:  220000000 cycles:  560962826 heartbeat IPC: 0.24183 cumulative IPC: 0.24234 (Simulation time: 0 hr 11 min 12 sec) 
Heartbeat CPU  0 instructions:  221000001 cycles:  565065053 heartbeat IPC: 0.24377 cumulative IPC: 0.24235 (Simulation time: 0 hr 11 min 16 sec) 
Heartbeat CPU  0 instructions:  222000002 cycles:  569180084 heartbeat IPC: 0.24301 cumulative IPC: 0.24236 (Simulation time: 0 hr 11 min 19 sec) 
Heartbeat CPU  0 instructions:  223000000 cycles:  573308786 heartbeat IPC: 0.24221 cumulative IPC: 0.24236 (Simulation time: 0 hr 11 min 23 sec) 
Heartbeat CPU  0 instructions:  224000000 cycles:  577441003 heartbeat IPC: 0.24200 cumulative IPC: 0.24235 (Simulation time: 0 hr 11 min 27 sec) 
Heartbeat CPU  0 instructions:  225000002 cycles:  581573532 heartbeat IPC: 0.24198 cumulative IPC: 0.24235 (Simulation time: 0 hr 11 min 31 sec) 
Heartbeat CPU  0 instructions:  226000003 cycles:  585696902 heartbeat IPC: 0.24252 cumulative IPC: 0.24235 (Simulation time: 0 hr 11 min 35 sec) 
Heartbeat CPU  0 instructions:  227000002 cycles:  589825149 heartbeat IPC: 0.24223 cumulative IPC: 0.24235 (Simulation time: 0 hr 11 min 39 sec) 
Heartbeat CPU  0 instructions:  228000000 cycles:  593933359 heartbeat IPC: 0.24341 cumulative IPC: 0.24236 (Simulation time: 0 hr 11 min 43 sec) 
Heartbeat CPU  0 instructions:  229000000 cycles:  598077733 heartbeat IPC: 0.24129 cumulative IPC: 0.24235 (Simulation time: 0 hr 11 min 47 sec) 
Heartbeat CPU  0 instructions:  230000002 cycles:  602184563 heartbeat IPC: 0.24350 cumulative IPC: 0.24236 (Simulation time: 0 hr 11 min 51 sec) 
Heartbeat CPU  0 instructions:  231000001 cycles:  606311005 heartbeat IPC: 0.24234 cumulative IPC: 0.24236 (Simulation time: 0 hr 11 min 55 sec) 
Heartbeat CPU  0 instructions:  232000000 cycles:  610407351 heartbeat IPC: 0.24412 cumulative IPC: 0.24237 (Simulation time: 0 hr 11 min 59 sec) 
Heartbeat CPU  0 instructions:  233000000 cycles:  614563769 heartbeat IPC: 0.24059 cumulative IPC: 0.24236 (Simulation time: 0 hr 12 min 2 sec) 
Heartbeat CPU  0 instructions:  234000001 cycles:  618657805 heartbeat IPC: 0.24426 cumulative IPC: 0.24237 (Simulation time: 0 hr 12 min 6 sec) 
Heartbeat CPU  0 instructions:  235000001 cycles:  622799025 heartbeat IPC: 0.24147 cumulative IPC: 0.24237 (Simulation time: 0 hr 12 min 10 sec) 
Heartbeat CPU  0 instructions:  236000000 cycles:  626914927 heartbeat IPC: 0.24296 cumulative IPC: 0.24237 (Simulation time: 0 hr 12 min 14 sec) 
Heartbeat CPU  0 instructions:  237000000 cycles:  631064587 heartbeat IPC: 0.24098 cumulative IPC: 0.24236 (Simulation time: 0 hr 12 min 18 sec) 
Heartbeat CPU  0 instructions:  238000000 cycles:  635155143 heartbeat IPC: 0.24447 cumulative IPC: 0.24238 (Simulation time: 0 hr 12 min 22 sec) 
Heartbeat CPU  0 instructions:  239000001 cycles:  639309383 heartbeat IPC: 0.24072 cumulative IPC: 0.24236 (Simulation time: 0 hr 12 min 26 sec) 
Heartbeat CPU  0 instructions:  240000000 cycles:  643430676 heartbeat IPC: 0.24264 cumulative IPC: 0.24237 (Simulation time: 0 hr 12 min 30 sec) 
Heartbeat CPU  0 instructions:  241000000 cycles:  647567290 heartbeat IPC: 0.24174 cumulative IPC: 0.24236 (Simulation time: 0 hr 12 min 34 sec) 
Heartbeat CPU  0 instructions:  242000003 cycles:  651682331 heartbeat IPC: 0.24301 cumulative IPC: 0.24237 (Simulation time: 0 hr 12 min 38 sec) 
Heartbeat CPU  0 instructions:  243000000 cycles:  655804713 heartbeat IPC: 0.24258 cumulative IPC: 0.24237 (Simulation time: 0 hr 12 min 42 sec) 
Heartbeat CPU  0 instructions:  244000000 cycles:  659921911 heartbeat IPC: 0.24288 cumulative IPC: 0.24237 (Simulation time: 0 hr 12 min 46 sec) 
Heartbeat CPU  0 instructions:  245000001 cycles:  664046925 heartbeat IPC: 0.24242 cumulative IPC: 0.24237 (Simulation time: 0 hr 12 min 49 sec) 
Heartbeat CPU  0 instructions:  246000001 cycles:  668185284 heartbeat IPC: 0.24164 cumulative IPC: 0.24237 (Simulation time: 0 hr 12 min 53 sec) 
Heartbeat CPU  0 instructions:  247000001 cycles:  672305295 heartbeat IPC: 0.24272 cumulative IPC: 0.24237 (Simulation time: 0 hr 12 min 57 sec) 
Heartbeat CPU  0 instructions:  248000000 cycles:  676415793 heartbeat IPC: 0.24328 cumulative IPC: 0.24237 (Simulation time: 0 hr 13 min 1 sec) 
Heartbeat CPU  0 instructions:  249000003 cycles:  680530398 heartbeat IPC: 0.24304 cumulative IPC: 0.24238 (Simulation time: 0 hr 13 min 5 sec) 
Heartbeat CPU  0 instructions:  250000001 cycles:  684683082 heartbeat IPC: 0.24081 cumulative IPC: 0.24237 (Simulation time: 0 hr 13 min 9 sec) 
Heartbeat CPU  0 instructions:  251000000 cycles:  688778366 heartbeat IPC: 0.24418 cumulative IPC: 0.24238 (Simulation time: 0 hr 13 min 13 sec) 
Heartbeat CPU  0 instructions:  252000000 cycles:  692924513 heartbeat IPC: 0.24119 cumulative IPC: 0.24237 (Simulation time: 0 hr 13 min 17 sec) 
Heartbeat CPU  0 instructions:  253000000 cycles:  697053549 heartbeat IPC: 0.24219 cumulative IPC: 0.24237 (Simulation time: 0 hr 13 min 21 sec) 
Heartbeat CPU  0 instructions:  254000001 cycles:  701190975 heartbeat IPC: 0.24170 cumulative IPC: 0.24237 (Simulation time: 0 hr 13 min 25 sec) 
Heartbeat CPU  0 instructions:  255000000 cycles:  705288144 heartbeat IPC: 0.24407 cumulative IPC: 0.24238 (Simulation time: 0 hr 13 min 29 sec) 
Heartbeat CPU  0 instructions:  256000000 cycles:  709448880 heartbeat IPC: 0.24034 cumulative IPC: 0.24236 (Simulation time: 0 hr 13 min 33 sec) 
Heartbeat CPU  0 instructions:  257000000 cycles:  713548000 heartbeat IPC: 0.24395 cumulative IPC: 0.24237 (Simulation time: 0 hr 13 min 36 sec) 
Heartbeat CPU  0 instructions:  258000003 cycles:  717689525 heartbeat IPC: 0.24146 cumulative IPC: 0.24237 (Simulation time: 0 hr 13 min 40 sec) 
Heartbeat CPU  0 instructions:  259000002 cycles:  721779566 heartbeat IPC: 0.24450 cumulative IPC: 0.24238 (Simulation time: 0 hr 13 min 44 sec) 
Heartbeat CPU  0 instructions:  260000000 cycles:  725928454 heartbeat IPC: 0.24103 cumulative IPC: 0.24237 (Simulation time: 0 hr 13 min 48 sec) 
Heartbeat CPU  0 instructions:  261000003 cycles:  730036710 heartbeat IPC: 0.24341 cumulative IPC: 0.24238 (Simulation time: 0 hr 13 min 52 sec) 
Heartbeat CPU  0 instructions:  262000000 cycles:  734180390 heartbeat IPC: 0.24133 cumulative IPC: 0.24237 (Simulation time: 0 hr 13 min 56 sec) 
Heartbeat CPU  0 instructions:  263000000 cycles:  738304368 heartbeat IPC: 0.24248 cumulative IPC: 0.24237 (Simulation time: 0 hr 14 min 0 sec) 
Heartbeat CPU  0 instructions:  264000000 cycles:  742453355 heartbeat IPC: 0.24102 cumulative IPC: 0.24237 (Simulation time: 0 hr 14 min 4 sec) 
Heartbeat CPU  0 instructions:  265000001 cycles:  746558531 heartbeat IPC: 0.24360 cumulative IPC: 0.24237 (Simulation time: 0 hr 14 min 8 sec) 
Heartbeat CPU  0 instructions:  266000003 cycles:  750691264 heartbeat IPC: 0.24197 cumulative IPC: 0.24237 (Simulation time: 0 hr 14 min 12 sec) 
Heartbeat CPU  0 instructions:  267000003 cycles:  754814087 heartbeat IPC: 0.24255 cumulative IPC: 0.24237 (Simulation time: 0 hr 14 min 16 sec) 
Heartbeat CPU  0 instructions:  268000000 cycles:  758946118 heartbeat IPC: 0.24201 cumulative IPC: 0.24237 (Simulation time: 0 hr 14 min 20 sec) 
Heartbeat CPU  0 instructions:  269000000 cycles:  763066232 heartbeat IPC: 0.24271 cumulative IPC: 0.24237 (Simulation time: 0 hr 14 min 24 sec) 
Heartbeat CPU  0 instructions:  270000001 cycles:  767189355 heartbeat IPC: 0.24253 cumulative IPC: 0.24237 (Simulation time: 0 hr 14 min 27 sec) 
Heartbeat CPU  0 instructions:  271000001 cycles:  771320725 heartbeat IPC: 0.24205 cumulative IPC: 0.24237 (Simulation time: 0 hr 14 min 31 sec) 
Heartbeat CPU  0 instructions:  272000000 cycles:  775448058 heartbeat IPC: 0.24229 cumulative IPC: 0.24237 (Simulation time: 0 hr 14 min 35 sec) 
Heartbeat CPU  0 instructions:  273000003 cycles:  779582158 heartbeat IPC: 0.24189 cumulative IPC: 0.24237 (Simulation time: 0 hr 14 min 39 sec) 
Heartbeat CPU  0 instructions:  274000002 cycles:  783712629 heartbeat IPC: 0.24210 cumulative IPC: 0.24237 (Simulation time: 0 hr 14 min 43 sec) 
Heartbeat CPU  0 instructions:  275000000 cycles:  787834814 heartbeat IPC: 0.24259 cumulative IPC: 0.24237 (Simulation time: 0 hr 14 min 47 sec) 
Heartbeat CPU  0 instructions:  276000000 cycles:  791950760 heartbeat IPC: 0.24296 cumulative IPC: 0.24237 (Simulation time: 0 hr 14 min 51 sec) 
Heartbeat CPU  0 instructions:  277000002 cycles:  796108599 heartbeat IPC: 0.24051 cumulative IPC: 0.24236 (Simulation time: 0 hr 14 min 55 sec) 
Heartbeat CPU  0 instructions:  278000002 cycles:  800211520 heartbeat IPC: 0.24373 cumulative IPC: 0.24237 (Simulation time: 0 hr 14 min 59 sec) 
Heartbeat CPU  0 instructions:  279000001 cycles:  804365006 heartbeat IPC: 0.24076 cumulative IPC: 0.24236 (Simulation time: 0 hr 15 min 3 sec) 
Heartbeat CPU  0 instructions:  280000000 cycles:  808462607 heartbeat IPC: 0.24404 cumulative IPC: 0.24237 (Simulation time: 0 hr 15 min 7 sec) 
Heartbeat CPU  0 instructions:  281000000 cycles:  812614745 heartbeat IPC: 0.24084 cumulative IPC: 0.24236 (Simulation time: 0 hr 15 min 11 sec) 
Heartbeat CPU  0 instructions:  282000000 cycles:  816699733 heartbeat IPC: 0.24480 cumulative IPC: 0.24237 (Simulation time: 0 hr 15 min 14 sec) 
Heartbeat CPU  0 instructions:  283000003 cycles:  820855465 heartbeat IPC: 0.24063 cumulative IPC: 0.24236 (Simulation time: 0 hr 15 min 18 sec) 
Heartbeat CPU  0 instructions:  284000000 cycles:  824979139 heartbeat IPC: 0.24250 cumulative IPC: 0.24236 (Simulation time: 0 hr 15 min 22 sec) 
Heartbeat CPU  0 instructions:  285000000 cycles:  829129584 heartbeat IPC: 0.24094 cumulative IPC: 0.24236 (Simulation time: 0 hr 15 min 26 sec) 
Heartbeat CPU  0 instructions:  286000002 cycles:  833248831 heartbeat IPC: 0.24276 cumulative IPC: 0.24236 (Simulation time: 0 hr 15 min 30 sec) 
Heartbeat CPU  0 instructions:  287000000 cycles:  837385969 heartbeat IPC: 0.24171 cumulative IPC: 0.24235 (Simulation time: 0 hr 15 min 34 sec) 
Heartbeat CPU  0 instructions:  288000000 cycles:  841511246 heartbeat IPC: 0.24241 cumulative IPC: 0.24236 (Simulation time: 0 hr 15 min 38 sec) 
Heartbeat CPU  0 instructions:  289000001 cycles:  845654351 heartbeat IPC: 0.24137 cumulative IPC: 0.24235 (Simulation time: 0 hr 15 min 42 sec) 
Heartbeat CPU  0 instructions:  290000002 cycles:  849776350 heartbeat IPC: 0.24260 cumulative IPC: 0.24235 (Simulation time: 0 hr 15 min 46 sec) 
Heartbeat CPU  0 instructions:  291000002 cycles:  853924832 heartbeat IPC: 0.24105 cumulative IPC: 0.24234 (Simulation time: 0 hr 15 min 50 sec) 
Heartbeat CPU  0 instructions:  292000000 cycles:  858048018 heartbeat IPC: 0.24253 cumulative IPC: 0.24235 (Simulation time: 0 hr 15 min 54 sec) 
Heartbeat CPU  0 instructions:  293000001 cycles:  862160473 heartbeat IPC: 0.24316 cumulative IPC: 0.24235 (Simulation time: 0 hr 15 min 58 sec) 
Heartbeat CPU  0 instructions:  294000000 cycles:  866288814 heartbeat IPC: 0.24223 cumulative IPC: 0.24235 (Simulation time: 0 hr 16 min 2 sec) 
Heartbeat CPU  0 instructions:  295000003 cycles:  870407242 heartbeat IPC: 0.24281 cumulative IPC: 0.24235 (Simulation time: 0 hr 16 min 5 sec) 
Heartbeat CPU  0 instructions:  296000000 cycles:  874535052 heartbeat IPC: 0.24226 cumulative IPC: 0.24235 (Simulation time: 0 hr 16 min 9 sec) 
Heartbeat CPU  0 instructions:  297000001 cycles:  878649854 heartbeat IPC: 0.24303 cumulative IPC: 0.24235 (Simulation time: 0 hr 16 min 13 sec) 
Heartbeat CPU  0 instructions:  298000001 cycles:  882784472 heartbeat IPC: 0.24186 cumulative IPC: 0.24235 (Simulation time: 0 hr 16 min 17 sec) 
Heartbeat CPU  0 instructions:  299000000 cycles:  886890489 heartbeat IPC: 0.24354 cumulative IPC: 0.24236 (Simulation time: 0 hr 16 min 21 sec) 
Heartbeat CPU  0 instructions:  300000000 cycles:  891040781 heartbeat IPC: 0.24095 cumulative IPC: 0.24235 (Simulation time: 0 hr 16 min 25 sec) 
Heartbeat CPU  0 instructions:  301000000 cycles:  895144025 heartbeat IPC: 0.24371 cumulative IPC: 0.24236 (Simulation time: 0 hr 16 min 29 sec) 
Heartbeat CPU  0 instructions:  302000002 cycles:  899281323 heartbeat IPC: 0.24170 cumulative IPC: 0.24235 (Simulation time: 0 hr 16 min 33 sec) 
Heartbeat CPU  0 instructions:  303000000 cycles:  903371823 heartbeat IPC: 0.24447 cumulative IPC: 0.24236 (Simulation time: 0 hr 16 min 37 sec) 
Heartbeat CPU  0 instructions:  304000000 cycles:  907521430 heartbeat IPC: 0.24099 cumulative IPC: 0.24236 (Simulation time: 0 hr 16 min 41 sec) 
Heartbeat CPU  0 instructions:  305000001 cycles:  911624520 heartbeat IPC: 0.24372 cumulative IPC: 0.24236 (Simulation time: 0 hr 16 min 44 sec) 
Heartbeat CPU  0 instructions:  306000001 cycles:  915783720 heartbeat IPC: 0.24043 cumulative IPC: 0.24235 (Simulation time: 0 hr 16 min 48 sec) 
Heartbeat CPU  0 instructions:  307000002 cycles:  919903408 heartbeat IPC: 0.24274 cumulative IPC: 0.24236 (Simulation time: 0 hr 16 min 52 sec) 
Heartbeat CPU  0 instructions:  308000000 cycles:  924053245 heartbeat IPC: 0.24097 cumulative IPC: 0.24235 (Simulation time: 0 hr 16 min 56 sec) 
Heartbeat CPU  0 instructions:  309000002 cycles:  928159412 heartbeat IPC: 0.24354 cumulative IPC: 0.24236 (Simulation time: 0 hr 17 min 0 sec) 
Heartbeat CPU  0 instructions:  310000000 cycles:  932309977 heartbeat IPC: 0.24093 cumulative IPC: 0.24235 (Simulation time: 0 hr 17 min 4 sec) 
Heartbeat CPU  0 instructions:  311000002 cycles:  936410902 heartbeat IPC: 0.24385 cumulative IPC: 0.24236 (Simulation time: 0 hr 17 min 8 sec) 
Heartbeat CPU  0 instructions:  312000000 cycles:  940559287 heartbeat IPC: 0.24106 cumulative IPC: 0.24235 (Simulation time: 0 hr 17 min 12 sec) 
Heartbeat CPU  0 instructions:  313000003 cycles:  944683386 heartbeat IPC: 0.24248 cumulative IPC: 0.24235 (Simulation time: 0 hr 17 min 16 sec) 
Heartbeat CPU  0 instructions:  314000002 cycles:  948812300 heartbeat IPC: 0.24219 cumulative IPC: 0.24235 (Simulation time: 0 hr 17 min 20 sec) 
Heartbeat CPU  0 instructions:  315000000 cycles:  952936007 heartbeat IPC: 0.24250 cumulative IPC: 0.24235 (Simulation time: 0 hr 17 min 24 sec) 
Heartbeat CPU  0 instructions:  316000000 cycles:  957066644 heartbeat IPC: 0.24209 cumulative IPC: 0.24235 (Simulation time: 0 hr 17 min 28 sec) 
Heartbeat CPU  0 instructions:  317000001 cycles:  961206837 heartbeat IPC: 0.24153 cumulative IPC: 0.24235 (Simulation time: 0 hr 17 min 31 sec) 
Heartbeat CPU  0 instructions:  318000001 cycles:  965329922 heartbeat IPC: 0.24254 cumulative IPC: 0.24235 (Simulation time: 0 hr 17 min 35 sec) 
Heartbeat CPU  0 instructions:  319000000 cycles:  969476085 heartbeat IPC: 0.24119 cumulative IPC: 0.24234 (Simulation time: 0 hr 17 min 39 sec) 
Heartbeat CPU  0 instructions:  320000000 cycles:  973597955 heartbeat IPC: 0.24261 cumulative IPC: 0.24234 (Simulation time: 0 hr 17 min 43 sec) 
Heartbeat CPU  0 instructions:  321000000 cycles:  977737521 heartbeat IPC: 0.24157 cumulative IPC: 0.24234 (Simulation time: 0 hr 17 min 47 sec) 
Heartbeat CPU  0 instructions:  322000000 cycles:  981842923 heartbeat IPC: 0.24358 cumulative IPC: 0.24234 (Simulation time: 0 hr 17 min 51 sec) 
Heartbeat CPU  0 instructions:  323000002 cycles:  985977870 heartbeat IPC: 0.24184 cumulative IPC: 0.24234 (Simulation time: 0 hr 17 min 55 sec) 
Heartbeat CPU  0 instructions:  324000000 cycles:  990086955 heartbeat IPC: 0.24336 cumulative IPC: 0.24235 (Simulation time: 0 hr 17 min 59 sec) 
Heartbeat CPU  0 instructions:  325000002 cycles:  994226153 heartbeat IPC: 0.24159 cumulative IPC: 0.24234 (Simulation time: 0 hr 18 min 3 sec) 
Heartbeat CPU  0 instructions:  326000001 cycles:  998325912 heartbeat IPC: 0.24392 cumulative IPC: 0.24235 (Simulation time: 0 hr 18 min 7 sec) 
Heartbeat CPU  0 instructions:  327000000 cycles: 1002478364 heartbeat IPC: 0.24082 cumulative IPC: 0.24234 (Simulation time: 0 hr 18 min 11 sec) 
Heartbeat CPU  0 instructions:  328000000 cycles: 1006579100 heartbeat IPC: 0.24386 cumulative IPC: 0.24235 (Simulation time: 0 hr 18 min 14 sec) 
Heartbeat CPU  0 instructions:  329000003 cycles: 1010706320 heartbeat IPC: 0.24229 cumulative IPC: 0.24235 (Simulation time: 0 hr 18 min 19 sec) 
Heartbeat CPU  0 instructions:  330000000 cycles: 1014817496 heartbeat IPC: 0.24324 cumulative IPC: 0.24235 (Simulation time: 0 hr 18 min 22 sec) 
Heartbeat CPU  0 instructions:  331000000 cycles: 1018967594 heartbeat IPC: 0.24096 cumulative IPC: 0.24235 (Simulation time: 0 hr 18 min 26 sec) 
Heartbeat CPU  0 instructions:  332000000 cycles: 1023083486 heartbeat IPC: 0.24296 cumulative IPC: 0.24235 (Simulation time: 0 hr 18 min 30 sec) 
Heartbeat CPU  0 instructions:  333000002 cycles: 1027228873 heartbeat IPC: 0.24123 cumulative IPC: 0.24235 (Simulation time: 0 hr 18 min 34 sec) 
Heartbeat CPU  0 instructions:  334000003 cycles: 1031353712 heartbeat IPC: 0.24243 cumulative IPC: 0.24235 (Simulation time: 0 hr 18 min 38 sec) 
Heartbeat CPU  0 instructions:  335000000 cycles: 1035491362 heartbeat IPC: 0.24168 cumulative IPC: 0.24234 (Simulation time: 0 hr 18 min 42 sec) 
Heartbeat CPU  0 instructions:  336000000 cycles: 1039594926 heartbeat IPC: 0.24369 cumulative IPC: 0.24235 (Simulation time: 0 hr 18 min 46 sec) 
Heartbeat CPU  0 instructions:  337000001 cycles: 1043735654 heartbeat IPC: 0.24150 cumulative IPC: 0.24234 (Simulation time: 0 hr 18 min 50 sec) 
Heartbeat CPU  0 instructions:  338000003 cycles: 1047860611 heartbeat IPC: 0.24243 cumulative IPC: 0.24235 (Simulation time: 0 hr 18 min 54 sec) 
Heartbeat CPU  0 instructions:  339000001 cycles: 1051999402 heartbeat IPC: 0.24162 cumulative IPC: 0.24234 (Simulation time: 0 hr 18 min 58 sec) 
Heartbeat CPU  0 instructions:  340000000 cycles: 1056131446 heartbeat IPC: 0.24201 cumulative IPC: 0.24234 (Simulation time: 0 hr 19 min 2 sec) 
Heartbeat CPU  0 instructions:  341000001 cycles: 1060263686 heartbeat IPC: 0.24200 cumulative IPC: 0.24234 (Simulation time: 0 hr 19 min 6 sec) 
Heartbeat CPU  0 instructions:  342000003 cycles: 1064413127 heartbeat IPC: 0.24100 cumulative IPC: 0.24233 (Simulation time: 0 hr 19 min 9 sec) 
Heartbeat CPU  0 instructions:  343000002 cycles: 1068529663 heartbeat IPC: 0.24292 cumulative IPC: 0.24234 (Simulation time: 0 hr 19 min 13 sec) 
Heartbeat CPU  0 instructions:  344000000 cycles: 1072701049 heartbeat IPC: 0.23973 cumulative IPC: 0.24233 (Simulation time: 0 hr 19 min 17 sec) 
Heartbeat CPU  0 instructions:  345000001 cycles: 1078611387 heartbeat IPC: 0.16920 cumulative IPC: 0.24190 (Simulation time: 0 hr 19 min 21 sec) 
Heartbeat CPU  0 instructions:  346000001 cycles: 1083564149 heartbeat IPC: 0.20191 cumulative IPC: 0.24170 (Simulation time: 0 hr 19 min 25 sec) 
Heartbeat CPU  0 instructions:  347000003 cycles: 1088478065 heartbeat IPC: 0.20350 cumulative IPC: 0.24152 (Simulation time: 0 hr 19 min 28 sec) 
Heartbeat CPU  0 instructions:  348000000 cycles: 1093391970 heartbeat IPC: 0.20350 cumulative IPC: 0.24134 (Simulation time: 0 hr 19 min 32 sec) 
Heartbeat CPU  0 instructions:  349000002 cycles: 1098305882 heartbeat IPC: 0.20350 cumulative IPC: 0.24116 (Simulation time: 0 hr 19 min 35 sec) 
Heartbeat CPU  0 instructions:  350000002 cycles: 1103219787 heartbeat IPC: 0.20350 cumulative IPC: 0.24098 (Simulation time: 0 hr 19 min 39 sec) 
Heartbeat CPU  0 instructions:  351000001 cycles: 1108133697 heartbeat IPC: 0.20350 cumulative IPC: 0.24080 (Simulation time: 0 hr 19 min 43 sec) 
Heartbeat CPU  0 instructions:  352000000 cycles: 1113047604 heartbeat IPC: 0.20350 cumulative IPC: 0.24063 (Simulation time: 0 hr 19 min 46 sec) 
Heartbeat CPU  0 instructions:  353000003 cycles: 1117961523 heartbeat IPC: 0.20350 cumulative IPC: 0.24046 (Simulation time: 0 hr 19 min 50 sec) 
Heartbeat CPU  0 instructions:  354000000 cycles: 1122872023 heartbeat IPC: 0.20364 cumulative IPC: 0.24028 (Simulation time: 0 hr 19 min 53 sec) 
Heartbeat CPU  0 instructions:  355000000 cycles: 1127785928 heartbeat IPC: 0.20350 cumulative IPC: 0.24011 (Simulation time: 0 hr 19 min 57 sec) 
Heartbeat CPU  0 instructions:  356000000 cycles: 1132618327 heartbeat IPC: 0.20694 cumulative IPC: 0.23996 (Simulation time: 0 hr 20 min 0 sec) 
Heartbeat CPU  0 instructions:  357000003 cycles: 1136400585 heartbeat IPC: 0.26439 cumulative IPC: 0.24005 (Simulation time: 0 hr 20 min 3 sec) 
Heartbeat CPU  0 instructions:  358000003 cycles: 1139207172 heartbeat IPC: 0.35630 cumulative IPC: 0.24035 (Simulation time: 0 hr 20 min 6 sec) 
Heartbeat CPU  0 instructions:  359000003 cycles: 1141870073 heartbeat IPC: 0.37553 cumulative IPC: 0.24069 (Simulation time: 0 hr 20 min 8 sec) 
Heartbeat CPU  0 instructions:  360000000 cycles: 1147402427 heartbeat IPC: 0.18075 cumulative IPC: 0.24038 (Simulation time: 0 hr 20 min 12 sec) 
Heartbeat CPU  0 instructions:  361000003 cycles: 1153447874 heartbeat IPC: 0.16541 cumulative IPC: 0.23997 (Simulation time: 0 hr 20 min 16 sec) 
Heartbeat CPU  0 instructions:  362000001 cycles: 1159665004 heartbeat IPC: 0.16085 cumulative IPC: 0.23952 (Simulation time: 0 hr 20 min 20 sec) 
Heartbeat CPU  0 instructions:  363000000 cycles: 1165850241 heartbeat IPC: 0.16168 cumulative IPC: 0.23908 (Simulation time: 0 hr 20 min 24 sec) 
Heartbeat CPU  0 instructions:  364000000 cycles: 1172140669 heartbeat IPC: 0.15897 cumulative IPC: 0.23862 (Simulation time: 0 hr 20 min 29 sec) 
Heartbeat CPU  0 instructions:  365000000 cycles: 1178431969 heartbeat IPC: 0.15895 cumulative IPC: 0.23817 (Simulation time: 0 hr 20 min 33 sec) 
Heartbeat CPU  0 instructions:  366000001 cycles: 1184696756 heartbeat IPC: 0.15962 cumulative IPC: 0.23773 (Simulation time: 0 hr 20 min 37 sec) 
Heartbeat CPU  0 instructions:  367000003 cycles: 1191066729 heartbeat IPC: 0.15699 cumulative IPC: 0.23728 (Simulation time: 0 hr 20 min 41 sec) 
Heartbeat CPU  0 instructions:  368000000 cycles: 1197279719 heartbeat IPC: 0.16095 cumulative IPC: 0.23686 (Simulation time: 0 hr 20 min 46 sec) 
Heartbeat CPU  0 instructions:  369000002 cycles: 1203535600 heartbeat IPC: 0.15985 cumulative IPC: 0.23643 (Simulation time: 0 hr 20 min 50 sec) 
Heartbeat CPU  0 instructions:  370000002 cycles: 1209801732 heartbeat IPC: 0.15959 cumulative IPC: 0.23601 (Simulation time: 0 hr 20 min 54 sec) 
Heartbeat CPU  0 instructions:  371000000 cycles: 1216100328 heartbeat IPC: 0.15877 cumulative IPC: 0.23559 (Simulation time: 0 hr 20 min 58 sec) 
Heartbeat CPU  0 instructions:  372000000 cycles: 1222420430 heartbeat IPC: 0.15823 cumulative IPC: 0.23517 (Simulation time: 0 hr 21 min 2 sec) 
Heartbeat CPU  0 instructions:  373000003 cycles: 1228719882 heartbeat IPC: 0.15874 cumulative IPC: 0.23475 (Simulation time: 0 hr 21 min 7 sec) 
Heartbeat CPU  0 instructions:  374000003 cycles: 1235048235 heartbeat IPC: 0.15802 cumulative IPC: 0.23434 (Simulation time: 0 hr 21 min 11 sec) 
Heartbeat CPU  0 instructions:  375000000 cycles: 1241306767 heartbeat IPC: 0.15978 cumulative IPC: 0.23394 (Simulation time: 0 hr 21 min 15 sec) 
Heartbeat CPU  0 instructions:  376000000 cycles: 1247562386 heartbeat IPC: 0.15986 cumulative IPC: 0.23355 (Simulation time: 0 hr 21 min 19 sec) 
Heartbeat CPU  0 instructions:  377000001 cycles: 1252536467 heartbeat IPC: 0.20104 cumulative IPC: 0.23341 (Simulation time: 0 hr 21 min 23 sec) 
Heartbeat CPU  0 instructions:  378000001 cycles: 1256623967 heartbeat IPC: 0.24465 cumulative IPC: 0.23345 (Simulation time: 0 hr 21 min 27 sec) 
Heartbeat CPU  0 instructions:  379000000 cycles: 1260648768 heartbeat IPC: 0.24846 cumulative IPC: 0.23350 (Simulation time: 0 hr 21 min 31 sec) 
Heartbeat CPU  0 instructions:  380000000 cycles: 1264713641 heartbeat IPC: 0.24601 cumulative IPC: 0.23354 (Simulation time: 0 hr 21 min 35 sec) 
Heartbeat CPU  0 instructions:  381000003 cycles: 1268745280 heartbeat IPC: 0.24804 cumulative IPC: 0.23359 (Simulation time: 0 hr 21 min 39 sec) 
Heartbeat CPU  0 instructions:  382000000 cycles: 1272826084 heartbeat IPC: 0.24505 cumulative IPC: 0.23363 (Simulation time: 0 hr 21 min 43 sec) 
Heartbeat CPU  0 instructions:  383000000 cycles: 1276964051 heartbeat IPC: 0.24166 cumulative IPC: 0.23366 (Simulation time: 0 hr 21 min 47 sec) 
Heartbeat CPU  0 instructions:  384000000 cycles: 1281122640 heartbeat IPC: 0.24047 cumulative IPC: 0.23368 (Simulation time: 0 hr 21 min 51 sec) 
Heartbeat CPU  0 instructions:  385000000 cycles: 1285244581 heartbeat IPC: 0.24260 cumulative IPC: 0.23371 (Simulation time: 0 hr 21 min 55 sec) 
Heartbeat CPU  0 instructions:  386000000 cycles: 1289411655 heartbeat IPC: 0.23998 cumulative IPC: 0.23373 (Simulation time: 0 hr 21 min 59 sec) 
Heartbeat CPU  0 instructions:  387000003 cycles: 1293526773 heartbeat IPC: 0.24301 cumulative IPC: 0.23376 (Simulation time: 0 hr 22 min 2 sec) 
Heartbeat CPU  0 instructions:  388000000 cycles: 1297689272 heartbeat IPC: 0.24024 cumulative IPC: 0.23379 (Simulation time: 0 hr 22 min 6 sec) 
Heartbeat CPU  0 instructions:  389000000 cycles: 1301838534 heartbeat IPC: 0.24101 cumulative IPC: 0.23381 (Simulation time: 0 hr 22 min 10 sec) 
Heartbeat CPU  0 instructions:  390000000 cycles: 1305991874 heartbeat IPC: 0.24077 cumulative IPC: 0.23383 (Simulation time: 0 hr 22 min 14 sec) 
Heartbeat CPU  0 instructions:  391000001 cycles: 1310162059 heartbeat IPC: 0.23980 cumulative IPC: 0.23385 (Simulation time: 0 hr 22 min 18 sec) 
Heartbeat CPU  0 instructions:  392000000 cycles: 1314293801 heartbeat IPC: 0.24203 cumulative IPC: 0.23388 (Simulation time: 0 hr 22 min 22 sec) 
Heartbeat CPU  0 instructions:  393000000 cycles: 1318459258 heartbeat IPC: 0.24007 cumulative IPC: 0.23390 (Simulation time: 0 hr 22 min 26 sec) 
Heartbeat CPU  0 instructions:  394000000 cycles: 1322589239 heartbeat IPC: 0.24213 cumulative IPC: 0.23393 (Simulation time: 0 hr 22 min 30 sec) 
Heartbeat CPU  0 instructions:  395000000 cycles: 1326730519 heartbeat IPC: 0.24147 cumulative IPC: 0.23395 (Simulation time: 0 hr 22 min 34 sec) 
Heartbeat CPU  0 instructions:  396000000 cycles: 1330848111 heartbeat IPC: 0.24286 cumulative IPC: 0.23398 (Simulation time: 0 hr 22 min 38 sec) 
Heartbeat CPU  0 instructions:  397000001 cycles: 1335003413 heartbeat IPC: 0.24066 cumulative IPC: 0.23400 (Simulation time: 0 hr 22 min 42 sec) 
Heartbeat CPU  0 instructions:  398000000 cycles: 1339128840 heartbeat IPC: 0.24240 cumulative IPC: 0.23403 (Simulation time: 0 hr 22 min 45 sec) 
Heartbeat CPU  0 instructions:  399000000 cycles: 1343298196 heartbeat IPC: 0.23985 cumulative IPC: 0.23405 (Simulation time: 0 hr 22 min 49 sec) 
Heartbeat CPU  0 instructions:  400000000 cycles: 1347430366 heartbeat IPC: 0.24200 cumulative IPC: 0.23408 (Simulation time: 0 hr 22 min 53 sec) 
Heartbeat CPU  0 instructions:  401000003 cycles: 1351607682 heartbeat IPC: 0.23939 cumulative IPC: 0.23409 (Simulation time: 0 hr 22 min 57 sec) 
Heartbeat CPU  0 instructions:  402000003 cycles: 1355753731 heartbeat IPC: 0.24119 cumulative IPC: 0.23412 (Simulation time: 0 hr 23 min 1 sec) 
Heartbeat CPU  0 instructions:  403000000 cycles: 1359941892 heartbeat IPC: 0.23877 cumulative IPC: 0.23413 (Simulation time: 0 hr 23 min 5 sec) 
Heartbeat CPU  0 instructions:  404000000 cycles: 1364074659 heartbeat IPC: 0.24197 cumulative IPC: 0.23416 (Simulation time: 0 hr 23 min 9 sec) 
Heartbeat CPU  0 instructions:  405000000 cycles: 1368241792 heartbeat IPC: 0.23997 cumulative IPC: 0.23417 (Simulation time: 0 hr 23 min 13 sec) 
Heartbeat CPU  0 instructions:  406000000 cycles: 1372376408 heartbeat IPC: 0.24186 cumulative IPC: 0.23420 (Simulation time: 0 hr 23 min 17 sec) 
Heartbeat CPU  0 instructions:  407000002 cycles: 1376564538 heartbeat IPC: 0.23877 cumulative IPC: 0.23421 (Simulation time: 0 hr 23 min 21 sec) 
Heartbeat CPU  0 instructions:  408000000 cycles: 1380682723 heartbeat IPC: 0.24282 cumulative IPC: 0.23424 (Simulation time: 0 hr 23 min 25 sec) 
Heartbeat CPU  0 instructions:  409000002 cycles: 1384837314 heartbeat IPC: 0.24070 cumulative IPC: 0.23426 (Simulation time: 0 hr 23 min 29 sec) 
Heartbeat CPU  0 instructions:  410000001 cycles: 1388975951 heartbeat IPC: 0.24163 cumulative IPC: 0.23428 (Simulation time: 0 hr 23 min 32 sec) 
Heartbeat CPU  0 instructions:  411000000 cycles: 1393127687 heartbeat IPC: 0.24086 cumulative IPC: 0.23430 (Simulation time: 0 hr 23 min 36 sec) 
Heartbeat CPU  0 instructions:  412000000 cycles: 1397255697 heartbeat IPC: 0.24225 cumulative IPC: 0.23433 (Simulation time: 0 hr 23 min 40 sec) 
Heartbeat CPU  0 instructions:  413000001 cycles: 1401396847 heartbeat IPC: 0.24148 cumulative IPC: 0.23435 (Simulation time: 0 hr 23 min 44 sec) 
Heartbeat CPU  0 instructions:  414000000 cycles: 1405558629 heartbeat IPC: 0.24028 cumulative IPC: 0.23437 (Simulation time: 0 hr 23 min 48 sec) 
Heartbeat CPU  0 instructions:  415000002 cycles: 1409669908 heartbeat IPC: 0.24323 cumulative IPC: 0.23440 (Simulation time: 0 hr 23 min 52 sec) 
Heartbeat CPU  0 instructions:  416000000 cycles: 1413838132 heartbeat IPC: 0.23991 cumulative IPC: 0.23441 (Simulation time: 0 hr 23 min 56 sec) 
Heartbeat CPU  0 instructions:  417000000 cycles: 1417983120 heartbeat IPC: 0.24126 cumulative IPC: 0.23443 (Simulation time: 0 hr 24 min 0 sec) 
Heartbeat CPU  0 instructions:  418000002 cycles: 1422134944 heartbeat IPC: 0.24086 cumulative IPC: 0.23445 (Simulation time: 0 hr 24 min 4 sec) 
Heartbeat CPU  0 instructions:  419000002 cycles: 1426249812 heartbeat IPC: 0.24302 cumulative IPC: 0.23448 (Simulation time: 0 hr 24 min 8 sec) 
Heartbeat CPU  0 instructions:  420000000 cycles: 1430398104 heartbeat IPC: 0.24106 cumulative IPC: 0.23450 (Simulation time: 0 hr 24 min 12 sec) 
Heartbeat CPU  0 instructions:  421000001 cycles: 1434519040 heartbeat IPC: 0.24266 cumulative IPC: 0.23452 (Simulation time: 0 hr 24 min 16 sec) 
Heartbeat CPU  0 instructions:  422000001 cycles: 1438672585 heartbeat IPC: 0.24076 cumulative IPC: 0.23454 (Simulation time: 0 hr 24 min 19 sec) 
Heartbeat CPU  0 instructions:  423000000 cycles: 1442802929 heartbeat IPC: 0.24211 cumulative IPC: 0.23457 (Simulation time: 0 hr 24 min 23 sec) 
Heartbeat CPU  0 instructions:  424000000 cycles: 1446944827 heartbeat IPC: 0.24144 cumulative IPC: 0.23459 (Simulation time: 0 hr 24 min 27 sec) 
Heartbeat CPU  0 instructions:  425000002 cycles: 1451073683 heartbeat IPC: 0.24220 cumulative IPC: 0.23461 (Simulation time: 0 hr 24 min 31 sec) 
Heartbeat CPU  0 instructions:  426000003 cycles: 1455248150 heartbeat IPC: 0.23955 cumulative IPC: 0.23462 (Simulation time: 0 hr 24 min 35 sec) 
Heartbeat CPU  0 instructions:  427000002 cycles: 1459369658 heartbeat IPC: 0.24263 cumulative IPC: 0.23465 (Simulation time: 0 hr 24 min 39 sec) 
Heartbeat CPU  0 instructions:  428000000 cycles: 1463517818 heartbeat IPC: 0.24107 cumulative IPC: 0.23467 (Simulation time: 0 hr 24 min 43 sec) 
Heartbeat CPU  0 instructions:  429000000 cycles: 1467645519 heartbeat IPC: 0.24227 cumulative IPC: 0.23469 (Simulation time: 0 hr 24 min 47 sec) 
Heartbeat CPU  0 instructions:  430000002 cycles: 1471806300 heartbeat IPC: 0.24034 cumulative IPC: 0.23471 (Simulation time: 0 hr 24 min 51 sec) 
Heartbeat CPU  0 instructions:  431000001 cycles: 1475921249 heartbeat IPC: 0.24302 cumulative IPC: 0.23473 (Simulation time: 0 hr 24 min 55 sec) 
Heartbeat CPU  0 instructions:  432000000 cycles: 1480065385 heartbeat IPC: 0.24130 cumulative IPC: 0.23475 (Simulation time: 0 hr 24 min 59 sec) 
Heartbeat CPU  0 instructions:  433000002 cycles: 1484210897 heartbeat IPC: 0.24123 cumulative IPC: 0.23477 (Simulation time: 0 hr 25 min 2 sec) 
Heartbeat CPU  0 instructions:  434000003 cycles: 1488370856 heartbeat IPC: 0.24039 cumulative IPC: 0.23478 (Simulation time: 0 hr 25 min 6 sec) 
Heartbeat CPU  0 instructions:  435000001 cycles: 1492508759 heartbeat IPC: 0.24167 cumulative IPC: 0.23480 (Simulation time: 0 hr 25 min 10 sec) 
Heartbeat CPU  0 instructions:  436000000 cycles: 1496641095 heartbeat IPC: 0.24199 cumulative IPC: 0.23483 (Simulation time: 0 hr 25 min 14 sec) 
Heartbeat CPU  0 instructions:  437000001 cycles: 1500799277 heartbeat IPC: 0.24049 cumulative IPC: 0.23484 (Simulation time: 0 hr 25 min 18 sec) 
Heartbeat CPU  0 instructions:  438000001 cycles: 1504927330 heartbeat IPC: 0.24224 cumulative IPC: 0.23486 (Simulation time: 0 hr 25 min 22 sec) 
Heartbeat CPU  0 instructions:  439000001 cycles: 1509076772 heartbeat IPC: 0.24100 cumulative IPC: 0.23488 (Simulation time: 0 hr 25 min 26 sec) 
Heartbeat CPU  0 instructions:  440000000 cycles: 1513206744 heartbeat IPC: 0.24213 cumulative IPC: 0.23490 (Simulation time: 0 hr 25 min 30 sec) 
Heartbeat CPU  0 instructions:  441000000 cycles: 1517373945 heartbeat IPC: 0.23997 cumulative IPC: 0.23492 (Simulation time: 0 hr 25 min 34 sec) 
Heartbeat CPU  0 instructions:  442000001 cycles: 1521491196 heartbeat IPC: 0.24288 cumulative IPC: 0.23494 (Simulation time: 0 hr 25 min 38 sec) 
Heartbeat CPU  0 instructions:  443000001 cycles: 1525655553 heartbeat IPC: 0.24013 cumulative IPC: 0.23495 (Simulation time: 0 hr 25 min 42 sec) 
Heartbeat CPU  0 instructions:  444000000 cycles: 1529784744 heartbeat IPC: 0.24218 cumulative IPC: 0.23497 (Simulation time: 0 hr 25 min 46 sec) 
Heartbeat CPU  0 instructions:  445000000 cycles: 1533970520 heartbeat IPC: 0.23890 cumulative IPC: 0.23498 (Simulation time: 0 hr 25 min 50 sec) 
Heartbeat CPU  0 instructions:  446000002 cycles: 1538078683 heartbeat IPC: 0.24342 cumulative IPC: 0.23501 (Simulation time: 0 hr 25 min 54 sec) 
Heartbeat CPU  0 instructions:  447000000 cycles: 1542254717 heartbeat IPC: 0.23946 cumulative IPC: 0.23502 (Simulation time: 0 hr 25 min 57 sec) 
Heartbeat CPU  0 instructions:  448000000 cycles: 1546390426 heartbeat IPC: 0.24180 cumulative IPC: 0.23504 (Simulation time: 0 hr 26 min 1 sec) 
Heartbeat CPU  0 instructions:  449000001 cycles: 1550580696 heartbeat IPC: 0.23865 cumulative IPC: 0.23505 (Simulation time: 0 hr 26 min 5 sec) 
Heartbeat CPU  0 instructions:  450000001 cycles: 1554716822 heartbeat IPC: 0.24177 cumulative IPC: 0.23507 (Simulation time: 0 hr 26 min 9 sec) 
Heartbeat CPU  0 instructions:  451000002 cycles: 1558887792 heartbeat IPC: 0.23975 cumulative IPC: 0.23508 (Simulation time: 0 hr 26 min 13 sec) 
Heartbeat CPU  0 instructions:  452000000 cycles: 1563019710 heartbeat IPC: 0.24202 cumulative IPC: 0.23510 (Simulation time: 0 hr 26 min 17 sec) 
Heartbeat CPU  0 instructions:  453000001 cycles: 1567191552 heartbeat IPC: 0.23970 cumulative IPC: 0.23511 (Simulation time: 0 hr 26 min 21 sec) 
Heartbeat CPU  0 instructions:  454000000 cycles: 1571332103 heartbeat IPC: 0.24151 cumulative IPC: 0.23513 (Simulation time: 0 hr 26 min 25 sec) 
Heartbeat CPU  0 instructions:  455000003 cycles: 1575472069 heartbeat IPC: 0.24155 cumulative IPC: 0.23515 (Simulation time: 0 hr 26 min 29 sec) 
Heartbeat CPU  0 instructions:  456000000 cycles: 1579621398 heartbeat IPC: 0.24100 cumulative IPC: 0.23516 (Simulation time: 0 hr 26 min 33 sec) 
Heartbeat CPU  0 instructions:  457000000 cycles: 1583796289 heartbeat IPC: 0.23953 cumulative IPC: 0.23518 (Simulation time: 0 hr 26 min 37 sec) 
Heartbeat CPU  0 instructions:  458000003 cycles: 1587963830 heartbeat IPC: 0.23995 cumulative IPC: 0.23519 (Simulation time: 0 hr 26 min 41 sec) 
Heartbeat CPU  0 instructions:  459000002 cycles: 1592099828 heartbeat IPC: 0.24178 cumulative IPC: 0.23521 (Simulation time: 0 hr 26 min 45 sec) 
Heartbeat CPU  0 instructions:  460000000 cycles: 1596256202 heartbeat IPC: 0.24059 cumulative IPC: 0.23522 (Simulation time: 0 hr 26 min 48 sec) 
Heartbeat CPU  0 instructions:  461000000 cycles: 1600403547 heartbeat IPC: 0.24112 cumulative IPC: 0.23524 (Simulation time: 0 hr 26 min 52 sec) 
Heartbeat CPU  0 instructions:  462000000 cycles: 1604570493 heartbeat IPC: 0.23998 cumulative IPC: 0.23525 (Simulation time: 0 hr 26 min 56 sec) 
Heartbeat CPU  0 instructions:  463000000 cycles: 1608697876 heartbeat IPC: 0.24228 cumulative IPC: 0.23527 (Simulation time: 0 hr 27 min 0 sec) 
Heartbeat CPU  0 instructions:  464000000 cycles: 1612864454 heartbeat IPC: 0.24001 cumulative IPC: 0.23528 (Simulation time: 0 hr 27 min 4 sec) 
Heartbeat CPU  0 instructions:  465000001 cycles: 1616995686 heartbeat IPC: 0.24206 cumulative IPC: 0.23530 (Simulation time: 0 hr 27 min 8 sec) 
Heartbeat CPU  0 instructions:  466000003 cycles: 1621161327 heartbeat IPC: 0.24006 cumulative IPC: 0.23531 (Simulation time: 0 hr 27 min 12 sec) 
Heartbeat CPU  0 instructions:  467000002 cycles: 1625281770 heartbeat IPC: 0.24269 cumulative IPC: 0.23533 (Simulation time: 0 hr 27 min 16 sec) 
Heartbeat CPU  0 instructions:  468000000 cycles: 1629459999 heartbeat IPC: 0.23934 cumulative IPC: 0.23534 (Simulation time: 0 hr 27 min 20 sec) 
Heartbeat CPU  0 instructions:  469000000 cycles: 1633569210 heartbeat IPC: 0.24336 cumulative IPC: 0.23536 (Simulation time: 0 hr 27 min 24 sec) 
Heartbeat CPU  0 instructions:  470000000 cycles: 1637749878 heartbeat IPC: 0.23920 cumulative IPC: 0.23538 (Simulation time: 0 hr 27 min 28 sec) 
Heartbeat CPU  0 instructions:  471000003 cycles: 1641882194 heartbeat IPC: 0.24200 cumulative IPC: 0.23539 (Simulation time: 0 hr 27 min 32 sec) 
Heartbeat CPU  0 instructions:  472000000 cycles: 1646052426 heartbeat IPC: 0.23979 cumulative IPC: 0.23540 (Simulation time: 0 hr 27 min 35 sec) 
Heartbeat CPU  0 instructions:  473000000 cycles: 1650195651 heartbeat IPC: 0.24136 cumulative IPC: 0.23542 (Simulation time: 0 hr 27 min 39 sec) 
Heartbeat CPU  0 instructions:  474000001 cycles: 1654386405 heartbeat IPC: 0.23862 cumulative IPC: 0.23543 (Simulation time: 0 hr 27 min 43 sec) 
Heartbeat CPU  0 instructions:  475000000 cycles: 1658507296 heartbeat IPC: 0.24267 cumulative IPC: 0.23545 (Simulation time: 0 hr 27 min 47 sec) 
Heartbeat CPU  0 instructions:  476000000 cycles: 1662671980 heartbeat IPC: 0.24011 cumulative IPC: 0.23546 (Simulation time: 0 hr 27 min 51 sec) 
Heartbeat CPU  0 instructions:  477000002 cycles: 1666827602 heartbeat IPC: 0.24064 cumulative IPC: 0.23547 (Simulation time: 0 hr 27 min 55 sec) 
Heartbeat CPU  0 instructions:  478000002 cycles: 1670991397 heartbeat IPC: 0.24017 cumulative IPC: 0.23548 (Simulation time: 0 hr 27 min 59 sec) 
Heartbeat CPU  0 instructions:  479000001 cycles: 1675142370 heartbeat IPC: 0.24091 cumulative IPC: 0.23550 (Simulation time: 0 hr 28 min 3 sec) 
Heartbeat CPU  0 instructions:  480000000 cycles: 1679296667 heartbeat IPC: 0.24071 cumulative IPC: 0.23551 (Simulation time: 0 hr 28 min 7 sec) 
Heartbeat CPU  0 instructions:  481000002 cycles: 1683456280 heartbeat IPC: 0.24041 cumulative IPC: 0.23552 (Simulation time: 0 hr 28 min 11 sec) 
Heartbeat CPU  0 instructions:  482000003 cycles: 1687607884 heartbeat IPC: 0.24087 cumulative IPC: 0.23554 (Simulation time: 0 hr 28 min 15 sec) 
Heartbeat CPU  0 instructions:  483000002 cycles: 1691762642 heartbeat IPC: 0.24069 cumulative IPC: 0.23555 (Simulation time: 0 hr 28 min 19 sec) 
Heartbeat CPU  0 instructions:  484000000 cycles: 1695905114 heartbeat IPC: 0.24140 cumulative IPC: 0.23557 (Simulation time: 0 hr 28 min 23 sec) 
Heartbeat CPU  0 instructions:  485000003 cycles: 1700072286 heartbeat IPC: 0.23997 cumulative IPC: 0.23558 (Simulation time: 0 hr 28 min 26 sec) 
Heartbeat CPU  0 instructions:  486000001 cycles: 1704201710 heartbeat IPC: 0.24216 cumulative IPC: 0.23559 (Simulation time: 0 hr 28 min 30 sec) 
Heartbeat CPU  0 instructions:  487000002 cycles: 1708392534 heartbeat IPC: 0.23862 cumulative IPC: 0.23560 (Simulation time: 0 hr 28 min 34 sec) 
Heartbeat CPU  0 instructions:  488000000 cycles: 1712531734 heartbeat IPC: 0.24159 cumulative IPC: 0.23562 (Simulation time: 0 hr 28 min 38 sec) 
Heartbeat CPU  0 instructions:  489000003 cycles: 1716690379 heartbeat IPC: 0.24046 cumulative IPC: 0.23563 (Simulation time: 0 hr 28 min 42 sec) 
Heartbeat CPU  0 instructions:  490000001 cycles: 1720814623 heartbeat IPC: 0.24247 cumulative IPC: 0.23565 (Simulation time: 0 hr 28 min 46 sec) 
Heartbeat CPU  0 instructions:  491000000 cycles: 1724998113 heartbeat IPC: 0.23903 cumulative IPC: 0.23565 (Simulation time: 0 hr 28 min 50 sec) 
Heartbeat CPU  0 instructions:  492000000 cycles: 1729139920 heartbeat IPC: 0.24144 cumulative IPC: 0.23567 (Simulation time: 0 hr 28 min 54 sec) 
Heartbeat CPU  0 instructions:  493000001 cycles: 1733300648 heartbeat IPC: 0.24034 cumulative IPC: 0.23568 (Simulation time: 0 hr 28 min 58 sec) 
Heartbeat CPU  0 instructions:  494000000 cycles: 1737438027 heartbeat IPC: 0.24170 cumulative IPC: 0.23570 (Simulation time: 0 hr 29 min 2 sec) 
Heartbeat CPU  0 instructions:  495000003 cycles: 1741602120 heartbeat IPC: 0.24015 cumulative IPC: 0.23571 (Simulation time: 0 hr 29 min 6 sec) 
Heartbeat CPU  0 instructions:  496000000 cycles: 1745735843 heartbeat IPC: 0.24191 cumulative IPC: 0.23572 (Simulation time: 0 hr 29 min 10 sec) 
Heartbeat CPU  0 instructions:  497000001 cycles: 1749907694 heartbeat IPC: 0.23970 cumulative IPC: 0.23573 (Simulation time: 0 hr 29 min 14 sec) 
Heartbeat CPU  0 instructions:  498000003 cycles: 1754050710 heartbeat IPC: 0.24137 cumulative IPC: 0.23575 (Simulation time: 0 hr 29 min 17 sec) 
Heartbeat CPU  0 instructions:  499000001 cycles: 1758205797 heartbeat IPC: 0.24067 cumulative IPC: 0.23576 (Simulation time: 0 hr 29 min 21 sec) 
Heartbeat CPU  0 instructions:  500000000 cycles: 1762344180 heartbeat IPC: 0.24164 cumulative IPC: 0.23577 (Simulation time: 0 hr 29 min 25 sec) 
Heartbeat CPU  0 instructions:  501000003 cycles: 1766498700 heartbeat IPC: 0.24070 cumulative IPC: 0.23578 (Simulation time: 0 hr 29 min 29 sec) 
Heartbeat CPU  0 instructions:  502000001 cycles: 1770631205 heartbeat IPC: 0.24198 cumulative IPC: 0.23580 (Simulation time: 0 hr 29 min 33 sec) 
Heartbeat CPU  0 instructions:  503000000 cycles: 1774785038 heartbeat IPC: 0.24074 cumulative IPC: 0.23581 (Simulation time: 0 hr 29 min 37 sec) 
Heartbeat CPU  0 instructions:  504000000 cycles: 1778939699 heartbeat IPC: 0.24069 cumulative IPC: 0.23582 (Simulation time: 0 hr 29 min 41 sec) 
Heartbeat CPU  0 instructions:  505000000 cycles: 1783095182 heartbeat IPC: 0.24065 cumulative IPC: 0.23583 (Simulation time: 0 hr 29 min 45 sec) 
Heartbeat CPU  0 instructions:  506000001 cycles: 1787250430 heartbeat IPC: 0.24066 cumulative IPC: 0.23585 (Simulation time: 0 hr 29 min 49 sec) 
Heartbeat CPU  0 instructions:  507000000 cycles: 1791401688 heartbeat IPC: 0.24089 cumulative IPC: 0.23586 (Simulation time: 0 hr 29 min 53 sec) 
Heartbeat CPU  0 instructions:  508000000 cycles: 1795573755 heartbeat IPC: 0.23969 cumulative IPC: 0.23587 (Simulation time: 0 hr 29 min 57 sec) 
Heartbeat CPU  0 instructions:  509000000 cycles: 1799714250 heartbeat IPC: 0.24152 cumulative IPC: 0.23588 (Simulation time: 0 hr 30 min 0 sec) 
Heartbeat CPU  0 instructions:  510000001 cycles: 1803861500 heartbeat IPC: 0.24112 cumulative IPC: 0.23589 (Simulation time: 0 hr 30 min 4 sec) 
Heartbeat CPU  0 instructions:  511000001 cycles: 1807995454 heartbeat IPC: 0.24190 cumulative IPC: 0.23591 (Simulation time: 0 hr 30 min 8 sec) 
Heartbeat CPU  0 instructions:  512000000 cycles: 1812179054 heartbeat IPC: 0.23903 cumulative IPC: 0.23592 (Simulation time: 0 hr 30 min 12 sec) 
Heartbeat CPU  0 instructions:  513000003 cycles: 1816293036 heartbeat IPC: 0.24307 cumulative IPC: 0.23593 (Simulation time: 0 hr 30 min 16 sec) 
Heartbeat CPU  0 instructions:  514000000 cycles: 1820451983 heartbeat IPC: 0.24044 cumulative IPC: 0.23594 (Simulation time: 0 hr 30 min 20 sec) 
Heartbeat CPU  0 instructions:  515000001 cycles: 1824581382 heartbeat IPC: 0.24217 cumulative IPC: 0.23596 (Simulation time: 0 hr 30 min 24 sec) 
Heartbeat CPU  0 instructions:  516000000 cycles: 1828743820 heartbeat IPC: 0.24024 cumulative IPC: 0.23597 (Simulation time: 0 hr 30 min 28 sec) 
Heartbeat CPU  0 instructions:  517000002 cycles: 1832858891 heartbeat IPC: 0.24301 cumulative IPC: 0.23598 (Simulation time: 0 hr 30 min 32 sec) 
Heartbeat CPU  0 instructions:  518000000 cycles: 1837022337 heartbeat IPC: 0.24019 cumulative IPC: 0.23599 (Simulation time: 0 hr 30 min 36 sec) 
Heartbeat CPU  0 instructions:  519000003 cycles: 1841161534 heartbeat IPC: 0.24159 cumulative IPC: 0.23601 (Simulation time: 0 hr 30 min 40 sec) 
Heartbeat CPU  0 instructions:  520000000 cycles: 1845342774 heartbeat IPC: 0.23916 cumulative IPC: 0.23601 (Simulation time: 0 hr 30 min 44 sec) 
Heartbeat CPU  0 instructions:  521000000 cycles: 1849476752 heartbeat IPC: 0.24190 cumulative IPC: 0.23603 (Simulation time: 0 hr 30 min 47 sec) 
Heartbeat CPU  0 instructions:  522000000 cycles: 1853642527 heartbeat IPC: 0.24005 cumulative IPC: 0.23604 (Simulation time: 0 hr 30 min 51 sec) 
Heartbeat CPU  0 instructions:  523000002 cycles: 1857793533 heartbeat IPC: 0.24091 cumulative IPC: 0.23605 (Simulation time: 0 hr 30 min 55 sec) 
Heartbeat CPU  0 instructions:  524000000 cycles: 1861947928 heartbeat IPC: 0.24071 cumulative IPC: 0.23606 (Simulation time: 0 hr 30 min 59 sec) 
Heartbeat CPU  0 instructions:  525000000 cycles: 1866072324 heartbeat IPC: 0.24246 cumulative IPC: 0.23607 (Simulation time: 0 hr 31 min 3 sec) 
Heartbeat CPU  0 instructions:  526000001 cycles: 1870224641 heartbeat IPC: 0.24083 cumulative IPC: 0.23609 (Simulation time: 0 hr 31 min 7 sec) 
Heartbeat CPU  0 instructions:  527000000 cycles: 1874360747 heartbeat IPC: 0.24177 cumulative IPC: 0.23610 (Simulation time: 0 hr 31 min 11 sec) 
Heartbeat CPU  0 instructions:  528000000 cycles: 1878523281 heartbeat IPC: 0.24024 cumulative IPC: 0.23611 (Simulation time: 0 hr 31 min 15 sec) 
Heartbeat CPU  0 instructions:  529000002 cycles: 1882685619 heartbeat IPC: 0.24025 cumulative IPC: 0.23612 (Simulation time: 0 hr 31 min 19 sec) 
Heartbeat CPU  0 instructions:  530000001 cycles: 1886817491 heartbeat IPC: 0.24202 cumulative IPC: 0.23613 (Simulation time: 0 hr 31 min 23 sec) 
Heartbeat CPU  0 instructions:  531000003 cycles: 1891013104 heartbeat IPC: 0.23834 cumulative IPC: 0.23614 (Simulation time: 0 hr 31 min 27 sec) 
Heartbeat CPU  0 instructions:  532000000 cycles: 1895151883 heartbeat IPC: 0.24162 cumulative IPC: 0.23615 (Simulation time: 0 hr 31 min 31 sec) 
Heartbeat CPU  0 instructions:  533000002 cycles: 1899317647 heartbeat IPC: 0.24005 cumulative IPC: 0.23616 (Simulation time: 0 hr 31 min 34 sec) 
Heartbeat CPU  0 instructions:  534000000 cycles: 1903431500 heartbeat IPC: 0.24308 cumulative IPC: 0.23617 (Simulation time: 0 hr 31 min 38 sec) 
Heartbeat CPU  0 instructions:  535000003 cycles: 1907629680 heartbeat IPC: 0.23820 cumulative IPC: 0.23618 (Simulation time: 0 hr 31 min 42 sec) 
Heartbeat CPU  0 instructions:  536000000 cycles: 1911776533 heartbeat IPC: 0.24115 cumulative IPC: 0.23619 (Simulation time: 0 hr 31 min 46 sec) 
Heartbeat CPU  0 instructions:  537000000 cycles: 1915940396 heartbeat IPC: 0.24016 cumulative IPC: 0.23620 (Simulation time: 0 hr 31 min 50 sec) 
Heartbeat CPU  0 instructions:  538000002 cycles: 1920068746 heartbeat IPC: 0.24223 cumulative IPC: 0.23621 (Simulation time: 0 hr 31 min 54 sec) 
Heartbeat CPU  0 instructions:  539000001 cycles: 1924252828 heartbeat IPC: 0.23900 cumulative IPC: 0.23622 (Simulation time: 0 hr 31 min 58 sec) 
Heartbeat CPU  0 instructions:  540000000 cycles: 1928391094 heartbeat IPC: 0.24165 cumulative IPC: 0.23623 (Simulation time: 0 hr 32 min 2 sec) 
Heartbeat CPU  0 instructions:  541000000 cycles: 1932580092 heartbeat IPC: 0.23872 cumulative IPC: 0.23623 (Simulation time: 0 hr 32 min 6 sec) 
Heartbeat CPU  0 instructions:  542000003 cycles: 1936701221 heartbeat IPC: 0.24265 cumulative IPC: 0.23625 (Simulation time: 0 hr 32 min 10 sec) 
Heartbeat CPU  0 instructions:  543000001 cycles: 1940880755 heartbeat IPC: 0.23926 cumulative IPC: 0.23626 (Simulation time: 0 hr 32 min 14 sec) 
Heartbeat CPU  0 instructions:  544000000 cycles: 1945021491 heartbeat IPC: 0.24150 cumulative IPC: 0.23627 (Simulation time: 0 hr 32 min 18 sec) 
Heartbeat CPU  0 instructions:  545000002 cycles: 1949166815 heartbeat IPC: 0.24124 cumulative IPC: 0.23628 (Simulation time: 0 hr 32 min 22 sec) 
Heartbeat CPU  0 instructions:  546000000 cycles: 1953290875 heartbeat IPC: 0.24248 cumulative IPC: 0.23629 (Simulation time: 0 hr 32 min 26 sec) 
Heartbeat CPU  0 instructions:  547000002 cycles: 1957439625 heartbeat IPC: 0.24104 cumulative IPC: 0.23630 (Simulation time: 0 hr 32 min 29 sec) 
Heartbeat CPU  0 instructions:  548000000 cycles: 1961584971 heartbeat IPC: 0.24123 cumulative IPC: 0.23631 (Simulation time: 0 hr 32 min 33 sec) 
Heartbeat CPU  0 instructions:  549000003 cycles: 1965749961 heartbeat IPC: 0.24010 cumulative IPC: 0.23632 (Simulation time: 0 hr 32 min 37 sec) 
Heartbeat CPU  0 instructions:  550000002 cycles: 1969907181 heartbeat IPC: 0.24055 cumulative IPC: 0.23633 (Simulation time: 0 hr 32 min 41 sec) 
Heartbeat CPU  0 instructions:  551000003 cycles: 1974027813 heartbeat IPC: 0.24268 cumulative IPC: 0.23634 (Simulation time: 0 hr 32 min 45 sec) 
Heartbeat CPU  0 instructions:  552000000 cycles: 1978208151 heartbeat IPC: 0.23921 cumulative IPC: 0.23635 (Simulation time: 0 hr 32 min 49 sec) 
Heartbeat CPU  0 instructions:  553000000 cycles: 1982344250 heartbeat IPC: 0.24177 cumulative IPC: 0.23636 (Simulation time: 0 hr 32 min 53 sec) 
Heartbeat CPU  0 instructions:  554000000 cycles: 1986480499 heartbeat IPC: 0.24176 cumulative IPC: 0.23637 (Simulation time: 0 hr 32 min 57 sec) 
Heartbeat CPU  0 instructions:  555000001 cycles: 1990624211 heartbeat IPC: 0.24133 cumulative IPC: 0.23638 (Simulation time: 0 hr 33 min 1 sec) 
Heartbeat CPU  0 instructions:  556000000 cycles: 1994790982 heartbeat IPC: 0.23999 cumulative IPC: 0.23639 (Simulation time: 0 hr 33 min 5 sec) 
Heartbeat CPU  0 instructions:  557000001 cycles: 1998906860 heartbeat IPC: 0.24296 cumulative IPC: 0.23641 (Simulation time: 0 hr 33 min 9 sec) 
Heartbeat CPU  0 instructions:  558000001 cycles: 2003078558 heartbeat IPC: 0.23971 cumulative IPC: 0.23641 (Simulation time: 0 hr 33 min 13 sec) 
Heartbeat CPU  0 instructions:  559000002 cycles: 2007229722 heartbeat IPC: 0.24090 cumulative IPC: 0.23642 (Simulation time: 0 hr 33 min 17 sec) 
Heartbeat CPU  0 instructions:  560000000 cycles: 2011409312 heartbeat IPC: 0.23926 cumulative IPC: 0.23643 (Simulation time: 0 hr 33 min 21 sec) 
Heartbeat CPU  0 instructions:  561000001 cycles: 2015529215 heartbeat IPC: 0.24272 cumulative IPC: 0.23644 (Simulation time: 0 hr 33 min 25 sec) 
Heartbeat CPU  0 instructions:  562000002 cycles: 2019706214 heartbeat IPC: 0.23941 cumulative IPC: 0.23645 (Simulation time: 0 hr 33 min 28 sec) 
Heartbeat CPU  0 instructions:  563000002 cycles: 2023824289 heartbeat IPC: 0.24283 cumulative IPC: 0.23646 (Simulation time: 0 hr 33 min 32 sec) 
Heartbeat CPU  0 instructions:  564000000 cycles: 2027994213 heartbeat IPC: 0.23981 cumulative IPC: 0.23647 (Simulation time: 0 hr 33 min 36 sec) 
Heartbeat CPU  0 instructions:  565000002 cycles: 2032141709 heartbeat IPC: 0.24111 cumulative IPC: 0.23648 (Simulation time: 0 hr 33 min 40 sec) 
Heartbeat CPU  0 instructions:  566000001 cycles: 2036300915 heartbeat IPC: 0.24043 cumulative IPC: 0.23649 (Simulation time: 0 hr 33 min 44 sec) 
Heartbeat CPU  0 instructions:  567000000 cycles: 2040445277 heartbeat IPC: 0.24129 cumulative IPC: 0.23650 (Simulation time: 0 hr 33 min 48 sec) 
Heartbeat CPU  0 instructions:  568000000 cycles: 2044614568 heartbeat IPC: 0.23985 cumulative IPC: 0.23650 (Simulation time: 0 hr 33 min 52 sec) 
Heartbeat CPU  0 instructions:  569000002 cycles: 2048769658 heartbeat IPC: 0.24067 cumulative IPC: 0.23651 (Simulation time: 0 hr 33 min 56 sec) 
Heartbeat CPU  0 instructions:  570000000 cycles: 2052942371 heartbeat IPC: 0.23965 cumulative IPC: 0.23652 (Simulation time: 0 hr 34 min 0 sec) 
Heartbeat CPU  0 instructions:  571000003 cycles: 2057084633 heartbeat IPC: 0.24141 cumulative IPC: 0.23653 (Simulation time: 0 hr 34 min 4 sec) 
Heartbeat CPU  0 instructions:  572000000 cycles: 2061239507 heartbeat IPC: 0.24068 cumulative IPC: 0.23654 (Simulation time: 0 hr 34 min 8 sec) 
Heartbeat CPU  0 instructions:  573000000 cycles: 2065367734 heartbeat IPC: 0.24223 cumulative IPC: 0.23655 (Simulation time: 0 hr 34 min 12 sec) 
Heartbeat CPU  0 instructions:  574000000 cycles: 2069504595 heartbeat IPC: 0.24173 cumulative IPC: 0.23656 (Simulation time: 0 hr 34 min 15 sec) 
Heartbeat CPU  0 instructions:  575000002 cycles: 2073672015 heartbeat IPC: 0.23996 cumulative IPC: 0.23657 (Simulation time: 0 hr 34 min 19 sec) 
Heartbeat CPU  0 instructions:  576000000 cycles: 2077825139 heartbeat IPC: 0.24078 cumulative IPC: 0.23658 (Simulation time: 0 hr 34 min 23 sec) 
Heartbeat CPU  0 instructions:  577000000 cycles: 2081992377 heartbeat IPC: 0.23997 cumulative IPC: 0.23658 (Simulation time: 0 hr 34 min 27 sec) 
Heartbeat CPU  0 instructions:  578000001 cycles: 2086125817 heartbeat IPC: 0.24193 cumulative IPC: 0.23659 (Simulation time: 0 hr 34 min 31 sec) 
Heartbeat CPU  0 instructions:  579000002 cycles: 2090282783 heartbeat IPC: 0.24056 cumulative IPC: 0.23660 (Simulation time: 0 hr 34 min 35 sec) 
Heartbeat CPU  0 instructions:  580000000 cycles: 2094400595 heartbeat IPC: 0.24285 cumulative IPC: 0.23662 (Simulation time: 0 hr 34 min 39 sec) 
Heartbeat CPU  0 instructions:  581000000 cycles: 2098560606 heartbeat IPC: 0.24038 cumulative IPC: 0.23662 (Simulation time: 0 hr 34 min 43 sec) 
Heartbeat CPU  0 instructions:  582000001 cycles: 2102683798 heartbeat IPC: 0.24253 cumulative IPC: 0.23663 (Simulation time: 0 hr 34 min 47 sec) 
Heartbeat CPU  0 instructions:  583000001 cycles: 2106837651 heartbeat IPC: 0.24074 cumulative IPC: 0.23664 (Simulation time: 0 hr 34 min 51 sec) 
Heartbeat CPU  0 instructions:  584000000 cycles: 2110952553 heartbeat IPC: 0.24302 cumulative IPC: 0.23666 (Simulation time: 0 hr 34 min 55 sec) 
Heartbeat CPU  0 instructions:  585000000 cycles: 2115113648 heartbeat IPC: 0.24032 cumulative IPC: 0.23666 (Simulation time: 0 hr 34 min 58 sec) 
Heartbeat CPU  0 instructions:  586000000 cycles: 2119267331 heartbeat IPC: 0.24075 cumulative IPC: 0.23667 (Simulation time: 0 hr 35 min 2 sec) 
Heartbeat CPU  0 instructions:  587000001 cycles: 2123438398 heartbeat IPC: 0.23975 cumulative IPC: 0.23668 (Simulation time: 0 hr 35 min 6 sec) 
Heartbeat CPU  0 instructions:  588000000 cycles: 2127567592 heartbeat IPC: 0.24218 cumulative IPC: 0.23669 (Simulation time: 0 hr 35 min 10 sec) 
Heartbeat CPU  0 instructions:  589000000 cycles: 2131767426 heartbeat IPC: 0.23810 cumulative IPC: 0.23669 (Simulation time: 0 hr 35 min 14 sec) 
Heartbeat CPU  0 instructions:  590000001 cycles: 2135905359 heartbeat IPC: 0.24167 cumulative IPC: 0.23670 (Simulation time: 0 hr 35 min 18 sec) 
Heartbeat CPU  0 instructions:  591000002 cycles: 2140077392 heartbeat IPC: 0.23969 cumulative IPC: 0.23671 (Simulation time: 0 hr 35 min 22 sec) 
Heartbeat CPU  0 instructions:  592000000 cycles: 2144223319 heartbeat IPC: 0.24120 cumulative IPC: 0.23672 (Simulation time: 0 hr 35 min 26 sec) 
Heartbeat CPU  0 instructions:  593000003 cycles: 2148385680 heartbeat IPC: 0.24025 cumulative IPC: 0.23672 (Simulation time: 0 hr 35 min 30 sec) 
Heartbeat CPU  0 instructions:  594000000 cycles: 2152535121 heartbeat IPC: 0.24100 cumulative IPC: 0.23673 (Simulation time: 0 hr 35 min 34 sec) 
Heartbeat CPU  0 instructions:  595000001 cycles: 2156681114 heartbeat IPC: 0.24120 cumulative IPC: 0.23674 (Simulation time: 0 hr 35 min 38 sec) 
Heartbeat CPU  0 instructions:  596000000 cycles: 2160825977 heartbeat IPC: 0.24126 cumulative IPC: 0.23675 (Simulation time: 0 hr 35 min 42 sec) 
Heartbeat CPU  0 instructions:  597000002 cycles: 2164962883 heartbeat IPC: 0.24173 cumulative IPC: 0.23676 (Simulation time: 0 hr 35 min 45 sec) 
Heartbeat CPU  0 instructions:  598000001 cycles: 2169126675 heartbeat IPC: 0.24017 cumulative IPC: 0.23677 (Simulation time: 0 hr 35 min 49 sec) 
Heartbeat CPU  0 instructions:  599000000 cycles: 2173280485 heartbeat IPC: 0.24074 cumulative IPC: 0.23677 (Simulation time: 0 hr 35 min 53 sec) 
Heartbeat CPU  0 instructions:  600000000 cycles: 2177438401 heartbeat IPC: 0.24051 cumulative IPC: 0.23678 (Simulation time: 0 hr 35 min 57 sec) 
Finished CPU 0 instructions: 500000000 cycles: 2111648162 cumulative IPC: 0.23678 (Simulation time: 0 hr 35 min 57 sec) 

ChampSim completed all CPUs

[ROI Statistics]
Core_0_instructions 500000000
Core_0_cycles 2111648162
Core_0_IPC 0.23678

Core_0_branch_prediction_accuracy 97.89350
Core_0_branch_MPKI 0.73267
Core_0_average_ROB_occupancy_at_mispredict 252.54072

Core_0_L1D_total_access 234247302
Core_0_L1D_total_hit 224105468
Core_0_L1D_total_miss 10141834
Core_0_L1D_loads 199391010
Core_0_L1D_load_hit 189496170
Core_0_L1D_load_miss 9894840
Core_0_L1D_RFOs 34856292
Core_0_L1D_RFO_hit 34609298
Core_0_L1D_RFO_miss 246994
Core_0_L1D_prefetches 0
Core_0_L1D_prefetch_hit 0
Core_0_L1D_prefetch_miss 0
Core_0_L1D_writebacks 0
Core_0_L1D_writeback_hit 0
Core_0_L1D_writeback_miss 0
Core_0_L1D_prefetch_requested 0
Core_0_L1D_prefetch_dropped 0
Core_0_L1D_prefetch_issued 0
Core_0_L1D_prefetch_filled 0
Core_0_L1D_prefetch_useful 0
Core_0_L1D_prefetch_useless 0
Core_0_L1D_prefetch_late 0
Core_0_L1D_average_miss_latency 762.31652

Core_0_L1D_rq_access 254238161
Core_0_L1D_rq_forward 0
Core_0_L1D_rq_merged 53070320
Core_0_L1D_rq_to_cache 201167841
Core_0_L1D_rq_full 0

Core_0_L1D_wq_access 36392435
Core_0_L1D_wq_forward 0
Core_0_L1D_wq_merged 0
Core_0_L1D_wq_to_cache 36392435
Core_0_L1D_wq_full 0

Core_0_L1D_pq_access 0
Core_0_L1D_pq_forward 0
Core_0_L1D_pq_merged 0
Core_0_L1D_pq_to_cache 0
Core_0_L1D_pq_full 0

Core_0_L1D_acc_epochs 2112701
Core_0_L1D_acc_level_0 2112701
Core_0_L1D_acc_level_1 0
Core_0_L1D_acc_level_2 0
Core_0_L1D_acc_level_3 0
Core_0_L1D_acc_level_4 0
Core_0_L1D_acc_level_5 0
Core_0_L1D_acc_level_6 0
Core_0_L1D_acc_level_7 0
Core_0_L1D_acc_level_8 0
Core_0_L1D_acc_level_9 0

Core_0_L1I_total_access 115238366
Core_0_L1I_total_hit 115238312
Core_0_L1I_total_miss 54
Core_0_L1I_loads 115238366
Core_0_L1I_load_hit 115238312
Core_0_L1I_load_miss 54
Core_0_L1I_RFOs 0
Core_0_L1I_RFO_hit 0
Core_0_L1I_RFO_miss 0
Core_0_L1I_prefetches 0
Core_0_L1I_prefetch_hit 0
Core_0_L1I_prefetch_miss 0
Core_0_L1I_writebacks 0
Core_0_L1I_writeback_hit 0
Core_0_L1I_writeback_miss 0
Core_0_L1I_prefetch_requested 0
Core_0_L1I_prefetch_dropped 0
Core_0_L1I_prefetch_issued 0
Core_0_L1I_prefetch_filled 0
Core_0_L1I_prefetch_useful 0
Core_0_L1I_prefetch_useless 0
Core_0_L1I_prefetch_late 0
Core_0_L1I_average_miss_latency 1467.94444

Core_0_L1I_rq_access 500000250
Core_0_L1I_rq_forward 0
Core_0_L1I_rq_merged 384761872
Core_0_L1I_rq_to_cache 115238378
Core_0_L1I_rq_full 0

Core_0_L1I_wq_access 0
Core_0_L1I_wq_forward 0
Core_0_L1I_wq_merged 0
Core_0_L1I_wq_to_cache 0
Core_0_L1I_wq_full 0

Core_0_L1I_pq_access 0
Core_0_L1I_pq_forward 0
Core_0_L1I_pq_merged 0
Core_0_L1I_pq_to_cache 0
Core_0_L1I_pq_full 0

Core_0_L1I_acc_epochs 2112701
Core_0_L1I_acc_level_0 2112701
Core_0_L1I_acc_level_1 0
Core_0_L1I_acc_level_2 0
Core_0_L1I_acc_level_3 0
Core_0_L1I_acc_level_4 0
Core_0_L1I_acc_level_5 0
Core_0_L1I_acc_level_6 0
Core_0_L1I_acc_level_7 0
Core_0_L1I_acc_level_8 0
Core_0_L1I_acc_level_9 0

Core_0_L2C_total_access 17883800
Core_0_L2C_total_hit 8613354
Core_0_L2C_total_miss 9270446
Core_0_L2C_loads 9891272
Core_0_L2C_load_hit 8126121
Core_0_L2C_load_miss 1765151
Core_0_L2C_RFOs 244964
Core_0_L2C_RFO_hit 24737
Core_0_L2C_RFO_miss 220227
Core_0_L2C_prefetches 7297524
Core_0_L2C_prefetch_hit 15048
Core_0_L2C_prefetch_miss 7282476
Core_0_L2C_writebacks 450040
Core_0_L2C_writeback_hit 447448
Core_0_L2C_writeback_miss 2592
Core_0_L2C_prefetch_requested 9504518
Core_0_L2C_prefetch_dropped 0
Core_0_L2C_prefetch_issued 9504518
Core_0_L2C_prefetch_filled 8974305
Core_0_L2C_prefetch_useful 8972884
Core_0_L2C_prefetch_useless 1289
Core_0_L2C_prefetch_late 470007
Core_0_L2C_average_miss_latency 3899.39855

Core_0_L2C_rq_access 10141888
Core_0_L2C_rq_forward 0
Core_0_L2C_rq_merged 0
Core_0_L2C_rq_to_cache 10136236
Core_0_L2C_rq_full 0

Core_0_L2C_wq_access 450040
Core_0_L2C_wq_forward 5652
Core_0_L2C_wq_merged 0
Core_0_L2C_wq_to_cache 450040
Core_0_L2C_wq_full 0

Core_0_L2C_pq_access 9504518
Core_0_L2C_pq_forward 0
Core_0_L2C_pq_merged 0
Core_0_L2C_pq_to_cache 9504518
Core_0_L2C_pq_full 0

Core_0_L2C_acc_epochs 2112701
Core_0_L2C_acc_level_0 777043
Core_0_L2C_acc_level_1 255701
Core_0_L2C_acc_level_2 161236
Core_0_L2C_acc_level_3 105730
Core_0_L2C_acc_level_4 56879
Core_0_L2C_acc_level_5 87678
Core_0_L2C_acc_level_6 51387
Core_0_L2C_acc_level_7 45673
Core_0_L2C_acc_level_8 35545
Core_0_L2C_acc_level_9 535829

Core_0_LLC_total_access 9660984
Core_0_LLC_total_hit 44336
Core_0_LLC_total_miss 9616648
Core_0_LLC_loads 1295449
Core_0_LLC_load_hit 3123
Core_0_LLC_load_miss 1292326
Core_0_LLC_RFOs 220227
Core_0_LLC_RFO_hit 0
Core_0_LLC_RFO_miss 220227
Core_0_LLC_prefetches 7752188
Core_0_LLC_prefetch_hit 30850
Core_0_LLC_prefetch_miss 7721338
Core_0_LLC_writebacks 393120
Core_0_LLC_writeback_hit 10363
Core_0_LLC_writeback_miss 382757
Core_0_LLC_prefetch_requested 0
Core_0_LLC_prefetch_dropped 0
Core_0_LLC_prefetch_issued 0
Core_0_LLC_prefetch_filled 9410942
Core_0_LLC_prefetch_useful 94
Core_0_LLC_prefetch_useless 9409187
Core_0_LLC_prefetch_late 0
Core_0_LLC_average_miss_latency 3876.98789

Core_0_LLC_rq_access 1515676
Core_0_LLC_rq_forward 0
Core_0_LLC_rq_merged 0
Core_0_LLC_rq_to_cache 1515676
Core_0_LLC_rq_full 0

Core_0_LLC_wq_access 393120
Core_0_LLC_wq_forward 1
Core_0_LLC_wq_merged 0
Core_0_LLC_wq_to_cache 393120
Core_0_LLC_wq_full 0

Core_0_LLC_pq_access 9444323
Core_0_LLC_pq_forward 0
Core_0_LLC_pq_merged 0
Core_0_LLC_pq_to_cache 9444322
Core_0_LLC_pq_full 0

Core_0_LLC_acc_epochs 2126405
Core_0_LLC_acc_level_0 2126398
Core_0_LLC_acc_level_1 3
Core_0_LLC_acc_level_2 2
Core_0_LLC_acc_level_3 0
Core_0_LLC_acc_level_4 0
Core_0_LLC_acc_level_5 2
Core_0_LLC_acc_level_6 0
Core_0_LLC_acc_level_7 0
Core_0_LLC_acc_level_8 0
Core_0_LLC_acc_level_9 0

Core_0_major_page_fault 0
Core_0_minor_page_fault 104619

[Bingo] PHT Access: 342980
[Bingo] PHT Hit PC+Addr: 4987
[Bingo] PHT Hit PC+Offs: 337212
[Bingo] PHT Miss: 781
[Bingo] Prefetch PC+Addr: 0
[Bingo] Prefetch PC+Offs: 0
[Bingo] Useful PC+Addr: 0
[Bingo] Useful PC+Offs: 0
[Bingo] Useless PC+Addr: 0
[Bingo] Useless PC+Offs: 0
[Bingo] L1 Prefetch per Region: 0.00000
[Bingo] L2 Prefetch per Region: 31.69130
[Bingo] L3 Prefetch per Region: 0.00003
[Bingo] No Prefetch per Region: 0.30867
[Bingo] Number of Voters Mean: 15.97665
[Bingo] Number of Voters SD: 0.39270

Channel_0_RQ_row_buffer_hit 7544973
Channel_0_RQ_row_buffer_miss 1688918
Channel_0_WQ_row_buffer_hit 104573
Channel_0_WQ_row_buffer_miss 283303
Channel_0_WQ_full 0
Channel_0_dbus_congested 9571607

avg_congested_cycle 207

DRAM_bw_pochs 8505619
DRAM_bw_level_0 6283184
DRAM_bw_level_1 0
DRAM_bw_level_2 0
DRAM_bw_level_3 2222435
