*************************************************
   ChampSim Multicore Out-of-Order Simulator
   Last compiled: Dec 11 2024 17:59:53
*************************************************
parsing config file: /home/functionmain/桌面/Pythia/config/pythia.ini

trace_0 /home/functionmain/桌面/Pythia/traces/410.bwaves-1963B.champsimtrace.xz
adding L2C_PREFETCHER: Scooby
Initialize SHIP state
warmup_instructions 100000000
simulation_instructions 500000000
champsim_seed 277
measure_ipc 0
measure_ipc_epoch 1000
measure_dram_bw 1
measure_dram_bw_epoch 256
measure_cache_acc 1
measure_cache_acc_epoch 1024
l1d_perfect 0
l2c_perfect 0
llc_perfect 0
l1d_semi_perfect 0
l2c_semi_perfect 0
llc_semi_perfect 0
semi_perfect_cache_page_buffer_size 64

num_cpus 1
cpu_freq 4000
dram_io_freq 2400
page_size 4096
block_size 64
max_read_per_cycle 8
max_fill_per_cycle 1
dram_channels 1
log2_dram_channels 0
dram_ranks 1
dram_banks 8
dram_rows 65536
dram_columns 128
dram_row_size 8
dram_size 4096
dram_pages 1048576

fetch_width 6
decode_width 6
exec_width 4
lq_width 2
sq_width 2
retire_width 4
scheduler_size 128
branch_mispredict_penalty 20
rob_size 256
lq_size 72
sq_size 56
num_instr_destinations_sparc 4
num_instr_destinations 2
num_instr_sources 4

itlb_set 16
itlb_way 8
itlb_rq_size 16
itlb_wq_size 16
itlb_pq_size 0
itlb_mshr_size 8
itlb_latency 1

dtlb_set 16
dtlb_way 4
dtlb_rq_size 16
dtlb_wq_size 16
dtlb_pq_size 0
dtlb_mshr_size 8
dtlb_latency 1

stlb_set 128
stlb_way 12
stlb_rq_size 32
stlb_wq_size 32
stlb_pq_size 0
stlb_mshr_size 16
stlb_latency 8

l1i_size 32
l1i_set 64
l1i_way 8
l1i_rq_size 64
l1i_wq_size 64
l1i_pq_size 8
l1i_mshr_size 8
l1i_latency 1

l1d_size 32
l1d_set 64
l1d_way 8
l1d_rq_size 64
l1d_wq_size 64
l1d_pq_size 8
l1d_mshr_size 16
l1d_latency 4

l2c_size 256
l2c_set 512
l2c_way 8
l2c_rq_size 32
l2c_wq_size 32
l2c_pq_size 32
l2c_mshr_size 32
l2c_latency 10

llc_size 2048
llc_set 2048
llc_way 16
llc_rq_size 32
llc_wq_size 32
llc_pq_size 32
llc_mshr_size 64
llc_latency 20

dram_channel_width 8
dram_wq_size 64
dram_rq_size 64
tRP 15
tRCD 15
tCAS 12.5
dram_dbus_turn_around_time 30
dram_write_high_wm 56
dram_write_low_wm 48
min_dram_writes_per_switch 16
dram_mtps 2400
dram_dbus_return_time 13

scooby_alpha 0.0065088
scooby_gamma 0.556301
scooby_epsilon 0.00182284
scooby_state_num_bits 10
scooby_max_states 1024
scooby_seed 200
scooby_policy EGreedy
scooby_learning_type SARSA
scooby_actions 1,3,4,5,10,11,12,22,23,30,32,-1,-3,-6,0,
scooby_max_actions 15
scooby_pt_size 256
scooby_st_size 64
scooby_max_pcs 5
scooby_max_offsets 5
scooby_max_deltas 5
scooby_reward_none -4
scooby_reward_incorrect -8
scooby_reward_correct_untimely 12
scooby_reward_correct_timely 20
scooby_brain_zero_init 0
scooby_enable_reward_all 0
scooby_enable_track_multiple 0
scooby_enable_reward_out_of_bounds 1
scooby_reward_out_of_bounds -12
scooby_state_type 1
scooby_state_hash_type 11
scooby_access_debug 0
scooby_print_access_debug 0
scooby_print_access_debug_pc deadbeef
scooby_print_access_debug_pc_count 0
scooby_print_trace 0
scooby_enable_state_action_stats 1
scooby_enable_reward_tracker_hit 0
scooby_reward_tracker_hit -2
scooby_enable_featurewise_engine 1
scooby_pref_degree 1
scooby_enable_dyn_degree 1
scooby_max_to_avg_q_thresholds 0.5,1,2,
scooby_dyn_degrees 1,2,4,4,
scooby_multi_deg_select_type 2
scooby_last_pref_offset_conf_thresholds 1,3,8,
scooby_dyn_degrees_type2 1,2,4,6,
scooby_action_tracker_size 2
scooby_high_bw_thresh 4
scooby_enable_hbw_reward 1
scooby_reward_hbw_correct_timely 20
scooby_reward_hbw_correct_untimely 12
scooby_reward_hbw_incorrect -14
scooby_reward_hbw_none -2
scooby_reward_hbw_out_of_bounds -12
scooby_reward_hbw_tracker_hit -2
scooby_last_pref_offset_conf_thresholds_hbw 1,3,8,
scooby_dyn_degrees_type2_hbw 1,2,4,6,

le_enable_trace 0
le_trace_interval 0
le_trace_file_name 
le_trace_state 0
le_enable_score_plot 0
le_plot_file_name 
le_plot_actions 
le_enable_action_trace 0
le_action_trace_interval 0
le_action_trace_name 
le_enable_action_plot 0

le_featurewise_active_features PC, PC_Delta
le_featurewise_num_tilings 3,3,
le_featurewise_num_tiles 128,128,
le_featurewise_hash_types 2,2,
le_featurewise_enable_tiling_offset 1,1,
le_featurewise_max_q_thresh 0.5
le_featurewise_enable_action_fallback 1
le_featurewise_feature_weights 1,1,
le_featurewise_enable_dynamic_weight 0
le_featurewise_weight_gradient 0.001
le_featurewise_disable_adjust_weight_all_features_align 1
le_featurewise_selective_update 0
le_featurewise_pooling_type 2
le_featurewise_enable_dyn_action_fallback 1
le_featurewise_bw_acc_check_level 1
le_featurewise_acc_thresh 2
le_featurewise_enable_trace 0
le_featurewise_trace_feature_type 0
le_featurewise_trace_feature 
le_featurewise_trace_interval 0
le_featurewise_trace_record_count 0
le_featurewise_trace_file_name 
le_featurewise_enable_score_plot 0
le_featurewise_plot_actions 
le_featurewise_plot_file_name 


Heartbeat CPU  0 instructions:    1000002 cycles:     658255 heartbeat IPC: 1.51917 cumulative IPC: 1.51917 (Simulation time: 0 hr 0 min 2 sec) 
Heartbeat CPU  0 instructions:    2000002 cycles:    1316145 heartbeat IPC: 1.52001 cumulative IPC: 1.51959 (Simulation time: 0 hr 0 min 4 sec) 
Heartbeat CPU  0 instructions:    3000002 cycles:    1974117 heartbeat IPC: 1.51982 cumulative IPC: 1.51967 (Simulation time: 0 hr 0 min 7 sec) 
Heartbeat CPU  0 instructions:    4000000 cycles:    2632000 heartbeat IPC: 1.52002 cumulative IPC: 1.51976 (Simulation time: 0 hr 0 min 9 sec) 
Heartbeat CPU  0 instructions:    5000002 cycles:    3290056 heartbeat IPC: 1.51963 cumulative IPC: 1.51973 (Simulation time: 0 hr 0 min 11 sec) 
Heartbeat CPU  0 instructions:    6000002 cycles:    3947997 heartbeat IPC: 1.51989 cumulative IPC: 1.51976 (Simulation time: 0 hr 0 min 14 sec) 
Heartbeat CPU  0 instructions:    7000000 cycles:    4605956 heartbeat IPC: 1.51985 cumulative IPC: 1.51977 (Simulation time: 0 hr 0 min 16 sec) 
Heartbeat CPU  0 instructions:    8000000 cycles:    5263831 heartbeat IPC: 1.52005 cumulative IPC: 1.51981 (Simulation time: 0 hr 0 min 19 sec) 
Heartbeat CPU  0 instructions:    9000001 cycles:    5921719 heartbeat IPC: 1.52002 cumulative IPC: 1.51983 (Simulation time: 0 hr 0 min 21 sec) 
Heartbeat CPU  0 instructions:   10000002 cycles:    6579623 heartbeat IPC: 1.51998 cumulative IPC: 1.51984 (Simulation time: 0 hr 0 min 23 sec) 
Heartbeat CPU  0 instructions:   11000001 cycles:    7237560 heartbeat IPC: 1.51990 cumulative IPC: 1.51985 (Simulation time: 0 hr 0 min 26 sec) 
Heartbeat CPU  0 instructions:   12000000 cycles:    7895383 heartbeat IPC: 1.52016 cumulative IPC: 1.51988 (Simulation time: 0 hr 0 min 28 sec) 
Heartbeat CPU  0 instructions:   13000001 cycles:    8553369 heartbeat IPC: 1.51979 cumulative IPC: 1.51987 (Simulation time: 0 hr 0 min 30 sec) 
Heartbeat CPU  0 instructions:   14000001 cycles:    9211162 heartbeat IPC: 1.52024 cumulative IPC: 1.51990 (Simulation time: 0 hr 0 min 33 sec) 
Heartbeat CPU  0 instructions:   15000000 cycles:    9868946 heartbeat IPC: 1.52025 cumulative IPC: 1.51992 (Simulation time: 0 hr 0 min 35 sec) 
Heartbeat CPU  0 instructions:   16000000 cycles:   10526767 heartbeat IPC: 1.52017 cumulative IPC: 1.51993 (Simulation time: 0 hr 0 min 38 sec) 
Heartbeat CPU  0 instructions:   17000002 cycles:   11184678 heartbeat IPC: 1.51997 cumulative IPC: 1.51994 (Simulation time: 0 hr 0 min 40 sec) 
Heartbeat CPU  0 instructions:   18000000 cycles:   11842519 heartbeat IPC: 1.52012 cumulative IPC: 1.51995 (Simulation time: 0 hr 0 min 42 sec) 
Heartbeat CPU  0 instructions:   19000001 cycles:   12500345 heartbeat IPC: 1.52016 cumulative IPC: 1.51996 (Simulation time: 0 hr 0 min 45 sec) 
Heartbeat CPU  0 instructions:   20000000 cycles:   13158142 heartbeat IPC: 1.52022 cumulative IPC: 1.51997 (Simulation time: 0 hr 0 min 47 sec) 
Heartbeat CPU  0 instructions:   21000003 cycles:   13816022 heartbeat IPC: 1.52004 cumulative IPC: 1.51997 (Simulation time: 0 hr 0 min 50 sec) 
Heartbeat CPU  0 instructions:   22000001 cycles:   14473780 heartbeat IPC: 1.52031 cumulative IPC: 1.51999 (Simulation time: 0 hr 0 min 52 sec) 
Heartbeat CPU  0 instructions:   23000001 cycles:   15131609 heartbeat IPC: 1.52015 cumulative IPC: 1.52000 (Simulation time: 0 hr 0 min 54 sec) 
Heartbeat CPU  0 instructions:   24000000 cycles:   15789343 heartbeat IPC: 1.52037 cumulative IPC: 1.52001 (Simulation time: 0 hr 0 min 57 sec) 
Heartbeat CPU  0 instructions:   25000001 cycles:   16447309 heartbeat IPC: 1.51984 cumulative IPC: 1.52001 (Simulation time: 0 hr 0 min 59 sec) 
Heartbeat CPU  0 instructions:   26000003 cycles:   17104975 heartbeat IPC: 1.52053 cumulative IPC: 1.52003 (Simulation time: 0 hr 1 min 1 sec) 
Heartbeat CPU  0 instructions:   27000000 cycles:   17762812 heartbeat IPC: 1.52013 cumulative IPC: 1.52003 (Simulation time: 0 hr 1 min 4 sec) 
Heartbeat CPU  0 instructions:   28000000 cycles:   18420599 heartbeat IPC: 1.52025 cumulative IPC: 1.52004 (Simulation time: 0 hr 1 min 6 sec) 
Heartbeat CPU  0 instructions:   29000000 cycles:   19078508 heartbeat IPC: 1.51997 cumulative IPC: 1.52004 (Simulation time: 0 hr 1 min 9 sec) 
Heartbeat CPU  0 instructions:   30000001 cycles:   19736311 heartbeat IPC: 1.52021 cumulative IPC: 1.52004 (Simulation time: 0 hr 1 min 11 sec) 
Heartbeat CPU  0 instructions:   31000002 cycles:   20394223 heartbeat IPC: 1.51996 cumulative IPC: 1.52004 (Simulation time: 0 hr 1 min 13 sec) 
Heartbeat CPU  0 instructions:   32000000 cycles:   21052135 heartbeat IPC: 1.51996 cumulative IPC: 1.52004 (Simulation time: 0 hr 1 min 16 sec) 
Heartbeat CPU  0 instructions:   33000000 cycles:   21710143 heartbeat IPC: 1.51974 cumulative IPC: 1.52003 (Simulation time: 0 hr 1 min 18 sec) 
Heartbeat CPU  0 instructions:   34000002 cycles:   22368059 heartbeat IPC: 1.51995 cumulative IPC: 1.52002 (Simulation time: 0 hr 1 min 20 sec) 
Heartbeat CPU  0 instructions:   35000001 cycles:   23025990 heartbeat IPC: 1.51991 cumulative IPC: 1.52002 (Simulation time: 0 hr 1 min 23 sec) 
Heartbeat CPU  0 instructions:   36000000 cycles:   23683930 heartbeat IPC: 1.51989 cumulative IPC: 1.52002 (Simulation time: 0 hr 1 min 25 sec) 
Heartbeat CPU  0 instructions:   37000002 cycles:   24341918 heartbeat IPC: 1.51979 cumulative IPC: 1.52001 (Simulation time: 0 hr 1 min 28 sec) 
Heartbeat CPU  0 instructions:   38000000 cycles:   24999815 heartbeat IPC: 1.51999 cumulative IPC: 1.52001 (Simulation time: 0 hr 1 min 30 sec) 
Heartbeat CPU  0 instructions:   39000000 cycles:   25657831 heartbeat IPC: 1.51972 cumulative IPC: 1.52000 (Simulation time: 0 hr 1 min 32 sec) 
Heartbeat CPU  0 instructions:   40000000 cycles:   26315677 heartbeat IPC: 1.52011 cumulative IPC: 1.52001 (Simulation time: 0 hr 1 min 35 sec) 
Heartbeat CPU  0 instructions:   41000000 cycles:   26973686 heartbeat IPC: 1.51974 cumulative IPC: 1.52000 (Simulation time: 0 hr 1 min 37 sec) 
Heartbeat CPU  0 instructions:   42000003 cycles:   27631624 heartbeat IPC: 1.51990 cumulative IPC: 1.52000 (Simulation time: 0 hr 1 min 40 sec) 
Heartbeat CPU  0 instructions:   43000001 cycles:   28289484 heartbeat IPC: 1.52008 cumulative IPC: 1.52000 (Simulation time: 0 hr 1 min 42 sec) 
Heartbeat CPU  0 instructions:   44000000 cycles:   28947290 heartbeat IPC: 1.52020 cumulative IPC: 1.52000 (Simulation time: 0 hr 1 min 44 sec) 
Heartbeat CPU  0 instructions:   45000000 cycles:   29605151 heartbeat IPC: 1.52008 cumulative IPC: 1.52001 (Simulation time: 0 hr 1 min 47 sec) 
Heartbeat CPU  0 instructions:   46000001 cycles:   30262990 heartbeat IPC: 1.52013 cumulative IPC: 1.52001 (Simulation time: 0 hr 1 min 49 sec) 
Heartbeat CPU  0 instructions:   47000003 cycles:   30920844 heartbeat IPC: 1.52010 cumulative IPC: 1.52001 (Simulation time: 0 hr 1 min 52 sec) 
Heartbeat CPU  0 instructions:   48000000 cycles:   31578529 heartbeat IPC: 1.52048 cumulative IPC: 1.52002 (Simulation time: 0 hr 1 min 54 sec) 
Heartbeat CPU  0 instructions:   49000000 cycles:   32236305 heartbeat IPC: 1.52027 cumulative IPC: 1.52003 (Simulation time: 0 hr 1 min 56 sec) 
Heartbeat CPU  0 instructions:   50000003 cycles:   32894232 heartbeat IPC: 1.51993 cumulative IPC: 1.52002 (Simulation time: 0 hr 1 min 59 sec) 
Heartbeat CPU  0 instructions:   51000000 cycles:   33552053 heartbeat IPC: 1.52017 cumulative IPC: 1.52003 (Simulation time: 0 hr 2 min 1 sec) 
Heartbeat CPU  0 instructions:   52000000 cycles:   34209861 heartbeat IPC: 1.52020 cumulative IPC: 1.52003 (Simulation time: 0 hr 2 min 4 sec) 
Heartbeat CPU  0 instructions:   53000003 cycles:   34867754 heartbeat IPC: 1.52001 cumulative IPC: 1.52003 (Simulation time: 0 hr 2 min 6 sec) 
Heartbeat CPU  0 instructions:   54000001 cycles:   35525629 heartbeat IPC: 1.52004 cumulative IPC: 1.52003 (Simulation time: 0 hr 2 min 8 sec) 
Heartbeat CPU  0 instructions:   55000003 cycles:   36183481 heartbeat IPC: 1.52010 cumulative IPC: 1.52003 (Simulation time: 0 hr 2 min 11 sec) 
Heartbeat CPU  0 instructions:   56000000 cycles:   36841344 heartbeat IPC: 1.52007 cumulative IPC: 1.52003 (Simulation time: 0 hr 2 min 13 sec) 
Heartbeat CPU  0 instructions:   57000001 cycles:   37499076 heartbeat IPC: 1.52038 cumulative IPC: 1.52004 (Simulation time: 0 hr 2 min 15 sec) 
Heartbeat CPU  0 instructions:   58000000 cycles:   38157015 heartbeat IPC: 1.51990 cumulative IPC: 1.52004 (Simulation time: 0 hr 2 min 18 sec) 
Heartbeat CPU  0 instructions:   59000002 cycles:   38814971 heartbeat IPC: 1.51986 cumulative IPC: 1.52003 (Simulation time: 0 hr 2 min 20 sec) 
Heartbeat CPU  0 instructions:   60000000 cycles:   39472729 heartbeat IPC: 1.52031 cumulative IPC: 1.52004 (Simulation time: 0 hr 2 min 23 sec) 
Heartbeat CPU  0 instructions:   61000002 cycles:   40130772 heartbeat IPC: 1.51966 cumulative IPC: 1.52003 (Simulation time: 0 hr 2 min 25 sec) 
Heartbeat CPU  0 instructions:   62000001 cycles:   40788699 heartbeat IPC: 1.51992 cumulative IPC: 1.52003 (Simulation time: 0 hr 2 min 27 sec) 
Heartbeat CPU  0 instructions:   63000002 cycles:   41446647 heartbeat IPC: 1.51988 cumulative IPC: 1.52003 (Simulation time: 0 hr 2 min 30 sec) 
Heartbeat CPU  0 instructions:   64000000 cycles:   42104572 heartbeat IPC: 1.51993 cumulative IPC: 1.52002 (Simulation time: 0 hr 2 min 32 sec) 
Heartbeat CPU  0 instructions:   65000002 cycles:   42762592 heartbeat IPC: 1.51971 cumulative IPC: 1.52002 (Simulation time: 0 hr 2 min 35 sec) 
Heartbeat CPU  0 instructions:   66000002 cycles:   43420510 heartbeat IPC: 1.51995 cumulative IPC: 1.52002 (Simulation time: 0 hr 2 min 37 sec) 
Heartbeat CPU  0 instructions:   67000002 cycles:   44078412 heartbeat IPC: 1.51998 cumulative IPC: 1.52002 (Simulation time: 0 hr 2 min 39 sec) 
Heartbeat CPU  0 instructions:   68000000 cycles:   44736289 heartbeat IPC: 1.52004 cumulative IPC: 1.52002 (Simulation time: 0 hr 2 min 42 sec) 
Heartbeat CPU  0 instructions:   69000000 cycles:   45394288 heartbeat IPC: 1.51976 cumulative IPC: 1.52002 (Simulation time: 0 hr 2 min 44 sec) 
Heartbeat CPU  0 instructions:   70000003 cycles:   46052120 heartbeat IPC: 1.52015 cumulative IPC: 1.52002 (Simulation time: 0 hr 2 min 47 sec) 
Heartbeat CPU  0 instructions:   71000003 cycles:   46709919 heartbeat IPC: 1.52022 cumulative IPC: 1.52002 (Simulation time: 0 hr 2 min 49 sec) 
Heartbeat CPU  0 instructions:   72000000 cycles:   47367777 heartbeat IPC: 1.52008 cumulative IPC: 1.52002 (Simulation time: 0 hr 2 min 51 sec) 
Heartbeat CPU  0 instructions:   73000001 cycles:   48025657 heartbeat IPC: 1.52004 cumulative IPC: 1.52002 (Simulation time: 0 hr 2 min 54 sec) 
Heartbeat CPU  0 instructions:   74000002 cycles:   48683479 heartbeat IPC: 1.52017 cumulative IPC: 1.52002 (Simulation time: 0 hr 2 min 56 sec) 
Heartbeat CPU  0 instructions:   75000001 cycles:   49341363 heartbeat IPC: 1.52002 cumulative IPC: 1.52002 (Simulation time: 0 hr 2 min 59 sec) 
Heartbeat CPU  0 instructions:   76000000 cycles:   49999163 heartbeat IPC: 1.52022 cumulative IPC: 1.52003 (Simulation time: 0 hr 3 min 1 sec) 
Heartbeat CPU  0 instructions:   77000002 cycles:   50657043 heartbeat IPC: 1.52004 cumulative IPC: 1.52003 (Simulation time: 0 hr 3 min 3 sec) 
Heartbeat CPU  0 instructions:   78000000 cycles:   51315003 heartbeat IPC: 1.51985 cumulative IPC: 1.52002 (Simulation time: 0 hr 3 min 6 sec) 
Heartbeat CPU  0 instructions:   79000003 cycles:   51972817 heartbeat IPC: 1.52019 cumulative IPC: 1.52003 (Simulation time: 0 hr 3 min 8 sec) 
Heartbeat CPU  0 instructions:   80000000 cycles:   52630640 heartbeat IPC: 1.52016 cumulative IPC: 1.52003 (Simulation time: 0 hr 3 min 11 sec) 
Heartbeat CPU  0 instructions:   81000001 cycles:   53288580 heartbeat IPC: 1.51990 cumulative IPC: 1.52003 (Simulation time: 0 hr 3 min 13 sec) 
Heartbeat CPU  0 instructions:   82000001 cycles:   53946432 heartbeat IPC: 1.52010 cumulative IPC: 1.52003 (Simulation time: 0 hr 3 min 15 sec) 
Heartbeat CPU  0 instructions:   83000001 cycles:   54604204 heartbeat IPC: 1.52028 cumulative IPC: 1.52003 (Simulation time: 0 hr 3 min 18 sec) 
Heartbeat CPU  0 instructions:   84000000 cycles:   55262005 heartbeat IPC: 1.52022 cumulative IPC: 1.52003 (Simulation time: 0 hr 3 min 20 sec) 
Heartbeat CPU  0 instructions:   85000000 cycles:   55919919 heartbeat IPC: 1.51996 cumulative IPC: 1.52003 (Simulation time: 0 hr 3 min 23 sec) 
Heartbeat CPU  0 instructions:   86000002 cycles:   56577773 heartbeat IPC: 1.52010 cumulative IPC: 1.52003 (Simulation time: 0 hr 3 min 25 sec) 
Heartbeat CPU  0 instructions:   87000001 cycles:   57235726 heartbeat IPC: 1.51986 cumulative IPC: 1.52003 (Simulation time: 0 hr 3 min 27 sec) 
Heartbeat CPU  0 instructions:   88000000 cycles:   57893775 heartbeat IPC: 1.51964 cumulative IPC: 1.52003 (Simulation time: 0 hr 3 min 30 sec) 
Heartbeat CPU  0 instructions:   89000001 cycles:   58551723 heartbeat IPC: 1.51988 cumulative IPC: 1.52002 (Simulation time: 0 hr 3 min 32 sec) 
Heartbeat CPU  0 instructions:   90000003 cycles:   59209668 heartbeat IPC: 1.51989 cumulative IPC: 1.52002 (Simulation time: 0 hr 3 min 34 sec) 
Heartbeat CPU  0 instructions:   91000000 cycles:   59867567 heartbeat IPC: 1.51999 cumulative IPC: 1.52002 (Simulation time: 0 hr 3 min 37 sec) 
Heartbeat CPU  0 instructions:   92000000 cycles:   60525526 heartbeat IPC: 1.51985 cumulative IPC: 1.52002 (Simulation time: 0 hr 3 min 39 sec) 
Heartbeat CPU  0 instructions:   93000001 cycles:   61183449 heartbeat IPC: 1.51994 cumulative IPC: 1.52002 (Simulation time: 0 hr 3 min 42 sec) 
Heartbeat CPU  0 instructions:   94000001 cycles:   61841376 heartbeat IPC: 1.51993 cumulative IPC: 1.52002 (Simulation time: 0 hr 3 min 44 sec) 
Heartbeat CPU  0 instructions:   95000000 cycles:   62499243 heartbeat IPC: 1.52006 cumulative IPC: 1.52002 (Simulation time: 0 hr 3 min 46 sec) 
Heartbeat CPU  0 instructions:   96000000 cycles:   63157102 heartbeat IPC: 1.52008 cumulative IPC: 1.52002 (Simulation time: 0 hr 3 min 49 sec) 
Heartbeat CPU  0 instructions:   97000000 cycles:   63815095 heartbeat IPC: 1.51977 cumulative IPC: 1.52002 (Simulation time: 0 hr 3 min 51 sec) 
Heartbeat CPU  0 instructions:   98000001 cycles:   64473014 heartbeat IPC: 1.51995 cumulative IPC: 1.52002 (Simulation time: 0 hr 3 min 54 sec) 
Heartbeat CPU  0 instructions:   99000003 cycles:   65130907 heartbeat IPC: 1.52001 cumulative IPC: 1.52002 (Simulation time: 0 hr 3 min 56 sec) 
Heartbeat CPU  0 instructions:  100000000 cycles:   65788750 heartbeat IPC: 1.52012 cumulative IPC: 1.52002 (Simulation time: 0 hr 3 min 58 sec) 

Warmup complete CPU  0 instructions:  100000002 cycles:   65788753 (Simulation time: 0 hr 3 min 58 sec) 

Heartbeat CPU  0 instructions:  101000001 cycles:   66637124 heartbeat IPC: 1.17873 cumulative IPC: 1.17873 (Simulation time: 0 hr 4 min 1 sec) 
Heartbeat CPU  0 instructions:  102000000 cycles:   67485220 heartbeat IPC: 1.17911 cumulative IPC: 1.17892 (Simulation time: 0 hr 4 min 4 sec) 
Heartbeat CPU  0 instructions:  103000001 cycles:   68331798 heartbeat IPC: 1.18123 cumulative IPC: 1.17969 (Simulation time: 0 hr 4 min 6 sec) 
Heartbeat CPU  0 instructions:  104000000 cycles:   69182528 heartbeat IPC: 1.17546 cumulative IPC: 1.17863 (Simulation time: 0 hr 4 min 9 sec) 
Heartbeat CPU  0 instructions:  105000002 cycles:   70028707 heartbeat IPC: 1.18179 cumulative IPC: 1.17926 (Simulation time: 0 hr 4 min 12 sec) 
Heartbeat CPU  0 instructions:  106000000 cycles:   70875643 heartbeat IPC: 1.18072 cumulative IPC: 1.17950 (Simulation time: 0 hr 4 min 14 sec) 
Heartbeat CPU  0 instructions:  107000001 cycles:   71724859 heartbeat IPC: 1.17756 cumulative IPC: 1.17922 (Simulation time: 0 hr 4 min 17 sec) 
Heartbeat CPU  0 instructions:  108000000 cycles:   72573573 heartbeat IPC: 1.17825 cumulative IPC: 1.17910 (Simulation time: 0 hr 4 min 20 sec) 
Heartbeat CPU  0 instructions:  109000001 cycles:   73430778 heartbeat IPC: 1.16658 cumulative IPC: 1.17770 (Simulation time: 0 hr 4 min 22 sec) 
Heartbeat CPU  0 instructions:  110000000 cycles:   74278603 heartbeat IPC: 1.17949 cumulative IPC: 1.17788 (Simulation time: 0 hr 4 min 25 sec) 
Heartbeat CPU  0 instructions:  111000000 cycles:   75128712 heartbeat IPC: 1.17632 cumulative IPC: 1.17774 (Simulation time: 0 hr 4 min 28 sec) 
Heartbeat CPU  0 instructions:  112000000 cycles:   75978838 heartbeat IPC: 1.17630 cumulative IPC: 1.17762 (Simulation time: 0 hr 4 min 30 sec) 
Heartbeat CPU  0 instructions:  113000000 cycles:   76829202 heartbeat IPC: 1.17597 cumulative IPC: 1.17749 (Simulation time: 0 hr 4 min 33 sec) 
Heartbeat CPU  0 instructions:  114000002 cycles:   77678109 heartbeat IPC: 1.17799 cumulative IPC: 1.17752 (Simulation time: 0 hr 4 min 36 sec) 
Heartbeat CPU  0 instructions:  115000000 cycles:   78527379 heartbeat IPC: 1.17748 cumulative IPC: 1.17752 (Simulation time: 0 hr 4 min 38 sec) 
Heartbeat CPU  0 instructions:  116000000 cycles:   79377515 heartbeat IPC: 1.17628 cumulative IPC: 1.17744 (Simulation time: 0 hr 4 min 41 sec) 
Heartbeat CPU  0 instructions:  117000003 cycles:   80226579 heartbeat IPC: 1.17777 cumulative IPC: 1.17746 (Simulation time: 0 hr 4 min 44 sec) 
Heartbeat CPU  0 instructions:  118000000 cycles:   81075651 heartbeat IPC: 1.17775 cumulative IPC: 1.17748 (Simulation time: 0 hr 4 min 46 sec) 
Heartbeat CPU  0 instructions:  119000001 cycles:   81922922 heartbeat IPC: 1.18026 cumulative IPC: 1.17762 (Simulation time: 0 hr 4 min 49 sec) 
Heartbeat CPU  0 instructions:  120000000 cycles:   82772413 heartbeat IPC: 1.17717 cumulative IPC: 1.17760 (Simulation time: 0 hr 4 min 52 sec) 
Heartbeat CPU  0 instructions:  121000003 cycles:   83626310 heartbeat IPC: 1.17110 cumulative IPC: 1.17729 (Simulation time: 0 hr 4 min 54 sec) 
Heartbeat CPU  0 instructions:  122000000 cycles:   84476040 heartbeat IPC: 1.17684 cumulative IPC: 1.17727 (Simulation time: 0 hr 4 min 57 sec) 
Heartbeat CPU  0 instructions:  123000002 cycles:   85324554 heartbeat IPC: 1.17853 cumulative IPC: 1.17733 (Simulation time: 0 hr 5 min 0 sec) 
Heartbeat CPU  0 instructions:  124000000 cycles:   86176030 heartbeat IPC: 1.17443 cumulative IPC: 1.17720 (Simulation time: 0 hr 5 min 2 sec) 
Heartbeat CPU  0 instructions:  125000003 cycles:   87022978 heartbeat IPC: 1.18071 cumulative IPC: 1.17734 (Simulation time: 0 hr 5 min 5 sec) 
Heartbeat CPU  0 instructions:  126000002 cycles:   87871292 heartbeat IPC: 1.17881 cumulative IPC: 1.17740 (Simulation time: 0 hr 5 min 8 sec) 
Heartbeat CPU  0 instructions:  127000000 cycles:   88721288 heartbeat IPC: 1.17647 cumulative IPC: 1.17737 (Simulation time: 0 hr 5 min 10 sec) 
Heartbeat CPU  0 instructions:  128000000 cycles:   89568825 heartbeat IPC: 1.17989 cumulative IPC: 1.17746 (Simulation time: 0 hr 5 min 13 sec) 
Heartbeat CPU  0 instructions:  129000000 cycles:   90416075 heartbeat IPC: 1.18029 cumulative IPC: 1.17755 (Simulation time: 0 hr 5 min 16 sec) 
Heartbeat CPU  0 instructions:  130000001 cycles:   91265508 heartbeat IPC: 1.17726 cumulative IPC: 1.17754 (Simulation time: 0 hr 5 min 18 sec) 
Heartbeat CPU  0 instructions:  131000000 cycles:   92112529 heartbeat IPC: 1.18061 cumulative IPC: 1.17764 (Simulation time: 0 hr 5 min 21 sec) 
Heartbeat CPU  0 instructions:  132000000 cycles:   92962192 heartbeat IPC: 1.17694 cumulative IPC: 1.17762 (Simulation time: 0 hr 5 min 24 sec) 
Heartbeat CPU  0 instructions:  133000001 cycles:   93813566 heartbeat IPC: 1.17457 cumulative IPC: 1.17753 (Simulation time: 0 hr 5 min 26 sec) 
Heartbeat CPU  0 instructions:  134000000 cycles:   94665651 heartbeat IPC: 1.17359 cumulative IPC: 1.17741 (Simulation time: 0 hr 5 min 29 sec) 
Heartbeat CPU  0 instructions:  135000001 cycles:   95517048 heartbeat IPC: 1.17454 cumulative IPC: 1.17733 (Simulation time: 0 hr 5 min 32 sec) 
Heartbeat CPU  0 instructions:  136000000 cycles:   96364004 heartbeat IPC: 1.18070 cumulative IPC: 1.17742 (Simulation time: 0 hr 5 min 34 sec) 
Heartbeat CPU  0 instructions:  137000002 cycles:   97210894 heartbeat IPC: 1.18079 cumulative IPC: 1.17751 (Simulation time: 0 hr 5 min 37 sec) 
Heartbeat CPU  0 instructions:  138000000 cycles:   98063428 heartbeat IPC: 1.17297 cumulative IPC: 1.17739 (Simulation time: 0 hr 5 min 40 sec) 
Heartbeat CPU  0 instructions:  139000002 cycles:   98912700 heartbeat IPC: 1.17748 cumulative IPC: 1.17740 (Simulation time: 0 hr 5 min 42 sec) 
Heartbeat CPU  0 instructions:  140000000 cycles:   99757218 heartbeat IPC: 1.18411 cumulative IPC: 1.17756 (Simulation time: 0 hr 5 min 45 sec) 
Heartbeat CPU  0 instructions:  141000003 cycles:  100607219 heartbeat IPC: 1.17647 cumulative IPC: 1.17754 (Simulation time: 0 hr 5 min 48 sec) 
Heartbeat CPU  0 instructions:  142000001 cycles:  101458095 heartbeat IPC: 1.17526 cumulative IPC: 1.17748 (Simulation time: 0 hr 5 min 50 sec) 
Heartbeat CPU  0 instructions:  143000001 cycles:  102310822 heartbeat IPC: 1.17271 cumulative IPC: 1.17737 (Simulation time: 0 hr 5 min 53 sec) 
Heartbeat CPU  0 instructions:  144000000 cycles:  103161927 heartbeat IPC: 1.17494 cumulative IPC: 1.17731 (Simulation time: 0 hr 5 min 56 sec) 
Heartbeat CPU  0 instructions:  145000001 cycles:  104015601 heartbeat IPC: 1.17141 cumulative IPC: 1.17718 (Simulation time: 0 hr 5 min 58 sec) 
Heartbeat CPU  0 instructions:  146000003 cycles:  104865129 heartbeat IPC: 1.17713 cumulative IPC: 1.17718 (Simulation time: 0 hr 6 min 1 sec) 
Heartbeat CPU  0 instructions:  147000002 cycles:  105715387 heartbeat IPC: 1.17611 cumulative IPC: 1.17716 (Simulation time: 0 hr 6 min 4 sec) 
Heartbeat CPU  0 instructions:  148000000 cycles:  106563098 heartbeat IPC: 1.17964 cumulative IPC: 1.17721 (Simulation time: 0 hr 6 min 6 sec) 
Heartbeat CPU  0 instructions:  149000001 cycles:  107412799 heartbeat IPC: 1.17689 cumulative IPC: 1.17720 (Simulation time: 0 hr 6 min 9 sec) 
Heartbeat CPU  0 instructions:  150000002 cycles:  108259280 heartbeat IPC: 1.18136 cumulative IPC: 1.17729 (Simulation time: 0 hr 6 min 12 sec) 
Heartbeat CPU  0 instructions:  151000001 cycles:  109107792 heartbeat IPC: 1.17853 cumulative IPC: 1.17731 (Simulation time: 0 hr 6 min 14 sec) 
Heartbeat CPU  0 instructions:  152000000 cycles:  109956357 heartbeat IPC: 1.17846 cumulative IPC: 1.17733 (Simulation time: 0 hr 6 min 17 sec) 
Heartbeat CPU  0 instructions:  153000002 cycles:  110805014 heartbeat IPC: 1.17833 cumulative IPC: 1.17735 (Simulation time: 0 hr 6 min 20 sec) 
Heartbeat CPU  0 instructions:  154000001 cycles:  111658110 heartbeat IPC: 1.17220 cumulative IPC: 1.17726 (Simulation time: 0 hr 6 min 23 sec) 
Heartbeat CPU  0 instructions:  155000002 cycles:  112511865 heartbeat IPC: 1.17130 cumulative IPC: 1.17715 (Simulation time: 0 hr 6 min 25 sec) 
Heartbeat CPU  0 instructions:  156000000 cycles:  113363536 heartbeat IPC: 1.17416 cumulative IPC: 1.17709 (Simulation time: 0 hr 6 min 28 sec) 
Heartbeat CPU  0 instructions:  157000002 cycles:  114213176 heartbeat IPC: 1.17697 cumulative IPC: 1.17709 (Simulation time: 0 hr 6 min 31 sec) 
Heartbeat CPU  0 instructions:  158000000 cycles:  115065749 heartbeat IPC: 1.17292 cumulative IPC: 1.17702 (Simulation time: 0 hr 6 min 33 sec) 
Heartbeat CPU  0 instructions:  159000000 cycles:  115913675 heartbeat IPC: 1.17935 cumulative IPC: 1.17706 (Simulation time: 0 hr 6 min 36 sec) 
Heartbeat CPU  0 instructions:  160000000 cycles:  116761632 heartbeat IPC: 1.17931 cumulative IPC: 1.17710 (Simulation time: 0 hr 6 min 38 sec) 
Heartbeat CPU  0 instructions:  161000000 cycles:  117610195 heartbeat IPC: 1.17846 cumulative IPC: 1.17712 (Simulation time: 0 hr 6 min 41 sec) 
Heartbeat CPU  0 instructions:  162000000 cycles:  118458211 heartbeat IPC: 1.17922 cumulative IPC: 1.17715 (Simulation time: 0 hr 6 min 44 sec) 
Heartbeat CPU  0 instructions:  163000001 cycles:  119304715 heartbeat IPC: 1.18133 cumulative IPC: 1.17722 (Simulation time: 0 hr 6 min 46 sec) 
Heartbeat CPU  0 instructions:  164000000 cycles:  120157484 heartbeat IPC: 1.17265 cumulative IPC: 1.17715 (Simulation time: 0 hr 6 min 49 sec) 
Heartbeat CPU  0 instructions:  165000001 cycles:  121004448 heartbeat IPC: 1.18069 cumulative IPC: 1.17720 (Simulation time: 0 hr 6 min 52 sec) 
Heartbeat CPU  0 instructions:  166000002 cycles:  121858567 heartbeat IPC: 1.17080 cumulative IPC: 1.17710 (Simulation time: 0 hr 6 min 55 sec) 
Heartbeat CPU  0 instructions:  167000001 cycles:  122710051 heartbeat IPC: 1.17442 cumulative IPC: 1.17706 (Simulation time: 0 hr 6 min 57 sec) 
Heartbeat CPU  0 instructions:  168000000 cycles:  123562132 heartbeat IPC: 1.17360 cumulative IPC: 1.17701 (Simulation time: 0 hr 7 min 0 sec) 
Heartbeat CPU  0 instructions:  169000002 cycles:  124410816 heartbeat IPC: 1.17830 cumulative IPC: 1.17703 (Simulation time: 0 hr 7 min 3 sec) 
Heartbeat CPU  0 instructions:  170000001 cycles:  125262954 heartbeat IPC: 1.17352 cumulative IPC: 1.17698 (Simulation time: 0 hr 7 min 5 sec) 
Heartbeat CPU  0 instructions:  171000000 cycles:  126107535 heartbeat IPC: 1.18402 cumulative IPC: 1.17708 (Simulation time: 0 hr 7 min 8 sec) 
Heartbeat CPU  0 instructions:  172000000 cycles:  126955607 heartbeat IPC: 1.17915 cumulative IPC: 1.17711 (Simulation time: 0 hr 7 min 11 sec) 
Heartbeat CPU  0 instructions:  173000000 cycles:  127799244 heartbeat IPC: 1.18534 cumulative IPC: 1.17722 (Simulation time: 0 hr 7 min 13 sec) 
Heartbeat CPU  0 instructions:  174000000 cycles:  128646184 heartbeat IPC: 1.18072 cumulative IPC: 1.17727 (Simulation time: 0 hr 7 min 16 sec) 
Heartbeat CPU  0 instructions:  175000003 cycles:  129495504 heartbeat IPC: 1.17742 cumulative IPC: 1.17727 (Simulation time: 0 hr 7 min 19 sec) 
Heartbeat CPU  0 instructions:  176000000 cycles:  130347467 heartbeat IPC: 1.17376 cumulative IPC: 1.17722 (Simulation time: 0 hr 7 min 21 sec) 
Heartbeat CPU  0 instructions:  177000000 cycles:  131194647 heartbeat IPC: 1.18039 cumulative IPC: 1.17726 (Simulation time: 0 hr 7 min 24 sec) 
Heartbeat CPU  0 instructions:  178000002 cycles:  132048169 heartbeat IPC: 1.17162 cumulative IPC: 1.17719 (Simulation time: 0 hr 7 min 27 sec) 
Heartbeat CPU  0 instructions:  179000001 cycles:  132899829 heartbeat IPC: 1.17418 cumulative IPC: 1.17715 (Simulation time: 0 hr 7 min 29 sec) 
Heartbeat CPU  0 instructions:  180000000 cycles:  133750408 heartbeat IPC: 1.17567 cumulative IPC: 1.17713 (Simulation time: 0 hr 7 min 32 sec) 
Heartbeat CPU  0 instructions:  181000001 cycles:  134601784 heartbeat IPC: 1.17457 cumulative IPC: 1.17710 (Simulation time: 0 hr 7 min 35 sec) 
Heartbeat CPU  0 instructions:  182000000 cycles:  135449776 heartbeat IPC: 1.17926 cumulative IPC: 1.17713 (Simulation time: 0 hr 7 min 37 sec) 
Heartbeat CPU  0 instructions:  183000002 cycles:  136299225 heartbeat IPC: 1.17724 cumulative IPC: 1.17713 (Simulation time: 0 hr 7 min 40 sec) 
Heartbeat CPU  0 instructions:  184000000 cycles:  137145426 heartbeat IPC: 1.18175 cumulative IPC: 1.17718 (Simulation time: 0 hr 7 min 43 sec) 
Heartbeat CPU  0 instructions:  185000000 cycles:  137994101 heartbeat IPC: 1.17831 cumulative IPC: 1.17720 (Simulation time: 0 hr 7 min 45 sec) 
Heartbeat CPU  0 instructions:  186000000 cycles:  138839583 heartbeat IPC: 1.18276 cumulative IPC: 1.17726 (Simulation time: 0 hr 7 min 48 sec) 
Heartbeat CPU  0 instructions:  187000003 cycles:  139690079 heartbeat IPC: 1.17579 cumulative IPC: 1.17725 (Simulation time: 0 hr 7 min 51 sec) 
Heartbeat CPU  0 instructions:  188000000 cycles:  140538841 heartbeat IPC: 1.17818 cumulative IPC: 1.17726 (Simulation time: 0 hr 7 min 53 sec) 
Heartbeat CPU  0 instructions:  189000000 cycles:  141392485 heartbeat IPC: 1.17145 cumulative IPC: 1.17719 (Simulation time: 0 hr 7 min 56 sec) 
Heartbeat CPU  0 instructions:  190000003 cycles:  142240496 heartbeat IPC: 1.17923 cumulative IPC: 1.17721 (Simulation time: 0 hr 7 min 59 sec) 
Heartbeat CPU  0 instructions:  191000001 cycles:  143091437 heartbeat IPC: 1.17517 cumulative IPC: 1.17719 (Simulation time: 0 hr 8 min 1 sec) 
Heartbeat CPU  0 instructions:  192000000 cycles:  143940786 heartbeat IPC: 1.17737 cumulative IPC: 1.17719 (Simulation time: 0 hr 8 min 4 sec) 
Heartbeat CPU  0 instructions:  193000001 cycles:  144791434 heartbeat IPC: 1.17558 cumulative IPC: 1.17718 (Simulation time: 0 hr 8 min 7 sec) 
Heartbeat CPU  0 instructions:  194000001 cycles:  145635959 heartbeat IPC: 1.18410 cumulative IPC: 1.17725 (Simulation time: 0 hr 8 min 9 sec) 
Heartbeat CPU  0 instructions:  195000002 cycles:  146484851 heartbeat IPC: 1.17801 cumulative IPC: 1.17726 (Simulation time: 0 hr 8 min 12 sec) 
Heartbeat CPU  0 instructions:  196000000 cycles:  147334360 heartbeat IPC: 1.17715 cumulative IPC: 1.17726 (Simulation time: 0 hr 8 min 15 sec) 
Heartbeat CPU  0 instructions:  197000001 cycles:  148182919 heartbeat IPC: 1.17847 cumulative IPC: 1.17727 (Simulation time: 0 hr 8 min 17 sec) 
Heartbeat CPU  0 instructions:  198000002 cycles:  149031615 heartbeat IPC: 1.17828 cumulative IPC: 1.17728 (Simulation time: 0 hr 8 min 20 sec) 
Heartbeat CPU  0 instructions:  199000003 cycles:  149879623 heartbeat IPC: 1.17924 cumulative IPC: 1.17730 (Simulation time: 0 hr 8 min 23 sec) 
Heartbeat CPU  0 instructions:  200000000 cycles:  150729198 heartbeat IPC: 1.17706 cumulative IPC: 1.17730 (Simulation time: 0 hr 8 min 25 sec) 
Heartbeat CPU  0 instructions:  201000002 cycles:  151581716 heartbeat IPC: 1.17300 cumulative IPC: 1.17725 (Simulation time: 0 hr 8 min 28 sec) 
Heartbeat CPU  0 instructions:  202000000 cycles:  152434492 heartbeat IPC: 1.17264 cumulative IPC: 1.17721 (Simulation time: 0 hr 8 min 31 sec) 
Heartbeat CPU  0 instructions:  203000000 cycles:  153283541 heartbeat IPC: 1.17779 cumulative IPC: 1.17721 (Simulation time: 0 hr 8 min 33 sec) 
Heartbeat CPU  0 instructions:  204000000 cycles:  154132252 heartbeat IPC: 1.17826 cumulative IPC: 1.17722 (Simulation time: 0 hr 8 min 36 sec) 
Heartbeat CPU  0 instructions:  205000003 cycles:  154982358 heartbeat IPC: 1.17633 cumulative IPC: 1.17721 (Simulation time: 0 hr 8 min 39 sec) 
Heartbeat CPU  0 instructions:  206000002 cycles:  155830911 heartbeat IPC: 1.17848 cumulative IPC: 1.17723 (Simulation time: 0 hr 8 min 41 sec) 
Heartbeat CPU  0 instructions:  207000000 cycles:  156676346 heartbeat IPC: 1.18282 cumulative IPC: 1.17728 (Simulation time: 0 hr 8 min 44 sec) 
Heartbeat CPU  0 instructions:  208000000 cycles:  157522677 heartbeat IPC: 1.18157 cumulative IPC: 1.17732 (Simulation time: 0 hr 8 min 47 sec) 
Heartbeat CPU  0 instructions:  209000002 cycles:  158373994 heartbeat IPC: 1.17465 cumulative IPC: 1.17729 (Simulation time: 0 hr 8 min 49 sec) 
Heartbeat CPU  0 instructions:  210000001 cycles:  159221630 heartbeat IPC: 1.17975 cumulative IPC: 1.17732 (Simulation time: 0 hr 8 min 52 sec) 
Heartbeat CPU  0 instructions:  211000000 cycles:  160068905 heartbeat IPC: 1.18025 cumulative IPC: 1.17734 (Simulation time: 0 hr 8 min 55 sec) 
Heartbeat CPU  0 instructions:  212000000 cycles:  160919418 heartbeat IPC: 1.17576 cumulative IPC: 1.17733 (Simulation time: 0 hr 8 min 57 sec) 
Heartbeat CPU  0 instructions:  213000001 cycles:  161770989 heartbeat IPC: 1.17430 cumulative IPC: 1.17730 (Simulation time: 0 hr 9 min 0 sec) 
Heartbeat CPU  0 instructions:  214000000 cycles:  162624565 heartbeat IPC: 1.17154 cumulative IPC: 1.17725 (Simulation time: 0 hr 9 min 3 sec) 
Heartbeat CPU  0 instructions:  215000002 cycles:  163473978 heartbeat IPC: 1.17729 cumulative IPC: 1.17725 (Simulation time: 0 hr 9 min 5 sec) 
Heartbeat CPU  0 instructions:  216000000 cycles:  164321049 heartbeat IPC: 1.18054 cumulative IPC: 1.17728 (Simulation time: 0 hr 9 min 8 sec) 
Heartbeat CPU  0 instructions:  217000001 cycles:  165171007 heartbeat IPC: 1.17653 cumulative IPC: 1.17727 (Simulation time: 0 hr 9 min 11 sec) 
Heartbeat CPU  0 instructions:  218000002 cycles:  166016131 heartbeat IPC: 1.18326 cumulative IPC: 1.17732 (Simulation time: 0 hr 9 min 13 sec) 
Heartbeat CPU  0 instructions:  219000001 cycles:  166864116 heartbeat IPC: 1.17927 cumulative IPC: 1.17734 (Simulation time: 0 hr 9 min 16 sec) 
Heartbeat CPU  0 instructions:  220000000 cycles:  167711779 heartbeat IPC: 1.17971 cumulative IPC: 1.17736 (Simulation time: 0 hr 9 min 19 sec) 
Heartbeat CPU  0 instructions:  221000001 cycles:  168561075 heartbeat IPC: 1.17745 cumulative IPC: 1.17736 (Simulation time: 0 hr 9 min 22 sec) 
Heartbeat CPU  0 instructions:  222000002 cycles:  169407992 heartbeat IPC: 1.18075 cumulative IPC: 1.17739 (Simulation time: 0 hr 9 min 24 sec) 
Heartbeat CPU  0 instructions:  223000000 cycles:  170258940 heartbeat IPC: 1.17516 cumulative IPC: 1.17737 (Simulation time: 0 hr 9 min 27 sec) 
Heartbeat CPU  0 instructions:  224000000 cycles:  171114207 heartbeat IPC: 1.16923 cumulative IPC: 1.17730 (Simulation time: 0 hr 9 min 30 sec) 
Heartbeat CPU  0 instructions:  225000002 cycles:  171963624 heartbeat IPC: 1.17728 cumulative IPC: 1.17730 (Simulation time: 0 hr 9 min 32 sec) 
Heartbeat CPU  0 instructions:  226000003 cycles:  172817586 heartbeat IPC: 1.17101 cumulative IPC: 1.17725 (Simulation time: 0 hr 9 min 35 sec) 
Heartbeat CPU  0 instructions:  227000002 cycles:  173665780 heartbeat IPC: 1.17897 cumulative IPC: 1.17727 (Simulation time: 0 hr 9 min 38 sec) 
Heartbeat CPU  0 instructions:  228000000 cycles:  174511927 heartbeat IPC: 1.18183 cumulative IPC: 1.17730 (Simulation time: 0 hr 9 min 40 sec) 
Heartbeat CPU  0 instructions:  229000000 cycles:  175357135 heartbeat IPC: 1.18314 cumulative IPC: 1.17735 (Simulation time: 0 hr 9 min 43 sec) 
Heartbeat CPU  0 instructions:  230000002 cycles:  176207359 heartbeat IPC: 1.17616 cumulative IPC: 1.17734 (Simulation time: 0 hr 9 min 46 sec) 
Heartbeat CPU  0 instructions:  231000001 cycles:  177053180 heartbeat IPC: 1.18228 cumulative IPC: 1.17738 (Simulation time: 0 hr 9 min 48 sec) 
Heartbeat CPU  0 instructions:  232000000 cycles:  177904177 heartbeat IPC: 1.17509 cumulative IPC: 1.17736 (Simulation time: 0 hr 9 min 51 sec) 
Heartbeat CPU  0 instructions:  233000000 cycles:  178753328 heartbeat IPC: 1.17765 cumulative IPC: 1.17736 (Simulation time: 0 hr 9 min 54 sec) 
Heartbeat CPU  0 instructions:  234000001 cycles:  179604736 heartbeat IPC: 1.17453 cumulative IPC: 1.17734 (Simulation time: 0 hr 9 min 56 sec) 
Heartbeat CPU  0 instructions:  235000001 cycles:  180456319 heartbeat IPC: 1.17428 cumulative IPC: 1.17732 (Simulation time: 0 hr 9 min 59 sec) 
Heartbeat CPU  0 instructions:  236000000 cycles:  181307094 heartbeat IPC: 1.17540 cumulative IPC: 1.17730 (Simulation time: 0 hr 10 min 2 sec) 
Heartbeat CPU  0 instructions:  237000000 cycles:  182157369 heartbeat IPC: 1.17609 cumulative IPC: 1.17729 (Simulation time: 0 hr 10 min 4 sec) 
Heartbeat CPU  0 instructions:  238000000 cycles:  183006764 heartbeat IPC: 1.17731 cumulative IPC: 1.17729 (Simulation time: 0 hr 10 min 7 sec) 
Heartbeat CPU  0 instructions:  239000001 cycles:  183855647 heartbeat IPC: 1.17802 cumulative IPC: 1.17730 (Simulation time: 0 hr 10 min 10 sec) 
Heartbeat CPU  0 instructions:  240000000 cycles:  184701737 heartbeat IPC: 1.18191 cumulative IPC: 1.17733 (Simulation time: 0 hr 10 min 12 sec) 
Heartbeat CPU  0 instructions:  241000000 cycles:  185547474 heartbeat IPC: 1.18240 cumulative IPC: 1.17737 (Simulation time: 0 hr 10 min 15 sec) 
Heartbeat CPU  0 instructions:  242000003 cycles:  186397297 heartbeat IPC: 1.17672 cumulative IPC: 1.17736 (Simulation time: 0 hr 10 min 18 sec) 
Heartbeat CPU  0 instructions:  243000000 cycles:  187244111 heartbeat IPC: 1.18089 cumulative IPC: 1.17739 (Simulation time: 0 hr 10 min 21 sec) 
Heartbeat CPU  0 instructions:  244000000 cycles:  188091032 heartbeat IPC: 1.18075 cumulative IPC: 1.17741 (Simulation time: 0 hr 10 min 23 sec) 
Heartbeat CPU  0 instructions:  245000001 cycles:  188939039 heartbeat IPC: 1.17924 cumulative IPC: 1.17742 (Simulation time: 0 hr 10 min 26 sec) 
Heartbeat CPU  0 instructions:  246000001 cycles:  189791329 heartbeat IPC: 1.17331 cumulative IPC: 1.17739 (Simulation time: 0 hr 10 min 29 sec) 
Heartbeat CPU  0 instructions:  247000001 cycles:  190642624 heartbeat IPC: 1.17468 cumulative IPC: 1.17738 (Simulation time: 0 hr 10 min 31 sec) 
Heartbeat CPU  0 instructions:  248000000 cycles:  191490798 heartbeat IPC: 1.17900 cumulative IPC: 1.17739 (Simulation time: 0 hr 10 min 34 sec) 
Heartbeat CPU  0 instructions:  249000003 cycles:  192339887 heartbeat IPC: 1.17774 cumulative IPC: 1.17739 (Simulation time: 0 hr 10 min 37 sec) 
Heartbeat CPU  0 instructions:  250000001 cycles:  193190211 heartbeat IPC: 1.17602 cumulative IPC: 1.17738 (Simulation time: 0 hr 10 min 39 sec) 
Heartbeat CPU  0 instructions:  251000000 cycles:  194037619 heartbeat IPC: 1.18007 cumulative IPC: 1.17740 (Simulation time: 0 hr 10 min 42 sec) 
Heartbeat CPU  0 instructions:  252000000 cycles:  194885420 heartbeat IPC: 1.17952 cumulative IPC: 1.17741 (Simulation time: 0 hr 10 min 50 sec) 
Heartbeat CPU  0 instructions:  253000000 cycles:  195732093 heartbeat IPC: 1.18109 cumulative IPC: 1.17744 (Simulation time: 0 hr 10 min 53 sec) 
Heartbeat CPU  0 instructions:  254000001 cycles:  196581149 heartbeat IPC: 1.17778 cumulative IPC: 1.17744 (Simulation time: 0 hr 10 min 56 sec) 
Heartbeat CPU  0 instructions:  255000000 cycles:  197430969 heartbeat IPC: 1.17672 cumulative IPC: 1.17743 (Simulation time: 0 hr 10 min 59 sec) 
Heartbeat CPU  0 instructions:  256000000 cycles:  198279543 heartbeat IPC: 1.17845 cumulative IPC: 1.17744 (Simulation time: 0 hr 11 min 2 sec) 
Heartbeat CPU  0 instructions:  257000000 cycles:  199126951 heartbeat IPC: 1.18007 cumulative IPC: 1.17746 (Simulation time: 0 hr 11 min 5 sec) 
Heartbeat CPU  0 instructions:  258000003 cycles:  199976300 heartbeat IPC: 1.17738 cumulative IPC: 1.17746 (Simulation time: 0 hr 11 min 8 sec) 
Heartbeat CPU  0 instructions:  259000002 cycles:  200826123 heartbeat IPC: 1.17671 cumulative IPC: 1.17745 (Simulation time: 0 hr 11 min 11 sec) 
Heartbeat CPU  0 instructions:  260000000 cycles:  201677538 heartbeat IPC: 1.17451 cumulative IPC: 1.17743 (Simulation time: 0 hr 11 min 14 sec) 
Heartbeat CPU  0 instructions:  261000003 cycles:  202523286 heartbeat IPC: 1.18239 cumulative IPC: 1.17746 (Simulation time: 0 hr 11 min 17 sec) 
Heartbeat CPU  0 instructions:  262000000 cycles:  203371876 heartbeat IPC: 1.17842 cumulative IPC: 1.17747 (Simulation time: 0 hr 11 min 20 sec) 
Heartbeat CPU  0 instructions:  263000000 cycles:  204219069 heartbeat IPC: 1.18037 cumulative IPC: 1.17749 (Simulation time: 0 hr 11 min 23 sec) 
Heartbeat CPU  0 instructions:  264000000 cycles:  205066413 heartbeat IPC: 1.18016 cumulative IPC: 1.17750 (Simulation time: 0 hr 11 min 26 sec) 
Heartbeat CPU  0 instructions:  265000002 cycles:  205913423 heartbeat IPC: 1.18063 cumulative IPC: 1.17752 (Simulation time: 0 hr 11 min 29 sec) 
Heartbeat CPU  0 instructions:  266000003 cycles:  206764026 heartbeat IPC: 1.17564 cumulative IPC: 1.17751 (Simulation time: 0 hr 11 min 32 sec) 
Heartbeat CPU  0 instructions:  267000003 cycles:  207610236 heartbeat IPC: 1.18174 cumulative IPC: 1.17754 (Simulation time: 0 hr 11 min 35 sec) 
Heartbeat CPU  0 instructions:  268000000 cycles:  208460351 heartbeat IPC: 1.17631 cumulative IPC: 1.17753 (Simulation time: 0 hr 11 min 38 sec) 
Heartbeat CPU  0 instructions:  269000000 cycles:  209312489 heartbeat IPC: 1.17352 cumulative IPC: 1.17751 (Simulation time: 0 hr 11 min 41 sec) 
Heartbeat CPU  0 instructions:  270000001 cycles:  210160776 heartbeat IPC: 1.17885 cumulative IPC: 1.17751 (Simulation time: 0 hr 11 min 44 sec) 
Heartbeat CPU  0 instructions:  271000001 cycles:  211009524 heartbeat IPC: 1.17821 cumulative IPC: 1.17752 (Simulation time: 0 hr 11 min 47 sec) 
Heartbeat CPU  0 instructions:  272000000 cycles:  211862151 heartbeat IPC: 1.17284 cumulative IPC: 1.17749 (Simulation time: 0 hr 11 min 50 sec) 
Heartbeat CPU  0 instructions:  273000003 cycles:  212710421 heartbeat IPC: 1.17887 cumulative IPC: 1.17750 (Simulation time: 0 hr 11 min 53 sec) 
Heartbeat CPU  0 instructions:  274000002 cycles:  213556787 heartbeat IPC: 1.18152 cumulative IPC: 1.17752 (Simulation time: 0 hr 11 min 56 sec) 
Heartbeat CPU  0 instructions:  275000000 cycles:  214403994 heartbeat IPC: 1.18035 cumulative IPC: 1.17754 (Simulation time: 0 hr 11 min 59 sec) 
Heartbeat CPU  0 instructions:  276000000 cycles:  215253214 heartbeat IPC: 1.17755 cumulative IPC: 1.17754 (Simulation time: 0 hr 12 min 2 sec) 
Heartbeat CPU  0 instructions:  277000002 cycles:  216106323 heartbeat IPC: 1.17219 cumulative IPC: 1.17751 (Simulation time: 0 hr 12 min 5 sec) 
Heartbeat CPU  0 instructions:  278000002 cycles:  216951327 heartbeat IPC: 1.18343 cumulative IPC: 1.17754 (Simulation time: 0 hr 12 min 8 sec) 
Heartbeat CPU  0 instructions:  279000001 cycles:  217801589 heartbeat IPC: 1.17611 cumulative IPC: 1.17753 (Simulation time: 0 hr 12 min 11 sec) 
Heartbeat CPU  0 instructions:  280000000 cycles:  218652089 heartbeat IPC: 1.17578 cumulative IPC: 1.17752 (Simulation time: 0 hr 12 min 14 sec) 
Heartbeat CPU  0 instructions:  281000000 cycles:  219509011 heartbeat IPC: 1.16697 cumulative IPC: 1.17746 (Simulation time: 0 hr 12 min 17 sec) 
Heartbeat CPU  0 instructions:  282000000 cycles:  220354714 heartbeat IPC: 1.18245 cumulative IPC: 1.17749 (Simulation time: 0 hr 12 min 20 sec) 
Heartbeat CPU  0 instructions:  283000003 cycles:  221208152 heartbeat IPC: 1.17173 cumulative IPC: 1.17746 (Simulation time: 0 hr 12 min 23 sec) 
Heartbeat CPU  0 instructions:  284000000 cycles:  222058924 heartbeat IPC: 1.17540 cumulative IPC: 1.17745 (Simulation time: 0 hr 12 min 26 sec) 
Heartbeat CPU  0 instructions:  285000000 cycles:  222910023 heartbeat IPC: 1.17495 cumulative IPC: 1.17743 (Simulation time: 0 hr 12 min 29 sec) 
Heartbeat CPU  0 instructions:  286000002 cycles:  223756345 heartbeat IPC: 1.18159 cumulative IPC: 1.17746 (Simulation time: 0 hr 12 min 32 sec) 
Heartbeat CPU  0 instructions:  287000000 cycles:  224606707 heartbeat IPC: 1.17597 cumulative IPC: 1.17745 (Simulation time: 0 hr 12 min 35 sec) 
Heartbeat CPU  0 instructions:  288000000 cycles:  225454773 heartbeat IPC: 1.17915 cumulative IPC: 1.17746 (Simulation time: 0 hr 12 min 38 sec) 
Heartbeat CPU  0 instructions:  289000001 cycles:  226307058 heartbeat IPC: 1.17332 cumulative IPC: 1.17744 (Simulation time: 0 hr 12 min 41 sec) 
Heartbeat CPU  0 instructions:  290000002 cycles:  227152213 heartbeat IPC: 1.18322 cumulative IPC: 1.17747 (Simulation time: 0 hr 12 min 44 sec) 
Heartbeat CPU  0 instructions:  291000002 cycles:  228003613 heartbeat IPC: 1.17454 cumulative IPC: 1.17745 (Simulation time: 0 hr 12 min 47 sec) 
Heartbeat CPU  0 instructions:  292000000 cycles:  228856729 heartbeat IPC: 1.17217 cumulative IPC: 1.17742 (Simulation time: 0 hr 12 min 50 sec) 
Heartbeat CPU  0 instructions:  293000001 cycles:  229705173 heartbeat IPC: 1.17863 cumulative IPC: 1.17743 (Simulation time: 0 hr 12 min 53 sec) 
Heartbeat CPU  0 instructions:  294000000 cycles:  230554130 heartbeat IPC: 1.17791 cumulative IPC: 1.17743 (Simulation time: 0 hr 12 min 57 sec) 
Heartbeat CPU  0 instructions:  295000003 cycles:  231405905 heartbeat IPC: 1.17402 cumulative IPC: 1.17741 (Simulation time: 0 hr 13 min 0 sec) 
Heartbeat CPU  0 instructions:  296000000 cycles:  232255247 heartbeat IPC: 1.17738 cumulative IPC: 1.17741 (Simulation time: 0 hr 13 min 3 sec) 
Heartbeat CPU  0 instructions:  297000001 cycles:  233103248 heartbeat IPC: 1.17925 cumulative IPC: 1.17742 (Simulation time: 0 hr 13 min 6 sec) 
Heartbeat CPU  0 instructions:  298000001 cycles:  233950129 heartbeat IPC: 1.18080 cumulative IPC: 1.17744 (Simulation time: 0 hr 13 min 9 sec) 
Heartbeat CPU  0 instructions:  299000000 cycles:  234796443 heartbeat IPC: 1.18159 cumulative IPC: 1.17746 (Simulation time: 0 hr 13 min 12 sec) 
Heartbeat CPU  0 instructions:  300000000 cycles:  235644521 heartbeat IPC: 1.17914 cumulative IPC: 1.17747 (Simulation time: 0 hr 13 min 14 sec) 
Heartbeat CPU  0 instructions:  301000000 cycles:  236492780 heartbeat IPC: 1.17889 cumulative IPC: 1.17748 (Simulation time: 0 hr 13 min 17 sec) 
Heartbeat CPU  0 instructions:  302000002 cycles:  237342848 heartbeat IPC: 1.17638 cumulative IPC: 1.17747 (Simulation time: 0 hr 13 min 20 sec) 
Heartbeat CPU  0 instructions:  303000000 cycles:  238190331 heartbeat IPC: 1.17996 cumulative IPC: 1.17748 (Simulation time: 0 hr 13 min 23 sec) 
Heartbeat CPU  0 instructions:  304000000 cycles:  239041064 heartbeat IPC: 1.17546 cumulative IPC: 1.17747 (Simulation time: 0 hr 13 min 26 sec) 
Heartbeat CPU  0 instructions:  305000001 cycles:  239891167 heartbeat IPC: 1.17633 cumulative IPC: 1.17747 (Simulation time: 0 hr 13 min 29 sec) 
Heartbeat CPU  0 instructions:  306000001 cycles:  240746000 heartbeat IPC: 1.16982 cumulative IPC: 1.17743 (Simulation time: 0 hr 13 min 32 sec) 
Heartbeat CPU  0 instructions:  307000002 cycles:  241591663 heartbeat IPC: 1.18251 cumulative IPC: 1.17745 (Simulation time: 0 hr 13 min 35 sec) 
Heartbeat CPU  0 instructions:  308000000 cycles:  242440962 heartbeat IPC: 1.17744 cumulative IPC: 1.17745 (Simulation time: 0 hr 13 min 38 sec) 
Heartbeat CPU  0 instructions:  309000002 cycles:  243291637 heartbeat IPC: 1.17554 cumulative IPC: 1.17745 (Simulation time: 0 hr 13 min 41 sec) 
Heartbeat CPU  0 instructions:  310000000 cycles:  244140121 heartbeat IPC: 1.17857 cumulative IPC: 1.17745 (Simulation time: 0 hr 13 min 44 sec) 
Heartbeat CPU  0 instructions:  311000002 cycles:  244989105 heartbeat IPC: 1.17788 cumulative IPC: 1.17745 (Simulation time: 0 hr 13 min 46 sec) 
Heartbeat CPU  0 instructions:  312000000 cycles:  245835517 heartbeat IPC: 1.18146 cumulative IPC: 1.17747 (Simulation time: 0 hr 13 min 49 sec) 
Heartbeat CPU  0 instructions:  313000003 cycles:  246687129 heartbeat IPC: 1.17425 cumulative IPC: 1.17746 (Simulation time: 0 hr 13 min 52 sec) 
Heartbeat CPU  0 instructions:  314000002 cycles:  247538573 heartbeat IPC: 1.17447 cumulative IPC: 1.17744 (Simulation time: 0 hr 13 min 55 sec) 
Heartbeat CPU  0 instructions:  315000000 cycles:  248391187 heartbeat IPC: 1.17286 cumulative IPC: 1.17742 (Simulation time: 0 hr 13 min 58 sec) 
Heartbeat CPU  0 instructions:  316000000 cycles:  249239401 heartbeat IPC: 1.17895 cumulative IPC: 1.17743 (Simulation time: 0 hr 14 min 1 sec) 
Heartbeat CPU  0 instructions:  317000001 cycles:  250093976 heartbeat IPC: 1.17017 cumulative IPC: 1.17739 (Simulation time: 0 hr 14 min 4 sec) 
Heartbeat CPU  0 instructions:  318000001 cycles:  250948126 heartbeat IPC: 1.17075 cumulative IPC: 1.17736 (Simulation time: 0 hr 14 min 7 sec) 
Heartbeat CPU  0 instructions:  319000000 cycles:  251800748 heartbeat IPC: 1.17285 cumulative IPC: 1.17734 (Simulation time: 0 hr 14 min 10 sec) 
Heartbeat CPU  0 instructions:  320000000 cycles:  252648735 heartbeat IPC: 1.17926 cumulative IPC: 1.17735 (Simulation time: 0 hr 14 min 13 sec) 
Heartbeat CPU  0 instructions:  321000000 cycles:  253498700 heartbeat IPC: 1.17652 cumulative IPC: 1.17735 (Simulation time: 0 hr 14 min 16 sec) 
Heartbeat CPU  0 instructions:  322000000 cycles:  254347862 heartbeat IPC: 1.17763 cumulative IPC: 1.17735 (Simulation time: 0 hr 14 min 19 sec) 
Heartbeat CPU  0 instructions:  323000002 cycles:  255196457 heartbeat IPC: 1.17842 cumulative IPC: 1.17735 (Simulation time: 0 hr 14 min 22 sec) 
Heartbeat CPU  0 instructions:  324000000 cycles:  256042284 heartbeat IPC: 1.18227 cumulative IPC: 1.17738 (Simulation time: 0 hr 14 min 25 sec) 
Heartbeat CPU  0 instructions:  325000002 cycles:  256890890 heartbeat IPC: 1.17841 cumulative IPC: 1.17738 (Simulation time: 0 hr 14 min 28 sec) 
Heartbeat CPU  0 instructions:  326000001 cycles:  257743232 heartbeat IPC: 1.17324 cumulative IPC: 1.17736 (Simulation time: 0 hr 14 min 31 sec) 
Heartbeat CPU  0 instructions:  327000000 cycles:  258592155 heartbeat IPC: 1.17796 cumulative IPC: 1.17737 (Simulation time: 0 hr 14 min 34 sec) 
Heartbeat CPU  0 instructions:  328000000 cycles:  259446709 heartbeat IPC: 1.17020 cumulative IPC: 1.17733 (Simulation time: 0 hr 14 min 37 sec) 
Heartbeat CPU  0 instructions:  329000003 cycles:  260295664 heartbeat IPC: 1.17792 cumulative IPC: 1.17734 (Simulation time: 0 hr 14 min 39 sec) 
Heartbeat CPU  0 instructions:  330000000 cycles:  261146024 heartbeat IPC: 1.17597 cumulative IPC: 1.17733 (Simulation time: 0 hr 14 min 42 sec) 
Heartbeat CPU  0 instructions:  331000000 cycles:  261996642 heartbeat IPC: 1.17562 cumulative IPC: 1.17732 (Simulation time: 0 hr 14 min 45 sec) 
Heartbeat CPU  0 instructions:  332000000 cycles:  262845456 heartbeat IPC: 1.17811 cumulative IPC: 1.17733 (Simulation time: 0 hr 14 min 48 sec) 
Heartbeat CPU  0 instructions:  333000002 cycles:  263692069 heartbeat IPC: 1.18118 cumulative IPC: 1.17734 (Simulation time: 0 hr 14 min 50 sec) 
Heartbeat CPU  0 instructions:  334000003 cycles:  264540472 heartbeat IPC: 1.17869 cumulative IPC: 1.17735 (Simulation time: 0 hr 14 min 53 sec) 
Heartbeat CPU  0 instructions:  335000000 cycles:  265385299 heartbeat IPC: 1.18367 cumulative IPC: 1.17738 (Simulation time: 0 hr 14 min 56 sec) 
Heartbeat CPU  0 instructions:  336000000 cycles:  266235267 heartbeat IPC: 1.17651 cumulative IPC: 1.17737 (Simulation time: 0 hr 14 min 59 sec) 
Heartbeat CPU  0 instructions:  337000001 cycles:  267083535 heartbeat IPC: 1.17887 cumulative IPC: 1.17738 (Simulation time: 0 hr 15 min 2 sec) 
Heartbeat CPU  0 instructions:  338000002 cycles:  267933952 heartbeat IPC: 1.17589 cumulative IPC: 1.17737 (Simulation time: 0 hr 15 min 4 sec) 
Heartbeat CPU  0 instructions:  339000001 cycles:  268782333 heartbeat IPC: 1.17871 cumulative IPC: 1.17738 (Simulation time: 0 hr 15 min 7 sec) 
Heartbeat CPU  0 instructions:  340000000 cycles:  269634715 heartbeat IPC: 1.17318 cumulative IPC: 1.17736 (Simulation time: 0 hr 15 min 10 sec) 
Heartbeat CPU  0 instructions:  341000001 cycles:  270482686 heartbeat IPC: 1.17929 cumulative IPC: 1.17737 (Simulation time: 0 hr 15 min 13 sec) 
Heartbeat CPU  0 instructions:  342000003 cycles:  271332802 heartbeat IPC: 1.17631 cumulative IPC: 1.17736 (Simulation time: 0 hr 15 min 16 sec) 
Heartbeat CPU  0 instructions:  343000002 cycles:  272184345 heartbeat IPC: 1.17434 cumulative IPC: 1.17735 (Simulation time: 0 hr 15 min 19 sec) 
Heartbeat CPU  0 instructions:  344000000 cycles:  273031966 heartbeat IPC: 1.17977 cumulative IPC: 1.17736 (Simulation time: 0 hr 15 min 22 sec) 
Heartbeat CPU  0 instructions:  345000001 cycles:  274433106 heartbeat IPC: 0.71371 cumulative IPC: 1.17425 (Simulation time: 0 hr 15 min 24 sec) 
Heartbeat CPU  0 instructions:  346000001 cycles:  275527935 heartbeat IPC: 0.91338 cumulative IPC: 1.17289 (Simulation time: 0 hr 15 min 26 sec) 
Heartbeat CPU  0 instructions:  347000003 cycles:  276442032 heartbeat IPC: 1.09398 cumulative IPC: 1.17254 (Simulation time: 0 hr 15 min 29 sec) 
Heartbeat CPU  0 instructions:  348000000 cycles:  277354872 heartbeat IPC: 1.09548 cumulative IPC: 1.17221 (Simulation time: 0 hr 15 min 31 sec) 
Heartbeat CPU  0 instructions:  349000002 cycles:  278267149 heartbeat IPC: 1.09616 cumulative IPC: 1.17188 (Simulation time: 0 hr 15 min 33 sec) 
Heartbeat CPU  0 instructions:  350000002 cycles:  279182464 heartbeat IPC: 1.09252 cumulative IPC: 1.17154 (Simulation time: 0 hr 15 min 35 sec) 
Heartbeat CPU  0 instructions:  351000003 cycles:  280095907 heartbeat IPC: 1.09476 cumulative IPC: 1.17122 (Simulation time: 0 hr 15 min 38 sec) 
Heartbeat CPU  0 instructions:  352000000 cycles:  281010774 heartbeat IPC: 1.09305 cumulative IPC: 1.17088 (Simulation time: 0 hr 15 min 40 sec) 
Heartbeat CPU  0 instructions:  353000003 cycles:  281923734 heartbeat IPC: 1.09534 cumulative IPC: 1.17056 (Simulation time: 0 hr 15 min 42 sec) 
Heartbeat CPU  0 instructions:  354000000 cycles:  282835320 heartbeat IPC: 1.09699 cumulative IPC: 1.17026 (Simulation time: 0 hr 15 min 44 sec) 
Heartbeat CPU  0 instructions:  355000000 cycles:  283747175 heartbeat IPC: 1.09667 cumulative IPC: 1.16995 (Simulation time: 0 hr 15 min 47 sec) 
Heartbeat CPU  0 instructions:  356000000 cycles:  284662674 heartbeat IPC: 1.09230 cumulative IPC: 1.16962 (Simulation time: 0 hr 15 min 49 sec) 
Heartbeat CPU  0 instructions:  357000003 cycles:  285577773 heartbeat IPC: 1.09278 cumulative IPC: 1.16930 (Simulation time: 0 hr 15 min 51 sec) 
Heartbeat CPU  0 instructions:  358000003 cycles:  286480003 heartbeat IPC: 1.10836 cumulative IPC: 1.16905 (Simulation time: 0 hr 15 min 53 sec) 
Heartbeat CPU  0 instructions:  359000003 cycles:  287203010 heartbeat IPC: 1.38311 cumulative IPC: 1.16975 (Simulation time: 0 hr 15 min 55 sec) 
Heartbeat CPU  0 instructions:  360000000 cycles:  287841064 heartbeat IPC: 1.56726 cumulative IPC: 1.17090 (Simulation time: 0 hr 15 min 58 sec) 
Heartbeat CPU  0 instructions:  361000003 cycles:  288785735 heartbeat IPC: 1.05857 cumulative IPC: 1.17042 (Simulation time: 0 hr 16 min 0 sec) 
Heartbeat CPU  0 instructions:  362000003 cycles:  289843515 heartbeat IPC: 0.94538 cumulative IPC: 1.16936 (Simulation time: 0 hr 16 min 2 sec) 
Heartbeat CPU  0 instructions:  363000000 cycles:  290893874 heartbeat IPC: 0.95205 cumulative IPC: 1.16834 (Simulation time: 0 hr 16 min 5 sec) 
Heartbeat CPU  0 instructions:  364000000 cycles:  291940124 heartbeat IPC: 0.95579 cumulative IPC: 1.16736 (Simulation time: 0 hr 16 min 7 sec) 
Heartbeat CPU  0 instructions:  365000000 cycles:  292984916 heartbeat IPC: 0.95713 cumulative IPC: 1.16639 (Simulation time: 0 hr 16 min 9 sec) 
Heartbeat CPU  0 instructions:  366000003 cycles:  294027983 heartbeat IPC: 0.95871 cumulative IPC: 1.16544 (Simulation time: 0 hr 16 min 12 sec) 
Heartbeat CPU  0 instructions:  367000001 cycles:  295059531 heartbeat IPC: 0.96941 cumulative IPC: 1.16456 (Simulation time: 0 hr 16 min 14 sec) 
Heartbeat CPU  0 instructions:  368000000 cycles:  296096938 heartbeat IPC: 0.96394 cumulative IPC: 1.16366 (Simulation time: 0 hr 16 min 16 sec) 
Heartbeat CPU  0 instructions:  369000002 cycles:  297164705 heartbeat IPC: 0.93654 cumulative IPC: 1.16261 (Simulation time: 0 hr 16 min 19 sec) 
Heartbeat CPU  0 instructions:  370000002 cycles:  298257612 heartbeat IPC: 0.91499 cumulative IPC: 1.16145 (Simulation time: 0 hr 16 min 21 sec) 
Heartbeat CPU  0 instructions:  371000000 cycles:  299353686 heartbeat IPC: 0.91235 cumulative IPC: 1.16028 (Simulation time: 0 hr 16 min 24 sec) 
Heartbeat CPU  0 instructions:  372000000 cycles:  300449696 heartbeat IPC: 0.91240 cumulative IPC: 1.15912 (Simulation time: 0 hr 16 min 26 sec) 
Heartbeat CPU  0 instructions:  373000003 cycles:  301542077 heartbeat IPC: 0.91543 cumulative IPC: 1.15799 (Simulation time: 0 hr 16 min 29 sec) 
Heartbeat CPU  0 instructions:  374000003 cycles:  302640046 heartbeat IPC: 0.91077 cumulative IPC: 1.15684 (Simulation time: 0 hr 16 min 31 sec) 
Heartbeat CPU  0 instructions:  375000000 cycles:  303725303 heartbeat IPC: 0.92144 cumulative IPC: 1.15577 (Simulation time: 0 hr 16 min 34 sec) 
Heartbeat CPU  0 instructions:  376000000 cycles:  304817867 heartbeat IPC: 0.91528 cumulative IPC: 1.15467 (Simulation time: 0 hr 16 min 36 sec) 
Heartbeat CPU  0 instructions:  377000001 cycles:  305706232 heartbeat IPC: 1.12566 cumulative IPC: 1.15456 (Simulation time: 0 hr 16 min 39 sec) 
Heartbeat CPU  0 instructions:  378000001 cycles:  306553450 heartbeat IPC: 1.18033 cumulative IPC: 1.15465 (Simulation time: 0 hr 16 min 42 sec) 
Heartbeat CPU  0 instructions:  379000000 cycles:  307397724 heartbeat IPC: 1.18445 cumulative IPC: 1.15476 (Simulation time: 0 hr 16 min 44 sec) 
Heartbeat CPU  0 instructions:  380000000 cycles:  308241486 heartbeat IPC: 1.18517 cumulative IPC: 1.15486 (Simulation time: 0 hr 16 min 47 sec) 
Heartbeat CPU  0 instructions:  381000003 cycles:  309087722 heartbeat IPC: 1.18171 cumulative IPC: 1.15496 (Simulation time: 0 hr 16 min 50 sec) 
Heartbeat CPU  0 instructions:  382000000 cycles:  309934974 heartbeat IPC: 1.18028 cumulative IPC: 1.15505 (Simulation time: 0 hr 16 min 53 sec) 
Heartbeat CPU  0 instructions:  383000000 cycles:  310782021 heartbeat IPC: 1.18057 cumulative IPC: 1.15513 (Simulation time: 0 hr 16 min 56 sec) 
Heartbeat CPU  0 instructions:  384000000 cycles:  311626258 heartbeat IPC: 1.18450 cumulative IPC: 1.15523 (Simulation time: 0 hr 16 min 58 sec) 
Heartbeat CPU  0 instructions:  385000000 cycles:  312473812 heartbeat IPC: 1.17987 cumulative IPC: 1.15532 (Simulation time: 0 hr 17 min 1 sec) 
Heartbeat CPU  0 instructions:  386000000 cycles:  313322447 heartbeat IPC: 1.17836 cumulative IPC: 1.15540 (Simulation time: 0 hr 17 min 4 sec) 
Heartbeat CPU  0 instructions:  387000003 cycles:  314169048 heartbeat IPC: 1.18120 cumulative IPC: 1.15549 (Simulation time: 0 hr 17 min 7 sec) 
Heartbeat CPU  0 instructions:  388000000 cycles:  315016971 heartbeat IPC: 1.17935 cumulative IPC: 1.15557 (Simulation time: 0 hr 17 min 10 sec) 
Heartbeat CPU  0 instructions:  389000000 cycles:  315866565 heartbeat IPC: 1.17703 cumulative IPC: 1.15564 (Simulation time: 0 hr 17 min 12 sec) 
Heartbeat CPU  0 instructions:  390000000 cycles:  316715592 heartbeat IPC: 1.17782 cumulative IPC: 1.15572 (Simulation time: 0 hr 17 min 15 sec) 
Heartbeat CPU  0 instructions:  391000001 cycles:  317560167 heartbeat IPC: 1.18403 cumulative IPC: 1.15581 (Simulation time: 0 hr 17 min 18 sec) 
Heartbeat CPU  0 instructions:  392000000 cycles:  318406783 heartbeat IPC: 1.18117 cumulative IPC: 1.15590 (Simulation time: 0 hr 17 min 21 sec) 
Heartbeat CPU  0 instructions:  393000000 cycles:  319256270 heartbeat IPC: 1.17718 cumulative IPC: 1.15597 (Simulation time: 0 hr 17 min 24 sec) 
Heartbeat CPU  0 instructions:  394000000 cycles:  320105760 heartbeat IPC: 1.17718 cumulative IPC: 1.15604 (Simulation time: 0 hr 17 min 27 sec) 
Heartbeat CPU  0 instructions:  395000000 cycles:  320952100 heartbeat IPC: 1.18156 cumulative IPC: 1.15612 (Simulation time: 0 hr 17 min 29 sec) 
Heartbeat CPU  0 instructions:  396000000 cycles:  321799826 heartbeat IPC: 1.17963 cumulative IPC: 1.15620 (Simulation time: 0 hr 17 min 32 sec) 
Heartbeat CPU  0 instructions:  397000001 cycles:  322647308 heartbeat IPC: 1.17997 cumulative IPC: 1.15628 (Simulation time: 0 hr 17 min 35 sec) 
Heartbeat CPU  0 instructions:  398000000 cycles:  323496610 heartbeat IPC: 1.17744 cumulative IPC: 1.15635 (Simulation time: 0 hr 17 min 38 sec) 
Heartbeat CPU  0 instructions:  399000000 cycles:  324344885 heartbeat IPC: 1.17886 cumulative IPC: 1.15642 (Simulation time: 0 hr 17 min 41 sec) 
Heartbeat CPU  0 instructions:  400000000 cycles:  325191801 heartbeat IPC: 1.18075 cumulative IPC: 1.15650 (Simulation time: 0 hr 17 min 43 sec) 
Heartbeat CPU  0 instructions:  401000003 cycles:  326041140 heartbeat IPC: 1.17739 cumulative IPC: 1.15657 (Simulation time: 0 hr 17 min 46 sec) 
Heartbeat CPU  0 instructions:  402000003 cycles:  326888478 heartbeat IPC: 1.18017 cumulative IPC: 1.15665 (Simulation time: 0 hr 17 min 49 sec) 
Heartbeat CPU  0 instructions:  403000000 cycles:  327739790 heartbeat IPC: 1.17465 cumulative IPC: 1.15670 (Simulation time: 0 hr 17 min 52 sec) 
Heartbeat CPU  0 instructions:  404000000 cycles:  328588816 heartbeat IPC: 1.17782 cumulative IPC: 1.15677 (Simulation time: 0 hr 17 min 55 sec) 
Heartbeat CPU  0 instructions:  405000000 cycles:  329436481 heartbeat IPC: 1.17971 cumulative IPC: 1.15685 (Simulation time: 0 hr 17 min 57 sec) 
Heartbeat CPU  0 instructions:  406000000 cycles:  330283360 heartbeat IPC: 1.18081 cumulative IPC: 1.15692 (Simulation time: 0 hr 18 min 0 sec) 
Heartbeat CPU  0 instructions:  407000002 cycles:  331134688 heartbeat IPC: 1.17464 cumulative IPC: 1.15698 (Simulation time: 0 hr 18 min 3 sec) 
Heartbeat CPU  0 instructions:  408000000 cycles:  331983666 heartbeat IPC: 1.17788 cumulative IPC: 1.15705 (Simulation time: 0 hr 18 min 6 sec) 
Heartbeat CPU  0 instructions:  409000002 cycles:  332833571 heartbeat IPC: 1.17660 cumulative IPC: 1.15711 (Simulation time: 0 hr 18 min 9 sec) 
Heartbeat CPU  0 instructions:  410000001 cycles:  333684987 heartbeat IPC: 1.17451 cumulative IPC: 1.15716 (Simulation time: 0 hr 18 min 11 sec) 
Heartbeat CPU  0 instructions:  411000000 cycles:  334532993 heartbeat IPC: 1.17924 cumulative IPC: 1.15723 (Simulation time: 0 hr 18 min 14 sec) 
Heartbeat CPU  0 instructions:  412000000 cycles:  335383011 heartbeat IPC: 1.17645 cumulative IPC: 1.15729 (Simulation time: 0 hr 18 min 17 sec) 
Heartbeat CPU  0 instructions:  413000001 cycles:  336229714 heartbeat IPC: 1.18105 cumulative IPC: 1.15737 (Simulation time: 0 hr 18 min 20 sec) 
Heartbeat CPU  0 instructions:  414000000 cycles:  337076401 heartbeat IPC: 1.18107 cumulative IPC: 1.15744 (Simulation time: 0 hr 18 min 23 sec) 
Heartbeat CPU  0 instructions:  415000002 cycles:  337925696 heartbeat IPC: 1.17745 cumulative IPC: 1.15751 (Simulation time: 0 hr 18 min 26 sec) 
Heartbeat CPU  0 instructions:  416000000 cycles:  338774814 heartbeat IPC: 1.17769 cumulative IPC: 1.15757 (Simulation time: 0 hr 18 min 28 sec) 
Heartbeat CPU  0 instructions:  417000000 cycles:  339622422 heartbeat IPC: 1.17979 cumulative IPC: 1.15764 (Simulation time: 0 hr 18 min 31 sec) 
Heartbeat CPU  0 instructions:  418000002 cycles:  340469914 heartbeat IPC: 1.17995 cumulative IPC: 1.15771 (Simulation time: 0 hr 18 min 34 sec) 
Heartbeat CPU  0 instructions:  419000002 cycles:  341321033 heartbeat IPC: 1.17492 cumulative IPC: 1.15776 (Simulation time: 0 hr 18 min 37 sec) 
Heartbeat CPU  0 instructions:  420000000 cycles:  342172416 heartbeat IPC: 1.17456 cumulative IPC: 1.15781 (Simulation time: 0 hr 18 min 40 sec) 
Heartbeat CPU  0 instructions:  421000001 cycles:  343016851 heartbeat IPC: 1.18422 cumulative IPC: 1.15789 (Simulation time: 0 hr 18 min 42 sec) 
Heartbeat CPU  0 instructions:  422000001 cycles:  343868228 heartbeat IPC: 1.17457 cumulative IPC: 1.15794 (Simulation time: 0 hr 18 min 45 sec) 
Heartbeat CPU  0 instructions:  423000000 cycles:  344716105 heartbeat IPC: 1.17942 cumulative IPC: 1.15801 (Simulation time: 0 hr 18 min 48 sec) 
Heartbeat CPU  0 instructions:  424000000 cycles:  345564426 heartbeat IPC: 1.17880 cumulative IPC: 1.15807 (Simulation time: 0 hr 18 min 51 sec) 
Heartbeat CPU  0 instructions:  425000002 cycles:  346408839 heartbeat IPC: 1.18426 cumulative IPC: 1.15815 (Simulation time: 0 hr 18 min 54 sec) 
Heartbeat CPU  0 instructions:  426000003 cycles:  347255830 heartbeat IPC: 1.18065 cumulative IPC: 1.15822 (Simulation time: 0 hr 18 min 57 sec) 
Heartbeat CPU  0 instructions:  427000002 cycles:  348104165 heartbeat IPC: 1.17878 cumulative IPC: 1.15828 (Simulation time: 0 hr 18 min 59 sec) 
Heartbeat CPU  0 instructions:  428000000 cycles:  348952507 heartbeat IPC: 1.17877 cumulative IPC: 1.15834 (Simulation time: 0 hr 19 min 2 sec) 
Heartbeat CPU  0 instructions:  429000000 cycles:  349801515 heartbeat IPC: 1.17785 cumulative IPC: 1.15840 (Simulation time: 0 hr 19 min 5 sec) 
Heartbeat CPU  0 instructions:  430000002 cycles:  350650272 heartbeat IPC: 1.17820 cumulative IPC: 1.15846 (Simulation time: 0 hr 19 min 8 sec) 
Heartbeat CPU  0 instructions:  431000001 cycles:  351500518 heartbeat IPC: 1.17613 cumulative IPC: 1.15851 (Simulation time: 0 hr 19 min 11 sec) 
Heartbeat CPU  0 instructions:  432000000 cycles:  352347288 heartbeat IPC: 1.18096 cumulative IPC: 1.15858 (Simulation time: 0 hr 19 min 13 sec) 
Heartbeat CPU  0 instructions:  433000002 cycles:  353196037 heartbeat IPC: 1.17821 cumulative IPC: 1.15863 (Simulation time: 0 hr 19 min 16 sec) 
Heartbeat CPU  0 instructions:  434000003 cycles:  354044201 heartbeat IPC: 1.17902 cumulative IPC: 1.15869 (Simulation time: 0 hr 19 min 19 sec) 
Heartbeat CPU  0 instructions:  435000001 cycles:  354894815 heartbeat IPC: 1.17562 cumulative IPC: 1.15874 (Simulation time: 0 hr 19 min 22 sec) 
Heartbeat CPU  0 instructions:  436000000 cycles:  355742802 heartbeat IPC: 1.17926 cumulative IPC: 1.15880 (Simulation time: 0 hr 19 min 25 sec) 
Heartbeat CPU  0 instructions:  437000001 cycles:  356590571 heartbeat IPC: 1.17957 cumulative IPC: 1.15886 (Simulation time: 0 hr 19 min 27 sec) 
Heartbeat CPU  0 instructions:  438000001 cycles:  357437968 heartbeat IPC: 1.18008 cumulative IPC: 1.15893 (Simulation time: 0 hr 19 min 30 sec) 
Heartbeat CPU  0 instructions:  439000001 cycles:  358284558 heartbeat IPC: 1.18121 cumulative IPC: 1.15899 (Simulation time: 0 hr 19 min 33 sec) 
Heartbeat CPU  0 instructions:  440000000 cycles:  359132817 heartbeat IPC: 1.17888 cumulative IPC: 1.15905 (Simulation time: 0 hr 19 min 36 sec) 
Heartbeat CPU  0 instructions:  441000000 cycles:  359981897 heartbeat IPC: 1.17775 cumulative IPC: 1.15910 (Simulation time: 0 hr 19 min 39 sec) 
Heartbeat CPU  0 instructions:  442000001 cycles:  360830655 heartbeat IPC: 1.17819 cumulative IPC: 1.15916 (Simulation time: 0 hr 19 min 42 sec) 
Heartbeat CPU  0 instructions:  443000001 cycles:  361681380 heartbeat IPC: 1.17547 cumulative IPC: 1.15920 (Simulation time: 0 hr 19 min 44 sec) 
Heartbeat CPU  0 instructions:  444000000 cycles:  362530172 heartbeat IPC: 1.17814 cumulative IPC: 1.15926 (Simulation time: 0 hr 19 min 47 sec) 
Heartbeat CPU  0 instructions:  445000000 cycles:  363385500 heartbeat IPC: 1.16914 cumulative IPC: 1.15929 (Simulation time: 0 hr 19 min 50 sec) 
Heartbeat CPU  0 instructions:  446000002 cycles:  364231055 heartbeat IPC: 1.18266 cumulative IPC: 1.15935 (Simulation time: 0 hr 19 min 53 sec) 
Heartbeat CPU  0 instructions:  447000000 cycles:  365082356 heartbeat IPC: 1.17467 cumulative IPC: 1.15940 (Simulation time: 0 hr 19 min 56 sec) 
Heartbeat CPU  0 instructions:  448000000 cycles:  365928889 heartbeat IPC: 1.18129 cumulative IPC: 1.15946 (Simulation time: 0 hr 19 min 58 sec) 
Heartbeat CPU  0 instructions:  449000001 cycles:  366779816 heartbeat IPC: 1.17519 cumulative IPC: 1.15950 (Simulation time: 0 hr 20 min 1 sec) 
Heartbeat CPU  0 instructions:  450000001 cycles:  367625656 heartbeat IPC: 1.18226 cumulative IPC: 1.15957 (Simulation time: 0 hr 20 min 4 sec) 
Heartbeat CPU  0 instructions:  451000002 cycles:  368473642 heartbeat IPC: 1.17927 cumulative IPC: 1.15962 (Simulation time: 0 hr 20 min 7 sec) 
Heartbeat CPU  0 instructions:  452000000 cycles:  369322601 heartbeat IPC: 1.17791 cumulative IPC: 1.15967 (Simulation time: 0 hr 20 min 9 sec) 
Heartbeat CPU  0 instructions:  453000001 cycles:  370170955 heartbeat IPC: 1.17875 cumulative IPC: 1.15973 (Simulation time: 0 hr 20 min 12 sec) 
Heartbeat CPU  0 instructions:  454000000 cycles:  371020096 heartbeat IPC: 1.17766 cumulative IPC: 1.15978 (Simulation time: 0 hr 20 min 15 sec) 
Heartbeat CPU  0 instructions:  455000003 cycles:  371867593 heartbeat IPC: 1.17995 cumulative IPC: 1.15983 (Simulation time: 0 hr 20 min 18 sec) 
Heartbeat CPU  0 instructions:  456000000 cycles:  372717198 heartbeat IPC: 1.17701 cumulative IPC: 1.15988 (Simulation time: 0 hr 20 min 21 sec) 
Heartbeat CPU  0 instructions:  457000000 cycles:  373565602 heartbeat IPC: 1.17868 cumulative IPC: 1.15993 (Simulation time: 0 hr 20 min 23 sec) 
Heartbeat CPU  0 instructions:  458000003 cycles:  374414923 heartbeat IPC: 1.17741 cumulative IPC: 1.15998 (Simulation time: 0 hr 20 min 26 sec) 
Heartbeat CPU  0 instructions:  459000002 cycles:  375261269 heartbeat IPC: 1.18155 cumulative IPC: 1.16004 (Simulation time: 0 hr 20 min 29 sec) 
Heartbeat CPU  0 instructions:  460000000 cycles:  376110401 heartbeat IPC: 1.17767 cumulative IPC: 1.16009 (Simulation time: 0 hr 20 min 32 sec) 
Heartbeat CPU  0 instructions:  461000000 cycles:  376957730 heartbeat IPC: 1.18018 cumulative IPC: 1.16014 (Simulation time: 0 hr 20 min 35 sec) 
Heartbeat CPU  0 instructions:  462000000 cycles:  377803881 heartbeat IPC: 1.18182 cumulative IPC: 1.16020 (Simulation time: 0 hr 20 min 37 sec) 
Heartbeat CPU  0 instructions:  463000000 cycles:  378649998 heartbeat IPC: 1.18187 cumulative IPC: 1.16026 (Simulation time: 0 hr 20 min 40 sec) 
Heartbeat CPU  0 instructions:  464000000 cycles:  379501460 heartbeat IPC: 1.17445 cumulative IPC: 1.16030 (Simulation time: 0 hr 20 min 43 sec) 
Heartbeat CPU  0 instructions:  465000001 cycles:  380348632 heartbeat IPC: 1.18040 cumulative IPC: 1.16035 (Simulation time: 0 hr 20 min 46 sec) 
Heartbeat CPU  0 instructions:  466000003 cycles:  381197709 heartbeat IPC: 1.17775 cumulative IPC: 1.16040 (Simulation time: 0 hr 20 min 49 sec) 
Heartbeat CPU  0 instructions:  467000002 cycles:  382043816 heartbeat IPC: 1.18188 cumulative IPC: 1.16046 (Simulation time: 0 hr 20 min 52 sec) 
Heartbeat CPU  0 instructions:  468000000 cycles:  382896708 heartbeat IPC: 1.17248 cumulative IPC: 1.16049 (Simulation time: 0 hr 20 min 54 sec) 
Heartbeat CPU  0 instructions:  469000000 cycles:  383744516 heartbeat IPC: 1.17951 cumulative IPC: 1.16054 (Simulation time: 0 hr 20 min 57 sec) 
Heartbeat CPU  0 instructions:  470000000 cycles:  384593197 heartbeat IPC: 1.17830 cumulative IPC: 1.16059 (Simulation time: 0 hr 21 min 0 sec) 
Heartbeat CPU  0 instructions:  471000003 cycles:  385441541 heartbeat IPC: 1.17877 cumulative IPC: 1.16063 (Simulation time: 0 hr 21 min 3 sec) 
Heartbeat CPU  0 instructions:  472000000 cycles:  386290584 heartbeat IPC: 1.17779 cumulative IPC: 1.16068 (Simulation time: 0 hr 21 min 6 sec) 
Heartbeat CPU  0 instructions:  473000000 cycles:  387137723 heartbeat IPC: 1.18044 cumulative IPC: 1.16073 (Simulation time: 0 hr 21 min 8 sec) 
Heartbeat CPU  0 instructions:  474000001 cycles:  387983352 heartbeat IPC: 1.18255 cumulative IPC: 1.16079 (Simulation time: 0 hr 21 min 11 sec) 
Heartbeat CPU  0 instructions:  475000000 cycles:  388830392 heartbeat IPC: 1.18058 cumulative IPC: 1.16084 (Simulation time: 0 hr 21 min 14 sec) 
Heartbeat CPU  0 instructions:  476000000 cycles:  389677854 heartbeat IPC: 1.17999 cumulative IPC: 1.16089 (Simulation time: 0 hr 21 min 17 sec) 
Heartbeat CPU  0 instructions:  477000002 cycles:  390526702 heartbeat IPC: 1.17807 cumulative IPC: 1.16094 (Simulation time: 0 hr 21 min 19 sec) 
Heartbeat CPU  0 instructions:  478000002 cycles:  391375924 heartbeat IPC: 1.17755 cumulative IPC: 1.16098 (Simulation time: 0 hr 21 min 22 sec) 
Heartbeat CPU  0 instructions:  479000001 cycles:  392224019 heartbeat IPC: 1.17911 cumulative IPC: 1.16103 (Simulation time: 0 hr 21 min 25 sec) 
Heartbeat CPU  0 instructions:  480000000 cycles:  393071480 heartbeat IPC: 1.17999 cumulative IPC: 1.16108 (Simulation time: 0 hr 21 min 28 sec) 
Heartbeat CPU  0 instructions:  481000002 cycles:  393921411 heartbeat IPC: 1.17657 cumulative IPC: 1.16112 (Simulation time: 0 hr 21 min 31 sec) 
Heartbeat CPU  0 instructions:  482000003 cycles:  394768904 heartbeat IPC: 1.17995 cumulative IPC: 1.16116 (Simulation time: 0 hr 21 min 34 sec) 
Heartbeat CPU  0 instructions:  483000002 cycles:  395620429 heartbeat IPC: 1.17436 cumulative IPC: 1.16120 (Simulation time: 0 hr 21 min 36 sec) 
Heartbeat CPU  0 instructions:  484000000 cycles:  396469093 heartbeat IPC: 1.17832 cumulative IPC: 1.16124 (Simulation time: 0 hr 21 min 39 sec) 
Heartbeat CPU  0 instructions:  485000003 cycles:  397317110 heartbeat IPC: 1.17923 cumulative IPC: 1.16129 (Simulation time: 0 hr 21 min 42 sec) 
Heartbeat CPU  0 instructions:  486000001 cycles:  398165651 heartbeat IPC: 1.17849 cumulative IPC: 1.16133 (Simulation time: 0 hr 21 min 45 sec) 
Heartbeat CPU  0 instructions:  487000002 cycles:  399014207 heartbeat IPC: 1.17847 cumulative IPC: 1.16138 (Simulation time: 0 hr 21 min 48 sec) 
Heartbeat CPU  0 instructions:  488000000 cycles:  399861453 heartbeat IPC: 1.18029 cumulative IPC: 1.16142 (Simulation time: 0 hr 21 min 50 sec) 
Heartbeat CPU  0 instructions:  489000003 cycles:  400708936 heartbeat IPC: 1.17997 cumulative IPC: 1.16147 (Simulation time: 0 hr 21 min 53 sec) 
Heartbeat CPU  0 instructions:  490000001 cycles:  401560827 heartbeat IPC: 1.17386 cumulative IPC: 1.16150 (Simulation time: 0 hr 21 min 56 sec) 
Heartbeat CPU  0 instructions:  491000000 cycles:  402410752 heartbeat IPC: 1.17657 cumulative IPC: 1.16154 (Simulation time: 0 hr 21 min 59 sec) 
Heartbeat CPU  0 instructions:  492000000 cycles:  403255238 heartbeat IPC: 1.18415 cumulative IPC: 1.16160 (Simulation time: 0 hr 22 min 2 sec) 
Heartbeat CPU  0 instructions:  493000001 cycles:  404103732 heartbeat IPC: 1.17856 cumulative IPC: 1.16164 (Simulation time: 0 hr 22 min 4 sec) 
Heartbeat CPU  0 instructions:  494000000 cycles:  404955888 heartbeat IPC: 1.17349 cumulative IPC: 1.16167 (Simulation time: 0 hr 22 min 7 sec) 
Heartbeat CPU  0 instructions:  495000003 cycles:  405801537 heartbeat IPC: 1.18253 cumulative IPC: 1.16172 (Simulation time: 0 hr 22 min 10 sec) 
Heartbeat CPU  0 instructions:  496000000 cycles:  406647593 heartbeat IPC: 1.18195 cumulative IPC: 1.16177 (Simulation time: 0 hr 22 min 13 sec) 
Heartbeat CPU  0 instructions:  497000001 cycles:  407495151 heartbeat IPC: 1.17986 cumulative IPC: 1.16182 (Simulation time: 0 hr 22 min 15 sec) 
Heartbeat CPU  0 instructions:  498000003 cycles:  408347463 heartbeat IPC: 1.17328 cumulative IPC: 1.16184 (Simulation time: 0 hr 22 min 18 sec) 
Heartbeat CPU  0 instructions:  499000001 cycles:  409196253 heartbeat IPC: 1.17815 cumulative IPC: 1.16188 (Simulation time: 0 hr 22 min 21 sec) 
Heartbeat CPU  0 instructions:  500000000 cycles:  410050447 heartbeat IPC: 1.17069 cumulative IPC: 1.16191 (Simulation time: 0 hr 22 min 24 sec) 
Heartbeat CPU  0 instructions:  501000003 cycles:  410895722 heartbeat IPC: 1.18305 cumulative IPC: 1.16196 (Simulation time: 0 hr 22 min 27 sec) 
Heartbeat CPU  0 instructions:  502000001 cycles:  411746118 heartbeat IPC: 1.17592 cumulative IPC: 1.16199 (Simulation time: 0 hr 22 min 29 sec) 
Heartbeat CPU  0 instructions:  503000000 cycles:  412593150 heartbeat IPC: 1.18059 cumulative IPC: 1.16204 (Simulation time: 0 hr 22 min 32 sec) 
Heartbeat CPU  0 instructions:  504000000 cycles:  413441449 heartbeat IPC: 1.17883 cumulative IPC: 1.16208 (Simulation time: 0 hr 22 min 35 sec) 
Heartbeat CPU  0 instructions:  505000000 cycles:  414290890 heartbeat IPC: 1.17724 cumulative IPC: 1.16212 (Simulation time: 0 hr 22 min 38 sec) 
Heartbeat CPU  0 instructions:  506000001 cycles:  415138222 heartbeat IPC: 1.18018 cumulative IPC: 1.16216 (Simulation time: 0 hr 22 min 41 sec) 
Heartbeat CPU  0 instructions:  507000000 cycles:  415988885 heartbeat IPC: 1.17555 cumulative IPC: 1.16219 (Simulation time: 0 hr 22 min 43 sec) 
Heartbeat CPU  0 instructions:  508000000 cycles:  416837617 heartbeat IPC: 1.17823 cumulative IPC: 1.16223 (Simulation time: 0 hr 22 min 46 sec) 
Heartbeat CPU  0 instructions:  509000000 cycles:  417684113 heartbeat IPC: 1.18134 cumulative IPC: 1.16228 (Simulation time: 0 hr 22 min 49 sec) 
Heartbeat CPU  0 instructions:  510000001 cycles:  418532940 heartbeat IPC: 1.17810 cumulative IPC: 1.16232 (Simulation time: 0 hr 22 min 52 sec) 
Heartbeat CPU  0 instructions:  511000001 cycles:  419385261 heartbeat IPC: 1.17327 cumulative IPC: 1.16234 (Simulation time: 0 hr 22 min 55 sec) 
Heartbeat CPU  0 instructions:  512000000 cycles:  420233475 heartbeat IPC: 1.17895 cumulative IPC: 1.16238 (Simulation time: 0 hr 22 min 57 sec) 
[...]
scooby_state_401661|25|-5 1,0,0,0,0,0,0,0,0,0,0,0,0,0,0,1,
scooby_state_400de5|16|-38 1,0,0,0,0,0,0,0,0,0,0,0,0,0,0,1,
scooby_state_400e20|9|4 1,0,0,0,0,0,0,0,0,0,0,0,0,0,0,1,
scooby_state_400dfd|35|2 1,0,0,0,0,0,0,0,0,0,0,0,0,0,0,1,
scooby_state_400c04|48|1 1,0,0,0,0,0,0,0,0,0,0,0,0,0,0,1,
scooby_state_402605|24|0 1,0,0,0,0,0,0,0,0,0,0,0,0,0,0,1,
scooby_state_400e5e|0|-9 1,0,0,0,0,0,0,0,0,0,0,0,0,0,0,1,
scooby_state_400e2c|61|-1 1,0,0,0,0,0,0,0,0,0,0,0,0,0,0,1,
scooby_state_400a87|42|1 1,0,0,0,0,0,0,0,0,0,0,0,0,0,0,1,
scooby_state_400a40|41|1 1,0,0,0,0,0,0,0,0,0,0,0,0,0,0,1,
scooby_state_4025a0|19|0 1,0,0,0,0,0,0,0,0,0,0,0,0,0,0,1,
scooby_state_402883|34|1 1,0,0,0,0,0,0,0,0,0,0,0,0,0,0,1,
scooby_state_400e5e|0|-23 1,0,0,0,0,0,0,0,0,0,0,0,0,0,0,1,
scooby_state_400e2c|20|-1 1,0,0,0,0,0,0,0,0,0,0,0,0,0,0,1,
scooby_state_400e2c|13|-1 1,0,0,0,0,0,0,0,0,0,0,0,0,0,0,1,
scooby_state_400e44|7|1 1,0,0,0,0,0,0,0,0,0,0,0,0,0,0,1,
scooby_state_401040|1|1 0,1,0,0,0,0,0,0,0,0,0,0,0,0,0,1,
scooby_state_400df3|27|3 1,0,0,0,0,0,0,0,0,0,0,0,0,0,0,1,
scooby_state_400de5|0|-23 1,0,0,0,0,0,0,0,0,0,0,0,0,0,0,1,
scooby_state_400902|36|1 1,0,0,0,0,0,0,0,0,0,0,0,0,0,0,1,
scooby_state_400dda|24|4 1,0,0,0,0,0,0,0,0,0,0,0,0,0,0,1,
scooby_state_400e44|25|-38 1,0,0,0,0,0,0,0,0,0,0,0,0,0,0,1,
scooby_state_400de5|20|-38 1,0,0,0,0,0,0,0,0,0,0,0,0,0,0,1,
scooby_state_400de5|60|43 1,0,0,0,0,0,0,0,0,0,0,0,0,0,0,1,
scooby_state_400de5|52|-11 1,0,0,0,0,0,0,0,0,0,0,0,0,0,0,1,
scooby_state_400525|20|1 1,0,0,0,0,0,0,0,0,0,0,0,0,0,0,1,
scooby_state_400df3|24|-3 1,0,0,0,0,0,0,0,0,0,0,0,0,0,0,1,
scooby_state_400e2c|26|-1 1,0,0,0,0,0,0,0,0,0,0,0,0,0,0,1,
scooby_state_400dfd|30|2 1,0,0,0,0,0,0,0,0,0,0,0,0,0,0,1,
scooby_state_400df3|42|2 1,0,0,0,0,0,0,0,0,0,0,0,0,0,0,1,
scooby_state_400e2c|30|-1 1,0,0,0,0,0,0,0,0,0,0,0,0,0,0,1,
scooby_state_400e44|0|-42 1,0,0,0,0,0,0,0,0,0,0,0,0,0,0,1,
scooby_state_400e01|56|1 1,0,0,0,0,0,0,0,0,0,0,0,0,0,0,1,
scooby_state_400dc0|20|-3 1,0,0,0,0,0,0,0,0,0,0,0,0,0,0,1,
scooby_state_400e20|38|2 1,0,0,0,0,0,0,0,0,0,0,0,0,0,0,1,
scooby_state_400e2c|40|-1 1,0,0,0,0,0,0,0,0,0,0,0,0,0,0,1,
scooby_state_4014fa|19|-8 1,0,0,0,0,0,0,0,0,0,0,0,0,0,0,1,
scooby_state_400e51|9|4 1,0,0,0,0,0,0,0,0,0,0,0,0,0,0,1,
scooby_state_4010c7|3|1 1,0,0,0,0,0,0,0,0,0,0,0,0,0,0,1,
scooby_state_400942|37|1 1,0,0,0,0,0,0,0,0,0,0,0,0,0,0,1,
scooby_state_400987|38|1 1,0,0,0,0,0,0,0,0,0,0,0,0,0,0,1,
scooby_state_400e2c|28|-1 1,0,0,0,0,0,0,0,0,0,0,0,0,0,0,1,
scooby_state_400d1d|61|7 1,0,0,0,0,0,0,0,0,0,0,0,0,0,0,1,
scooby_state_400e44|28|-35 1,0,0,0,0,0,0,0,0,0,0,0,0,0,0,1,
scooby_state_400dda|22|4 1,0,0,0,0,0,0,0,0,0,0,0,0,0,0,1,
scooby_state_400e38|36|-2 1,0,0,0,0,0,0,0,0,0,0,0,0,0,0,1,
scooby_state_400dda|38|4 1,0,0,0,0,0,0,0,0,0,0,0,0,0,0,1,
scooby_state_400b80|46|1 1,0,0,0,0,0,0,0,0,0,0,0,0,0,0,1,
scooby_state_400de5|40|-23 1,0,0,0,0,0,0,0,0,0,0,0,0,0,0,1,
scooby_state_4007c0|31|1 1,0,0,0,0,0,0,0,0,0,0,0,0,0,0,1,
scooby_state_400dda|9|4 1,0,0,0,0,0,0,0,0,0,0,0,0,0,0,1,
scooby_state_400e5e|42|0 1,0,0,0,0,0,0,0,0,0,0,0,0,0,0,1,
scooby_state_400e2c|4|-1 1,0,0,0,0,0,0,0,0,0,0,0,0,0,0,1,
scooby_state_400de5|5|-38 1,0,0,0,0,0,0,0,0,0,0,0,0,0,0,1,
scooby_state_400e2c|34|-1 1,0,0,0,0,0,0,0,0,0,0,0,0,0,0,1,
scooby_state_400e44|52|-1 1,0,0,0,0,0,0,0,0,0,0,0,0,0,0,1,
scooby_state_4014aa|18|1 1,0,0,0,0,0,0,0,0,0,0,0,0,0,0,1,
scooby_state_4003de|15|1 1,0,0,0,0,0,0,0,0,0,0,0,0,0,0,1,
scooby_state_400df3|50|2 1,0,0,0,0,0,0,0,0,0,0,0,0,0,0,1,
scooby_state_400e44|30|-33 1,0,0,0,0,0,0,0,0,0,0,0,0,0,0,1,
scooby_state_400d85|54|1 1,0,0,0,0,0,0,0,0,0,0,0,0,0,0,1,
scooby_state_400f87|62|1 1,0,0,0,0,0,0,0,0,0,0,0,0,0,0,1,
scooby_state_400ef0|53|-9 1,0,0,0,0,0,0,0,0,0,0,0,0,0,0,1,
scooby_state_400e38|24|4 1,0,0,0,0,0,0,0,0,0,0,0,0,0,0,1,
scooby_state_400e2c|3|-1 1,0,0,0,0,0,0,0,0,0,0,0,0,0,0,1,
scooby_state_400b00|44|1 1,0,0,0,0,0,0,0,0,0,0,0,0,0,0,1,
scooby_state_4009c2|39|1 1,0,0,0,0,0,0,0,0,0,0,0,0,0,0,1,
scooby_state_401783|30|1 1,0,0,0,0,0,0,0,0,0,0,0,0,0,0,1,
scooby_state_4027ee|1|-5 1,0,0,0,0,0,0,0,0,0,0,0,0,0,0,1,
scooby_state_400e2c|8|-1 1,0,0,0,0,0,0,0,0,0,0,0,0,0,0,1,
scooby_state_400e5e|0|-16 1,0,0,0,0,0,0,0,0,0,0,0,0,0,0,1,
scooby_state_400ac4|43|1 1,0,0,0,0,0,0,0,0,0,0,0,0,0,0,1,
scooby_state_400e5e|43|2 1,0,0,0,0,0,0,0,0,0,0,0,0,0,0,1,
scooby_state_400fc1|63|13 1,0,0,0,0,0,0,0,0,0,0,0,0,0,0,1,
scooby_state_400e20|52|-1 1,0,0,0,0,0,0,0,0,0,0,0,0,0,0,1,
scooby_state_400dfd|33|2 1,0,0,0,0,0,0,0,0,0,0,0,0,0,0,1,
scooby_state_401383|16|-1 1,0,0,0,0,0,0,0,0,0,0,0,0,0,0,1,
scooby_state_400a05|40|-23 1,0,0,0,0,0,0,0,0,0,0,0,0,0,0,1,
scooby_state_400e5e|0|-35 1,0,0,0,0,0,0,0,0,0,0,0,0,0,0,1,
scooby_state_400e44|32|0 1,0,0,0,0,0,0,0,0,0,0,0,0,0,0,1,
scooby_state_401082|2|0 1,0,0,0,0,0,0,0,0,0,0,0,0,0,0,1,
scooby_state_401003|0|0 1,0,0,0,0,0,0,0,0,0,0,0,0,0,0,1,
scooby_state_400c40|49|1 1,0,0,0,0,0,0,0,0,0,0,0,0,0,0,1,
scooby_state_400de5|0|-7 1,0,0,0,0,0,0,0,0,0,0,0,0,0,0,1,
scooby_state_400de5|63|0 1,0,0,0,0,0,0,0,0,0,0,0,0,0,0,1,
scooby_state_400df3|28|4 1,0,0,0,0,0,0,0,0,0,0,0,0,0,0,1,
scooby_state_400de5|3|-38 1,0,0,0,0,0,0,0,0,0,0,0,0,0,0,1,
scooby_state_400df3|34|-3 1,0,0,0,0,0,0,0,0,0,0,0,0,0,0,1,
scooby_state_400dda|5|-3 1,0,0,0,0,0,0,0,0,0,0,0,0,0,0,1,
scooby_state_400de5|0|-4 1,0,0,0,0,0,0,0,0,0,0,0,0,0,0,1,
scooby_state_400e44|33|-30 1,0,0,0,0,0,0,0,0,0,0,0,0,0,0,1,
scooby_state_400dc0|22|4 1,0,0,0,0,0,0,0,0,0,0,0,0,0,0,1,
scooby_state_402585|5|4 1,0,0,0,0,0,0,0,0,0,0,0,0,0,0,1,
scooby_state_402578|44|0 1,0,0,0,0,0,0,0,0,0,0,0,0,0,0,1,
scooby_state_400f47|58|1 1,0,0,0,0,0,0,0,0,0,0,0,0,0,0,1,
scooby_state_402580|22|1 1,0,0,0,0,0,0,0,0,0,0,0,0,0,0,1,
scooby_state_402519|17|1 1,0,0,0,0,0,0,0,0,0,0,0,0,0,0,1,
scooby_state_40251c|1|-9 1,0,0,0,0,0,0,0,0,0,0,0,0,0,0,1,
scooby_state_402509|10|7 1,0,0,0,0,0,0,0,0,0,0,0,0,0,0,1,
scooby_state_4024e2|3|3 1,0,0,0,0,0,0,0,0,0,0,0,0,0,0,1,
scooby_state_402500|20|1 1,0,0,0,0,0,0,0,0,0,0,0,0,0,0,1,
scooby_state_4024d1|16|0 1,0,0,0,0,0,0,0,0,0,0,0,0,0,0,1,
scooby_state_400df3|18|-3 1,0,0,0,0,0,0,0,0,0,0,0,0,0,0,1,
scooby_state_4024c5|0|-18 1,0,0,0,0,0,0,0,0,0,0,0,0,0,0,1,
scooby_state_4024c5|19|1 1,0,0,0,0,0,0,0,0,0,0,0,0,0,0,1,
scooby_state_400e09|6|-1 1,0,0,0,0,0,0,0,0,0,0,0,0,0,0,1,
scooby_state_400f08|52|-10 1,0,0,0,0,0,0,0,0,0,0,0,0,0,0,1,
scooby_state_4025c4|8|3 1,0,0,0,0,0,0,0,0,0,0,0,0,0,0,1,
scooby_state_40292d|1|-5 1,0,0,0,0,0,0,0,0,0,0,0,0,0,0,1,
scooby_state_400de0|50|-10 1,0,0,0,0,0,0,0,0,0,0,0,0,0,0,1,
scooby_state_400e44|17|1 1,0,0,0,0,0,0,0,0,0,0,0,0,0,0,1,
scooby_state_400e44|12|1 1,0,0,0,0,0,0,0,0,0,0,0,0,0,0,1,
scooby_state_400e13|2|0 1,0,0,0,0,0,0,0,0,0,0,0,0,0,0,1,
scooby_state_400df8|49|-13 1,0,0,0,0,0,0,0,0,0,0,0,0,0,0,1,
scooby_state_400e44|49|-14 1,0,0,0,0,0,0,0,0,0,0,0,0,0,0,1,
scooby_state_400e44|32|-1 1,0,0,0,0,0,0,0,0,0,0,0,0,0,0,1,
scooby_state_400e2c|32|-1 1,0,0,0,0,0,0,0,0,0,0,0,0,0,0,1,
scooby_state_400f7f|56|1 1,0,0,0,0,0,0,0,0,0,0,0,0,0,0,1,
scooby_state_400e2c|63|39 1,0,0,0,0,0,0,0,0,0,0,0,0,0,0,1,
scooby_state_400dfd|11|2 1,0,0,0,0,0,0,0,0,0,0,0,0,0,0,1,
scooby_state_400de5|54|-9 1,0,0,0,0,0,0,0,0,0,0,0,0,0,0,1,
scooby_state_400e5e|0|-14 1,0,0,0,0,0,0,0,0,0,0,0,0,0,0,1,
scooby_state_400dfd|32|2 1,0,0,0,0,0,0,0,0,0,0,0,0,0,0,1,
scooby_state_401383|14|-2 1,0,0,0,0,0,0,0,0,0,0,0,0,0,0,1,
scooby_state_40145d|17|-6 1,0,0,0,0,0,0,0,0,0,0,0,0,0,0,1,
scooby_state_400e5e|0|-31 1,0,0,0,0,0,0,0,0,0,0,0,0,0,0,1,
scooby_state_400e2c|47|-1 1,0,0,0,0,0,0,0,0,0,0,0,0,0,0,1,
scooby_state_400615|24|1 1,0,0,0,0,0,0,0,0,0,0,0,0,0,0,1,
scooby_state_4015cc|23|-1 1,0,0,0,0,0,0,0,0,0,0,0,0,0,0,1,
scooby_state_4005c3|23|1 1,0,0,0,0,0,0,0,0,0,0,0,0,0,0,1,
scooby_state_401631|24|3 1,0,0,0,0,0,0,0,0,0,0,0,0,0,0,1,
scooby_state_401566|21|-5 1,0,0,0,0,0,0,0,0,0,0,0,0,0,0,1,
scooby_state_400544|21|1 1,0,0,0,0,0,0,0,0,0,0,0,0,0,0,1,
scooby_state_4016dd|27|2 1,0,0,0,0,0,0,0,0,0,0,0,0,0,0,1,
scooby_state_400449|17|1 1,0,0,0,0,0,0,0,0,0,0,0,0,0,0,1,
scooby_state_400404|16|1 1,0,0,0,0,0,0,0,0,0,0,0,0,0,0,1,
scooby_state_401773|29|1 1,0,0,0,0,0,0,0,0,0,0,0,0,0,0,1,
scooby_state_400e20|24|4 1,0,0,0,0,0,0,0,0,0,0,0,0,0,0,1,
scooby_state_400383|14|1 1,0,0,0,0,0,0,0,0,0,0,0,0,0,0,1,
scooby_state_400de5|37|-26 1,0,0,0,0,0,0,0,0,0,0,0,0,0,0,1,
scooby_state_400317|17|0 1,0,0,0,0,0,0,0,0,0,0,0,0,0,0,1,
scooby_state_400300|12|1 1,0,0,0,0,0,0,0,0,0,0,0,0,0,0,1,
scooby_state_4002b0|10|0 1,0,0,0,0,0,0,0,0,0,0,0,0,0,0,1,
scooby_state_402980|38|1 1,0,0,0,0,0,0,0,0,0,0,0,0,0,0,1,
scooby_state_402940|37|1 1,0,0,0,0,0,0,0,0,0,0,0,0,0,0,1,
scooby_state_4028b8|2|1 1,0,0,0,0,0,0,0,0,0,0,0,0,0,0,1,
scooby_state_4028c0|35|1 1,0,0,0,0,0,0,0,0,0,0,0,0,0,0,1,
scooby_state_4005a3|22|1 1,0,0,0,0,0,0,0,0,0,0,0,0,0,0,1,
scooby_state_402877|43|0 1,0,0,0,0,0,0,0,0,0,0,0,0,0,0,1,
scooby_state_400df3|9|4 1,0,0,0,0,0,0,0,0,0,0,0,0,0,0,1,
scooby_state_400e09|23|0 1,0,0,0,0,0,0,0,0,0,0,0,0,0,0,1,
scooby_state_402800|32|1 1,0,0,0,0,0,0,0,0,0,0,0,0,0,0,1,
scooby_state_400de0|50|-4 1,0,0,0,0,0,0,0,0,0,0,0,0,0,0,1,
scooby_state_400e2c|15|-1 1,0,0,0,0,0,0,0,0,0,0,0,0,0,0,1,
scooby_state_4025ab|35|0 1,0,0,0,0,0,0,0,0,0,0,0,0,0,0,1,
scooby_state_400e09|2|-3 1,0,0,0,0,0,0,0,0,0,0,0,0,0,0,1,
scooby_state_402844|33|1 1,0,0,0,0,0,0,0,0,0,0,0,0,0,0,1,
scooby_state_400de5|0|-30 1,0,0,0,0,0,0,0,0,0,0,0,0,0,0,1,
scooby_state_400de5|61|-2 1,0,0,0,0,0,0,0,0,0,0,0,0,0,0,1,
scooby_state_400e44|37|-26 1,0,0,0,0,0,0,0,0,0,0,0,0,0,0,1,
scooby_state_400e5e|0|-4 1,0,0,0,0,0,0,0,0,0,0,0,0,0,0,1,
scooby_state_400dfd|22|2 1,0,0,0,0,0,0,0,0,0,0,0,0,0,0,1,
scooby_state_400de5|0|-11 1,0,0,0,0,0,0,0,0,0,0,0,0,0,0,1,
scooby_state_400dfd|36|2 1,0,0,0,0,0,0,0,0,0,0,0,0,0,0,1,
scooby_state_400dcd|24|1 1,0,0,0,0,0,0,0,0,0,0,0,0,0,0,1,
scooby_state_400dcd|46|41 1,0,0,0,0,0,0,0,0,0,0,0,0,0,0,1,
scooby_state_400de5|7|-38 1,0,0,0,0,0,0,0,0,0,0,0,0,0,0,1,
scooby_state_400e20|5|-3 1,0,0,0,0,0,0,0,0,0,0,0,0,0,0,1,
scooby_state_40294d|17|16 1,0,0,0,0,0,0,0,0,0,0,0,0,0,0,1,
scooby_state_400dfd|27|2 1,0,0,0,0,0,0,0,0,0,0,0,0,0,0,1,
scooby_state_400df3|22|4 1,0,0,0,0,0,0,0,0,0,0,0,0,0,0,1,
scooby_state_400de5|30|-33 1,0,0,0,0,0,0,0,0,0,0,0,0,0,0,1,
scooby_state_400e2c|38|-1 1,0,0,0,0,0,0,0,0,0,0,0,0,0,0,1,
scooby_state_402545|21|1 1,0,0,0,0,0,0,0,0,0,0,0,0,0,0,1,
scooby_state_400dda|20|-3 1,0,0,0,0,0,0,0,0,0,0,0,0,0,0,1,
scooby_state_400e85|58|1 1,0,0,0,0,0,0,0,0,0,0,0,0,0,0,1,
scooby_state_400de5|21|-38 1,0,0,0,0,0,0,0,0,0,0,0,0,0,0,1,
scooby_state_400e38|20|-3 1,0,0,0,0,0,0,0,0,0,0,0,0,0,0,1,
scooby_state_400e51|5|-3 1,0,0,0,0,0,0,0,0,0,0,0,0,0,0,1,
scooby_state_400cc8|51|-8 1,0,0,0,0,0,0,0,0,0,0,0,0,0,0,1,
scooby_state_400e56|58|-1 1,0,0,0,0,0,0,0,0,0,0,0,0,0,0,1,
scooby_state_400e5e|0|-18 1,0,0,0,0,0,0,0,0,0,0,0,0,0,0,1,
scooby_state_400342|13|1 1,0,0,0,0,0,0,0,0,0,0,0,0,0,0,1,
scooby_state_4027ea|31|0 1,0,0,0,0,0,0,0,0,0,0,0,0,0,0,1,
scooby_state_400e5e|0|-38 1,0,0,0,0,0,0,0,0,0,0,0,0,0,0,1,
scooby_state_400e2c|49|-1 1,0,0,0,0,0,0,0,0,0,0,0,0,0,0,1,
scooby_state_400de5|0|-9 1,0,0,0,0,0,0,0,0,0,0,0,0,0,0,1,
scooby_state_400dcd|37|1 1,0,0,0,0,0,0,0,0,0,0,0,0,0,0,1,
scooby_state_400dfd|15|2 1,0,0,0,0,0,0,0,0,0,0,0,0,0,0,1,
scooby_state_400f0d|62|10 1,0,0,0,0,0,0,0,0,0,0,0,0,0,0,1,
scooby_state_400de5|0|-37 1,0,0,0,0,0,0,0,0,0,0,0,0,0,0,1,
scooby_state_400e2c|37|0 1,0,0,0,0,0,0,0,0,0,0,0,0,0,0,1,
scooby_state_400e5e|0|-28 1,0,0,0,0,0,0,0,0,0,0,0,0,0,0,1,
scooby_state_400de5|6|-38 1,0,0,0,0,0,0,0,0,0,0,0,0,0,0,1,
scooby_state_400e44|44|-19 1,0,0,0,0,0,0,0,0,0,0,0,0,0,0,1,
scooby_state_400e2c|44|-1 1,0,0,0,0,0,0,0,0,0,0,0,0,0,0,1,
scooby_state_400e09|2|-2 1,0,0,0,0,0,0,0,0,0,0,0,0,0,0,1,
scooby_state_400de5|35|-28 1,0,0,0,0,0,0,0,0,0,0,0,0,0,0,1,
scooby_state_400e2c|54|38 1,0,0,0,0,0,0,0,0,0,0,0,0,0,0,1,
scooby_state_400dc0|38|2 1,0,0,0,0,0,0,0,0,0,0,0,0,0,0,1,
scooby_state_400de5|0|-35 1,0,0,0,0,0,0,0,0,0,0,0,0,0,0,1,
scooby_state_400e2c|58|-1 1,0,0,0,0,0,0,0,0,0,0,0,0,0,0,1,
scooby_state_400dfd|4|2 1,0,0,0,0,0,0,0,0,0,0,0,0,0,0,1,
scooby_state_40068b|26|1 1,0,0,0,0,0,0,0,0,0,0,0,0,0,0,1,
scooby_state_400e44|42|-21 1,0,0,0,0,0,0,0,0,0,0,0,0,0,0,1,
scooby_state_400643|25|1 1,0,0,0,0,0,0,0,0,0,0,0,0,0,0,1,
scooby_state_400dcd|2|1 1,0,0,0,0,0,0,0,0,0,0,0,0,0,0,1,
scooby_state_400de5|49|-14 1,0,0,0,0,0,0,0,0,0,0,0,0,0,0,1,
scooby_state_400e2c|25|-1 1,0,0,0,0,0,0,0,0,0,0,0,0,0,0,1,
scooby_state_401400|16|0 1,0,0,0,0,0,0,0,0,0,0,0,0,0,0,1,
scooby_state_4025c4|23|1 1,0,0,0,0,0,0,0,0,0,0,0,0,0,0,1,
scooby_state_400e7c|60|10 1,0,0,0,0,0,0,0,0,0,0,0,0,0,0,1,
scooby_state_400de0|50|-12 1,0,0,0,0,0,0,0,0,0,0,0,0,0,0,1,
scooby_state_400e44|56|-7 1,0,0,0,0,0,0,0,0,0,0,0,0,0,0,1,
scooby_state_400de5|0|-16 1,0,0,0,0,0,0,0,0,0,0,0,0,0,0,1,
scooby_state_400e2c|39|-1 1,0,0,0,0,0,0,0,0,0,0,0,0,0,0,1,
scooby_state_4004c0|19|1 1,0,0,0,0,0,0,0,0,0,0,0,0,0,0,1,
scooby_state_400e38|50|2 1,0,0,0,0,0,0,0,0,0,0,0,0,0,0,1,

scooby_action_0_deg_dist 0,1456,0,0,0,0,0,0,0,0,0,0,0,0,0,0,
scooby_action_12_deg_dist 0,2387,0,0,0,0,0,0,0,0,0,0,0,0,0,0,
scooby_action_3_deg_dist 0,1459,0,0,0,0,0,0,0,0,0,0,0,0,0,0,
scooby_action_32_deg_dist 0,1399,0,0,0,0,0,0,0,0,0,0,0,0,0,0,
scooby_action_5_deg_dist 0,1437,0,0,0,0,0,0,0,0,0,0,0,0,0,0,
scooby_action_1_deg_dist 0,523628,339370,0,850090,0,10304663,0,0,0,0,0,0,0,0,0,
scooby_action_30_deg_dist 0,1439,0,0,0,0,0,0,0,0,0,0,0,0,0,0,
scooby_action_4_deg_dist 0,1485,0,0,0,0,0,0,0,0,0,0,0,0,0,0,
scooby_action_-3_deg_dist 0,1446,0,0,0,0,0,0,0,0,0,0,0,0,0,0,
scooby_action_10_deg_dist 0,1495,0,0,0,0,0,0,0,0,0,0,0,0,0,0,
scooby_action_-1_deg_dist 0,1467,0,0,0,0,0,0,0,0,0,0,0,0,0,0,
scooby_action_23_deg_dist 0,1416,0,0,0,0,0,0,0,0,0,0,0,0,0,0,
scooby_action_-6_deg_dist 0,1431,6,0,0,0,0,0,0,0,0,0,0,0,0,0,
scooby_action_11_deg_dist 0,1453,0,0,0,0,0,0,0,0,0,0,0,0,0,0,
scooby_action_22_deg_dist 0,1475,0,0,0,0,0,0,0,0,0,0,0,0,0,0,

scooby_track_called 12039002
scooby_track_same_address 608178
scooby_track_evict 11430568

scooby_reward_demand_called 12039002
scooby_reward_demand_pt_not_found 253381
scooby_reward_demand_pt_found 11785621
scooby_reward_demand_pt_found_total 11785621
scooby_reward_demand_has_reward 602391
scooby_reward_train_called 23001
scooby_reward_assign_reward_called 11430810
scooby_reward_no_pref 1456
scooby_reward_incorrect 21545
scooby_reward_correct_untimely 10480421
scooby_reward_correct_timely 702809
scooby_reward_out_of_bounds 224579
scooby_reward_tracker_hit 0

scooby_reward_none_low_bw 1456
scooby_reward_none_high_bw 0
scooby_reward_incorrect_low_bw 21545
scooby_reward_incorrect_high_bw 0
scooby_reward_correct_untimely_low_bw 10480421
scooby_reward_correct_untimely_high_bw 0
scooby_reward_correct_timely_low_bw 702809
scooby_reward_correct_timely_high_bw 0
scooby_reward_out_of_bounds_low_bw 224579
scooby_reward_out_of_bounds_high_bw 0
scooby_reward_tracker_hit_low_bw 0
scooby_reward_tracker_hit_high_bw 0

scooby_reward_1 0,20336,10477985,695453,219702,0,
scooby_reward_3 0,4,1088,267,80,0,
scooby_reward_4 0,2,833,543,102,0,
scooby_reward_5 0,6,513,789,127,0,
scooby_reward_10 0,134,0,1075,285,0,
scooby_reward_11 0,143,0,1043,266,0,
scooby_reward_12 0,151,0,1028,1208,0,
scooby_reward_22 0,119,0,806,550,0,
scooby_reward_23 0,122,0,722,572,0,
scooby_reward_30 0,83,0,645,710,0,
scooby_reward_32 0,203,0,438,758,0,
scooby_reward_-1 0,31,2,0,19,0,
scooby_reward_-3 0,24,0,0,52,0,
scooby_reward_-6 0,187,0,0,148,0,
scooby_reward_0 1456,0,0,0,0,0,

scooby_train_called 11430567
scooby_train_compute_reward 23001

scooby_register_fill_called 10180686
scooby_register_fill_set 704412
scooby_register_fill_set_total 704412

scooby_register_prefetch_hit_called 31480020
scooby_register_prefetch_hit_set 9511350
scooby_register_prefetch_hit_set_total 9511350

scooby_pref_issue_scooby 58858474

learning_engine_featurewise.action.called 12039002
learning_engine_featurewise.action.explore 21854
learning_engine_featurewise.action.exploit 12017148
learning_engine_featurewise.action.fallback 0
learning_engine_featurewise.action.dyn_fallback_saved_bw 0
learning_engine_featurewise.action.dyn_fallback_saved_bw_acc 830
learning_engine_featurewise.action.index_1_explored 1482
learning_engine_featurewise.action.index_1_exploited 12016269
learning_engine_featurewise.action.index_3_explored 1453
learning_engine_featurewise.action.index_3_exploited 6
learning_engine_featurewise.action.index_4_explored 1483
learning_engine_featurewise.action.index_4_exploited 2
learning_engine_featurewise.action.index_5_explored 1431
learning_engine_featurewise.action.index_5_exploited 6
learning_engine_featurewise.action.index_10_explored 1492
learning_engine_featurewise.action.index_10_exploited 3
learning_engine_featurewise.action.index_11_explored 1451
learning_engine_featurewise.action.index_11_exploited 2
learning_engine_featurewise.action.index_12_explored 1527
learning_engine_featurewise.action.index_12_exploited 860
learning_engine_featurewise.action.index_22_explored 1475
learning_engine_featurewise.action.index_22_exploited 0
learning_engine_featurewise.action.index_23_explored 1416
learning_engine_featurewise.action.index_23_exploited 0
learning_engine_featurewise.action.index_30_explored 1439
learning_engine_featurewise.action.index_30_exploited 0
learning_engine_featurewise.action.index_32_explored 1399
learning_engine_featurewise.action.index_32_exploited 0
learning_engine_featurewise.action.index_-1_explored 1467
learning_engine_featurewise.action.index_-1_exploited 0
learning_engine_featurewise.action.index_-3_explored 1446
learning_engine_featurewise.action.index_-3_exploited 0
learning_engine_featurewise.action.index_-6_explored 1437
learning_engine_featurewise.action.index_-6_exploited 0
learning_engine_featurewise.action.index_0_explored 1456
learning_engine_featurewise.action.index_0_exploited 0
learning_engine_featurewise.learn.called 11430567
learning_engine_featurewise.learn.su_skip_PC 0
learning_engine_featurewise.learn.su_skip_PC_Delta 0

learning_engine_featurewise.q_value_histogram.bucket_0 0
learning_engine_featurewise.q_value_histogram.bucket_1 0
learning_engine_featurewise.q_value_histogram.bucket_2 0
learning_engine_featurewise.q_value_histogram.bucket_3 0
learning_engine_featurewise.q_value_histogram.bucket_4 6339
learning_engine_featurewise.q_value_histogram.bucket_5 5230
learning_engine_featurewise.q_value_histogram.bucket_6 12005579
learning_engine_featurewise.q_value_histogram.bucket_7 0

learning_engine_featurewise.consensus.total 12017148
learning_engine_featurewise.consensus.feature_align_PC 12015491
learning_engine_featurewise.consensus.feature_align_PC_ratio 1.00
learning_engine_featurewise.consensus.feature_align_PC_Delta 12012130
learning_engine_featurewise.consensus.feature_align_PC_Delta_ratio 1.00
learning_engine_featurewise.consensus.feature_align_all 12010473
learning_engine_featurewise.consensus.feature_align_all_ratio 1.00

learning_engine_featurewise.feature_PC_min_weight 1000000.00000000
learning_engine_featurewise.feature_PC_max_weight 0.00000000
learning_engine_featurewise.feature_PC_Delta_min_weight 1000000.00000000
learning_engine_featurewise.feature_PC_Delta_max_weight 0.00000000
unique_pcs 154
unique_pages 102972
unique_trigger_pcs 34
total_bitmaps_seen 0
unique_bitmaps_seen 0

scooby_bw_epochs 1933233
scooby_bw_level_0 630373
scooby_bw_level_1 486549
scooby_bw_level_2 364218
scooby_bw_level_3 452093

scooby_ipc_epochs 0
scooby_ipc_level_0 0
scooby_ipc_level_1 0
scooby_ipc_level_2 0
scooby_ipc_level_3 0

scooby_cache_acc_epochs 469604
scooby_cache_acc_level_0 1
scooby_cache_acc_level_1 4
scooby_cache_acc_level_2 152
scooby_cache_acc_level_3 265
scooby_cache_acc_level_4 939
scooby_cache_acc_level_5 2520
scooby_cache_acc_level_6 4888
scooby_cache_acc_level_7 11739
scooby_cache_acc_level_8 36576
scooby_cache_acc_level_9 412520

Channel_0_RQ_row_buffer_hit 6470913
Channel_0_RQ_row_buffer_miss 2775191
Channel_0_WQ_row_buffer_hit 91759
Channel_0_WQ_row_buffer_miss 295929
Channel_0_WQ_full 0
Channel_0_dbus_congested 3299016

avg_congested_cycle 8

DRAM_bw_pochs 1933233
DRAM_bw_level_0 630373
DRAM_bw_level_1 486549
DRAM_bw_level_2 364218
DRAM_bw_level_3 452093
