*************************************************
   ChampSim Multicore Out-of-Order Simulator
   Last compiled: Dec 11 2024 17:59:53
*************************************************
parsing config file: /home/functionmain/桌面/Pythia/config/spp_dev2.ini

trace_0 /home/functionmain/桌面/Pythia/traces/410.bwaves-1963B.champsimtrace.xz
adding L2C_PREFETCHER: SPP_dev2
Initialize SIGNATURE TABLE
ST_SET: 1
ST_WAY: 256
ST_TAG_BIT: 16
ST_TAG_MASK: ffff

Initialize PATTERN TABLE
PT_SET: 512
PT_WAY: 4
SIG_DELTA_BIT: 7
C_SIG_BIT: 4
C_DELTA_BIT: 4

Initialize PREFETCH FILTER
FILTER_SET: 1024
fill_threshold: 90
pf_threshold: 40

Initialize SHIP state
warmup_instructions 100000000
simulation_instructions 500000000
champsim_seed 277
measure_ipc 0
measure_ipc_epoch 1000
measure_dram_bw 1
measure_dram_bw_epoch 256
measure_cache_acc 1
measure_cache_acc_epoch 1024
l1d_perfect 0
l2c_perfect 0
llc_perfect 0
l1d_semi_perfect 0
l2c_semi_perfect 0
llc_semi_perfect 0
semi_perfect_cache_page_buffer_size 64

num_cpus 1
cpu_freq 4000
dram_io_freq 2400
page_size 4096
block_size 64
max_read_per_cycle 8
max_fill_per_cycle 1
dram_channels 1
log2_dram_channels 0
dram_ranks 1
dram_banks 8
dram_rows 65536
dram_columns 128
dram_row_size 8
dram_size 4096
dram_pages 1048576

fetch_width 6
decode_width 6
exec_width 4
lq_width 2
sq_width 2
retire_width 4
scheduler_size 128
branch_mispredict_penalty 20
rob_size 256
lq_size 72
sq_size 56
num_instr_destinations_sparc 4
num_instr_destinations 2
num_instr_sources 4

itlb_set 16
itlb_way 8
itlb_rq_size 16
itlb_wq_size 16
itlb_pq_size 0
itlb_mshr_size 8
itlb_latency 1

dtlb_set 16
dtlb_way 4
dtlb_rq_size 16
dtlb_wq_size 16
dtlb_pq_size 0
dtlb_mshr_size 8
dtlb_latency 1

stlb_set 128
stlb_way 12
stlb_rq_size 32
stlb_wq_size 32
stlb_pq_size 0
stlb_mshr_size 16
stlb_latency 8

l1i_size 32
l1i_set 64
l1i_way 8
l1i_rq_size 64
l1i_wq_size 64
l1i_pq_size 8
l1i_mshr_size 8
l1i_latency 1

l1d_size 32
l1d_set 64
l1d_way 8
l1d_rq_size 64
l1d_wq_size 64
l1d_pq_size 8
l1d_mshr_size 16
l1d_latency 4

l2c_size 256
l2c_set 512
l2c_way 8
l2c_rq_size 32
l2c_wq_size 32
l2c_pq_size 32
l2c_mshr_size 32
l2c_latency 10

llc_size 2048
llc_set 2048
llc_way 16
llc_rq_size 32
llc_wq_size 32
llc_pq_size 32
llc_mshr_size 64
llc_latency 20

dram_channel_width 8
dram_wq_size 64
dram_rq_size 64
tRP 15
tRCD 15
tCAS 12.5
dram_dbus_turn_around_time 30
dram_write_high_wm 56
dram_write_low_wm 48
min_dram_writes_per_switch 16
dram_mtps 2400
dram_dbus_return_time 13


Heartbeat CPU  0 instructions:    1000002 cycles:     658411 heartbeat IPC: 1.51881 cumulative IPC: 1.51881 (Simulation time: 0 hr 0 min 3 sec) 
Heartbeat CPU  0 instructions:    2000002 cycles:    1316367 heartbeat IPC: 1.51986 cumulative IPC: 1.51933 (Simulation time: 0 hr 0 min 5 sec) 
Heartbeat CPU  0 instructions:    3000002 cycles:    1974413 heartbeat IPC: 1.51965 cumulative IPC: 1.51944 (Simulation time: 0 hr 0 min 8 sec) 
Heartbeat CPU  0 instructions:    4000000 cycles:    2632403 heartbeat IPC: 1.51978 cumulative IPC: 1.51952 (Simulation time: 0 hr 0 min 10 sec) 
Heartbeat CPU  0 instructions:    5000002 cycles:    3290501 heartbeat IPC: 1.51953 cumulative IPC: 1.51953 (Simulation time: 0 hr 0 min 13 sec) 
Heartbeat CPU  0 instructions:    6000002 cycles:    3948480 heartbeat IPC: 1.51981 cumulative IPC: 1.51957 (Simulation time: 0 hr 0 min 15 sec) 
Heartbeat CPU  0 instructions:    7000000 cycles:    4606470 heartbeat IPC: 1.51978 cumulative IPC: 1.51960 (Simulation time: 0 hr 0 min 18 sec) 
Heartbeat CPU  0 instructions:    8000000 cycles:    5264470 heartbeat IPC: 1.51976 cumulative IPC: 1.51962 (Simulation time: 0 hr 0 min 20 sec) 
Heartbeat CPU  0 instructions:    9000001 cycles:    5922513 heartbeat IPC: 1.51966 cumulative IPC: 1.51963 (Simulation time: 0 hr 0 min 23 sec) 
Heartbeat CPU  0 instructions:   10000002 cycles:    6580559 heartbeat IPC: 1.51965 cumulative IPC: 1.51963 (Simulation time: 0 hr 0 min 25 sec) 
Heartbeat CPU  0 instructions:   11000001 cycles:    7238570 heartbeat IPC: 1.51973 cumulative IPC: 1.51964 (Simulation time: 0 hr 0 min 28 sec) 
Heartbeat CPU  0 instructions:   12000000 cycles:    7896578 heartbeat IPC: 1.51974 cumulative IPC: 1.51965 (Simulation time: 0 hr 0 min 30 sec) 
Heartbeat CPU  0 instructions:   13000001 cycles:    8554695 heartbeat IPC: 1.51949 cumulative IPC: 1.51963 (Simulation time: 0 hr 0 min 33 sec) 
Heartbeat CPU  0 instructions:   14000001 cycles:    9212544 heartbeat IPC: 1.52011 cumulative IPC: 1.51967 (Simulation time: 0 hr 0 min 35 sec) 
Heartbeat CPU  0 instructions:   15000000 cycles:    9870393 heartbeat IPC: 1.52010 cumulative IPC: 1.51970 (Simulation time: 0 hr 0 min 38 sec) 
Heartbeat CPU  0 instructions:   16000000 cycles:   10528312 heartbeat IPC: 1.51994 cumulative IPC: 1.51971 (Simulation time: 0 hr 0 min 41 sec) 
Heartbeat CPU  0 instructions:   17000002 cycles:   11186301 heartbeat IPC: 1.51979 cumulative IPC: 1.51972 (Simulation time: 0 hr 0 min 44 sec) 
Heartbeat CPU  0 instructions:   18000000 cycles:   11844219 heartbeat IPC: 1.51994 cumulative IPC: 1.51973 (Simulation time: 0 hr 0 min 46 sec) 
Heartbeat CPU  0 instructions:   19000001 cycles:   12502127 heartbeat IPC: 1.51997 cumulative IPC: 1.51974 (Simulation time: 0 hr 0 min 49 sec) 
Heartbeat CPU  0 instructions:   20000000 cycles:   13160094 heartbeat IPC: 1.51983 cumulative IPC: 1.51975 (Simulation time: 0 hr 0 min 52 sec) 
Heartbeat CPU  0 instructions:   21000003 cycles:   13818105 heartbeat IPC: 1.51974 cumulative IPC: 1.51975 (Simulation time: 0 hr 0 min 55 sec) 
Heartbeat CPU  0 instructions:   22000001 cycles:   14475930 heartbeat IPC: 1.52016 cumulative IPC: 1.51976 (Simulation time: 0 hr 0 min 57 sec) 
Heartbeat CPU  0 instructions:   23000001 cycles:   15133922 heartbeat IPC: 1.51978 cumulative IPC: 1.51976 (Simulation time: 0 hr 1 min 0 sec) 
Heartbeat CPU  0 instructions:   24000000 cycles:   15791763 heartbeat IPC: 1.52012 cumulative IPC: 1.51978 (Simulation time: 0 hr 1 min 3 sec) 
Heartbeat CPU  0 instructions:   25000001 cycles:   16449795 heartbeat IPC: 1.51968 cumulative IPC: 1.51978 (Simulation time: 0 hr 1 min 6 sec) 
Heartbeat CPU  0 instructions:   26000003 cycles:   17107522 heartbeat IPC: 1.52039 cumulative IPC: 1.51980 (Simulation time: 0 hr 1 min 8 sec) 
Heartbeat CPU  0 instructions:   27000000 cycles:   17765447 heartbeat IPC: 1.51993 cumulative IPC: 1.51980 (Simulation time: 0 hr 1 min 11 sec) 
Heartbeat CPU  0 instructions:   28000000 cycles:   18423280 heartbeat IPC: 1.52014 cumulative IPC: 1.51982 (Simulation time: 0 hr 1 min 14 sec) 
Heartbeat CPU  0 instructions:   29000000 cycles:   19081246 heartbeat IPC: 1.51984 cumulative IPC: 1.51982 (Simulation time: 0 hr 1 min 17 sec) 
Heartbeat CPU  0 instructions:   30000001 cycles:   19739091 heartbeat IPC: 1.52012 cumulative IPC: 1.51983 (Simulation time: 0 hr 1 min 20 sec) 
Heartbeat CPU  0 instructions:   31000002 cycles:   20397155 heartbeat IPC: 1.51961 cumulative IPC: 1.51982 (Simulation time: 0 hr 1 min 24 sec) 
Heartbeat CPU  0 instructions:   32000000 cycles:   21055192 heartbeat IPC: 1.51967 cumulative IPC: 1.51982 (Simulation time: 0 hr 1 min 28 sec) 
Heartbeat CPU  0 instructions:   33000000 cycles:   21713313 heartbeat IPC: 1.51948 cumulative IPC: 1.51980 (Simulation time: 0 hr 1 min 31 sec) 
Heartbeat CPU  0 instructions:   34000002 cycles:   22371351 heartbeat IPC: 1.51967 cumulative IPC: 1.51980 (Simulation time: 0 hr 1 min 34 sec) 
Heartbeat CPU  0 instructions:   35000001 cycles:   23029401 heartbeat IPC: 1.51964 cumulative IPC: 1.51980 (Simulation time: 0 hr 1 min 37 sec) 
Heartbeat CPU  0 instructions:   36000000 cycles:   23687417 heartbeat IPC: 1.51972 cumulative IPC: 1.51979 (Simulation time: 0 hr 1 min 40 sec) 
Heartbeat CPU  0 instructions:   37000002 cycles:   24345459 heartbeat IPC: 1.51966 cumulative IPC: 1.51979 (Simulation time: 0 hr 1 min 43 sec) 
Heartbeat CPU  0 instructions:   38000000 cycles:   25003361 heartbeat IPC: 1.51998 cumulative IPC: 1.51980 (Simulation time: 0 hr 1 min 46 sec) 
Heartbeat CPU  0 instructions:   39000000 cycles:   25661414 heartbeat IPC: 1.51963 cumulative IPC: 1.51979 (Simulation time: 0 hr 1 min 49 sec) 
Heartbeat CPU  0 instructions:   40000000 cycles:   26319331 heartbeat IPC: 1.51995 cumulative IPC: 1.51980 (Simulation time: 0 hr 1 min 51 sec) 
Heartbeat CPU  0 instructions:   41000000 cycles:   26977417 heartbeat IPC: 1.51956 cumulative IPC: 1.51979 (Simulation time: 0 hr 1 min 54 sec) 
Heartbeat CPU  0 instructions:   42000003 cycles:   27635476 heartbeat IPC: 1.51963 cumulative IPC: 1.51979 (Simulation time: 0 hr 1 min 57 sec) 
Heartbeat CPU  0 instructions:   43000001 cycles:   28293470 heartbeat IPC: 1.51977 cumulative IPC: 1.51979 (Simulation time: 0 hr 1 min 59 sec) 
Heartbeat CPU  0 instructions:   44000000 cycles:   28951362 heartbeat IPC: 1.52000 cumulative IPC: 1.51979 (Simulation time: 0 hr 2 min 2 sec) 
Heartbeat CPU  0 instructions:   45000000 cycles:   29609286 heartbeat IPC: 1.51993 cumulative IPC: 1.51979 (Simulation time: 0 hr 2 min 4 sec) 
Heartbeat CPU  0 instructions:   46000001 cycles:   30267281 heartbeat IPC: 1.51977 cumulative IPC: 1.51979 (Simulation time: 0 hr 2 min 7 sec) 
Heartbeat CPU  0 instructions:   47000003 cycles:   30925209 heartbeat IPC: 1.51993 cumulative IPC: 1.51980 (Simulation time: 0 hr 2 min 10 sec) 
Heartbeat CPU  0 instructions:   48000000 cycles:   31582916 heartbeat IPC: 1.52043 cumulative IPC: 1.51981 (Simulation time: 0 hr 2 min 13 sec) 
Heartbeat CPU  0 instructions:   49000000 cycles:   32240800 heartbeat IPC: 1.52002 cumulative IPC: 1.51981 (Simulation time: 0 hr 2 min 15 sec) 
Heartbeat CPU  0 instructions:   50000003 cycles:   32898789 heartbeat IPC: 1.51979 cumulative IPC: 1.51981 (Simulation time: 0 hr 2 min 18 sec) 
Heartbeat CPU  0 instructions:   51000000 cycles:   33556662 heartbeat IPC: 1.52005 cumulative IPC: 1.51982 (Simulation time: 0 hr 2 min 20 sec) 
Heartbeat CPU  0 instructions:   52000000 cycles:   34214523 heartbeat IPC: 1.52008 cumulative IPC: 1.51982 (Simulation time: 0 hr 2 min 23 sec) 
Heartbeat CPU  0 instructions:   53000003 cycles:   34872486 heartbeat IPC: 1.51985 cumulative IPC: 1.51982 (Simulation time: 0 hr 2 min 27 sec) 
Heartbeat CPU  0 instructions:   54000001 cycles:   35530453 heartbeat IPC: 1.51983 cumulative IPC: 1.51982 (Simulation time: 0 hr 2 min 29 sec) 
Heartbeat CPU  0 instructions:   55000003 cycles:   36188384 heartbeat IPC: 1.51992 cumulative IPC: 1.51982 (Simulation time: 0 hr 2 min 32 sec) 
Heartbeat CPU  0 instructions:   56000000 cycles:   36846314 heartbeat IPC: 1.51991 cumulative IPC: 1.51983 (Simulation time: 0 hr 2 min 35 sec) 
Heartbeat CPU  0 instructions:   57000001 cycles:   37504139 heartbeat IPC: 1.52016 cumulative IPC: 1.51983 (Simulation time: 0 hr 2 min 38 sec) 
Heartbeat CPU  0 instructions:   58000000 cycles:   38162157 heartbeat IPC: 1.51971 cumulative IPC: 1.51983 (Simulation time: 0 hr 2 min 40 sec) 
Heartbeat CPU  0 instructions:   59000002 cycles:   38820129 heartbeat IPC: 1.51982 cumulative IPC: 1.51983 (Simulation time: 0 hr 2 min 43 sec) 
Heartbeat CPU  0 instructions:   60000000 cycles:   39477965 heartbeat IPC: 1.52013 cumulative IPC: 1.51984 (Simulation time: 0 hr 2 min 46 sec) 
Heartbeat CPU  0 instructions:   61000002 cycles:   40136073 heartbeat IPC: 1.51951 cumulative IPC: 1.51983 (Simulation time: 0 hr 2 min 49 sec) 
Heartbeat CPU  0 instructions:   62000001 cycles:   40794061 heartbeat IPC: 1.51978 cumulative IPC: 1.51983 (Simulation time: 0 hr 2 min 52 sec) 
Heartbeat CPU  0 instructions:   63000002 cycles:   41452110 heartbeat IPC: 1.51965 cumulative IPC: 1.51983 (Simulation time: 0 hr 2 min 54 sec) 
Heartbeat CPU  0 instructions:   64000000 cycles:   42110133 heartbeat IPC: 1.51970 cumulative IPC: 1.51982 (Simulation time: 0 hr 2 min 57 sec) 
Heartbeat CPU  0 instructions:   65000002 cycles:   42768266 heartbeat IPC: 1.51945 cumulative IPC: 1.51982 (Simulation time: 0 hr 2 min 59 sec) 
Heartbeat CPU  0 instructions:   66000002 cycles:   43426298 heartbeat IPC: 1.51968 cumulative IPC: 1.51982 (Simulation time: 0 hr 3 min 2 sec) 
Heartbeat CPU  0 instructions:   67000002 cycles:   44084297 heartbeat IPC: 1.51976 cumulative IPC: 1.51982 (Simulation time: 0 hr 3 min 5 sec) 
Heartbeat CPU  0 instructions:   68000000 cycles:   44742293 heartbeat IPC: 1.51976 cumulative IPC: 1.51981 (Simulation time: 0 hr 3 min 7 sec) 
Heartbeat CPU  0 instructions:   69000000 cycles:   45400488 heartbeat IPC: 1.51931 cumulative IPC: 1.51981 (Simulation time: 0 hr 3 min 10 sec) 
Heartbeat CPU  0 instructions:   70000003 cycles:   46058395 heartbeat IPC: 1.51998 cumulative IPC: 1.51981 (Simulation time: 0 hr 3 min 12 sec) 
Heartbeat CPU  0 instructions:   71000003 cycles:   46716245 heartbeat IPC: 1.52010 cumulative IPC: 1.51981 (Simulation time: 0 hr 3 min 15 sec) 
Heartbeat CPU  0 instructions:   72000000 cycles:   47374207 heartbeat IPC: 1.51984 cumulative IPC: 1.51981 (Simulation time: 0 hr 3 min 17 sec) 
Heartbeat CPU  0 instructions:   73000001 cycles:   48032115 heartbeat IPC: 1.51997 cumulative IPC: 1.51982 (Simulation time: 0 hr 3 min 20 sec) 
Heartbeat CPU  0 instructions:   74000002 cycles:   48690015 heartbeat IPC: 1.51999 cumulative IPC: 1.51982 (Simulation time: 0 hr 3 min 23 sec) 
Heartbeat CPU  0 instructions:   75000001 cycles:   49347987 heartbeat IPC: 1.51982 cumulative IPC: 1.51982 (Simulation time: 0 hr 3 min 25 sec) 
Heartbeat CPU  0 instructions:   76000000 cycles:   50005874 heartbeat IPC: 1.52002 cumulative IPC: 1.51982 (Simulation time: 0 hr 3 min 28 sec) 
Heartbeat CPU  0 instructions:   77000002 cycles:   50663870 heartbeat IPC: 1.51977 cumulative IPC: 1.51982 (Simulation time: 0 hr 3 min 31 sec) 
Heartbeat CPU  0 instructions:   78000000 cycles:   51321970 heartbeat IPC: 1.51952 cumulative IPC: 1.51982 (Simulation time: 0 hr 3 min 33 sec) 
Heartbeat CPU  0 instructions:   79000003 cycles:   51979882 heartbeat IPC: 1.51996 cumulative IPC: 1.51982 (Simulation time: 0 hr 3 min 36 sec) 
Heartbeat CPU  0 instructions:   80000000 cycles:   52637828 heartbeat IPC: 1.51988 cumulative IPC: 1.51982 (Simulation time: 0 hr 3 min 38 sec) 
Heartbeat CPU  0 instructions:   81000001 cycles:   53295824 heartbeat IPC: 1.51977 cumulative IPC: 1.51982 (Simulation time: 0 hr 3 min 42 sec) 
Heartbeat CPU  0 instructions:   82000001 cycles:   53953733 heartbeat IPC: 1.51997 cumulative IPC: 1.51982 (Simulation time: 0 hr 3 min 45 sec) 
Heartbeat CPU  0 instructions:   83000001 cycles:   54611585 heartbeat IPC: 1.52010 cumulative IPC: 1.51982 (Simulation time: 0 hr 3 min 47 sec) 
Heartbeat CPU  0 instructions:   84000000 cycles:   55269444 heartbeat IPC: 1.52008 cumulative IPC: 1.51983 (Simulation time: 0 hr 3 min 50 sec) 
Heartbeat CPU  0 instructions:   85000000 cycles:   55927426 heartbeat IPC: 1.51980 cumulative IPC: 1.51983 (Simulation time: 0 hr 3 min 53 sec) 
Heartbeat CPU  0 instructions:   86000002 cycles:   56585336 heartbeat IPC: 1.51997 cumulative IPC: 1.51983 (Simulation time: 0 hr 3 min 55 sec) 
Heartbeat CPU  0 instructions:   87000001 cycles:   57243438 heartbeat IPC: 1.51952 cumulative IPC: 1.51982 (Simulation time: 0 hr 3 min 58 sec) 
Heartbeat CPU  0 instructions:   88000000 cycles:   57901557 heartbeat IPC: 1.51948 cumulative IPC: 1.51982 (Simulation time: 0 hr 4 min 0 sec) 
Heartbeat CPU  0 instructions:   89000001 cycles:   58559571 heartbeat IPC: 1.51973 cumulative IPC: 1.51982 (Simulation time: 0 hr 4 min 3 sec) 
Heartbeat CPU  0 instructions:   90000003 cycles:   59217662 heartbeat IPC: 1.51955 cumulative IPC: 1.51982 (Simulation time: 0 hr 4 min 6 sec) 
Heartbeat CPU  0 instructions:   91000000 cycles:   59875621 heartbeat IPC: 1.51985 cumulative IPC: 1.51982 (Simulation time: 0 hr 4 min 8 sec) 
Heartbeat CPU  0 instructions:   92000000 cycles:   60533642 heartbeat IPC: 1.51971 cumulative IPC: 1.51982 (Simulation time: 0 hr 4 min 11 sec) 
Heartbeat CPU  0 instructions:   93000001 cycles:   61191588 heartbeat IPC: 1.51988 cumulative IPC: 1.51982 (Simulation time: 0 hr 4 min 14 sec) 
Heartbeat CPU  0 instructions:   94000001 cycles:   61849625 heartbeat IPC: 1.51967 cumulative IPC: 1.51982 (Simulation time: 0 hr 4 min 16 sec) 
Heartbeat CPU  0 instructions:   95000000 cycles:   62507591 heartbeat IPC: 1.51983 cumulative IPC: 1.51982 (Simulation time: 0 hr 4 min 19 sec) 
Heartbeat CPU  0 instructions:   96000000 cycles:   63165454 heartbeat IPC: 1.52007 cumulative IPC: 1.51982 (Simulation time: 0 hr 4 min 22 sec) 
Heartbeat CPU  0 instructions:   97000000 cycles:   63823499 heartbeat IPC: 1.51965 cumulative IPC: 1.51982 (Simulation time: 0 hr 4 min 24 sec) 
Heartbeat CPU  0 instructions:   98000001 cycles:   64481513 heartbeat IPC: 1.51973 cumulative IPC: 1.51982 (Simulation time: 0 hr 4 min 28 sec) 
Heartbeat CPU  0 instructions:   99000003 cycles:   65139500 heartbeat IPC: 1.51979 cumulative IPC: 1.51982 (Simulation time: 0 hr 4 min 30 sec) 
Heartbeat CPU  0 instructions:  100000000 cycles:   65797403 heartbeat IPC: 1.51998 cumulative IPC: 1.51982 (Simulation time: 0 hr 4 min 33 sec) 

Warmup complete CPU  0 instructions:  100000002 cycles:   65797406 (Simulation time: 0 hr 4 min 33 sec) 

Heartbeat CPU  0 instructions:  101000001 cycles:   66689553 heartbeat IPC: 1.12089 cumulative IPC: 1.12089 (Simulation time: 0 hr 4 min 36 sec) 
Heartbeat CPU  0 instructions:  102000000 cycles:   67585621 heartbeat IPC: 1.11599 cumulative IPC: 1.11843 (Simulation time: 0 hr 4 min 39 sec) 
Heartbeat CPU  0 instructions:  103000001 cycles:   68481445 heartbeat IPC: 1.11629 cumulative IPC: 1.11772 (Simulation time: 0 hr 4 min 42 sec) 
Heartbeat CPU  0 instructions:  104000000 cycles:   69372401 heartbeat IPC: 1.12239 cumulative IPC: 1.11888 (Simulation time: 0 hr 4 min 44 sec) 
Heartbeat CPU  0 instructions:  105000002 cycles:   70262040 heartbeat IPC: 1.12405 cumulative IPC: 1.11991 (Simulation time: 0 hr 4 min 47 sec) 
Heartbeat CPU  0 instructions:  106000000 cycles:   71157511 heartbeat IPC: 1.11673 cumulative IPC: 1.11938 (Simulation time: 0 hr 4 min 50 sec) 
Heartbeat CPU  0 instructions:  107000001 cycles:   72058123 heartbeat IPC: 1.11036 cumulative IPC: 1.11808 (Simulation time: 0 hr 4 min 53 sec) 
Heartbeat CPU  0 instructions:  108000000 cycles:   72953691 heartbeat IPC: 1.11661 cumulative IPC: 1.11790 (Simulation time: 0 hr 4 min 56 sec) 
Heartbeat CPU  0 instructions:  109000001 cycles:   73852084 heartbeat IPC: 1.11310 cumulative IPC: 1.11736 (Simulation time: 0 hr 4 min 59 sec) 
Heartbeat CPU  0 instructions:  110000000 cycles:   74743267 heartbeat IPC: 1.12210 cumulative IPC: 1.11784 (Simulation time: 0 hr 5 min 2 sec) 
Heartbeat CPU  0 instructions:  111000000 cycles:   75637293 heartbeat IPC: 1.11854 cumulative IPC: 1.11790 (Simulation time: 0 hr 5 min 5 sec) 
Heartbeat CPU  0 instructions:  112000000 cycles:   76535736 heartbeat IPC: 1.11304 cumulative IPC: 1.11749 (Simulation time: 0 hr 5 min 8 sec) 
Heartbeat CPU  0 instructions:  113000000 cycles:   77429887 heartbeat IPC: 1.11838 cumulative IPC: 1.11756 (Simulation time: 0 hr 5 min 10 sec) 
Heartbeat CPU  0 instructions:  114000002 cycles:   78327810 heartbeat IPC: 1.11368 cumulative IPC: 1.11728 (Simulation time: 0 hr 5 min 13 sec) 
Heartbeat CPU  0 instructions:  115000000 cycles:   79217106 heartbeat IPC: 1.12448 cumulative IPC: 1.11776 (Simulation time: 0 hr 5 min 16 sec) 
Heartbeat CPU  0 instructions:  116000000 cycles:   80108652 heartbeat IPC: 1.12165 cumulative IPC: 1.11800 (Simulation time: 0 hr 5 min 19 sec) 
Heartbeat CPU  0 instructions:  117000003 cycles:   81003536 heartbeat IPC: 1.11747 cumulative IPC: 1.11797 (Simulation time: 0 hr 5 min 22 sec) 
Heartbeat CPU  0 instructions:  118000000 cycles:   81905121 heartbeat IPC: 1.10915 cumulative IPC: 1.11748 (Simulation time: 0 hr 5 min 25 sec) 
Heartbeat CPU  0 instructions:  119000001 cycles:   82799188 heartbeat IPC: 1.11849 cumulative IPC: 1.11753 (Simulation time: 0 hr 5 min 27 sec) 
Heartbeat CPU  0 instructions:  120000000 cycles:   83694580 heartbeat IPC: 1.11683 cumulative IPC: 1.11749 (Simulation time: 0 hr 5 min 30 sec) 
Heartbeat CPU  0 instructions:  121000003 cycles:   84590339 heartbeat IPC: 1.11638 cumulative IPC: 1.11744 (Simulation time: 0 hr 5 min 33 sec) 
Heartbeat CPU  0 instructions:  122000000 cycles:   85486224 heartbeat IPC: 1.11621 cumulative IPC: 1.11739 (Simulation time: 0 hr 5 min 36 sec) 
Heartbeat CPU  0 instructions:  123000002 cycles:   86386693 heartbeat IPC: 1.11053 cumulative IPC: 1.11709 (Simulation time: 0 hr 5 min 39 sec) 
Heartbeat CPU  0 instructions:  124000000 cycles:   87279510 heartbeat IPC: 1.12005 cumulative IPC: 1.11721 (Simulation time: 0 hr 5 min 41 sec) 
Heartbeat CPU  0 instructions:  125000003 cycles:   88174009 heartbeat IPC: 1.11795 cumulative IPC: 1.11724 (Simulation time: 0 hr 5 min 44 sec) 
Heartbeat CPU  0 instructions:  126000002 cycles:   89067054 heartbeat IPC: 1.11976 cumulative IPC: 1.11734 (Simulation time: 0 hr 5 min 47 sec) 
Heartbeat CPU  0 instructions:  127000000 cycles:   89961785 heartbeat IPC: 1.11765 cumulative IPC: 1.11735 (Simulation time: 0 hr 5 min 50 sec) 
Heartbeat CPU  0 instructions:  128000000 cycles:   90861110 heartbeat IPC: 1.11195 cumulative IPC: 1.11715 (Simulation time: 0 hr 5 min 53 sec) 
Heartbeat CPU  0 instructions:  129000000 cycles:   91757720 heartbeat IPC: 1.11531 cumulative IPC: 1.11709 (Simulation time: 0 hr 5 min 56 sec) 
Heartbeat CPU  0 instructions:  130000001 cycles:   92650422 heartbeat IPC: 1.12020 cumulative IPC: 1.11719 (Simulation time: 0 hr 5 min 58 sec) 
Heartbeat CPU  0 instructions:  131000000 cycles:   93549699 heartbeat IPC: 1.11200 cumulative IPC: 1.11702 (Simulation time: 0 hr 6 min 1 sec) 
Heartbeat CPU  0 instructions:  132000000 cycles:   94440478 heartbeat IPC: 1.12261 cumulative IPC: 1.11720 (Simulation time: 0 hr 6 min 4 sec) 
Heartbeat CPU  0 instructions:  133000001 cycles:   95339650 heartbeat IPC: 1.11214 cumulative IPC: 1.11704 (Simulation time: 0 hr 6 min 7 sec) 
Heartbeat CPU  0 instructions:  134000000 cycles:   96231023 heartbeat IPC: 1.12186 cumulative IPC: 1.11719 (Simulation time: 0 hr 6 min 10 sec) 
Heartbeat CPU  0 instructions:  135000002 cycles:   97124240 heartbeat IPC: 1.11955 cumulative IPC: 1.11725 (Simulation time: 0 hr 6 min 13 sec) 
Heartbeat CPU  0 instructions:  136000000 cycles:   98019375 heartbeat IPC: 1.11715 cumulative IPC: 1.11725 (Simulation time: 0 hr 6 min 16 sec) 
Heartbeat CPU  0 instructions:  137000002 cycles:   98916573 heartbeat IPC: 1.11458 cumulative IPC: 1.11718 (Simulation time: 0 hr 6 min 18 sec) 
Heartbeat CPU  0 instructions:  138000000 cycles:   99813860 heartbeat IPC: 1.11447 cumulative IPC: 1.11711 (Simulation time: 0 hr 6 min 21 sec) 
Heartbeat CPU  0 instructions:  139000002 cycles:  100708420 heartbeat IPC: 1.11787 cumulative IPC: 1.11713 (Simulation time: 0 hr 6 min 24 sec) 
Heartbeat CPU  0 instructions:  140000000 cycles:  101605563 heartbeat IPC: 1.11465 cumulative IPC: 1.11706 (Simulation time: 0 hr 6 min 27 sec) 
Heartbeat CPU  0 instructions:  141000003 cycles:  102499294 heartbeat IPC: 1.11891 cumulative IPC: 1.11711 (Simulation time: 0 hr 6 min 30 sec) 
Heartbeat CPU  0 instructions:  142000001 cycles:  103387319 heartbeat IPC: 1.12609 cumulative IPC: 1.11732 (Simulation time: 0 hr 6 min 33 sec) 
Heartbeat CPU  0 instructions:  143000001 cycles:  104284877 heartbeat IPC: 1.11413 cumulative IPC: 1.11725 (Simulation time: 0 hr 6 min 36 sec) 
Heartbeat CPU  0 instructions:  144000000 cycles:  105179906 heartbeat IPC: 1.11728 cumulative IPC: 1.11725 (Simulation time: 0 hr 6 min 39 sec) 
Heartbeat CPU  0 instructions:  145000001 cycles:  106079496 heartbeat IPC: 1.11162 cumulative IPC: 1.11712 (Simulation time: 0 hr 6 min 41 sec) 
Heartbeat CPU  0 instructions:  146000003 cycles:  106980368 heartbeat IPC: 1.11004 cumulative IPC: 1.11697 (Simulation time: 0 hr 6 min 44 sec) 
Heartbeat CPU  0 instructions:  147000002 cycles:  107875779 heartbeat IPC: 1.11680 cumulative IPC: 1.11696 (Simulation time: 0 hr 6 min 47 sec) 
Heartbeat CPU  0 instructions:  148000000 cycles:  108766818 heartbeat IPC: 1.12228 cumulative IPC: 1.11707 (Simulation time: 0 hr 6 min 50 sec) 
Heartbeat CPU  0 instructions:  149000001 cycles:  109656690 heartbeat IPC: 1.12376 cumulative IPC: 1.11721 (Simulation time: 0 hr 6 min 53 sec) 
Heartbeat CPU  0 instructions:  150000002 cycles:  110546065 heartbeat IPC: 1.12439 cumulative IPC: 1.11735 (Simulation time: 0 hr 6 min 56 sec) 
Heartbeat CPU  0 instructions:  151000001 cycles:  111438209 heartbeat IPC: 1.12089 cumulative IPC: 1.11742 (Simulation time: 0 hr 6 min 59 sec) 
Heartbeat CPU  0 instructions:  152000000 cycles:  112330864 heartbeat IPC: 1.12025 cumulative IPC: 1.11748 (Simulation time: 0 hr 7 min 2 sec) 
Heartbeat CPU  0 instructions:  153000002 cycles:  113225759 heartbeat IPC: 1.11745 cumulative IPC: 1.11748 (Simulation time: 0 hr 7 min 5 sec) 
Heartbeat CPU  0 instructions:  154000001 cycles:  114118766 heartbeat IPC: 1.11981 cumulative IPC: 1.11752 (Simulation time: 0 hr 7 min 8 sec) 
Heartbeat CPU  0 instructions:  155000002 cycles:  115008357 heartbeat IPC: 1.12411 cumulative IPC: 1.11764 (Simulation time: 0 hr 7 min 11 sec) 
Heartbeat CPU  0 instructions:  156000000 cycles:  115897250 heartbeat IPC: 1.12499 cumulative IPC: 1.11777 (Simulation time: 0 hr 7 min 14 sec) 
Heartbeat CPU  0 instructions:  157000002 cycles:  116790445 heartbeat IPC: 1.11958 cumulative IPC: 1.11780 (Simulation time: 0 hr 7 min 17 sec) 
Heartbeat CPU  0 instructions:  158000000 cycles:  117682064 heartbeat IPC: 1.12155 cumulative IPC: 1.11786 (Simulation time: 0 hr 7 min 20 sec) 
Heartbeat CPU  0 instructions:  159000000 cycles:  118579623 heartbeat IPC: 1.11413 cumulative IPC: 1.11780 (Simulation time: 0 hr 7 min 22 sec) 
Heartbeat CPU  0 instructions:  160000000 cycles:  119473954 heartbeat IPC: 1.11815 cumulative IPC: 1.11781 (Simulation time: 0 hr 7 min 25 sec) 
Heartbeat CPU  0 instructions:  161000000 cycles:  120367769 heartbeat IPC: 1.11880 cumulative IPC: 1.11782 (Simulation time: 0 hr 7 min 28 sec) 
Heartbeat CPU  0 instructions:  162000000 cycles:  121259343 heartbeat IPC: 1.12161 cumulative IPC: 1.11788 (Simulation time: 0 hr 7 min 31 sec) 
Heartbeat CPU  0 instructions:  163000001 cycles:  122152430 heartbeat IPC: 1.11971 cumulative IPC: 1.11791 (Simulation time: 0 hr 7 min 34 sec) 
Heartbeat CPU  0 instructions:  164000000 cycles:  123046566 heartbeat IPC: 1.11840 cumulative IPC: 1.11792 (Simulation time: 0 hr 7 min 37 sec) 
Heartbeat CPU  0 instructions:  165000001 cycles:  123937083 heartbeat IPC: 1.12294 cumulative IPC: 1.11800 (Simulation time: 0 hr 7 min 40 sec) 
Heartbeat CPU  0 instructions:  166000002 cycles:  124826478 heartbeat IPC: 1.12436 cumulative IPC: 1.11809 (Simulation time: 0 hr 7 min 43 sec) 
Heartbeat CPU  0 instructions:  167000001 cycles:  125722381 heartbeat IPC: 1.11619 cumulative IPC: 1.11806 (Simulation time: 0 hr 7 min 46 sec) 
Heartbeat CPU  0 instructions:  168000000 cycles:  126610109 heartbeat IPC: 1.12647 cumulative IPC: 1.11819 (Simulation time: 0 hr 7 min 49 sec) 
Heartbeat CPU  0 instructions:  169000002 cycles:  127501979 heartbeat IPC: 1.12124 cumulative IPC: 1.11823 (Simulation time: 0 hr 7 min 52 sec) 
Heartbeat CPU  0 instructions:  170000001 cycles:  128395930 heartbeat IPC: 1.11863 cumulative IPC: 1.11824 (Simulation time: 0 hr 7 min 54 sec) 
Heartbeat CPU  0 instructions:  171000000 cycles:  129290877 heartbeat IPC: 1.11738 cumulative IPC: 1.11823 (Simulation time: 0 hr 7 min 57 sec) 
Heartbeat CPU  0 instructions:  172000000 cycles:  130179699 heartbeat IPC: 1.12508 cumulative IPC: 1.11832 (Simulation time: 0 hr 8 min 0 sec) 
Heartbeat CPU  0 instructions:  173000000 cycles:  131070622 heartbeat IPC: 1.12243 cumulative IPC: 1.11838 (Simulation time: 0 hr 8 min 3 sec) 
Heartbeat CPU  0 instructions:  174000000 cycles:  131956816 heartbeat IPC: 1.12842 cumulative IPC: 1.11851 (Simulation time: 0 hr 8 min 6 sec) 
Heartbeat CPU  0 instructions:  175000003 cycles:  132852578 heartbeat IPC: 1.11637 cumulative IPC: 1.11848 (Simulation time: 0 hr 8 min 9 sec) 
Heartbeat CPU  0 instructions:  176000000 cycles:  133747151 heartbeat IPC: 1.11785 cumulative IPC: 1.11847 (Simulation time: 0 hr 8 min 12 sec) 
Heartbeat CPU  0 instructions:  177000000 cycles:  134641089 heartbeat IPC: 1.11865 cumulative IPC: 1.11848 (Simulation time: 0 hr 8 min 15 sec) 
Heartbeat CPU  0 instructions:  178000003 cycles:  135531976 heartbeat IPC: 1.12248 cumulative IPC: 1.11853 (Simulation time: 0 hr 8 min 18 sec) 
Heartbeat CPU  0 instructions:  179000001 cycles:  136422273 heartbeat IPC: 1.12322 cumulative IPC: 1.11859 (Simulation time: 0 hr 8 min 21 sec) 
Heartbeat CPU  0 instructions:  180000000 cycles:  137315309 heartbeat IPC: 1.11977 cumulative IPC: 1.11860 (Simulation time: 0 hr 8 min 24 sec) 
Heartbeat CPU  0 instructions:  181000001 cycles:  138210416 heartbeat IPC: 1.11719 cumulative IPC: 1.11858 (Simulation time: 0 hr 8 min 27 sec) 
Heartbeat CPU  0 instructions:  182000000 cycles:  139105429 heartbeat IPC: 1.11730 cumulative IPC: 1.11857 (Simulation time: 0 hr 8 min 30 sec) 
Heartbeat CPU  0 instructions:  183000002 cycles:  139996722 heartbeat IPC: 1.12197 cumulative IPC: 1.11861 (Simulation time: 0 hr 8 min 33 sec) 
Heartbeat CPU  0 instructions:  184000000 cycles:  140889832 heartbeat IPC: 1.11968 cumulative IPC: 1.11862 (Simulation time: 0 hr 8 min 36 sec) 
Heartbeat CPU  0 instructions:  185000000 cycles:  141780679 heartbeat IPC: 1.12253 cumulative IPC: 1.11867 (Simulation time: 0 hr 8 min 39 sec) 
Heartbeat CPU  0 instructions:  186000000 cycles:  142677072 heartbeat IPC: 1.11558 cumulative IPC: 1.11863 (Simulation time: 0 hr 8 min 42 sec) 
Heartbeat CPU  0 instructions:  187000003 cycles:  143569274 heartbeat IPC: 1.12083 cumulative IPC: 1.11866 (Simulation time: 0 hr 8 min 45 sec) 
Heartbeat CPU  0 instructions:  188000000 cycles:  144457920 heartbeat IPC: 1.12530 cumulative IPC: 1.11873 (Simulation time: 0 hr 8 min 48 sec) 
Heartbeat CPU  0 instructions:  189000000 cycles:  145347562 heartbeat IPC: 1.12405 cumulative IPC: 1.11879 (Simulation time: 0 hr 8 min 51 sec) 
Heartbeat CPU  0 instructions:  190000003 cycles:  146241255 heartbeat IPC: 1.11896 cumulative IPC: 1.11879 (Simulation time: 0 hr 8 min 54 sec) 
Heartbeat CPU  0 instructions:  191000001 cycles:  147134496 heartbeat IPC: 1.11952 cumulative IPC: 1.11880 (Simulation time: 0 hr 8 min 57 sec) 
Heartbeat CPU  0 instructions:  192000000 cycles:  148025689 heartbeat IPC: 1.12209 cumulative IPC: 1.11884 (Simulation time: 0 hr 9 min 0 sec) 
Heartbeat CPU  0 instructions:  193000001 cycles:  148918324 heartbeat IPC: 1.12028 cumulative IPC: 1.11885 (Simulation time: 0 hr 9 min 3 sec) 
Heartbeat CPU  0 instructions:  194000001 cycles:  149811779 heartbeat IPC: 1.11925 cumulative IPC: 1.11886 (Simulation time: 0 hr 9 min 6 sec) 
Heartbeat CPU  0 instructions:  195000002 cycles:  150708662 heartbeat IPC: 1.11497 cumulative IPC: 1.11882 (Simulation time: 0 hr 9 min 9 sec) 
Heartbeat CPU  0 instructions:  196000000 cycles:  151608179 heartbeat IPC: 1.11171 cumulative IPC: 1.11874 (Simulation time: 0 hr 9 min 12 sec) 
Heartbeat CPU  0 instructions:  197000001 cycles:  152503110 heartbeat IPC: 1.11741 cumulative IPC: 1.11873 (Simulation time: 0 hr 9 min 15 sec) 
Heartbeat CPU  0 instructions:  198000002 cycles:  153396189 heartbeat IPC: 1.11972 cumulative IPC: 1.11874 (Simulation time: 0 hr 9 min 18 sec) 
Heartbeat CPU  0 instructions:  199000003 cycles:  154288603 heartbeat IPC: 1.12056 cumulative IPC: 1.11876 (Simulation time: 0 hr 9 min 21 sec) 
Heartbeat CPU  0 instructions:  200000000 cycles:  155175492 heartbeat IPC: 1.12753 cumulative IPC: 1.11884 (Simulation time: 0 hr 9 min 24 sec) 
Heartbeat CPU  0 instructions:  201000002 cycles:  156073192 heartbeat IPC: 1.11396 cumulative IPC: 1.11879 (Simulation time: 0 hr 9 min 27 sec) 
Heartbeat CPU  0 instructions:  202000000 cycles:  156966788 heartbeat IPC: 1.11907 cumulative IPC: 1.11880 (Simulation time: 0 hr 9 min 30 sec) 
Heartbeat CPU  0 instructions:  203000000 cycles:  157860692 heartbeat IPC: 1.11869 cumulative IPC: 1.11880 (Simulation time: 0 hr 9 min 33 sec) 
Heartbeat CPU  0 instructions:  204000000 cycles:  158750024 heartbeat IPC: 1.12444 cumulative IPC: 1.11885 (Simulation time: 0 hr 9 min 36 sec) 
Heartbeat CPU  0 instructions:  205000003 cycles:  159646542 heartbeat IPC: 1.11543 cumulative IPC: 1.11882 (Simulation time: 0 hr 9 min 39 sec) 
Heartbeat CPU  0 instructions:  206000002 cycles:  160541888 heartbeat IPC: 1.11689 cumulative IPC: 1.11880 (Simulation time: 0 hr 9 min 42 sec) 
Heartbeat CPU  0 instructions:  207000000 cycles:  161438763 heartbeat IPC: 1.11498 cumulative IPC: 1.11876 (Simulation time: 0 hr 9 min 45 sec) 
Heartbeat CPU  0 instructions:  208000000 cycles:  162329502 heartbeat IPC: 1.12266 cumulative IPC: 1.11880 (Simulation time: 0 hr 9 min 48 sec) 
Heartbeat CPU  0 instructions:  209000002 cycles:  163223918 heartbeat IPC: 1.11805 cumulative IPC: 1.11879 (Simulation time: 0 hr 9 min 51 sec) 
Heartbeat CPU  0 instructions:  210000001 cycles:  164115095 heartbeat IPC: 1.12211 cumulative IPC: 1.11882 (Simulation time: 0 hr 9 min 54 sec) 
Heartbeat CPU  0 instructions:  211000000 cycles:  165008363 heartbeat IPC: 1.11948 cumulative IPC: 1.11883 (Simulation time: 0 hr 9 min 57 sec) 
Heartbeat CPU  0 instructions:  212000000 cycles:  165906206 heartbeat IPC: 1.11378 cumulative IPC: 1.11878 (Simulation time: 0 hr 9 min 59 sec) 
Heartbeat CPU  0 instructions:  213000001 cycles:  166797346 heartbeat IPC: 1.12216 cumulative IPC: 1.11881 (Simulation time: 0 hr 10 min 2 sec) 
Heartbeat CPU  0 instructions:  214000000 cycles:  167693395 heartbeat IPC: 1.11601 cumulative IPC: 1.11879 (Simulation time: 0 hr 10 min 5 sec) 
Heartbeat CPU  0 instructions:  215000002 cycles:  168588474 heartbeat IPC: 1.11722 cumulative IPC: 1.11877 (Simulation time: 0 hr 10 min 8 sec) 
Heartbeat CPU  0 instructions:  216000000 cycles:  169487862 heartbeat IPC: 1.11186 cumulative IPC: 1.11871 (Simulation time: 0 hr 10 min 10 sec) 
Heartbeat CPU  0 instructions:  217000001 cycles:  170385483 heartbeat IPC: 1.11406 cumulative IPC: 1.11867 (Simulation time: 0 hr 10 min 13 sec) 
Heartbeat CPU  0 instructions:  218000002 cycles:  171272750 heartbeat IPC: 1.12706 cumulative IPC: 1.11874 (Simulation time: 0 hr 10 min 16 sec) 
Heartbeat CPU  0 instructions:  219000001 cycles:  172160927 heartbeat IPC: 1.12590 cumulative IPC: 1.11880 (Simulation time: 0 hr 10 min 19 sec) 
Heartbeat CPU  0 instructions:  220000000 cycles:  173047770 heartbeat IPC: 1.12759 cumulative IPC: 1.11888 (Simulation time: 0 hr 10 min 22 sec) 
Heartbeat CPU  0 instructions:  221000001 cycles:  173942513 heartbeat IPC: 1.11764 cumulative IPC: 1.11887 (Simulation time: 0 hr 10 min 25 sec) 
Heartbeat CPU  0 instructions:  222000002 cycles:  174832956 heartbeat IPC: 1.12304 cumulative IPC: 1.11890 (Simulation time: 0 hr 10 min 27 sec) 
Heartbeat CPU  0 instructions:  223000000 cycles:  175727897 heartbeat IPC: 1.11739 cumulative IPC: 1.11889 (Simulation time: 0 hr 10 min 30 sec) 
Heartbeat CPU  0 instructions:  224000000 cycles:  176622237 heartbeat IPC: 1.11814 cumulative IPC: 1.11888 (Simulation time: 0 hr 10 min 33 sec) 
Heartbeat CPU  0 instructions:  225000002 cycles:  177515521 heartbeat IPC: 1.11947 cumulative IPC: 1.11889 (Simulation time: 0 hr 10 min 36 sec) 
Heartbeat CPU  0 instructions:  226000003 cycles:  178405566 heartbeat IPC: 1.12354 cumulative IPC: 1.11892 (Simulation time: 0 hr 10 min 39 sec) 
Heartbeat CPU  0 instructions:  227000002 cycles:  179300167 heartbeat IPC: 1.11782 cumulative IPC: 1.11892 (Simulation time: 0 hr 10 min 42 sec) 
Heartbeat CPU  0 instructions:  228000000 cycles:  180193388 heartbeat IPC: 1.11954 cumulative IPC: 1.11892 (Simulation time: 0 hr 10 min 45 sec) 
Heartbeat CPU  0 instructions:  229000001 cycles:  181088213 heartbeat IPC: 1.11754 cumulative IPC: 1.11891 (Simulation time: 0 hr 10 min 48 sec) 
Heartbeat CPU  0 instructions:  230000002 cycles:  181983851 heartbeat IPC: 1.11652 cumulative IPC: 1.11889 (Simulation time: 0 hr 10 min 51 sec) 
Heartbeat CPU  0 instructions:  231000001 cycles:  182873396 heartbeat IPC: 1.12417 cumulative IPC: 1.11893 (Simulation time: 0 hr 10 min 54 sec) 
Heartbeat CPU  0 instructions:  232000000 cycles:  183760946 heartbeat IPC: 1.12670 cumulative IPC: 1.11899 (Simulation time: 0 hr 10 min 57 sec) 
Heartbeat CPU  0 instructions:  233000000 cycles:  184651999 heartbeat IPC: 1.12227 cumulative IPC: 1.11901 (Simulation time: 0 hr 11 min 0 sec) 
Heartbeat CPU  0 instructions:  234000001 cycles:  185544283 heartbeat IPC: 1.12072 cumulative IPC: 1.11903 (Simulation time: 0 hr 11 min 3 sec) 
Heartbeat CPU  0 instructions:  235000001 cycles:  186437770 heartbeat IPC: 1.11921 cumulative IPC: 1.11903 (Simulation time: 0 hr 11 min 6 sec) 
Heartbeat CPU  0 instructions:  236000000 cycles:  187330497 heartbeat IPC: 1.12016 cumulative IPC: 1.11904 (Simulation time: 0 hr 11 min 9 sec) 
Heartbeat CPU  0 instructions:  237000000 cycles:  188224557 heartbeat IPC: 1.11849 cumulative IPC: 1.11903 (Simulation time: 0 hr 11 min 12 sec) 
Heartbeat CPU  0 instructions:  238000000 cycles:  189114030 heartbeat IPC: 1.12426 cumulative IPC: 1.11907 (Simulation time: 0 hr 11 min 15 sec) 
Heartbeat CPU  0 instructions:  239000001 cycles:  190009470 heartbeat IPC: 1.11677 cumulative IPC: 1.11905 (Simulation time: 0 hr 11 min 17 sec) 
Heartbeat CPU  0 instructions:  240000000 cycles:  190912709 heartbeat IPC: 1.10713 cumulative IPC: 1.11897 (Simulation time: 0 hr 11 min 20 sec) 
Heartbeat CPU  0 instructions:  241000000 cycles:  191800317 heartbeat IPC: 1.12662 cumulative IPC: 1.11902 (Simulation time: 0 hr 11 min 23 sec) 
Heartbeat CPU  0 instructions:  242000003 cycles:  192692025 heartbeat IPC: 1.12145 cumulative IPC: 1.11904 (Simulation time: 0 hr 11 min 26 sec) 
Heartbeat CPU  0 instructions:  243000000 cycles:  193587512 heartbeat IPC: 1.11671 cumulative IPC: 1.11902 (Simulation time: 0 hr 11 min 29 sec) 
Heartbeat CPU  0 instructions:  244000000 cycles:  194479631 heartbeat IPC: 1.12093 cumulative IPC: 1.11904 (Simulation time: 0 hr 11 min 32 sec) 
Heartbeat CPU  0 instructions:  245000001 cycles:  195374277 heartbeat IPC: 1.11776 cumulative IPC: 1.11903 (Simulation time: 0 hr 11 min 35 sec) 
Heartbeat CPU  0 instructions:  246000001 cycles:  196270262 heartbeat IPC: 1.11609 cumulative IPC: 1.11901 (Simulation time: 0 hr 11 min 38 sec) 
Heartbeat CPU  0 instructions:  247000001 cycles:  197159388 heartbeat IPC: 1.12470 cumulative IPC: 1.11905 (Simulation time: 0 hr 11 min 41 sec) 
Heartbeat CPU  0 instructions:  248000000 cycles:  198049589 heartbeat IPC: 1.12334 cumulative IPC: 1.11907 (Simulation time: 0 hr 11 min 44 sec) 
Heartbeat CPU  0 instructions:  249000003 cycles:  198950338 heartbeat IPC: 1.11019 cumulative IPC: 1.11901 (Simulation time: 0 hr 11 min 47 sec) 
Heartbeat CPU  0 instructions:  250000001 cycles:  199845232 heartbeat IPC: 1.11745 cumulative IPC: 1.11900 (Simulation time: 0 hr 11 min 50 sec) 
Heartbeat CPU  0 instructions:  251000000 cycles:  200745410 heartbeat IPC: 1.11089 cumulative IPC: 1.11895 (Simulation time: 0 hr 11 min 52 sec) 
Heartbeat CPU  0 instructions:  252000000 cycles:  201641224 heartbeat IPC: 1.11630 cumulative IPC: 1.11893 (Simulation time: 0 hr 11 min 55 sec) 
Heartbeat CPU  0 instructions:  253000000 cycles:  202537833 heartbeat IPC: 1.11531 cumulative IPC: 1.11891 (Simulation time: 0 hr 11 min 58 sec) 
Heartbeat CPU  0 instructions:  254000001 cycles:  203431047 heartbeat IPC: 1.11955 cumulative IPC: 1.11891 (Simulation time: 0 hr 12 min 1 sec) 
Heartbeat CPU  0 instructions:  255000000 cycles:  204325013 heartbeat IPC: 1.11861 cumulative IPC: 1.11891 (Simulation time: 0 hr 12 min 4 sec) 
Heartbeat CPU  0 instructions:  256000000 cycles:  205213348 heartbeat IPC: 1.12570 cumulative IPC: 1.11895 (Simulation time: 0 hr 12 min 7 sec) 
Heartbeat CPU  0 instructions:  257000000 cycles:  206105274 heartbeat IPC: 1.12117 cumulative IPC: 1.11897 (Simulation time: 0 hr 12 min 10 sec) 
Heartbeat CPU  0 instructions:  258000003 cycles:  206993339 heartbeat IPC: 1.12605 cumulative IPC: 1.11901 (Simulation time: 0 hr 12 min 13 sec) 
Heartbeat CPU  0 instructions:  259000002 cycles:  207887206 heartbeat IPC: 1.11873 cumulative IPC: 1.11901 (Simulation time: 0 hr 12 min 16 sec) 
Heartbeat CPU  0 instructions:  260000000 cycles:  208778553 heartbeat IPC: 1.12190 cumulative IPC: 1.11903 (Simulation time: 0 hr 12 min 19 sec) 
Heartbeat CPU  0 instructions:  261000003 cycles:  209674688 heartbeat IPC: 1.11591 cumulative IPC: 1.11901 (Simulation time: 0 hr 12 min 22 sec) 
Heartbeat CPU  0 instructions:  262000000 cycles:  210570637 heartbeat IPC: 1.11613 cumulative IPC: 1.11899 (Simulation time: 0 hr 12 min 25 sec) 
Heartbeat CPU  0 instructions:  263000000 cycles:  211469731 heartbeat IPC: 1.11223 cumulative IPC: 1.11895 (Simulation time: 0 hr 12 min 28 sec) 
Heartbeat CPU  0 instructions:  264000000 cycles:  212354832 heartbeat IPC: 1.12981 cumulative IPC: 1.11902 (Simulation time: 0 hr 12 min 31 sec) 
Heartbeat CPU  0 instructions:  265000002 cycles:  213248968 heartbeat IPC: 1.11840 cumulative IPC: 1.11901 (Simulation time: 0 hr 12 min 33 sec) 
Heartbeat CPU  0 instructions:  266000003 cycles:  214147278 heartbeat IPC: 1.11320 cumulative IPC: 1.11898 (Simulation time: 0 hr 12 min 36 sec) 
Heartbeat CPU  0 instructions:  267000003 cycles:  215036307 heartbeat IPC: 1.12482 cumulative IPC: 1.11901 (Simulation time: 0 hr 12 min 39 sec) 
Heartbeat CPU  0 instructions:  268000000 cycles:  215928418 heartbeat IPC: 1.12093 cumulative IPC: 1.11902 (Simulation time: 0 hr 12 min 42 sec) 
Heartbeat CPU  0 instructions:  269000000 cycles:  216818800 heartbeat IPC: 1.12311 cumulative IPC: 1.11905 (Simulation time: 0 hr 12 min 45 sec) 
Heartbeat CPU  0 instructions:  270000001 cycles:  217710011 heartbeat IPC: 1.12207 cumulative IPC: 1.11906 (Simulation time: 0 hr 12 min 48 sec) 
Heartbeat CPU  0 instructions:  271000001 cycles:  218603301 heartbeat IPC: 1.11946 cumulative IPC: 1.11907 (Simulation time: 0 hr 12 min 51 sec) 
Heartbeat CPU  0 instructions:  272000000 cycles:  219495832 heartbeat IPC: 1.12041 cumulative IPC: 1.11907 (Simulation time: 0 hr 12 min 54 sec) 
Heartbeat CPU  0 instructions:  273000001 cycles:  220386797 heartbeat IPC: 1.12238 cumulative IPC: 1.11909 (Simulation time: 0 hr 12 min 57 sec) 
Heartbeat CPU  0 instructions:  274000002 cycles:  221283697 heartbeat IPC: 1.11495 cumulative IPC: 1.11907 (Simulation time: 0 hr 13 min 0 sec) 
Heartbeat CPU  0 instructions:  275000000 cycles:  222171077 heartbeat IPC: 1.12691 cumulative IPC: 1.11911 (Simulation time: 0 hr 13 min 3 sec) 
Heartbeat CPU  0 instructions:  276000000 cycles:  223060095 heartbeat IPC: 1.12484 cumulative IPC: 1.11915 (Simulation time: 0 hr 13 min 6 sec) 
Heartbeat CPU  0 instructions:  277000002 cycles:  223951903 heartbeat IPC: 1.12132 cumulative IPC: 1.11916 (Simulation time: 0 hr 13 min 8 sec) 
Heartbeat CPU  0 instructions:  278000000 cycles:  224847083 heartbeat IPC: 1.11709 cumulative IPC: 1.11915 (Simulation time: 0 hr 13 min 12 sec) 
Heartbeat CPU  0 instructions:  279000001 cycles:  225741765 heartbeat IPC: 1.11772 cumulative IPC: 1.11914 (Simulation time: 0 hr 13 min 15 sec) 
Heartbeat CPU  0 instructions:  280000000 cycles:  226635858 heartbeat IPC: 1.11845 cumulative IPC: 1.11914 (Simulation time: 0 hr 13 min 17 sec) 
Heartbeat CPU  0 instructions:  281000000 cycles:  227532704 heartbeat IPC: 1.11502 cumulative IPC: 1.11911 (Simulation time: 0 hr 13 min 20 sec) 
Heartbeat CPU  0 instructions:  282000000 cycles:  228425151 heartbeat IPC: 1.12051 cumulative IPC: 1.11912 (Simulation time: 0 hr 13 min 23 sec) 
Heartbeat CPU  0 instructions:  283000003 cycles:  229320942 heartbeat IPC: 1.11634 cumulative IPC: 1.11910 (Simulation time: 0 hr 13 min 26 sec) 
Heartbeat CPU  0 instructions:  284000000 cycles:  230217667 heartbeat IPC: 1.11517 cumulative IPC: 1.11908 (Simulation time: 0 hr 13 min 29 sec) 
Heartbeat CPU  0 instructions:  285000000 cycles:  231122559 heartbeat IPC: 1.10510 cumulative IPC: 1.11901 (Simulation time: 0 hr 13 min 32 sec) 
Heartbeat CPU  0 instructions:  286000002 cycles:  232022638 heartbeat IPC: 1.11102 cumulative IPC: 1.11896 (Simulation time: 0 hr 13 min 35 sec) 
Heartbeat CPU  0 instructions:  287000000 cycles:  232911198 heartbeat IPC: 1.12541 cumulative IPC: 1.11900 (Simulation time: 0 hr 13 min 38 sec) 
Heartbeat CPU  0 instructions:  288000000 cycles:  233808473 heartbeat IPC: 1.11449 cumulative IPC: 1.11897 (Simulation time: 0 hr 13 min 41 sec) 
Heartbeat CPU  0 instructions:  289000001 cycles:  234705695 heartbeat IPC: 1.11455 cumulative IPC: 1.11895 (Simulation time: 0 hr 13 min 45 sec) 
Heartbeat CPU  0 instructions:  290000002 cycles:  235597969 heartbeat IPC: 1.12073 cumulative IPC: 1.11896 (Simulation time: 0 hr 13 min 48 sec) 
Heartbeat CPU  0 instructions:  291000002 cycles:  236491275 heartbeat IPC: 1.11944 cumulative IPC: 1.11896 (Simulation time: 0 hr 13 min 51 sec) 
Heartbeat CPU  0 instructions:  292000000 cycles:  237383734 heartbeat IPC: 1.12050 cumulative IPC: 1.11897 (Simulation time: 0 hr 13 min 54 sec) 
Heartbeat CPU  0 instructions:  293000001 cycles:  238278397 heartbeat IPC: 1.11774 cumulative IPC: 1.11896 (Simulation time: 0 hr 13 min 57 sec) 
Heartbeat CPU  0 instructions:  294000000 cycles:  239174570 heartbeat IPC: 1.11585 cumulative IPC: 1.11895 (Simulation time: 0 hr 14 min 0 sec) 
Heartbeat CPU  0 instructions:  295000003 cycles:  240076755 heartbeat IPC: 1.10842 cumulative IPC: 1.11889 (Simulation time: 0 hr 14 min 3 sec) 
Heartbeat CPU  0 instructions:  296000000 cycles:  240976785 heartbeat IPC: 1.11107 cumulative IPC: 1.11885 (Simulation time: 0 hr 14 min 6 sec) 
Heartbeat CPU  0 instructions:  297000001 cycles:  241873938 heartbeat IPC: 1.11464 cumulative IPC: 1.11883 (Simulation time: 0 hr 14 min 9 sec) 
Heartbeat CPU  0 instructions:  298000001 cycles:  242769444 heartbeat IPC: 1.11669 cumulative IPC: 1.11882 (Simulation time: 0 hr 14 min 12 sec) 
Heartbeat CPU  0 instructions:  299000000 cycles:  243665223 heartbeat IPC: 1.11635 cumulative IPC: 1.11881 (Simulation time: 0 hr 14 min 15 sec) 
Heartbeat CPU  0 instructions:  300000000 cycles:  244559081 heartbeat IPC: 1.11875 cumulative IPC: 1.11881 (Simulation time: 0 hr 14 min 17 sec) 
Heartbeat CPU  0 instructions:  301000000 cycles:  245452146 heartbeat IPC: 1.11974 cumulative IPC: 1.11881 (Simulation time: 0 hr 14 min 20 sec) 
Heartbeat CPU  0 instructions:  302000002 cycles:  246343235 heartbeat IPC: 1.12222 cumulative IPC: 1.11883 (Simulation time: 0 hr 14 min 23 sec) 
Heartbeat CPU  0 instructions:  303000000 cycles:  247233375 heartbeat IPC: 1.12342 cumulative IPC: 1.11885 (Simulation time: 0 hr 14 min 26 sec) 
Heartbeat CPU  0 instructions:  304000000 cycles:  248131584 heartbeat IPC: 1.11333 cumulative IPC: 1.11882 (Simulation time: 0 hr 14 min 29 sec) 
Heartbeat CPU  0 instructions:  305000001 cycles:  249028096 heartbeat IPC: 1.11544 cumulative IPC: 1.11881 (Simulation time: 0 hr 14 min 32 sec) 
Heartbeat CPU  0 instructions:  306000001 cycles:  249920618 heartbeat IPC: 1.12042 cumulative IPC: 1.11882 (Simulation time: 0 hr 14 min 35 sec) 
Heartbeat CPU  0 instructions:  307000002 cycles:  250815816 heartbeat IPC: 1.11707 cumulative IPC: 1.11881 (Simulation time: 0 hr 14 min 38 sec) 
Heartbeat CPU  0 instructions:  308000000 cycles:  251715015 heartbeat IPC: 1.11210 cumulative IPC: 1.11878 (Simulation time: 0 hr 14 min 41 sec) 
Heartbeat CPU  0 instructions:  309000002 cycles:  252612393 heartbeat IPC: 1.11436 cumulative IPC: 1.11875 (Simulation time: 0 hr 14 min 43 sec) 
Heartbeat CPU  0 instructions:  310000000 cycles:  253509153 heartbeat IPC: 1.11512 cumulative IPC: 1.11874 (Simulation time: 0 hr 14 min 46 sec) 
Heartbeat CPU  0 instructions:  311000002 cycles:  254406178 heartbeat IPC: 1.11480 cumulative IPC: 1.11872 (Simulation time: 0 hr 14 min 49 sec) 
Heartbeat CPU  0 instructions:  312000000 cycles:  255296715 heartbeat IPC: 1.12292 cumulative IPC: 1.11874 (Simulation time: 0 hr 14 min 52 sec) 
Heartbeat CPU  0 instructions:  313000003 cycles:  256193980 heartbeat IPC: 1.11450 cumulative IPC: 1.11872 (Simulation time: 0 hr 14 min 55 sec) 
Heartbeat CPU  0 instructions:  314000002 cycles:  257083965 heartbeat IPC: 1.12361 cumulative IPC: 1.11874 (Simulation time: 0 hr 14 min 58 sec) 
Heartbeat CPU  0 instructions:  315000000 cycles:  257980938 heartbeat IPC: 1.11486 cumulative IPC: 1.11872 (Simulation time: 0 hr 15 min 1 sec) 
Heartbeat CPU  0 instructions:  316000000 cycles:  258876134 heartbeat IPC: 1.11707 cumulative IPC: 1.11871 (Simulation time: 0 hr 15 min 4 sec) 
Heartbeat CPU  0 instructions:  317000001 cycles:  259774536 heartbeat IPC: 1.11309 cumulative IPC: 1.11869 (Simulation time: 0 hr 15 min 7 sec) 
Heartbeat CPU  0 instructions:  318000001 cycles:  260672933 heartbeat IPC: 1.11309 cumulative IPC: 1.11866 (Simulation time: 0 hr 15 min 10 sec) 
Heartbeat CPU  0 instructions:  319000000 cycles:  261571858 heartbeat IPC: 1.11244 cumulative IPC: 1.11863 (Simulation time: 0 hr 15 min 13 sec) 
Heartbeat CPU  0 instructions:  320000000 cycles:  262467547 heartbeat IPC: 1.11646 cumulative IPC: 1.11862 (Simulation time: 0 hr 15 min 15 sec) 
Heartbeat CPU  0 instructions:  321000000 cycles:  263362843 heartbeat IPC: 1.11695 cumulative IPC: 1.11862 (Simulation time: 0 hr 15 min 18 sec) 
Heartbeat CPU  0 instructions:  322000000 cycles:  264255486 heartbeat IPC: 1.12027 cumulative IPC: 1.11862 (Simulation time: 0 hr 15 min 21 sec) 
Heartbeat CPU  0 instructions:  323000002 cycles:  265150979 heartbeat IPC: 1.11671 cumulative IPC: 1.11862 (Simulation time: 0 hr 15 min 24 sec) 
Heartbeat CPU  0 instructions:  324000000 cycles:  266038885 heartbeat IPC: 1.12624 cumulative IPC: 1.11865 (Simulation time: 0 hr 15 min 27 sec) 
Heartbeat CPU  0 instructions:  325000002 cycles:  266933710 heartbeat IPC: 1.11754 cumulative IPC: 1.11864 (Simulation time: 0 hr 15 min 30 sec) 
Heartbeat CPU  0 instructions:  326000001 cycles:  267823311 heartbeat IPC: 1.12410 cumulative IPC: 1.11867 (Simulation time: 0 hr 15 min 33 sec) 
Heartbeat CPU  0 instructions:  327000000 cycles:  268716926 heartbeat IPC: 1.11905 cumulative IPC: 1.11867 (Simulation time: 0 hr 15 min 36 sec) 
Heartbeat CPU  0 instructions:  328000000 cycles:  269618541 heartbeat IPC: 1.10912 cumulative IPC: 1.11863 (Simulation time: 0 hr 15 min 39 sec) 
Heartbeat CPU  0 instructions:  329000003 cycles:  270511000 heartbeat IPC: 1.12050 cumulative IPC: 1.11864 (Simulation time: 0 hr 15 min 42 sec) 
Heartbeat CPU  0 instructions:  330000000 cycles:  271406461 heartbeat IPC: 1.11674 cumulative IPC: 1.11863 (Simulation time: 0 hr 15 min 45 sec) 
Heartbeat CPU  0 instructions:  331000000 cycles:  272308318 heartbeat IPC: 1.10882 cumulative IPC: 1.11858 (Simulation time: 0 hr 15 min 48 sec) 
Heartbeat CPU  0 instructions:  332000000 cycles:  273201850 heartbeat IPC: 1.11915 cumulative IPC: 1.11859 (Simulation time: 0 hr 15 min 51 sec) 
Heartbeat CPU  0 instructions:  333000002 cycles:  274099774 heartbeat IPC: 1.11368 cumulative IPC: 1.11857 (Simulation time: 0 hr 15 min 54 sec) 
Heartbeat CPU  0 instructions:  334000003 cycles:  274993404 heartbeat IPC: 1.11903 cumulative IPC: 1.11857 (Simulation time: 0 hr 15 min 57 sec) 
Heartbeat CPU  0 instructions:  335000000 cycles:  275885438 heartbeat IPC: 1.12103 cumulative IPC: 1.11858 (Simulation time: 0 hr 16 min 0 sec) 
Heartbeat CPU  0 instructions:  336000000 cycles:  276780727 heartbeat IPC: 1.11696 cumulative IPC: 1.11857 (Simulation time: 0 hr 16 min 3 sec) 
Heartbeat CPU  0 instructions:  337000001 cycles:  277674610 heartbeat IPC: 1.11872 cumulative IPC: 1.11857 (Simulation time: 0 hr 16 min 6 sec) 
Heartbeat CPU  0 instructions:  338000003 cycles:  278570714 heartbeat IPC: 1.11594 cumulative IPC: 1.11856 (Simulation time: 0 hr 16 min 8 sec) 
Heartbeat CPU  0 instructions:  339000001 cycles:  279465030 heartbeat IPC: 1.11817 cumulative IPC: 1.11856 (Simulation time: 0 hr 16 min 11 sec) 
Heartbeat CPU  0 instructions:  340000000 cycles:  280367466 heartbeat IPC: 1.10811 cumulative IPC: 1.11852 (Simulation time: 0 hr 16 min 14 sec) 
Heartbeat CPU  0 instructions:  341000001 cycles:  281263248 heartbeat IPC: 1.11634 cumulative IPC: 1.11851 (Simulation time: 0 hr 16 min 17 sec) 
Heartbeat CPU  0 instructions:  342000003 cycles:  282165604 heartbeat IPC: 1.10821 cumulative IPC: 1.11846 (Simulation time: 0 hr 16 min 20 sec) 
Heartbeat CPU  0 instructions:  343000002 cycles:  283068759 heartbeat IPC: 1.10723 cumulative IPC: 1.11842 (Simulation time: 0 hr 16 min 23 sec) 
Heartbeat CPU  0 instructions:  344000000 cycles:  283972462 heartbeat IPC: 1.10656 cumulative IPC: 1.11837 (Simulation time: 0 hr 16 min 26 sec) 
Heartbeat CPU  0 instructions:  345000001 cycles:  284827531 heartbeat IPC: 1.16950 cumulative IPC: 1.11857 (Simulation time: 0 hr 16 min 28 sec) 
Heartbeat CPU  0 instructions:  346000001 cycles:  285689328 heartbeat IPC: 1.16037 cumulative IPC: 1.11873 (Simulation time: 0 hr 16 min 31 sec) 
Heartbeat CPU  0 instructions:  347000003 cycles:  286546239 heartbeat IPC: 1.16698 cumulative IPC: 1.11892 (Simulation time: 0 hr 16 min 33 sec) 
Heartbeat CPU  0 instructions:  348000000 cycles:  287399029 heartbeat IPC: 1.17262 cumulative IPC: 1.11913 (Simulation time: 0 hr 16 min 35 sec) 
Heartbeat CPU  0 instructions:  349000002 cycles:  288247133 heartbeat IPC: 1.17910 cumulative IPC: 1.11935 (Simulation time: 0 hr 16 min 37 sec) 
Heartbeat CPU  0 instructions:  350000002 cycles:  289095110 heartbeat IPC: 1.17928 cumulative IPC: 1.11958 (Simulation time: 0 hr 16 min 40 sec) 
Heartbeat CPU  0 instructions:  351000001 cycles:  289937790 heartbeat IPC: 1.18669 cumulative IPC: 1.11983 (Simulation time: 0 hr 16 min 42 sec) 
Heartbeat CPU  0 instructions:  352000000 cycles:  290781497 heartbeat IPC: 1.18524 cumulative IPC: 1.12008 (Simulation time: 0 hr 16 min 44 sec) 
Heartbeat CPU  0 instructions:  353000003 cycles:  291632922 heartbeat IPC: 1.17451 cumulative IPC: 1.12028 (Simulation time: 0 hr 16 min 47 sec) 
Heartbeat CPU  0 instructions:  354000000 cycles:  292484139 heartbeat IPC: 1.17479 cumulative IPC: 1.12049 (Simulation time: 0 hr 16 min 49 sec) 
Heartbeat CPU  0 instructions:  355000002 cycles:  293336156 heartbeat IPC: 1.17369 cumulative IPC: 1.12069 (Simulation time: 0 hr 16 min 52 sec) 
Heartbeat CPU  0 instructions:  356000000 cycles:  294183613 heartbeat IPC: 1.18000 cumulative IPC: 1.12091 (Simulation time: 0 hr 16 min 54 sec) 
Heartbeat CPU  0 instructions:  357000003 cycles:  295023990 heartbeat IPC: 1.18995 cumulative IPC: 1.12116 (Simulation time: 0 hr 16 min 57 sec) 
Heartbeat CPU  0 instructions:  358000001 cycles:  295872334 heartbeat IPC: 1.17876 cumulative IPC: 1.12137 (Simulation time: 0 hr 16 min 59 sec) 
Heartbeat CPU  0 instructions:  359000001 cycles:  296691986 heartbeat IPC: 1.22003 cumulative IPC: 1.12172 (Simulation time: 0 hr 17 min 1 sec) 
Heartbeat CPU  0 instructions:  360000000 cycles:  297420565 heartbeat IPC: 1.37253 cumulative IPC: 1.12251 (Simulation time: 0 hr 17 min 4 sec) 
Heartbeat CPU  0 instructions:  361000003 cycles:  298286161 heartbeat IPC: 1.15528 cumulative IPC: 1.12263 (Simulation time: 0 hr 17 min 6 sec) 
Heartbeat CPU  0 instructions:  362000003 cycles:  299244875 heartbeat IPC: 1.04306 cumulative IPC: 1.12231 (Simulation time: 0 hr 17 min 9 sec) 
Heartbeat CPU  0 instructions:  363000000 cycles:  300207506 heartbeat IPC: 1.03882 cumulative IPC: 1.12197 (Simulation time: 0 hr 17 min 12 sec) 
Heartbeat CPU  0 instructions:  364000000 cycles:  301154505 heartbeat IPC: 1.05597 cumulative IPC: 1.12170 (Simulation time: 0 hr 17 min 15 sec) 
Heartbeat CPU  0 instructions:  365000000 cycles:  302145063 heartbeat IPC: 1.00953 cumulative IPC: 1.12123 (Simulation time: 0 hr 17 min 18 sec) 
Heartbeat CPU  0 instructions:  366000003 cycles:  303092596 heartbeat IPC: 1.05538 cumulative IPC: 1.12097 (Simulation time: 0 hr 17 min 20 sec) 
Heartbeat CPU  0 instructions:  367000001 cycles:  304040765 heartbeat IPC: 1.05466 cumulative IPC: 1.12070 (Simulation time: 0 hr 17 min 23 sec) 
Heartbeat CPU  0 instructions:  368000000 cycles:  304998170 heartbeat IPC: 1.04449 cumulative IPC: 1.12040 (Simulation time: 0 hr 17 min 26 sec) 
Heartbeat CPU  0 instructions:  369000002 cycles:  305947303 heartbeat IPC: 1.05360 cumulative IPC: 1.12013 (Simulation time: 0 hr 17 min 28 sec) 
Heartbeat CPU  0 instructions:  370000002 cycles:  306911232 heartbeat IPC: 1.03742 cumulative IPC: 1.11980 (Simulation time: 0 hr 17 min 31 sec) 
Heartbeat CPU  0 instructions:  371000002 cycles:  307872099 heartbeat IPC: 1.04073 cumulative IPC: 1.11949 (Simulation time: 0 hr 17 min 34 sec) 
Heartbeat CPU  0 instructions:  372000000 cycles:  308824213 heartbeat IPC: 1.05029 cumulative IPC: 1.11922 (Simulation time: 0 hr 17 min 37 sec) 
Heartbeat CPU  0 instructions:  373000003 cycles:  309788745 heartbeat IPC: 1.03678 cumulative IPC: 1.11889 (Simulation time: 0 hr 17 min 39 sec) 
Heartbeat CPU  0 instructions:  374000003 cycles:  310758449 heartbeat IPC: 1.03124 cumulative IPC: 1.11855 (Simulation time: 0 hr 17 min 42 sec) 
Heartbeat CPU  0 instructions:  375000000 cycles:  311716218 heartbeat IPC: 1.04409 cumulative IPC: 1.11826 (Simulation time: 0 hr 17 min 44 sec) 
Heartbeat CPU  0 instructions:  376000000 cycles:  312683127 heartbeat IPC: 1.03422 cumulative IPC: 1.11793 (Simulation time: 0 hr 17 min 47 sec) 
Heartbeat CPU  0 instructions:  377000001 cycles:  313607096 heartbeat IPC: 1.08229 cumulative IPC: 1.11779 (Simulation time: 0 hr 17 min 50 sec) 
Heartbeat CPU  0 instructions:  378000001 cycles:  314520267 heartbeat IPC: 1.09509 cumulative IPC: 1.11771 (Simulation time: 0 hr 17 min 53 sec) 
Heartbeat CPU  0 instructions:  379000000 cycles:  315420279 heartbeat IPC: 1.11110 cumulative IPC: 1.11769 (Simulation time: 0 hr 17 min 56 sec) 
Heartbeat CPU  0 instructions:  380000000 cycles:  316320400 heartbeat IPC: 1.11096 cumulative IPC: 1.11766 (Simulation time: 0 hr 17 min 59 sec) 
Heartbeat CPU  0 instructions:  381000003 cycles:  317219515 heartbeat IPC: 1.11221 cumulative IPC: 1.11764 (Simulation time: 0 hr 18 min 2 sec) 
Heartbeat CPU  0 instructions:  382000000 cycles:  318117080 heartbeat IPC: 1.11412 cumulative IPC: 1.11763 (Simulation time: 0 hr 18 min 5 sec) 
Heartbeat CPU  0 instructions:  383000000 cycles:  319015360 heartbeat IPC: 1.11324 cumulative IPC: 1.11761 (Simulation time: 0 hr 18 min 8 sec) 
Heartbeat CPU  0 instructions:  384000000 cycles:  319911766 heartbeat IPC: 1.11557 cumulative IPC: 1.11761 (Simulation time: 0 hr 18 min 11 sec) 
Heartbeat CPU  0 instructions:  385000000 cycles:  320809725 heartbeat IPC: 1.11364 cumulative IPC: 1.11759 (Simulation time: 0 hr 18 min 14 sec) 
Heartbeat CPU  0 instructions:  386000000 cycles:  321706027 heartbeat IPC: 1.11570 cumulative IPC: 1.11759 (Simulation time: 0 hr 18 min 18 sec) 
Heartbeat CPU  0 instructions:  387000003 cycles:  322591019 heartbeat IPC: 1.12996 cumulative IPC: 1.11763 (Simulation time: 0 hr 18 min 21 sec) 
Heartbeat CPU  0 instructions:  388000000 cycles:  323483375 heartbeat IPC: 1.12063 cumulative IPC: 1.11764 (Simulation time: 0 hr 18 min 24 sec) 
Heartbeat CPU  0 instructions:  389000000 cycles:  324378229 heartbeat IPC: 1.11750 cumulative IPC: 1.11764 (Simulation time: 0 hr 18 min 27 sec) 
Heartbeat CPU  0 instructions:  390000000 cycles:  325276321 heartbeat IPC: 1.11347 cumulative IPC: 1.11762 (Simulation time: 0 hr 18 min 30 sec) 
Heartbeat CPU  0 instructions:  391000001 cycles:  326173191 heartbeat IPC: 1.11499 cumulative IPC: 1.11762 (Simulation time: 0 hr 18 min 32 sec) 
Heartbeat CPU  0 instructions:  392000000 cycles:  327064275 heartbeat IPC: 1.12223 cumulative IPC: 1.11763 (Simulation time: 0 hr 18 min 35 sec) 
Heartbeat CPU  0 instructions:  393000000 cycles:  327961684 heartbeat IPC: 1.11432 cumulative IPC: 1.11762 (Simulation time: 0 hr 18 min 38 sec) 
Heartbeat CPU  0 instructions:  394000000 cycles:  328857577 heartbeat IPC: 1.11620 cumulative IPC: 1.11761 (Simulation time: 0 hr 18 min 41 sec) 
Heartbeat CPU  0 instructions:  395000000 cycles:  329754625 heartbeat IPC: 1.11477 cumulative IPC: 1.11761 (Simulation time: 0 hr 18 min 44 sec) 
Heartbeat CPU  0 instructions:  396000000 cycles:  330649980 heartbeat IPC: 1.11688 cumulative IPC: 1.11760 (Simulation time: 0 hr 18 min 47 sec) 
Heartbeat CPU  0 instructions:  397000001 cycles:  331544828 heartbeat IPC: 1.11751 cumulative IPC: 1.11760 (Simulation time: 0 hr 18 min 49 sec) 
Heartbeat CPU  0 instructions:  398000000 cycles:  332443932 heartbeat IPC: 1.11222 cumulative IPC: 1.11758 (Simulation time: 0 hr 18 min 52 sec) 
Heartbeat CPU  0 instructions:  399000000 cycles:  333336406 heartbeat IPC: 1.12048 cumulative IPC: 1.11759 (Simulation time: 0 hr 18 min 55 sec) 
Heartbeat CPU  0 instructions:  400000000 cycles:  334228724 heartbeat IPC: 1.12068 cumulative IPC: 1.11760 (Simulation time: 0 hr 18 min 58 sec) 
Heartbeat CPU  0 instructions:  401000003 cycles:  335125261 heartbeat IPC: 1.11541 cumulative IPC: 1.11760 (Simulation time: 0 hr 19 min 0 sec) 
Heartbeat CPU  0 instructions:  402000003 cycles:  336022729 heartbeat IPC: 1.11425 cumulative IPC: 1.11759 (Simulation time: 0 hr 19 min 3 sec) 
Heartbeat CPU  0 instructions:  403000000 cycles:  336918537 heartbeat IPC: 1.11631 cumulative IPC: 1.11758 (Simulation time: 0 hr 19 min 6 sec) 
Heartbeat CPU  0 instructions:  404000000 cycles:  337808210 heartbeat IPC: 1.12401 cumulative IPC: 1.11760 (Simulation time: 0 hr 19 min 9 sec) 
Heartbeat CPU  0 instructions:  405000000 cycles:  338705881 heartbeat IPC: 1.11399 cumulative IPC: 1.11759 (Simulation time: 0 hr 19 min 11 sec) 
Heartbeat CPU  0 instructions:  406000000 cycles:  339603266 heartbeat IPC: 1.11435 cumulative IPC: 1.11758 (Simulation time: 0 hr 19 min 14 sec) 
Heartbeat CPU  0 instructions:  407000002 cycles:  340499524 heartbeat IPC: 1.11575 cumulative IPC: 1.11757 (Simulation time: 0 hr 19 min 17 sec) 
Heartbeat CPU  0 instructions:  408000000 cycles:  341390604 heartbeat IPC: 1.12223 cumulative IPC: 1.11759 (Simulation time: 0 hr 19 min 20 sec) 
Heartbeat CPU  0 instructions:  409000002 cycles:  342287708 heartbeat IPC: 1.11470 cumulative IPC: 1.11758 (Simulation time: 0 hr 19 min 23 sec) 
Heartbeat CPU  0 instructions:  410000001 cycles:  343181125 heartbeat IPC: 1.11930 cumulative IPC: 1.11759 (Simulation time: 0 hr 19 min 25 sec) 
Heartbeat CPU  0 instructions:  411000000 cycles:  344078278 heartbeat IPC: 1.11464 cumulative IPC: 1.11758 (Simulation time: 0 hr 19 min 28 sec) 
Heartbeat CPU  0 instructions:  412000000 cycles:  344977395 heartbeat IPC: 1.11220 cumulative IPC: 1.11756 (Simulation time: 0 hr 19 min 31 sec) 
Heartbeat CPU  0 instructions:  413000001 cycles:  345863963 heartbeat IPC: 1.12795 cumulative IPC: 1.11759 (Simulation time: 0 hr 19 min 34 sec) 
Heartbeat CPU  0 instructions:  414000000 cycles:  346759211 heartbeat IPC: 1.11701 cumulative IPC: 1.11759 (Simulation time: 0 hr 19 min 37 sec) 
Heartbeat CPU  0 instructions:  415000002 cycles:  347655516 heartbeat IPC: 1.11569 cumulative IPC: 1.11758 (Simulation time: 0 hr 19 min 40 sec) 
Heartbeat CPU  0 instructions:  416000000 cycles:  348555446 heartbeat IPC: 1.11120 cumulative IPC: 1.11756 (Simulation time: 0 hr 19 min 42 sec) 
Heartbeat CPU  0 instructions:  417000000 cycles:  349451381 heartbeat IPC: 1.11615 cumulative IPC: 1.11756 (Simulation time: 0 hr 19 min 45 sec) 
Heartbeat CPU  0 instructions:  418000002 cycles:  350347627 heartbeat IPC: 1.11577 cumulative IPC: 1.11755 (Simulation time: 0 hr 19 min 48 sec) 
Heartbeat CPU  0 instructions:  419000002 cycles:  351242480 heartbeat IPC: 1.11750 cumulative IPC: 1.11755 (Simulation time: 0 hr 19 min 50 sec) 
Heartbeat CPU  0 instructions:  420000000 cycles:  352147067 heartbeat IPC: 1.10547 cumulative IPC: 1.11751 (Simulation time: 0 hr 19 min 53 sec) 
Heartbeat CPU  0 instructions:  421000001 cycles:  353040831 heartbeat IPC: 1.11886 cumulative IPC: 1.11752 (Simulation time: 0 hr 19 min 56 sec) 
Heartbeat CPU  0 instructions:  422000001 cycles:  353931164 heartbeat IPC: 1.12318 cumulative IPC: 1.11754 (Simulation time: 0 hr 19 min 59 sec) 
Heartbeat CPU  0 instructions:  423000000 cycles:  354825658 heartbeat IPC: 1.11795 cumulative IPC: 1.11754 (Simulation time: 0 hr 20 min 2 sec) 
Heartbeat CPU  0 instructions:  424000000 cycles:  355717123 heartbeat IPC: 1.12175 cumulative IPC: 1.11755 (Simulation time: 0 hr 20 min 4 sec) 
Heartbeat CPU  0 instructions:  425000002 cycles:  356606447 heartbeat IPC: 1.12445 cumulative IPC: 1.11757 (Simulation time: 0 hr 20 min 7 sec) 
Heartbeat CPU  0 instructions:  426000003 cycles:  357499411 heartbeat IPC: 1.11987 cumulative IPC: 1.11758 (Simulation time: 0 hr 20 min 10 sec) 
Heartbeat CPU  0 instructions:  427000002 cycles:  358397569 heartbeat IPC: 1.11339 cumulative IPC: 1.11757 (Simulation time: 0 hr 20 min 13 sec) 
Heartbeat CPU  0 instructions:  428000000 cycles:  359291972 heartbeat IPC: 1.11806 cumulative IPC: 1.11757 (Simulation time: 0 hr 20 min 15 sec) 
Heartbeat CPU  0 instructions:  429000000 cycles:  360194014 heartbeat IPC: 1.10860 cumulative IPC: 1.11754 (Simulation time: 0 hr 20 min 18 sec) 
Heartbeat CPU  0 instructions:  430000002 cycles:  361088565 heartbeat IPC: 1.11788 cumulative IPC: 1.11754 (Simulation time: 0 hr 20 min 21 sec) 
Heartbeat CPU  0 instructions:  431000001 cycles:  361985094 heartbeat IPC: 1.11541 cumulative IPC: 1.11753 (Simulation time: 0 hr 20 min 24 sec) 
Heartbeat CPU  0 instructions:  432000000 cycles:  362882012 heartbeat IPC: 1.11493 cumulative IPC: 1.11753 (Simulation time: 0 hr 20 min 26 sec) 
Heartbeat CPU  0 instructions:  433000002 cycles:  363777548 heartbeat IPC: 1.11665 cumulative IPC: 1.11752 (Simulation time: 0 hr 20 min 29 sec) 
Heartbeat CPU  0 instructions:  434000002 cycles:  364670526 heartbeat IPC: 1.11985 cumulative IPC: 1.11753 (Simulation time: 0 hr 20 min 32 sec) 
Heartbeat CPU  0 instructions:  435000001 cycles:  365562685 heartbeat IPC: 1.12088 cumulative IPC: 1.11754 (Simulation time: 0 hr 20 min 35 sec) 
Heartbeat CPU  0 instructions:  436000000 cycles:  366453805 heartbeat IPC: 1.12218 cumulative IPC: 1.11755 (Simulation time: 0 hr 20 min 38 sec) 
Heartbeat CPU  0 instructions:  437000001 cycles:  367349322 heartbeat IPC: 1.11667 cumulative IPC: 1.11755 (Simulation time: 0 hr 20 min 41 sec) 
Heartbeat CPU  0 instructions:  438000001 cycles:  368242312 heartbeat IPC: 1.11983 cumulative IPC: 1.11756 (Simulation time: 0 hr 20 min 44 sec) 
Heartbeat CPU  0 instructions:  439000001 cycles:  369140994 heartbeat IPC: 1.11274 cumulative IPC: 1.11754 (Simulation time: 0 hr 20 min 46 sec) 
Heartbeat CPU  0 instructions:  440000000 cycles:  370034250 heartbeat IPC: 1.11950 cumulative IPC: 1.11755 (Simulation time: 0 hr 20 min 49 sec) 
Heartbeat CPU  0 instructions:  441000000 cycles:  370934637 heartbeat IPC: 1.11063 cumulative IPC: 1.11753 (Simulation time: 0 hr 20 min 52 sec) 
Heartbeat CPU  0 instructions:  442000000 cycles:  371827344 heartbeat IPC: 1.12019 cumulative IPC: 1.11754 (Simulation time: 0 hr 20 min 55 sec) 
Heartbeat CPU  0 instructions:  443000001 cycles:  372730250 heartbeat IPC: 1.10754 cumulative IPC: 1.11751 (Simulation time: 0 hr 20 min 58 sec) 
Heartbeat CPU  0 instructions:  444000000 cycles:  373628419 heartbeat IPC: 1.11338 cumulative IPC: 1.11750 (Simulation time: 0 hr 21 min 1 sec) 
Heartbeat CPU  0 instructions:  445000000 cycles:  374527106 heartbeat IPC: 1.11273 cumulative IPC: 1.11748 (Simulation time: 0 hr 21 min 4 sec) 
Heartbeat CPU  0 instructions:  446000002 cycles:  375415151 heartbeat IPC: 1.12607 cumulative IPC: 1.11751 (Simulation time: 0 hr 21 min 7 sec) 
Heartbeat CPU  0 instructions:  447000000 cycles:  376308508 heartbeat IPC: 1.11937 cumulative IPC: 1.11751 (Simulation time: 0 hr 21 min 9 sec) 
Heartbeat CPU  0 instructions:  448000000 cycles:  377201905 heartbeat IPC: 1.11932 cumulative IPC: 1.11752 (Simulation time: 0 hr 21 min 12 sec) 
Heartbeat CPU  0 instructions:  449000001 cycles:  378101910 heartbeat IPC: 1.11111 cumulative IPC: 1.11750 (Simulation time: 0 hr 21 min 15 sec) 
Heartbeat CPU  0 instructions:  450000001 cycles:  378995416 heartbeat IPC: 1.11919 cumulative IPC: 1.11750 (Simulation time: 0 hr 21 min 18 sec) 
Heartbeat CPU  0 instructions:  451000002 cycles:  379891267 heartbeat IPC: 1.11626 cumulative IPC: 1.11750 (Simulation time: 0 hr 21 min 20 sec) 
Heartbeat CPU  0 instructions:  452000000 cycles:  380783184 heartbeat IPC: 1.12118 cumulative IPC: 1.11751 (Simulation time: 0 hr 21 min 23 sec) 
Heartbeat CPU  0 instructions:  453000001 cycles:  381679416 heartbeat IPC: 1.11578 cumulative IPC: 1.11751 (Simulation time: 0 hr 21 min 26 sec) 
Heartbeat CPU  0 instructions:  454000000 cycles:  382573958 heartbeat IPC: 1.11789 cumulative IPC: 1.11751 (Simulation time: 0 hr 21 min 29 sec) 
Heartbeat CPU  0 instructions:  455000003 cycles:  383463737 heartbeat IPC: 1.12388 cumulative IPC: 1.11752 (Simulation time: 0 hr 21 min 32 sec) 
Heartbeat CPU  0 instructions:  456000000 cycles:  384356652 heartbeat IPC: 1.11992 cumulative IPC: 1.11753 (Simulation time: 0 hr 21 min 35 sec) 
Heartbeat CPU  0 instructions:  457000000 cycles:  385251835 heartbeat IPC: 1.11709 cumulative IPC: 1.11753 (Simulation time: 0 hr 21 min 37 sec) 
Heartbeat CPU  0 instructions:  458000003 cycles:  386147459 heartbeat IPC: 1.11654 cumulative IPC: 1.11753 (Simulation time: 0 hr 21 min 40 sec) 
Heartbeat CPU  0 instructions:  459000002 cycles:  387040340 heartbeat IPC: 1.11997 cumulative IPC: 1.11753 (Simulation time: 0 hr 21 min 43 sec) 
Heartbeat CPU  0 instructions:  460000000 cycles:  387936023 heartbeat IPC: 1.11646 cumulative IPC: 1.11753 (Simulation time: 0 hr 21 min 46 sec) 
Heartbeat CPU  0 instructions:  461000000 cycles:  388829137 heartbeat IPC: 1.11968 cumulative IPC: 1.11754 (Simulation time: 0 hr 21 min 48 sec) 
Heartbeat CPU  0 instructions:  462000000 cycles:  389720795 heartbeat IPC: 1.12151 cumulative IPC: 1.11755 (Simulation time: 0 hr 21 min 51 sec) 
Heartbeat CPU  0 instructions:  463000000 cycles:  390609333 heartbeat IPC: 1.12544 cumulative IPC: 1.11757 (Simulation time: 0 hr 21 min 54 sec) 
Heartbeat CPU  0 instructions:  464000000 cycles:  391510503 heartbeat IPC: 1.10967 cumulative IPC: 1.11755 (Simulation time: 0 hr 21 min 57 sec) 
Heartbeat CPU  0 instructions:  465000001 cycles:  392403815 heartbeat IPC: 1.11943 cumulative IPC: 1.11755 (Simulation time: 0 hr 21 min 59 sec) 
Heartbeat CPU  0 instructions:  466000003 cycles:  393302242 heartbeat IPC: 1.11306 cumulative IPC: 1.11754 (Simulation time: 0 hr 22 min 2 sec) 
Heartbeat CPU  0 instructions:  467000002 cycles:  394190951 heartbeat IPC: 1.12523 cumulative IPC: 1.11756 (Simulation time: 0 hr 22 min 5 sec) 
Heartbeat CPU  0 instructions:  468000000 cycles:  395080641 heartbeat IPC: 1.12398 cumulative IPC: 1.11758 (Simulation time: 0 hr 22 min 8 sec) 
Heartbeat CPU  0 instructions:  469000000 cycles:  395976821 heartbeat IPC: 1.11585 cumulative IPC: 1.11757 (Simulation time: 0 hr 22 min 11 sec) 
Heartbeat CPU  0 instructions:  470000000 cycles:  396867827 heartbeat IPC: 1.12233 cumulative IPC: 1.11759 (Simulation time: 0 hr 22 min 13 sec) 
Heartbeat CPU  0 instructions:  471000003 cycles:  397764963 heartbeat IPC: 1.11466 cumulative IPC: 1.11758 (Simulation time: 0 hr 22 min 16 sec) 
Heartbeat CPU  0 instructions:  472000000 cycles:  398662248 heartbeat IPC: 1.11447 cumulative IPC: 1.11757 (Simulation time: 0 hr 22 min 19 sec) 
Heartbeat CPU  0 instructions:  473000000 cycles:  399557102 heartbeat IPC: 1.11750 cumulative IPC: 1.11757 (Simulation time: 0 hr 22 min 22 sec) 
Heartbeat CPU  0 instructions:  474000001 cycles:  400453693 heartbeat IPC: 1.11534 cumulative IPC: 1.11756 (Simulation time: 0 hr 22 min 25 sec) 
Heartbeat CPU  0 instructions:  475000000 cycles:  401347282 heartbeat IPC: 1.11908 cumulative IPC: 1.11757 (Simulation time: 0 hr 22 min 27 sec) 
Heartbeat CPU  0 instructions:  476000000 cycles:  402243913 heartbeat IPC: 1.11529 cumulative IPC: 1.11756 (Simulation time: 0 hr 22 min 30 sec) 
Heartbeat CPU  0 instructions:  477000002 cycles:  403137446 heartbeat IPC: 1.11916 cumulative IPC: 1.11757 (Simulation time: 0 hr 22 min 33 sec) 
Heartbeat CPU  0 instructions:  478000002 cycles:  404031461 heartbeat IPC: 1.11855 cumulative IPC: 1.11757 (Simulation time: 0 hr 22 min 36 sec) 
Heartbeat CPU  0 instructions:  479000001 cycles:  404927415 heartbeat IPC: 1.11613 cumulative IPC: 1.11757 (Simulation time: 0 hr 22 min 39 sec) 
Heartbeat CPU  0 instructions:  480000000 cycles:  405819880 heartbeat IPC: 1.12049 cumulative IPC: 1.11757 (Simulation time: 0 hr 22 min 41 sec) 
Heartbeat CPU  0 instructions:  481000002 cycles:  406718203 heartbeat IPC: 1.11319 cumulative IPC: 1.11756 (Simulation time: 0 hr 22 min 44 sec) 
Heartbeat CPU  0 instructions:  482000003 cycles:  407608097 heartbeat IPC: 1.12373 cumulative IPC: 1.11758 (Simulation time: 0 hr 22 min 47 sec) 
Heartbeat CPU  0 instructions:  483000002 cycles:  408511834 heartbeat IPC: 1.10652 cumulative IPC: 1.11755 (Simulation time: 0 hr 22 min 50 sec) 
Heartbeat CPU  0 instructions:  484000000 cycles:  409406086 heartbeat IPC: 1.11825 cumulative IPC: 1.11755 (Simulation time: 0 hr 22 min 53 sec) 
Heartbeat CPU  0 instructions:  485000003 cycles:  410306359 heartbeat IPC: 1.11078 cumulative IPC: 1.11753 (Simulation time: 0 hr 22 min 55 sec) 
Heartbeat CPU  0 instructions:  486000001 cycles:  411200595 heartbeat IPC: 1.11827 cumulative IPC: 1.11753 (Simulation time: 0 hr 22 min 58 sec) 
Heartbeat CPU  0 instructions:  487000002 cycles:  412097827 heartbeat IPC: 1.11454 cumulative IPC: 1.11753 (Simulation time: 0 hr 23 min 1 sec) 
Heartbeat CPU  0 instructions:  488000000 cycles:  412991876 heartbeat IPC: 1.11850 cumulative IPC: 1.11753 (Simulation time: 0 hr 23 min 4 sec) 
Heartbeat CPU  0 instructions:  489000003 cycles:  413893341 heartbeat IPC: 1.10931 cumulative IPC: 1.11751 (Simulation time: 0 hr 23 min 6 sec) 
Heartbeat CPU  0 instructions:  490000001 cycles:  414786062 heartbeat IPC: 1.12017 cumulative IPC: 1.11751 (Simulation time: 0 hr 23 min 9 sec) 
Heartbeat CPU  0 instructions:  491000000 cycles:  415674931 heartbeat IPC: 1.12502 cumulative IPC: 1.11753 (Simulation time: 0 hr 23 min 12 sec) 
Heartbeat CPU  0 instructions:  492000000 cycles:  416563468 heartbeat IPC: 1.12545 cumulative IPC: 1.11755 (Simulation time: 0 hr 23 min 15 sec) 
Heartbeat CPU  0 instructions:  493000001 cycles:  417460082 heartbeat IPC: 1.11531 cumulative IPC: 1.11755 (Simulation time: 0 hr 23 min 18 sec) 
Heartbeat CPU  0 instructions:  494000000 cycles:  418360776 heartbeat IPC: 1.11025 cumulative IPC: 1.11753 (Simulation time: 0 hr 23 min 20 sec) 
Heartbeat CPU  0 instructions:  495000003 cycles:  419249968 heartbeat IPC: 1.12462 cumulative IPC: 1.11755 (Simulation time: 0 hr 23 min 23 sec) 
Heartbeat CPU  0 instructions:  496000000 cycles:  420140804 heartbeat IPC: 1.12254 cumulative IPC: 1.11756 (Simulation time: 0 hr 23 min 26 sec) 
Heartbeat CPU  0 instructions:  497000001 cycles:  421035987 heartbeat IPC: 1.11709 cumulative IPC: 1.11756 (Simulation time: 0 hr 23 min 29 sec) 
Heartbeat CPU  0 instructions:  498000003 cycles:  421937119 heartbeat IPC: 1.10972 cumulative IPC: 1.11754 (Simulation time: 0 hr 23 min 31 sec) 
Heartbeat CPU  0 instructions:  499000001 cycles:  422831394 heartbeat IPC: 1.11822 cumulative IPC: 1.11754 (Simulation time: 0 hr 23 min 34 sec) 
Heartbeat CPU  0 instructions:  500000000 cycles:  423723779 heartbeat IPC: 1.12059 cumulative IPC: 1.11755 (Simulation time: 0 hr 23 min 37 sec) 
Heartbeat CPU  0 instructions:  501000003 cycles:  424619497 heartbeat IPC: 1.11643 cumulative IPC: 1.11755 (Simulation time: 0 hr 23 min 40 sec) 
Heartbeat CPU  0 instructions:  502000001 cycles:  425514619 heartbeat IPC: 1.11716 cumulative IPC: 1.11754 (Simulation time: 0 hr 23 min 43 sec) 
Heartbeat CPU  0 instructions:  503000000 cycles:  426412210 heartbeat IPC: 1.11409 cumulative IPC: 1.11754 (Simulation time: 0 hr 23 min 46 sec) 
Heartbeat CPU  0 instructions:  504000000 cycles:  427312928 heartbeat IPC: 1.11023 cumulative IPC: 1.11752 (Simulation time: 0 hr 23 min 48 sec) 
Heartbeat CPU  0 instructions:  505000000 cycles:  428208136 heartbeat IPC: 1.11706 cumulative IPC: 1.11752 (Simulation time: 0 hr 23 min 51 sec) 
Heartbeat CPU  0 instructions:  506000001 cycles:  429103510 heartbeat IPC: 1.11685 cumulative IPC: 1.11751 (Simulation time: 0 hr 23 min 54 sec) 
Heartbeat CPU  0 instructions:  507000000 cycles:  429998994 heartbeat IPC: 1.11671 cumulative IPC: 1.11751 (Simulation time: 0 hr 23 min 56 sec) 
Heartbeat CPU  0 instructions:  508000000 cycles:  430894000 heartbeat IPC: 1.11731 cumulative IPC: 1.11751 (Simulation time: 0 hr 23 min 59 sec) 
Heartbeat CPU  0 instructions:  509000000 cycles:  431791916 heartbeat IPC: 1.11369 cumulative IPC: 1.11750 (Simulation time: 0 hr 24 min 2 sec) 
Heartbeat CPU  0 instructions:  510000001 cycles:  432683517 heartbeat IPC: 1.12158 cumulative IPC: 1.11751 (Simulation time: 0 hr 24 min 5 sec) 
Heartbeat CPU  0 instructions:  511000001 cycles:  433586520 heartbeat IPC: 1.10742 cumulative IPC: 1.11749 (Simulation time: 0 hr 24 min 8 sec) 
Heartbeat CPU  0 instructions:  512000000 cycles:  434480615 heartbeat IPC: 1.11845 cumulative IPC: 1.11749 (Simulation time: 0 hr 24 min 11 sec) 
Heartbeat CPU  0 instructions:  513000003 cycles:  435374120 heartbeat IPC: 1.11919 cumulative IPC: 1.11749 (Simulation time: 0 hr 24 min 13 sec) 
Heartbeat CPU  0 instructions:  514000000 cycles:  436267818 heartbeat IPC: 1.11894 cumulative IPC: 1.11750 (Simulation time: 0 hr 24 min 16 sec) 
Heartbeat CPU  0 instructions:  515000001 cycles:  437164714 heartbeat IPC: 1.11496 cumulative IPC: 1.11749 (Simulation time: 0 hr 24 min 19 sec) 
Heartbeat CPU  0 instructions:  516000000 cycles:  438056585 heartbeat IPC: 1.12124 cumulative IPC: 1.11750 (Simulation time: 0 hr 24 min 22 sec) 
Heartbeat CPU  0 instructions:  517000002 cycles:  438957645 heartbeat IPC: 1.10981 cumulative IPC: 1.11748 (Simulation time: 0 hr 24 min 25 sec) 
Heartbeat CPU  0 instructions:  518000000 cycles:  439851387 heartbeat IPC: 1.11889 cumulative IPC: 1.11749 (Simulation time: 0 hr 24 min 28 sec) 
Heartbeat CPU  0 instructions:  519000003 cycles:  440741611 heartbeat IPC: 1.12332 cumulative IPC: 1.11750 (Simulation time: 0 hr 24 min 30 sec) 
Heartbeat CPU  0 instructions:  520000000 cycles:  441636438 heartbeat IPC: 1.11753 cumulative IPC: 1.11750 (Simulation time: 0 hr 24 min 33 sec) 
Heartbeat CPU  0 instructions:  521000000 cycles:  442526567 heartbeat IPC: 1.12343 cumulative IPC: 1.11751 (Simulation time: 0 hr 24 min 36 sec) 
Heartbeat CPU  0 instructions:  522000000 cycles:  443425100 heartbeat IPC: 1.11293 cumulative IPC: 1.11750 (Simulation time: 0 hr 24 min 39 sec) 
Heartbeat CPU  0 instructions:  523000002 cycles:  444314004 heartbeat IPC: 1.12498 cumulative IPC: 1.11752 (Simulation time: 0 hr 24 min 41 sec) 
Heartbeat CPU  0 instructions:  524000000 cycles:  445209255 heartbeat IPC: 1.11700 cumulative IPC: 1.11752 (Simulation time: 0 hr 24 min 44 sec) 
Heartbeat CPU  0 instructions:  525000000 cycles:  446102810 heartbeat IPC: 1.11913 cumulative IPC: 1.11752 (Simulation time: 0 hr 24 min 47 sec) 
Heartbeat CPU  0 instructions:  526000001 cycles:  446989106 heartbeat IPC: 1.12829 cumulative IPC: 1.11755 (Simulation time: 0 hr 24 min 50 sec) 
Heartbeat CPU  0 instructions:  527000000 cycles:  447886411 heartbeat IPC: 1.11445 cumulative IPC: 1.11754 (Simulation time: 0 hr 24 min 53 sec) 
Heartbeat CPU  0 instructions:  528000000 cycles:  448779050 heartbeat IPC: 1.12027 cumulative IPC: 1.11755 (Simulation time: 0 hr 24 min 56 sec) 
[...]
Heartbeat CPU  0 instructions:  532000000 cycles:  452360143 heartbeat IPC: 1.11955 cumulative IPC: 1.11754 (Simulation time: 0 hr 25 min 8 sec) 
Heartbeat CPU  0 instructions:  533000002 cycles:  453251964 heartbeat IPC: 1.12130 cumulative IPC: 1.11755 (Simulation time: 0 hr 25 min 11 sec) 
Heartbeat CPU  0 instructions:  534000000 cycles:  454145218 heartbeat IPC: 1.11950 cumulative IPC: 1.11755 (Simulation time: 0 hr 25 min 14 sec) 
Heartbeat CPU  0 instructions:  535000003 cycles:  455037865 heartbeat IPC: 1.12027 cumulative IPC: 1.11756 (Simulation time: 0 hr 25 min 17 sec) 
Heartbeat CPU  0 instructions:  536000000 cycles:  455937249 heartbeat IPC: 1.11187 cumulative IPC: 1.11755 (Simulation time: 0 hr 25 min 20 sec) 
Heartbeat CPU  0 instructions:  537000000 cycles:  456830878 heartbeat IPC: 1.11903 cumulative IPC: 1.11755 (Simulation time: 0 hr 25 min 23 sec) 
Heartbeat CPU  0 instructions:  538000002 cycles:  457727845 heartbeat IPC: 1.11487 cumulative IPC: 1.11755 (Simulation time: 0 hr 25 min 25 sec) 
Heartbeat CPU  0 instructions:  539000001 cycles:  458623371 heartbeat IPC: 1.11666 cumulative IPC: 1.11754 (Simulation time: 0 hr 25 min 28 sec) 
Heartbeat CPU  0 instructions:  540000000 cycles:  459516991 heartbeat IPC: 1.11904 cumulative IPC: 1.11755 (Simulation time: 0 hr 25 min 31 sec) 
Heartbeat CPU  0 instructions:  541000000 cycles:  460407371 heartbeat IPC: 1.12312 cumulative IPC: 1.11756 (Simulation time: 0 hr 25 min 34 sec) 
Heartbeat CPU  0 instructions:  542000003 cycles:  461291585 heartbeat IPC: 1.13095 cumulative IPC: 1.11759 (Simulation time: 0 hr 25 min 37 sec) 
Heartbeat CPU  0 instructions:  543000001 cycles:  462186454 heartbeat IPC: 1.11748 cumulative IPC: 1.11759 (Simulation time: 0 hr 25 min 40 sec) 
Heartbeat CPU  0 instructions:  544000000 cycles:  463079194 heartbeat IPC: 1.12015 cumulative IPC: 1.11759 (Simulation time: 0 hr 25 min 43 sec) 
Heartbeat CPU  0 instructions:  545000002 cycles:  463975166 heartbeat IPC: 1.11611 cumulative IPC: 1.11759 (Simulation time: 0 hr 25 min 46 sec) 
Heartbeat CPU  0 instructions:  546000000 cycles:  464872199 heartbeat IPC: 1.11478 cumulative IPC: 1.11758 (Simulation time: 0 hr 25 min 49 sec) 
Heartbeat CPU  0 instructions:  547000002 cycles:  465764823 heartbeat IPC: 1.12029 cumulative IPC: 1.11759 (Simulation time: 0 hr 25 min 52 sec) 
Heartbeat CPU  0 instructions:  548000000 cycles:  466652089 heartbeat IPC: 1.12706 cumulative IPC: 1.11761 (Simulation time: 0 hr 25 min 55 sec) 
Heartbeat CPU  0 instructions:  549000003 cycles:  467549443 heartbeat IPC: 1.11439 cumulative IPC: 1.11760 (Simulation time: 0 hr 25 min 58 sec) 
Heartbeat CPU  0 instructions:  550000002 cycles:  468441439 heartbeat IPC: 1.12108 cumulative IPC: 1.11761 (Simulation time: 0 hr 26 min 1 sec) 
Heartbeat CPU  0 instructions:  551000003 cycles:  469339248 heartbeat IPC: 1.11382 cumulative IPC: 1.11760 (Simulation time: 0 hr 26 min 4 sec) 
Heartbeat CPU  0 instructions:  552000000 cycles:  470233955 heartbeat IPC: 1.11768 cumulative IPC: 1.11760 (Simulation time: 0 hr 26 min 6 sec) 
Heartbeat CPU  0 instructions:  553000000 cycles:  471129048 heartbeat IPC: 1.11720 cumulative IPC: 1.11760 (Simulation time: 0 hr 26 min 9 sec) 
Heartbeat CPU  0 instructions:  554000000 cycles:  472022973 heartbeat IPC: 1.11866 cumulative IPC: 1.11761 (Simulation time: 0 hr 26 min 12 sec) 
Heartbeat CPU  0 instructions:  555000001 cycles:  472917085 heartbeat IPC: 1.11843 cumulative IPC: 1.11761 (Simulation time: 0 hr 26 min 15 sec) 
Heartbeat CPU  0 instructions:  556000000 cycles:  473817114 heartbeat IPC: 1.11107 cumulative IPC: 1.11759 (Simulation time: 0 hr 26 min 18 sec) 
Heartbeat CPU  0 instructions:  557000001 cycles:  474715344 heartbeat IPC: 1.11330 cumulative IPC: 1.11758 (Simulation time: 0 hr 26 min 21 sec) 
Heartbeat CPU  0 instructions:  558000001 cycles:  475606070 heartbeat IPC: 1.12268 cumulative IPC: 1.11759 (Simulation time: 0 hr 26 min 24 sec) 
Heartbeat CPU  0 instructions:  559000002 cycles:  476495113 heartbeat IPC: 1.12481 cumulative IPC: 1.11761 (Simulation time: 0 hr 26 min 27 sec) 
Heartbeat CPU  0 instructions:  560000000 cycles:  477382515 heartbeat IPC: 1.12688 cumulative IPC: 1.11763 (Simulation time: 0 hr 26 min 30 sec) 
Heartbeat CPU  0 instructions:  561000001 cycles:  478271019 heartbeat IPC: 1.12549 cumulative IPC: 1.11765 (Simulation time: 0 hr 26 min 33 sec) 
Heartbeat CPU  0 instructions:  562000002 cycles:  479172712 heartbeat IPC: 1.10903 cumulative IPC: 1.11763 (Simulation time: 0 hr 26 min 36 sec) 
Heartbeat CPU  0 instructions:  563000002 cycles:  480068154 heartbeat IPC: 1.11677 cumulative IPC: 1.11763 (Simulation time: 0 hr 26 min 39 sec) 
Heartbeat CPU  0 instructions:  564000000 cycles:  480962596 heartbeat IPC: 1.11801 cumulative IPC: 1.11763 (Simulation time: 0 hr 26 min 41 sec) 
Heartbeat CPU  0 instructions:  565000002 cycles:  481857836 heartbeat IPC: 1.11702 cumulative IPC: 1.11763 (Simulation time: 0 hr 26 min 44 sec) 
Heartbeat CPU  0 instructions:  566000001 cycles:  482748675 heartbeat IPC: 1.12254 cumulative IPC: 1.11764 (Simulation time: 0 hr 26 min 47 sec) 
Heartbeat CPU  0 instructions:  567000000 cycles:  483644114 heartbeat IPC: 1.11677 cumulative IPC: 1.11763 (Simulation time: 0 hr 26 min 50 sec) 
Heartbeat CPU  0 instructions:  568000000 cycles:  484537134 heartbeat IPC: 1.11980 cumulative IPC: 1.11764 (Simulation time: 0 hr 26 min 53 sec) 
Heartbeat CPU  0 instructions:  569000002 cycles:  485430929 heartbeat IPC: 1.11883 cumulative IPC: 1.11764 (Simulation time: 0 hr 26 min 56 sec) 
Heartbeat CPU  0 instructions:  570000002 cycles:  486325762 heartbeat IPC: 1.11753 cumulative IPC: 1.11764 (Simulation time: 0 hr 26 min 59 sec) 
Heartbeat CPU  0 instructions:  571000003 cycles:  487214835 heartbeat IPC: 1.12477 cumulative IPC: 1.11766 (Simulation time: 0 hr 27 min 1 sec) 
Heartbeat CPU  0 instructions:  572000000 cycles:  488101772 heartbeat IPC: 1.12747 cumulative IPC: 1.11768 (Simulation time: 0 hr 27 min 4 sec) 
Heartbeat CPU  0 instructions:  573000000 cycles:  488992474 heartbeat IPC: 1.12271 cumulative IPC: 1.11769 (Simulation time: 0 hr 27 min 7 sec) 
Heartbeat CPU  0 instructions:  574000000 cycles:  489883069 heartbeat IPC: 1.12284 cumulative IPC: 1.11770 (Simulation time: 0 hr 27 min 10 sec) 
Heartbeat CPU  0 instructions:  575000002 cycles:  490781583 heartbeat IPC: 1.11295 cumulative IPC: 1.11769 (Simulation time: 0 hr 27 min 13 sec) 
Heartbeat CPU  0 instructions:  576000000 cycles:  491676236 heartbeat IPC: 1.11775 cumulative IPC: 1.11769 (Simulation time: 0 hr 27 min 15 sec) 
Heartbeat CPU  0 instructions:  577000000 cycles:  492576114 heartbeat IPC: 1.11126 cumulative IPC: 1.11768 (Simulation time: 0 hr 27 min 18 sec) 
Heartbeat CPU  0 instructions:  578000001 cycles:  493467536 heartbeat IPC: 1.12180 cumulative IPC: 1.11768 (Simulation time: 0 hr 27 min 21 sec) 
Heartbeat CPU  0 instructions:  579000002 cycles:  494366159 heartbeat IPC: 1.11281 cumulative IPC: 1.11767 (Simulation time: 0 hr 27 min 24 sec) 
Heartbeat CPU  0 instructions:  580000000 cycles:  495260668 heartbeat IPC: 1.11793 cumulative IPC: 1.11767 (Simulation time: 0 hr 27 min 27 sec) 
Heartbeat CPU  0 instructions:  581000000 cycles:  496156983 heartbeat IPC: 1.11568 cumulative IPC: 1.11767 (Simulation time: 0 hr 27 min 30 sec) 
Heartbeat CPU  0 instructions:  582000000 cycles:  497054620 heartbeat IPC: 1.11404 cumulative IPC: 1.11766 (Simulation time: 0 hr 27 min 32 sec) 
Heartbeat CPU  0 instructions:  583000001 cycles:  497949574 heartbeat IPC: 1.11738 cumulative IPC: 1.11766 (Simulation time: 0 hr 27 min 35 sec) 
Heartbeat CPU  0 instructions:  584000000 cycles:  498837118 heartbeat IPC: 1.12670 cumulative IPC: 1.11768 (Simulation time: 0 hr 27 min 38 sec) 
Heartbeat CPU  0 instructions:  585000000 cycles:  499732491 heartbeat IPC: 1.11685 cumulative IPC: 1.11768 (Simulation time: 0 hr 27 min 41 sec) 
Heartbeat CPU  0 instructions:  586000000 cycles:  500632102 heartbeat IPC: 1.11159 cumulative IPC: 1.11767 (Simulation time: 0 hr 27 min 44 sec) 
Heartbeat CPU  0 instructions:  587000001 cycles:  501528443 heartbeat IPC: 1.11565 cumulative IPC: 1.11766 (Simulation time: 0 hr 27 min 47 sec) 
Heartbeat CPU  0 instructions:  588000000 cycles:  502421881 heartbeat IPC: 1.11927 cumulative IPC: 1.11767 (Simulation time: 0 hr 27 min 49 sec) 
Heartbeat CPU  0 instructions:  589000000 cycles:  503316795 heartbeat IPC: 1.11743 cumulative IPC: 1.11766 (Simulation time: 0 hr 27 min 52 sec) 
Heartbeat CPU  0 instructions:  590000001 cycles:  504213260 heartbeat IPC: 1.11549 cumulative IPC: 1.11766 (Simulation time: 0 hr 27 min 55 sec) 
Heartbeat CPU  0 instructions:  591000002 cycles:  505107293 heartbeat IPC: 1.11853 cumulative IPC: 1.11766 (Simulation time: 0 hr 27 min 59 sec) 
Heartbeat CPU  0 instructions:  592000000 cycles:  506001177 heartbeat IPC: 1.11871 cumulative IPC: 1.11766 (Simulation time: 0 hr 28 min 1 sec) 
Heartbeat CPU  0 instructions:  593000003 cycles:  506894937 heartbeat IPC: 1.11887 cumulative IPC: 1.11767 (Simulation time: 0 hr 28 min 4 sec) 
Heartbeat CPU  0 instructions:  594000000 cycles:  507791891 heartbeat IPC: 1.11488 cumulative IPC: 1.11766 (Simulation time: 0 hr 28 min 7 sec) 
Heartbeat CPU  0 instructions:  595000001 cycles:  508686392 heartbeat IPC: 1.11794 cumulative IPC: 1.11766 (Simulation time: 0 hr 28 min 10 sec) 
Heartbeat CPU  0 instructions:  596000000 cycles:  509580254 heartbeat IPC: 1.11874 cumulative IPC: 1.11766 (Simulation time: 0 hr 28 min 13 sec) 
Heartbeat CPU  0 instructions:  597000002 cycles:  510470489 heartbeat IPC: 1.12330 cumulative IPC: 1.11768 (Simulation time: 0 hr 28 min 16 sec) 
Heartbeat CPU  0 instructions:  598000001 cycles:  511361998 heartbeat IPC: 1.12169 cumulative IPC: 1.11768 (Simulation time: 0 hr 28 min 19 sec) 
Heartbeat CPU  0 instructions:  599000000 cycles:  512259378 heartbeat IPC: 1.11435 cumulative IPC: 1.11768 (Simulation time: 0 hr 28 min 22 sec) 
Heartbeat CPU  0 instructions:  600000000 cycles:  513155438 heartbeat IPC: 1.11600 cumulative IPC: 1.11767 (Simulation time: 0 hr 28 min 24 sec) 
Finished CPU 0 instructions: 500000000 cycles: 447358051 cumulative IPC: 1.11767 (Simulation time: 0 hr 28 min 24 sec) 

ChampSim completed all CPUs

[ROI Statistics]
Core_0_instructions 500000000
Core_0_cycles 447358051
Core_0_IPC 1.11767

Core_0_branch_prediction_accuracy 97.89350
Core_0_branch_MPKI 0.73267
Core_0_average_ROB_occupancy_at_mispredict 252.55036

Core_0_L1D_total_access 233826990
Core_0_L1D_total_hit 223642168
Core_0_L1D_total_miss 10184822
Core_0_L1D_loads 197794227
Core_0_L1D_load_hit 187872125
Core_0_L1D_load_miss 9922102
Core_0_L1D_RFOs 36032763
Core_0_L1D_RFO_hit 35770043
Core_0_L1D_RFO_miss 262720
Core_0_L1D_prefetches 0
Core_0_L1D_prefetch_hit 0
Core_0_L1D_prefetch_miss 0
Core_0_L1D_writebacks 0
Core_0_L1D_writeback_hit 0
Core_0_L1D_writeback_miss 0
Core_0_L1D_prefetch_requested 0
Core_0_L1D_prefetch_dropped 0
Core_0_L1D_prefetch_issued 0
Core_0_L1D_prefetch_filled 0
Core_0_L1D_prefetch_useful 0
Core_0_L1D_prefetch_useless 0
Core_0_L1D_prefetch_late 0
Core_0_L1D_average_miss_latency 45.17756

Core_0_L1D_rq_access 254237441
Core_0_L1D_rq_forward 0
Core_0_L1D_rq_merged 53679424
Core_0_L1D_rq_to_cache 200558017
Core_0_L1D_rq_full 0

Core_0_L1D_wq_access 36392435
Core_0_L1D_wq_forward 0
Core_0_L1D_wq_merged 0
Core_0_L1D_wq_to_cache 36392435
Core_0_L1D_wq_full 0

Core_0_L1D_pq_access 0
Core_0_L1D_pq_forward 0
Core_0_L1D_pq_merged 0
Core_0_L1D_pq_to_cache 0
Core_0_L1D_pq_full 0

Core_0_L1D_acc_epochs 487424
Core_0_L1D_acc_level_0 487424
Core_0_L1D_acc_level_1 0
Core_0_L1D_acc_level_2 0
Core_0_L1D_acc_level_3 0
Core_0_L1D_acc_level_4 0
Core_0_L1D_acc_level_5 0
Core_0_L1D_acc_level_6 0
Core_0_L1D_acc_level_7 0
Core_0_L1D_acc_level_8 0
Core_0_L1D_acc_level_9 0

Core_0_L1I_total_access 114687665
Core_0_L1I_total_hit 114687611
Core_0_L1I_total_miss 54
Core_0_L1I_loads 114687665
Core_0_L1I_load_hit 114687611
Core_0_L1I_load_miss 54
Core_0_L1I_RFOs 0
Core_0_L1I_RFO_hit 0
Core_0_L1I_RFO_miss 0
Core_0_L1I_prefetches 0
Core_0_L1I_prefetch_hit 0
Core_0_L1I_prefetch_miss 0
Core_0_L1I_writebacks 0
Core_0_L1I_writeback_hit 0
Core_0_L1I_writeback_miss 0
Core_0_L1I_prefetch_requested 0
Core_0_L1I_prefetch_dropped 0
Core_0_L1I_prefetch_issued 0
Core_0_L1I_prefetch_filled 0
Core_0_L1I_prefetch_useful 0
Core_0_L1I_prefetch_useless 0
Core_0_L1I_prefetch_late 0
Core_0_L1I_average_miss_latency 162.66667

Core_0_L1I_rq_access 500000250
Core_0_L1I_rq_forward 0
Core_0_L1I_rq_merged 385312573
Core_0_L1I_rq_to_cache 114687677
Core_0_L1I_rq_full 0

Core_0_L1I_wq_access 0
Core_0_L1I_wq_forward 0
Core_0_L1I_wq_merged 0
Core_0_L1I_wq_to_cache 0
Core_0_L1I_wq_full 0

Core_0_L1I_pq_access 0
Core_0_L1I_pq_forward 0
Core_0_L1I_pq_merged 0
Core_0_L1I_pq_to_cache 0
Core_0_L1I_pq_full 0

Core_0_L1I_acc_epochs 487424
Core_0_L1I_acc_level_0 487424
Core_0_L1I_acc_level_1 0
Core_0_L1I_acc_level_2 0
Core_0_L1I_acc_level_3 0
Core_0_L1I_acc_level_4 0
Core_0_L1I_acc_level_5 0
Core_0_L1I_acc_level_6 0
Core_0_L1I_acc_level_7 0
Core_0_L1I_acc_level_8 0
Core_0_L1I_acc_level_9 0

Core_0_L2C_total_access 16040854
Core_0_L2C_total_hit 6773239
Core_0_L2C_total_miss 9267615
Core_0_L2C_loads 9918910
Core_0_L2C_load_hit 4486365
Core_0_L2C_load_miss 5432545
Core_0_L2C_RFOs 259909
Core_0_L2C_RFO_hit 39682
Core_0_L2C_RFO_miss 220227
Core_0_L2C_prefetches 5393062
Core_0_L2C_prefetch_hit 1779969
Core_0_L2C_prefetch_miss 3613093
Core_0_L2C_writebacks 468973
Core_0_L2C_writeback_hit 467223
Core_0_L2C_writeback_miss 1750
Core_0_L2C_prefetch_requested 69951104
Core_0_L2C_prefetch_dropped 14916936
Core_0_L2C_prefetch_issued 55034168
Core_0_L2C_prefetch_filled 4640588
Core_0_L2C_prefetch_useful 4640227
Core_0_L2C_prefetch_useless 353
Core_0_L2C_prefetch_late 997270
Core_0_L2C_average_miss_latency 49.21307

Core_0_L2C_rq_access 10184876
Core_0_L2C_rq_forward 0
Core_0_L2C_rq_merged 0
Core_0_L2C_rq_to_cache 10178819
Core_0_L2C_rq_full 0

Core_0_L2C_wq_access 468973
Core_0_L2C_wq_forward 6206
Core_0_L2C_wq_merged 0
Core_0_L2C_wq_to_cache 468973
Core_0_L2C_wq_full 0

Core_0_L2C_pq_access 55034168
Core_0_L2C_pq_forward 0
Core_0_L2C_pq_merged 3802432
Core_0_L2C_pq_to_cache 51231587
Core_0_L2C_pq_full 0

Core_0_L2C_acc_epochs 487424
Core_0_L2C_acc_level_0 451
Core_0_L2C_acc_level_1 1855
Core_0_L2C_acc_level_2 3745
Core_0_L2C_acc_level_3 4654
Core_0_L2C_acc_level_4 9983
Core_0_L2C_acc_level_5 10918
Core_0_L2C_acc_level_6 12824
Core_0_L2C_acc_level_7 20749
Core_0_L2C_acc_level_8 50589
Core_0_L2C_acc_level_9 371656

Core_0_LLC_total_access 41137731
Core_0_LLC_total_hit 31651473
Core_0_LLC_total_miss 9486258
Core_0_LLC_loads 4435372
Core_0_LLC_load_hit 4093174
Core_0_LLC_load_miss 342198
Core_0_LLC_RFOs 220227
Core_0_LLC_RFO_hit 1
Core_0_LLC_RFO_miss 220226
Core_0_LLC_prefetches 36090833
Core_0_LLC_prefetch_hit 27388037
Core_0_LLC_prefetch_miss 8702796
Core_0_LLC_writebacks 391299
Core_0_LLC_writeback_hit 170261
Core_0_LLC_writeback_miss 221038
Core_0_LLC_prefetch_requested 0
Core_0_LLC_prefetch_dropped 0
Core_0_LLC_prefetch_issued 0
Core_0_LLC_prefetch_filled 10442061
Core_0_LLC_prefetch_useful 4803677
Core_0_LLC_prefetch_useless 5622347
Core_0_LLC_prefetch_late 48400
Core_0_LLC_average_miss_latency 220.55545

Core_0_LLC_rq_access 4655599
Core_0_LLC_rq_forward 0
Core_0_LLC_rq_merged 0
Core_0_LLC_rq_to_cache 4655599
Core_0_LLC_rq_full 0

Core_0_LLC_wq_access 391299
Core_0_LLC_wq_forward 4
Core_0_LLC_wq_merged 0
Core_0_LLC_wq_to_cache 391299
Core_0_LLC_wq_full 0

Core_0_LLC_pq_access 47956486
Core_0_LLC_pq_forward 0
Core_0_LLC_pq_merged 317094
Core_0_LLC_pq_to_cache 47639388
Core_0_LLC_pq_full 0

Core_0_LLC_acc_epochs 501129
Core_0_LLC_acc_level_0 1019
Core_0_LLC_acc_level_1 5919
Core_0_LLC_acc_level_2 40921
Core_0_LLC_acc_level_3 91937
Core_0_LLC_acc_level_4 130245
Core_0_LLC_acc_level_5 88374
Core_0_LLC_acc_level_6 40485
Core_0_LLC_acc_level_7 20220
Core_0_LLC_acc_level_8 12666
Core_0_LLC_acc_level_9 69343

Core_0_major_page_fault 0
Core_0_minor_page_fault 104619

spp.pref.total 69951104
spp.pref.at_L2 7521242
spp.pref.at_LLC 62429862

spp.depth.max 11
spp.depth.min 0
spp.depth.avg 6

spp.breadth.max 2
spp.breadth.min 0
spp.breadth.avg 0

delta_1 69763268
delta_-41 450996
delta_42 382209
delta_40 281802
delta_-39 241782
delta_3 88211
delta_2 56563
delta_-1 52070
delta_-40 31443
delta_4 30027
delta_41 10042
delta_-2 7888
delta_-3 6202
delta_8 2125
delta_39 1212
delta_-5 1039
delta_-12 747
delta_-4 723
delta_6 588
delta_-13 351
delta_7 337
delta_-6 330
delta_-38 154
delta_-7 73
delta_11 8
delta_-11 7

depth_1_delta_1 11277371
depth_1_delta_-41 88076
depth_1_delta_42 84755
depth_1_delta_-39 77489
depth_1_delta_40 72550
depth_1_delta_3 68359
depth_1_delta_2 45613
depth_1_delta_-1 29262
depth_1_delta_4 26850
depth_1_delta_-40 23743
depth_1_delta_-2 6729
depth_1_delta_41 4740
depth_1_delta_-3 4530
depth_1_delta_8 1563
depth_1_delta_39 919
depth_1_delta_-5 858
depth_1_delta_-12 566
depth_1_delta_-4 498
depth_1_delta_6 442
depth_1_delta_7 337
depth_1_delta_-6 295
depth_1_delta_-13 263
depth_1_delta_-38 154
depth_1_delta_-7 59
depth_1_delta_-11 7
depth_1_delta_11 5
depth_2_delta_1 10930715
depth_2_delta_-41 93229
depth_2_delta_40 88365
depth_2_delta_42 80028
depth_2_delta_-39 71751
depth_2_delta_-1 10134
depth_2_delta_2 10018
depth_2_delta_3 5577
depth_2_delta_-40 3668
depth_2_delta_41 2919
depth_2_delta_4 1996
depth_2_delta_-3 1666
depth_2_delta_-2 565
depth_2_delta_8 471
depth_2_delta_39 292
depth_2_delta_-4 195
depth_2_delta_-5 173
depth_2_delta_6 144
depth_2_delta_-12 115
depth_2_delta_-13 62
depth_2_delta_-6 35
depth_2_delta_-7 14
depth_2_delta_11 3
depth_3_delta_1 10346849
depth_3_delta_-41 83927
depth_3_delta_42 80458
depth_3_delta_40 67120
depth_3_delta_-39 36593
depth_3_delta_3 14212
depth_3_delta_-1 3654
depth_3_delta_-40 2319
depth_3_delta_41 1194
depth_3_delta_4 1170
depth_3_delta_2 387
depth_3_delta_-2 132
depth_3_delta_8 89
depth_3_delta_-12 59
depth_3_delta_-4 30
depth_3_delta_-13 26
depth_3_delta_-5 6
depth_3_delta_-3 6
depth_3_delta_6 2
depth_3_delta_39 1
depth_4_delta_1 9799976
depth_4_delta_-41 84452
depth_4_delta_42 68870
depth_4_delta_40 23951
depth_4_delta_-39 22941
depth_4_delta_-1 8187
depth_4_delta_-40 971
depth_4_delta_41 813
depth_4_delta_2 175
depth_4_delta_-2 104
depth_4_delta_3 48
depth_4_delta_4 11
depth_4_delta_-12 7
depth_4_delta_-5 2
depth_4_delta_8 2
depth_5_delta_1 9360724
depth_5_delta_-41 60407
depth_5_delta_42 39544
depth_5_delta_-39 14460
depth_5_delta_40 13976
depth_5_delta_-1 593
depth_5_delta_-40 525
depth_5_delta_41 224
depth_5_delta_2 111
depth_5_delta_-2 99
depth_5_delta_3 15
depth_6_delta_1 7923244
depth_6_delta_-41 27170
depth_6_delta_42 20190
depth_6_delta_-39 11102
depth_6_delta_40 9658
depth_6_delta_-1 226
depth_6_delta_-40 148
depth_6_delta_41 121
depth_6_delta_2 95
depth_6_delta_-2 95
depth_7_delta_1 5377930
depth_7_delta_-41 10386
depth_7_delta_42 6063
depth_7_delta_-39 5511
depth_7_delta_40 4561
depth_7_delta_-2 82
depth_7_delta_2 78
depth_7_delta_-40 53
depth_7_delta_41 24
depth_7_delta_-1 14
depth_8_delta_1 3117884
depth_8_delta_-41 2788
depth_8_delta_42 1989
depth_8_delta_-39 1638
depth_8_delta_40 1354
depth_8_delta_-2 58
depth_8_delta_2 52
depth_8_delta_-40 12
depth_8_delta_41 6
depth_9_delta_1 1511755
depth_9_delta_-41 545
depth_9_delta_42 300
depth_9_delta_-39 279
depth_9_delta_40 255
depth_9_delta_2 34
depth_9_delta_-2 15
depth_9_delta_-40 4
depth_9_delta_41 1
depth_10_delta_1 116321
depth_10_delta_-39 18
depth_10_delta_-41 16
depth_10_delta_42 12
depth_10_delta_40 12
depth_10_delta_-2 9
depth_11_delta_1 499

Channel_0_RQ_row_buffer_hit 6231047
Channel_0_RQ_row_buffer_miss 3034173
Channel_0_WQ_row_buffer_hit 54621
Channel_0_WQ_row_buffer_miss 335505
Channel_0_WQ_full 0
Channel_0_dbus_congested 5340529

avg_congested_cycle 9

DRAM_bw_pochs 2004514
DRAM_bw_level_0 716822
DRAM_bw_level_1 495097
DRAM_bw_level_2 370708
DRAM_bw_level_3 421887
