*************************************************
   ChampSim Multicore Out-of-Order Simulator
   Last compiled: Dec 11 2024 17:59:53
*************************************************
parsing config file: /home/functionmain/桌面/Pythia/config/nopref.ini

trace_0 /home/functionmain/桌面/Pythia/traces/410.bwaves-1963B.champsimtrace.xz
adding L2C_PREFETCHER: NONE
Initialize SHIP state
warmup_instructions 100000000
simulation_instructions 500000000
champsim_seed 277
measure_ipc 0
measure_ipc_epoch 1000
measure_dram_bw 1
measure_dram_bw_epoch 256
measure_cache_acc 1
measure_cache_acc_epoch 1024
l1d_perfect 0
l2c_perfect 0
llc_perfect 0
l1d_semi_perfect 0
l2c_semi_perfect 0
llc_semi_perfect 0
semi_perfect_cache_page_buffer_size 64

num_cpus 1
cpu_freq 4000
dram_io_freq 600
page_size 4096
block_size 64
max_read_per_cycle 8
max_fill_per_cycle 1
dram_channels 1
log2_dram_channels 0
dram_ranks 1
dram_banks 8
dram_rows 65536
dram_columns 128
dram_row_size 8
dram_size 4096
dram_pages 1048576

fetch_width 6
decode_width 6
exec_width 4
lq_width 2
sq_width 2
retire_width 4
scheduler_size 128
branch_mispredict_penalty 20
rob_size 256
lq_size 72
sq_size 56
num_instr_destinations_sparc 4
num_instr_destinations 2
num_instr_sources 4

itlb_set 16
itlb_way 8
itlb_rq_size 16
itlb_wq_size 16
itlb_pq_size 0
itlb_mshr_size 8
itlb_latency 1

dtlb_set 16
dtlb_way 4
dtlb_rq_size 16
dtlb_wq_size 16
dtlb_pq_size 0
dtlb_mshr_size 8
dtlb_latency 1

stlb_set 128
stlb_way 12
stlb_rq_size 32
stlb_wq_size 32
stlb_pq_size 0
stlb_mshr_size 16
stlb_latency 8

l1i_size 32
l1i_set 64
l1i_way 8
l1i_rq_size 64
l1i_wq_size 64
l1i_pq_size 8
l1i_mshr_size 8
l1i_latency 1

l1d_size 32
l1d_set 64
l1d_way 8
l1d_rq_size 64
l1d_wq_size 64
l1d_pq_size 8
l1d_mshr_size 16
l1d_latency 4

l2c_size 256
l2c_set 512
l2c_way 8
l2c_rq_size 32
l2c_wq_size 32
l2c_pq_size 32
l2c_mshr_size 32
l2c_latency 10

llc_size 2048
llc_set 2048
llc_way 16
llc_rq_size 32
llc_wq_size 32
llc_pq_size 32
llc_mshr_size 64
llc_latency 20

dram_channel_width 8
dram_wq_size 64
dram_rq_size 64
tRP 15
tRCD 15
tCAS 12.5
dram_dbus_turn_around_time 30
dram_write_high_wm 56
dram_write_low_wm 48
min_dram_writes_per_switch 16
dram_mtps 600
dram_dbus_return_time 53


Heartbeat CPU  0 instructions:    1000002 cycles:     658716 heartbeat IPC: 1.51811 cumulative IPC: 1.51811 (Simulation time: 0 hr 0 min 2 sec) 
Heartbeat CPU  0 instructions:    2000002 cycles:    1317047 heartbeat IPC: 1.51899 cumulative IPC: 1.51855 (Simulation time: 0 hr 0 min 4 sec) 
Heartbeat CPU  0 instructions:    3000003 cycles:    1975312 heartbeat IPC: 1.51915 cumulative IPC: 1.51875 (Simulation time: 0 hr 0 min 7 sec) 
Heartbeat CPU  0 instructions:    4000000 cycles:    2633519 heartbeat IPC: 1.51927 cumulative IPC: 1.51888 (Simulation time: 0 hr 0 min 10 sec) 
Heartbeat CPU  0 instructions:    5000002 cycles:    3291825 heartbeat IPC: 1.51905 cumulative IPC: 1.51891 (Simulation time: 0 hr 0 min 12 sec) 
Heartbeat CPU  0 instructions:    6000002 cycles:    3950075 heartbeat IPC: 1.51918 cumulative IPC: 1.51896 (Simulation time: 0 hr 0 min 15 sec) 
Heartbeat CPU  0 instructions:    7000000 cycles:    4608256 heartbeat IPC: 1.51934 cumulative IPC: 1.51901 (Simulation time: 0 hr 0 min 17 sec) 
Heartbeat CPU  0 instructions:    8000000 cycles:    5266568 heartbeat IPC: 1.51904 cumulative IPC: 1.51902 (Simulation time: 0 hr 0 min 19 sec) 
Heartbeat CPU  0 instructions:    9000001 cycles:    5924944 heartbeat IPC: 1.51889 cumulative IPC: 1.51900 (Simulation time: 0 hr 0 min 22 sec) 
Heartbeat CPU  0 instructions:   10000002 cycles:    6583343 heartbeat IPC: 1.51884 cumulative IPC: 1.51899 (Simulation time: 0 hr 0 min 24 sec) 
Heartbeat CPU  0 instructions:   11000002 cycles:    7241760 heartbeat IPC: 1.51879 cumulative IPC: 1.51897 (Simulation time: 0 hr 0 min 27 sec) 
Heartbeat CPU  0 instructions:   12000000 cycles:    7900017 heartbeat IPC: 1.51916 cumulative IPC: 1.51898 (Simulation time: 0 hr 0 min 29 sec) 
Heartbeat CPU  0 instructions:   13000001 cycles:    8558401 heartbeat IPC: 1.51887 cumulative IPC: 1.51898 (Simulation time: 0 hr 0 min 31 sec) 
Heartbeat CPU  0 instructions:   14000001 cycles:    9216514 heartbeat IPC: 1.51950 cumulative IPC: 1.51901 (Simulation time: 0 hr 0 min 34 sec) 
Heartbeat CPU  0 instructions:   15000000 cycles:    9874584 heartbeat IPC: 1.51959 cumulative IPC: 1.51905 (Simulation time: 0 hr 0 min 36 sec) 
Heartbeat CPU  0 instructions:   16000000 cycles:   10532688 heartbeat IPC: 1.51952 cumulative IPC: 1.51908 (Simulation time: 0 hr 0 min 39 sec) 
Heartbeat CPU  0 instructions:   17000002 cycles:   11190906 heartbeat IPC: 1.51926 cumulative IPC: 1.51909 (Simulation time: 0 hr 0 min 41 sec) 
Heartbeat CPU  0 instructions:   18000000 cycles:   11849055 heartbeat IPC: 1.51941 cumulative IPC: 1.51911 (Simulation time: 0 hr 0 min 43 sec) 
Heartbeat CPU  0 instructions:   19000001 cycles:   12507247 heartbeat IPC: 1.51932 cumulative IPC: 1.51912 (Simulation time: 0 hr 0 min 46 sec) 
Heartbeat CPU  0 instructions:   20000000 cycles:   13165555 heartbeat IPC: 1.51904 cumulative IPC: 1.51912 (Simulation time: 0 hr 0 min 48 sec) 
Heartbeat CPU  0 instructions:   21000003 cycles:   13823915 heartbeat IPC: 1.51893 cumulative IPC: 1.51911 (Simulation time: 0 hr 0 min 51 sec) 
Heartbeat CPU  0 instructions:   22000001 cycles:   14482177 heartbeat IPC: 1.51915 cumulative IPC: 1.51911 (Simulation time: 0 hr 0 min 53 sec) 
Heartbeat CPU  0 instructions:   23000001 cycles:   15140475 heartbeat IPC: 1.51907 cumulative IPC: 1.51911 (Simulation time: 0 hr 0 min 55 sec) 
Heartbeat CPU  0 instructions:   24000000 cycles:   15798731 heartbeat IPC: 1.51916 cumulative IPC: 1.51911 (Simulation time: 0 hr 0 min 58 sec) 
Heartbeat CPU  0 instructions:   25000001 cycles:   16457025 heartbeat IPC: 1.51908 cumulative IPC: 1.51911 (Simulation time: 0 hr 1 min 0 sec) 
Heartbeat CPU  0 instructions:   26000003 cycles:   17114977 heartbeat IPC: 1.51987 cumulative IPC: 1.51914 (Simulation time: 0 hr 1 min 3 sec) 
Heartbeat CPU  0 instructions:   27000000 cycles:   17773127 heartbeat IPC: 1.51941 cumulative IPC: 1.51915 (Simulation time: 0 hr 1 min 5 sec) 
Heartbeat CPU  0 instructions:   28000000 cycles:   18431150 heartbeat IPC: 1.51970 cumulative IPC: 1.51917 (Simulation time: 0 hr 1 min 7 sec) 
Heartbeat CPU  0 instructions:   29000000 cycles:   19089382 heartbeat IPC: 1.51922 cumulative IPC: 1.51917 (Simulation time: 0 hr 1 min 10 sec) 
Heartbeat CPU  0 instructions:   30000001 cycles:   19747560 heartbeat IPC: 1.51935 cumulative IPC: 1.51918 (Simulation time: 0 hr 1 min 12 sec) 
Heartbeat CPU  0 instructions:   31000002 cycles:   20405934 heartbeat IPC: 1.51890 cumulative IPC: 1.51917 (Simulation time: 0 hr 1 min 15 sec) 
Heartbeat CPU  0 instructions:   32000000 cycles:   21064348 heartbeat IPC: 1.51880 cumulative IPC: 1.51915 (Simulation time: 0 hr 1 min 17 sec) 
Heartbeat CPU  0 instructions:   33000003 cycles:   21722797 heartbeat IPC: 1.51873 cumulative IPC: 1.51914 (Simulation time: 0 hr 1 min 19 sec) 
Heartbeat CPU  0 instructions:   34000002 cycles:   22381180 heartbeat IPC: 1.51887 cumulative IPC: 1.51913 (Simulation time: 0 hr 1 min 22 sec) 
Heartbeat CPU  0 instructions:   35000002 cycles:   23039552 heartbeat IPC: 1.51890 cumulative IPC: 1.51913 (Simulation time: 0 hr 1 min 24 sec) 
Heartbeat CPU  0 instructions:   36000000 cycles:   23697898 heartbeat IPC: 1.51896 cumulative IPC: 1.51912 (Simulation time: 0 hr 1 min 26 sec) 
Heartbeat CPU  0 instructions:   37000002 cycles:   24356167 heartbeat IPC: 1.51914 cumulative IPC: 1.51912 (Simulation time: 0 hr 1 min 28 sec) 
Heartbeat CPU  0 instructions:   38000000 cycles:   25014375 heartbeat IPC: 1.51927 cumulative IPC: 1.51913 (Simulation time: 0 hr 1 min 31 sec) 
Heartbeat CPU  0 instructions:   39000000 cycles:   25672639 heartbeat IPC: 1.51915 cumulative IPC: 1.51913 (Simulation time: 0 hr 1 min 33 sec) 
Heartbeat CPU  0 instructions:   40000000 cycles:   26330793 heartbeat IPC: 1.51940 cumulative IPC: 1.51913 (Simulation time: 0 hr 1 min 35 sec) 
Heartbeat CPU  0 instructions:   41000000 cycles:   26989094 heartbeat IPC: 1.51906 cumulative IPC: 1.51913 (Simulation time: 0 hr 1 min 38 sec) 
Heartbeat CPU  0 instructions:   42000003 cycles:   27647454 heartbeat IPC: 1.51893 cumulative IPC: 1.51913 (Simulation time: 0 hr 1 min 40 sec) 
Heartbeat CPU  0 instructions:   43000001 cycles:   28305770 heartbeat IPC: 1.51902 cumulative IPC: 1.51912 (Simulation time: 0 hr 1 min 42 sec) 
Heartbeat CPU  0 instructions:   44000000 cycles:   28964007 heartbeat IPC: 1.51921 cumulative IPC: 1.51913 (Simulation time: 0 hr 1 min 44 sec) 
Heartbeat CPU  0 instructions:   45000000 cycles:   29622286 heartbeat IPC: 1.51911 cumulative IPC: 1.51913 (Simulation time: 0 hr 1 min 46 sec) 
Heartbeat CPU  0 instructions:   46000001 cycles:   30280566 heartbeat IPC: 1.51911 cumulative IPC: 1.51913 (Simulation time: 0 hr 1 min 48 sec) 
Heartbeat CPU  0 instructions:   47000003 cycles:   30938737 heartbeat IPC: 1.51937 cumulative IPC: 1.51913 (Simulation time: 0 hr 1 min 50 sec) 
Heartbeat CPU  0 instructions:   48000000 cycles:   31596737 heartbeat IPC: 1.51975 cumulative IPC: 1.51914 (Simulation time: 0 hr 1 min 52 sec) 
Heartbeat CPU  0 instructions:   49000000 cycles:   32254795 heartbeat IPC: 1.51962 cumulative IPC: 1.51915 (Simulation time: 0 hr 1 min 54 sec) 
Heartbeat CPU  0 instructions:   50000003 cycles:   32912987 heartbeat IPC: 1.51932 cumulative IPC: 1.51916 (Simulation time: 0 hr 1 min 56 sec) 
Heartbeat CPU  0 instructions:   51000000 cycles:   33571100 heartbeat IPC: 1.51949 cumulative IPC: 1.51916 (Simulation time: 0 hr 1 min 58 sec) 
Heartbeat CPU  0 instructions:   52000000 cycles:   34229163 heartbeat IPC: 1.51961 cumulative IPC: 1.51917 (Simulation time: 0 hr 2 min 1 sec) 
Heartbeat CPU  0 instructions:   53000003 cycles:   34887484 heartbeat IPC: 1.51902 cumulative IPC: 1.51917 (Simulation time: 0 hr 2 min 3 sec) 
Heartbeat CPU  0 instructions:   54000001 cycles:   35545820 heartbeat IPC: 1.51898 cumulative IPC: 1.51917 (Simulation time: 0 hr 2 min 5 sec) 
Heartbeat CPU  0 instructions:   55000003 cycles:   36204080 heartbeat IPC: 1.51916 cumulative IPC: 1.51917 (Simulation time: 0 hr 2 min 7 sec) 
Heartbeat CPU  0 instructions:   56000000 cycles:   36862386 heartbeat IPC: 1.51905 cumulative IPC: 1.51916 (Simulation time: 0 hr 2 min 9 sec) 
Heartbeat CPU  0 instructions:   57000001 cycles:   37520513 heartbeat IPC: 1.51947 cumulative IPC: 1.51917 (Simulation time: 0 hr 2 min 11 sec) 
Heartbeat CPU  0 instructions:   58000000 cycles:   38178854 heartbeat IPC: 1.51897 cumulative IPC: 1.51917 (Simulation time: 0 hr 2 min 13 sec) 
Heartbeat CPU  0 instructions:   59000002 cycles:   38837112 heartbeat IPC: 1.51916 cumulative IPC: 1.51917 (Simulation time: 0 hr 2 min 15 sec) 
Heartbeat CPU  0 instructions:   60000000 cycles:   39495177 heartbeat IPC: 1.51960 cumulative IPC: 1.51917 (Simulation time: 0 hr 2 min 17 sec) 
Heartbeat CPU  0 instructions:   61000002 cycles:   40153483 heartbeat IPC: 1.51905 cumulative IPC: 1.51917 (Simulation time: 0 hr 2 min 19 sec) 
Heartbeat CPU  0 instructions:   62000001 cycles:   40811684 heartbeat IPC: 1.51929 cumulative IPC: 1.51917 (Simulation time: 0 hr 2 min 21 sec) 
Heartbeat CPU  0 instructions:   63000002 cycles:   41469916 heartbeat IPC: 1.51922 cumulative IPC: 1.51917 (Simulation time: 0 hr 2 min 23 sec) 
Heartbeat CPU  0 instructions:   64000000 cycles:   42128205 heartbeat IPC: 1.51909 cumulative IPC: 1.51917 (Simulation time: 0 hr 2 min 25 sec) 
Heartbeat CPU  0 instructions:   65000002 cycles:   42786656 heartbeat IPC: 1.51872 cumulative IPC: 1.51917 (Simulation time: 0 hr 2 min 27 sec) 
Heartbeat CPU  0 instructions:   66000002 cycles:   43445019 heartbeat IPC: 1.51892 cumulative IPC: 1.51916 (Simulation time: 0 hr 2 min 29 sec) 
Heartbeat CPU  0 instructions:   67000002 cycles:   44103345 heartbeat IPC: 1.51900 cumulative IPC: 1.51916 (Simulation time: 0 hr 2 min 31 sec) 
Heartbeat CPU  0 instructions:   68000000 cycles:   44761665 heartbeat IPC: 1.51902 cumulative IPC: 1.51916 (Simulation time: 0 hr 2 min 33 sec) 
Heartbeat CPU  0 instructions:   69000000 cycles:   45420072 heartbeat IPC: 1.51882 cumulative IPC: 1.51915 (Simulation time: 0 hr 2 min 35 sec) 
Heartbeat CPU  0 instructions:   70000003 cycles:   46078163 heartbeat IPC: 1.51955 cumulative IPC: 1.51916 (Simulation time: 0 hr 2 min 38 sec) 
Heartbeat CPU  0 instructions:   71000003 cycles:   46736187 heartbeat IPC: 1.51970 cumulative IPC: 1.51917 (Simulation time: 0 hr 2 min 40 sec) 
Heartbeat CPU  0 instructions:   72000000 cycles:   47394362 heartbeat IPC: 1.51935 cumulative IPC: 1.51917 (Simulation time: 0 hr 2 min 42 sec) 
Heartbeat CPU  0 instructions:   73000001 cycles:   48052458 heartbeat IPC: 1.51954 cumulative IPC: 1.51917 (Simulation time: 0 hr 2 min 44 sec) 
Heartbeat CPU  0 instructions:   74000002 cycles:   48710539 heartbeat IPC: 1.51957 cumulative IPC: 1.51918 (Simulation time: 0 hr 2 min 46 sec) 
Heartbeat CPU  0 instructions:   75000001 cycles:   49368751 heartbeat IPC: 1.51927 cumulative IPC: 1.51918 (Simulation time: 0 hr 2 min 48 sec) 
Heartbeat CPU  0 instructions:   76000000 cycles:   50026916 heartbeat IPC: 1.51937 cumulative IPC: 1.51918 (Simulation time: 0 hr 2 min 50 sec) 
Heartbeat CPU  0 instructions:   77000002 cycles:   50685200 heartbeat IPC: 1.51910 cumulative IPC: 1.51918 (Simulation time: 0 hr 2 min 52 sec) 
Heartbeat CPU  0 instructions:   78000000 cycles:   51343547 heartbeat IPC: 1.51895 cumulative IPC: 1.51918 (Simulation time: 0 hr 2 min 54 sec) 
Heartbeat CPU  0 instructions:   79000003 cycles:   52001765 heartbeat IPC: 1.51926 cumulative IPC: 1.51918 (Simulation time: 0 hr 2 min 56 sec) 
Heartbeat CPU  0 instructions:   80000000 cycles:   52659982 heartbeat IPC: 1.51925 cumulative IPC: 1.51918 (Simulation time: 0 hr 2 min 58 sec) 
Heartbeat CPU  0 instructions:   81000001 cycles:   53318192 heartbeat IPC: 1.51927 cumulative IPC: 1.51918 (Simulation time: 0 hr 3 min 0 sec) 
Heartbeat CPU  0 instructions:   82000001 cycles:   53976304 heartbeat IPC: 1.51950 cumulative IPC: 1.51919 (Simulation time: 0 hr 3 min 2 sec) 
Heartbeat CPU  0 instructions:   83000001 cycles:   54634411 heartbeat IPC: 1.51951 cumulative IPC: 1.51919 (Simulation time: 0 hr 3 min 4 sec) 
Heartbeat CPU  0 instructions:   84000000 cycles:   55292414 heartbeat IPC: 1.51975 cumulative IPC: 1.51920 (Simulation time: 0 hr 3 min 6 sec) 
Heartbeat CPU  0 instructions:   85000000 cycles:   55950644 heartbeat IPC: 1.51923 cumulative IPC: 1.51920 (Simulation time: 0 hr 3 min 8 sec) 
Heartbeat CPU  0 instructions:   86000002 cycles:   56608724 heartbeat IPC: 1.51958 cumulative IPC: 1.51920 (Simulation time: 0 hr 3 min 10 sec) 
Heartbeat CPU  0 instructions:   87000001 cycles:   57267044 heartbeat IPC: 1.51902 cumulative IPC: 1.51920 (Simulation time: 0 hr 3 min 12 sec) 
Heartbeat CPU  0 instructions:   88000000 cycles:   57925485 heartbeat IPC: 1.51874 cumulative IPC: 1.51919 (Simulation time: 0 hr 3 min 14 sec) 
Heartbeat CPU  0 instructions:   89000001 cycles:   58583790 heartbeat IPC: 1.51905 cumulative IPC: 1.51919 (Simulation time: 0 hr 3 min 16 sec) 
Heartbeat CPU  0 instructions:   90000003 cycles:   59242139 heartbeat IPC: 1.51895 cumulative IPC: 1.51919 (Simulation time: 0 hr 3 min 18 sec) 
Heartbeat CPU  0 instructions:   91000003 cycles:   59900374 heartbeat IPC: 1.51921 cumulative IPC: 1.51919 (Simulation time: 0 hr 3 min 20 sec) 
Heartbeat CPU  0 instructions:   92000000 cycles:   60558711 heartbeat IPC: 1.51897 cumulative IPC: 1.51919 (Simulation time: 0 hr 3 min 22 sec) 
Heartbeat CPU  0 instructions:   93000001 cycles:   61216928 heartbeat IPC: 1.51926 cumulative IPC: 1.51919 (Simulation time: 0 hr 3 min 24 sec) 
Heartbeat CPU  0 instructions:   94000001 cycles:   61875163 heartbeat IPC: 1.51921 cumulative IPC: 1.51919 (Simulation time: 0 hr 3 min 26 sec) 
Heartbeat CPU  0 instructions:   95000000 cycles:   62533360 heartbeat IPC: 1.51930 cumulative IPC: 1.51919 (Simulation time: 0 hr 3 min 28 sec) 
Heartbeat CPU  0 instructions:   96000000 cycles:   63191518 heartbeat IPC: 1.51939 cumulative IPC: 1.51919 (Simulation time: 0 hr 3 min 30 sec) 
Heartbeat CPU  0 instructions:   97000000 cycles:   63849798 heartbeat IPC: 1.51911 cumulative IPC: 1.51919 (Simulation time: 0 hr 3 min 32 sec) 
Heartbeat CPU  0 instructions:   98000000 cycles:   64508083 heartbeat IPC: 1.51910 cumulative IPC: 1.51919 (Simulation time: 0 hr 3 min 34 sec) 
Heartbeat CPU  0 instructions:   99000003 cycles:   65166295 heartbeat IPC: 1.51927 cumulative IPC: 1.51919 (Simulation time: 0 hr 3 min 36 sec) 
Heartbeat CPU  0 instructions:  100000000 cycles:   65824467 heartbeat IPC: 1.51936 cumulative IPC: 1.51919 (Simulation time: 0 hr 3 min 38 sec) 

Warmup complete CPU  0 instructions:  100000002 cycles:   65824470 (Simulation time: 0 hr 3 min 38 sec) 

Heartbeat CPU  0 instructions:  101000001 cycles:   67743422 heartbeat IPC: 0.52112 cumulative IPC: 0.52112 (Simulation time: 0 hr 3 min 41 sec) 
Heartbeat CPU  0 instructions:  102000000 cycles:   69669075 heartbeat IPC: 0.51930 cumulative IPC: 0.52021 (Simulation time: 0 hr 3 min 44 sec) 
Heartbeat CPU  0 instructions:  103000001 cycles:   71582190 heartbeat IPC: 0.52271 cumulative IPC: 0.52104 (Simulation time: 0 hr 3 min 47 sec) 
Heartbeat CPU  0 instructions:  104000000 cycles:   73514141 heartbeat IPC: 0.51761 cumulative IPC: 0.52018 (Simulation time: 0 hr 3 min 49 sec) 
Heartbeat CPU  0 instructions:  105000002 cycles:   75431878 heartbeat IPC: 0.52145 cumulative IPC: 0.52043 (Simulation time: 0 hr 3 min 52 sec) 
Heartbeat CPU  0 instructions:  106000001 cycles:   77347805 heartbeat IPC: 0.52194 cumulative IPC: 0.52068 (Simulation time: 0 hr 3 min 55 sec) 
Heartbeat CPU  0 instructions:  107000001 cycles:   79286751 heartbeat IPC: 0.51574 cumulative IPC: 0.51997 (Simulation time: 0 hr 3 min 58 sec) 
Heartbeat CPU  0 instructions:  108000000 cycles:   81202054 heartbeat IPC: 0.52211 cumulative IPC: 0.52024 (Simulation time: 0 hr 4 min 1 sec) 
Heartbeat CPU  0 instructions:  109000001 cycles:   83139192 heartbeat IPC: 0.51623 cumulative IPC: 0.51979 (Simulation time: 0 hr 4 min 3 sec) 
Heartbeat CPU  0 instructions:  110000001 cycles:   85060329 heartbeat IPC: 0.52053 cumulative IPC: 0.51986 (Simulation time: 0 hr 4 min 6 sec) 
Heartbeat CPU  0 instructions:  111000000 cycles:   86987639 heartbeat IPC: 0.51886 cumulative IPC: 0.51977 (Simulation time: 0 hr 4 min 9 sec) 
Heartbeat CPU  0 instructions:  112000000 cycles:   88906247 heartbeat IPC: 0.52121 cumulative IPC: 0.51989 (Simulation time: 0 hr 4 min 12 sec) 
Heartbeat CPU  0 instructions:  113000000 cycles:   90833722 heartbeat IPC: 0.51881 cumulative IPC: 0.51981 (Simulation time: 0 hr 4 min 15 sec) 
Heartbeat CPU  0 instructions:  114000002 cycles:   92764241 heartbeat IPC: 0.51800 cumulative IPC: 0.51968 (Simulation time: 0 hr 4 min 17 sec) 
Heartbeat CPU  0 instructions:  115000000 cycles:   94677858 heartbeat IPC: 0.52257 cumulative IPC: 0.51987 (Simulation time: 0 hr 4 min 20 sec) 
Heartbeat CPU  0 instructions:  116000000 cycles:   96607104 heartbeat IPC: 0.51834 cumulative IPC: 0.51977 (Simulation time: 0 hr 4 min 23 sec) 
Heartbeat CPU  0 instructions:  117000003 cycles:   98536975 heartbeat IPC: 0.51817 cumulative IPC: 0.51968 (Simulation time: 0 hr 4 min 26 sec) 
Heartbeat CPU  0 instructions:  118000000 cycles:  100453994 heartbeat IPC: 0.52164 cumulative IPC: 0.51979 (Simulation time: 0 hr 4 min 29 sec) 
Heartbeat CPU  0 instructions:  119000001 cycles:  102372564 heartbeat IPC: 0.52122 cumulative IPC: 0.51986 (Simulation time: 0 hr 4 min 31 sec) 
Heartbeat CPU  0 instructions:  120000000 cycles:  104307781 heartbeat IPC: 0.51674 cumulative IPC: 0.51971 (Simulation time: 0 hr 4 min 34 sec) 
Heartbeat CPU  0 instructions:  121000003 cycles:  106223738 heartbeat IPC: 0.52193 cumulative IPC: 0.51981 (Simulation time: 0 hr 4 min 37 sec) 
Heartbeat CPU  0 instructions:  122000000 cycles:  108144814 heartbeat IPC: 0.52054 cumulative IPC: 0.51984 (Simulation time: 0 hr 4 min 40 sec) 
Heartbeat CPU  0 instructions:  123000002 cycles:  110061185 heartbeat IPC: 0.52182 cumulative IPC: 0.51993 (Simulation time: 0 hr 4 min 43 sec) 
Heartbeat CPU  0 instructions:  124000000 cycles:  111986433 heartbeat IPC: 0.51941 cumulative IPC: 0.51991 (Simulation time: 0 hr 4 min 45 sec) 
Heartbeat CPU  0 instructions:  125000003 cycles:  113907446 heartbeat IPC: 0.52056 cumulative IPC: 0.51993 (Simulation time: 0 hr 4 min 48 sec) 
Heartbeat CPU  0 instructions:  126000002 cycles:  115826628 heartbeat IPC: 0.52105 cumulative IPC: 0.51998 (Simulation time: 0 hr 4 min 51 sec) 
Heartbeat CPU  0 instructions:  127000000 cycles:  117770550 heartbeat IPC: 0.51442 cumulative IPC: 0.51977 (Simulation time: 0 hr 4 min 54 sec) 
Heartbeat CPU  0 instructions:  128000000 cycles:  119690218 heartbeat IPC: 0.52092 cumulative IPC: 0.51981 (Simulation time: 0 hr 4 min 57 sec) 
Heartbeat CPU  0 instructions:  129000000 cycles:  121619884 heartbeat IPC: 0.51822 cumulative IPC: 0.51976 (Simulation time: 0 hr 5 min 0 sec) 
Heartbeat CPU  0 instructions:  130000001 cycles:  123532399 heartbeat IPC: 0.52287 cumulative IPC: 0.51986 (Simulation time: 0 hr 5 min 2 sec) 
Heartbeat CPU  0 instructions:  131000000 cycles:  125433828 heartbeat IPC: 0.52592 cumulative IPC: 0.52005 (Simulation time: 0 hr 5 min 5 sec) 
Heartbeat CPU  0 instructions:  132000000 cycles:  127353416 heartbeat IPC: 0.52095 cumulative IPC: 0.52008 (Simulation time: 0 hr 5 min 8 sec) 
Heartbeat CPU  0 instructions:  133000001 cycles:  129271862 heartbeat IPC: 0.52126 cumulative IPC: 0.52012 (Simulation time: 0 hr 5 min 11 sec) 
Heartbeat CPU  0 instructions:  134000000 cycles:  131192416 heartbeat IPC: 0.52068 cumulative IPC: 0.52013 (Simulation time: 0 hr 5 min 14 sec) 
Heartbeat CPU  0 instructions:  135000002 cycles:  133118548 heartbeat IPC: 0.51918 cumulative IPC: 0.52011 (Simulation time: 0 hr 5 min 16 sec) 
Heartbeat CPU  0 instructions:  136000000 cycles:  135038441 heartbeat IPC: 0.52086 cumulative IPC: 0.52013 (Simulation time: 0 hr 5 min 19 sec) 
Heartbeat CPU  0 instructions:  137000002 cycles:  136953947 heartbeat IPC: 0.52206 cumulative IPC: 0.52018 (Simulation time: 0 hr 5 min 22 sec) 
Heartbeat CPU  0 instructions:  138000000 cycles:  138878617 heartbeat IPC: 0.51957 cumulative IPC: 0.52016 (Simulation time: 0 hr 5 min 25 sec) 
Heartbeat CPU  0 instructions:  139000002 cycles:  140798858 heartbeat IPC: 0.52077 cumulative IPC: 0.52018 (Simulation time: 0 hr 5 min 28 sec) 
Heartbeat CPU  0 instructions:  140000000 cycles:  142723927 heartbeat IPC: 0.51946 cumulative IPC: 0.52016 (Simulation time: 0 hr 5 min 31 sec) 
Heartbeat CPU  0 instructions:  141000003 cycles:  144648967 heartbeat IPC: 0.51947 cumulative IPC: 0.52014 (Simulation time: 0 hr 5 min 33 sec) 
Heartbeat CPU  0 instructions:  142000001 cycles:  146577202 heartbeat IPC: 0.51861 cumulative IPC: 0.52011 (Simulation time: 0 hr 5 min 36 sec) 
Heartbeat CPU  0 instructions:  143000001 cycles:  148499588 heartbeat IPC: 0.52019 cumulative IPC: 0.52011 (Simulation time: 0 hr 5 min 39 sec) 
Heartbeat CPU  0 instructions:  144000000 cycles:  150461424 heartbeat IPC: 0.50973 cumulative IPC: 0.51987 (Simulation time: 0 hr 5 min 42 sec) 
Heartbeat CPU  0 instructions:  145000001 cycles:  152399404 heartbeat IPC: 0.51600 cumulative IPC: 0.51978 (Simulation time: 0 hr 5 min 45 sec) 
Heartbeat CPU  0 instructions:  146000003 cycles:  154317453 heartbeat IPC: 0.52136 cumulative IPC: 0.51982 (Simulation time: 0 hr 5 min 47 sec) 
Heartbeat CPU  0 instructions:  147000002 cycles:  156245354 heartbeat IPC: 0.51870 cumulative IPC: 0.51979 (Simulation time: 0 hr 5 min 50 sec) 
Heartbeat CPU  0 instructions:  148000000 cycles:  158171432 heartbeat IPC: 0.51919 cumulative IPC: 0.51978 (Simulation time: 0 hr 5 min 53 sec) 
Heartbeat CPU  0 instructions:  149000000 cycles:  160090582 heartbeat IPC: 0.52106 cumulative IPC: 0.51981 (Simulation time: 0 hr 5 min 56 sec) 
Heartbeat CPU  0 instructions:  150000002 cycles:  162016580 heartbeat IPC: 0.51921 cumulative IPC: 0.51979 (Simulation time: 0 hr 5 min 59 sec) 
Heartbeat CPU  0 instructions:  151000001 cycles:  163947010 heartbeat IPC: 0.51802 cumulative IPC: 0.51976 (Simulation time: 0 hr 6 min 1 sec) 
Heartbeat CPU  0 instructions:  152000000 cycles:  165870486 heartbeat IPC: 0.51989 cumulative IPC: 0.51976 (Simulation time: 0 hr 6 min 4 sec) 
Heartbeat CPU  0 instructions:  153000002 cycles:  167792277 heartbeat IPC: 0.52035 cumulative IPC: 0.51977 (Simulation time: 0 hr 6 min 7 sec) 
Heartbeat CPU  0 instructions:  154000001 cycles:  169730820 heartbeat IPC: 0.51585 cumulative IPC: 0.51970 (Simulation time: 0 hr 6 min 10 sec) 
Heartbeat CPU  0 instructions:  155000002 cycles:  171657477 heartbeat IPC: 0.51903 cumulative IPC: 0.51969 (Simulation time: 0 hr 6 min 13 sec) 
Heartbeat CPU  0 instructions:  156000000 cycles:  173596501 heartbeat IPC: 0.51572 cumulative IPC: 0.51962 (Simulation time: 0 hr 6 min 15 sec) 
Heartbeat CPU  0 instructions:  157000002 cycles:  175533085 heartbeat IPC: 0.51637 cumulative IPC: 0.51956 (Simulation time: 0 hr 6 min 18 sec) 
Heartbeat CPU  0 instructions:  158000000 cycles:  177466556 heartbeat IPC: 0.51720 cumulative IPC: 0.51952 (Simulation time: 0 hr 6 min 21 sec) 
Heartbeat CPU  0 instructions:  159000000 cycles:  179385445 heartbeat IPC: 0.52113 cumulative IPC: 0.51954 (Simulation time: 0 hr 6 min 24 sec) 
Heartbeat CPU  0 instructions:  160000000 cycles:  181305722 heartbeat IPC: 0.52076 cumulative IPC: 0.51956 (Simulation time: 0 hr 6 min 27 sec) 
Heartbeat CPU  0 instructions:  161000000 cycles:  183254991 heartbeat IPC: 0.51301 cumulative IPC: 0.51946 (Simulation time: 0 hr 6 min 29 sec) 
Heartbeat CPU  0 instructions:  162000000 cycles:  185172951 heartbeat IPC: 0.52139 cumulative IPC: 0.51949 (Simulation time: 0 hr 6 min 32 sec) 
Heartbeat CPU  0 instructions:  163000001 cycles:  187089500 heartbeat IPC: 0.52177 cumulative IPC: 0.51952 (Simulation time: 0 hr 6 min 35 sec) 
Heartbeat CPU  0 instructions:  164000000 cycles:  189024417 heartbeat IPC: 0.51682 cumulative IPC: 0.51948 (Simulation time: 0 hr 6 min 38 sec) 
Heartbeat CPU  0 instructions:  165000001 cycles:  190955884 heartbeat IPC: 0.51774 cumulative IPC: 0.51945 (Simulation time: 0 hr 6 min 40 sec) 
Heartbeat CPU  0 instructions:  166000002 cycles:  192872173 heartbeat IPC: 0.52184 cumulative IPC: 0.51949 (Simulation time: 0 hr 6 min 43 sec) 
Heartbeat CPU  0 instructions:  167000001 cycles:  194803660 heartbeat IPC: 0.51774 cumulative IPC: 0.51946 (Simulation time: 0 hr 6 min 46 sec) 
Heartbeat CPU  0 instructions:  168000000 cycles:  196740143 heartbeat IPC: 0.51640 cumulative IPC: 0.51942 (Simulation time: 0 hr 6 min 49 sec) 
Heartbeat CPU  0 instructions:  169000002 cycles:  198669957 heartbeat IPC: 0.51819 cumulative IPC: 0.51940 (Simulation time: 0 hr 6 min 52 sec) 
Heartbeat CPU  0 instructions:  170000001 cycles:  200609456 heartbeat IPC: 0.51560 cumulative IPC: 0.51935 (Simulation time: 0 hr 6 min 55 sec) 
Heartbeat CPU  0 instructions:  171000000 cycles:  202531553 heartbeat IPC: 0.52026 cumulative IPC: 0.51936 (Simulation time: 0 hr 6 min 57 sec) 
Heartbeat CPU  0 instructions:  172000000 cycles:  204461128 heartbeat IPC: 0.51825 cumulative IPC: 0.51934 (Simulation time: 0 hr 7 min 0 sec) 
Heartbeat CPU  0 instructions:  173000000 cycles:  206373548 heartbeat IPC: 0.52290 cumulative IPC: 0.51939 (Simulation time: 0 hr 7 min 3 sec) 
Heartbeat CPU  0 instructions:  174000000 cycles:  208304452 heartbeat IPC: 0.51789 cumulative IPC: 0.51937 (Simulation time: 0 hr 7 min 6 sec) 
Heartbeat CPU  0 instructions:  175000003 cycles:  210227874 heartbeat IPC: 0.51991 cumulative IPC: 0.51938 (Simulation time: 0 hr 7 min 9 sec) 
Heartbeat CPU  0 instructions:  176000000 cycles:  212166879 heartbeat IPC: 0.51573 cumulative IPC: 0.51933 (Simulation time: 0 hr 7 min 11 sec) 
Heartbeat CPU  0 instructions:  177000000 cycles:  214086260 heartbeat IPC: 0.52100 cumulative IPC: 0.51935 (Simulation time: 0 hr 7 min 14 sec) 
Heartbeat CPU  0 instructions:  178000000 cycles:  216025201 heartbeat IPC: 0.51575 cumulative IPC: 0.51931 (Simulation time: 0 hr 7 min 17 sec) 
Heartbeat CPU  0 instructions:  179000001 cycles:  217958373 heartbeat IPC: 0.51729 cumulative IPC: 0.51928 (Simulation time: 0 hr 7 min 20 sec) 
Heartbeat CPU  0 instructions:  180000000 cycles:  219882025 heartbeat IPC: 0.51984 cumulative IPC: 0.51929 (Simulation time: 0 hr 7 min 23 sec) 
Heartbeat CPU  0 instructions:  181000001 cycles:  221813912 heartbeat IPC: 0.51763 cumulative IPC: 0.51927 (Simulation time: 0 hr 7 min 25 sec) 
Heartbeat CPU  0 instructions:  182000000 cycles:  223732190 heartbeat IPC: 0.52130 cumulative IPC: 0.51929 (Simulation time: 0 hr 7 min 28 sec) 
Heartbeat CPU  0 instructions:  183000002 cycles:  225645620 heartbeat IPC: 0.52262 cumulative IPC: 0.51933 (Simulation time: 0 hr 7 min 31 sec) 
Heartbeat CPU  0 instructions:  184000000 cycles:  227584567 heartbeat IPC: 0.51574 cumulative IPC: 0.51929 (Simulation time: 0 hr 7 min 34 sec) 
Heartbeat CPU  0 instructions:  185000000 cycles:  229502628 heartbeat IPC: 0.52136 cumulative IPC: 0.51931 (Simulation time: 0 hr 7 min 37 sec) 
Heartbeat CPU  0 instructions:  186000000 cycles:  231417362 heartbeat IPC: 0.52227 cumulative IPC: 0.51935 (Simulation time: 0 hr 7 min 39 sec) 
Heartbeat CPU  0 instructions:  187000003 cycles:  233337913 heartbeat IPC: 0.52069 cumulative IPC: 0.51936 (Simulation time: 0 hr 7 min 42 sec) 
Heartbeat CPU  0 instructions:  188000000 cycles:  235251172 heartbeat IPC: 0.52267 cumulative IPC: 0.51940 (Simulation time: 0 hr 7 min 45 sec) 
Heartbeat CPU  0 instructions:  189000000 cycles:  237182285 heartbeat IPC: 0.51784 cumulative IPC: 0.51938 (Simulation time: 0 hr 7 min 48 sec) 
Heartbeat CPU  0 instructions:  190000003 cycles:  239108069 heartbeat IPC: 0.51927 cumulative IPC: 0.51938 (Simulation time: 0 hr 7 min 50 sec) 
Heartbeat CPU  0 instructions:  191000001 cycles:  241041067 heartbeat IPC: 0.51733 cumulative IPC: 0.51936 (Simulation time: 0 hr 7 min 53 sec) 
Heartbeat CPU  0 instructions:  192000000 cycles:  242963079 heartbeat IPC: 0.52029 cumulative IPC: 0.51937 (Simulation time: 0 hr 7 min 56 sec) 
Heartbeat CPU  0 instructions:  193000001 cycles:  244900094 heartbeat IPC: 0.51626 cumulative IPC: 0.51933 (Simulation time: 0 hr 7 min 59 sec) 
Heartbeat CPU  0 instructions:  194000001 cycles:  246825045 heartbeat IPC: 0.51949 cumulative IPC: 0.51934 (Simulation time: 0 hr 8 min 2 sec) 
Heartbeat CPU  0 instructions:  195000002 cycles:  248760188 heartbeat IPC: 0.51676 cumulative IPC: 0.51931 (Simulation time: 0 hr 8 min 4 sec) 
Heartbeat CPU  0 instructions:  196000000 cycles:  250692100 heartbeat IPC: 0.51762 cumulative IPC: 0.51929 (Simulation time: 0 hr 8 min 7 sec) 
Heartbeat CPU  0 instructions:  197000001 cycles:  252607517 heartbeat IPC: 0.52208 cumulative IPC: 0.51932 (Simulation time: 0 hr 8 min 10 sec) 
Heartbeat CPU  0 instructions:  198000002 cycles:  254530229 heartbeat IPC: 0.52010 cumulative IPC: 0.51933 (Simulation time: 0 hr 8 min 13 sec) 
Heartbeat CPU  0 instructions:  199000003 cycles:  256464182 heartbeat IPC: 0.51708 cumulative IPC: 0.51930 (Simulation time: 0 hr 8 min 16 sec) 
Heartbeat CPU  0 instructions:  200000000 cycles:  258377348 heartbeat IPC: 0.52269 cumulative IPC: 0.51934 (Simulation time: 0 hr 8 min 18 sec) 
Heartbeat CPU  0 instructions:  201000002 cycles:  260303301 heartbeat IPC: 0.51922 cumulative IPC: 0.51934 (Simulation time: 0 hr 8 min 21 sec) 
Heartbeat CPU  0 instructions:  202000000 cycles:  262220719 heartbeat IPC: 0.52153 cumulative IPC: 0.51936 (Simulation time: 0 hr 8 min 24 sec) 
Heartbeat CPU  0 instructions:  203000000 cycles:  264162226 heartbeat IPC: 0.51506 cumulative IPC: 0.51932 (Simulation time: 0 hr 8 min 27 sec) 
Heartbeat CPU  0 instructions:  204000000 cycles:  266081036 heartbeat IPC: 0.52116 cumulative IPC: 0.51933 (Simulation time: 0 hr 8 min 30 sec) 
Heartbeat CPU  0 instructions:  205000003 cycles:  268003484 heartbeat IPC: 0.52017 cumulative IPC: 0.51934 (Simulation time: 0 hr 8 min 32 sec) 
Heartbeat CPU  0 instructions:  206000002 cycles:  269931382 heartbeat IPC: 0.51870 cumulative IPC: 0.51934 (Simulation time: 0 hr 8 min 35 sec) 
Heartbeat CPU  0 instructions:  207000000 cycles:  271853021 heartbeat IPC: 0.52039 cumulative IPC: 0.51935 (Simulation time: 0 hr 8 min 38 sec) 
Heartbeat CPU  0 instructions:  208000000 cycles:  273774773 heartbeat IPC: 0.52036 cumulative IPC: 0.51935 (Simulation time: 0 hr 8 min 41 sec) 
Heartbeat CPU  0 instructions:  209000002 cycles:  275693845 heartbeat IPC: 0.52109 cumulative IPC: 0.51937 (Simulation time: 0 hr 8 min 44 sec) 
Heartbeat CPU  0 instructions:  210000001 cycles:  277623746 heartbeat IPC: 0.51816 cumulative IPC: 0.51936 (Simulation time: 0 hr 8 min 46 sec) 
Heartbeat CPU  0 instructions:  211000000 cycles:  279544807 heartbeat IPC: 0.52055 cumulative IPC: 0.51937 (Simulation time: 0 hr 8 min 49 sec) 
Heartbeat CPU  0 instructions:  212000000 cycles:  281467597 heartbeat IPC: 0.52008 cumulative IPC: 0.51938 (Simulation time: 0 hr 8 min 52 sec) 
Heartbeat CPU  0 instructions:  213000000 cycles:  283379246 heartbeat IPC: 0.52311 cumulative IPC: 0.51941 (Simulation time: 0 hr 8 min 55 sec) 
Heartbeat CPU  0 instructions:  214000000 cycles:  285329035 heartbeat IPC: 0.51288 cumulative IPC: 0.51935 (Simulation time: 0 hr 8 min 58 sec) 
Heartbeat CPU  0 instructions:  215000002 cycles:  287240924 heartbeat IPC: 0.52304 cumulative IPC: 0.51938 (Simulation time: 0 hr 9 min 0 sec) 
Heartbeat CPU  0 instructions:  216000000 cycles:  289165535 heartbeat IPC: 0.51958 cumulative IPC: 0.51938 (Simulation time: 0 hr 9 min 3 sec) 
Heartbeat CPU  0 instructions:  217000001 cycles:  291112569 heartbeat IPC: 0.51360 cumulative IPC: 0.51934 (Simulation time: 0 hr 9 min 6 sec) 
Heartbeat CPU  0 instructions:  218000002 cycles:  293035075 heartbeat IPC: 0.52015 cumulative IPC: 0.51934 (Simulation time: 0 hr 9 min 9 sec) 
Heartbeat CPU  0 instructions:  219000001 cycles:  294949842 heartbeat IPC: 0.52226 cumulative IPC: 0.51937 (Simulation time: 0 hr 9 min 11 sec) 
Heartbeat CPU  0 instructions:  220000000 cycles:  296872263 heartbeat IPC: 0.52018 cumulative IPC: 0.51937 (Simulation time: 0 hr 9 min 14 sec) 
Heartbeat CPU  0 instructions:  221000001 cycles:  298788866 heartbeat IPC: 0.52176 cumulative IPC: 0.51939 (Simulation time: 0 hr 9 min 17 sec) 
Heartbeat CPU  0 instructions:  222000002 cycles:  300703324 heartbeat IPC: 0.52234 cumulative IPC: 0.51942 (Simulation time: 0 hr 9 min 20 sec) 
Heartbeat CPU  0 instructions:  223000000 cycles:  302625740 heartbeat IPC: 0.52018 cumulative IPC: 0.51942 (Simulation time: 0 hr 9 min 23 sec) 
Heartbeat CPU  0 instructions:  224000000 cycles:  304581803 heartbeat IPC: 0.51123 cumulative IPC: 0.51936 (Simulation time: 0 hr 9 min 25 sec) 
Heartbeat CPU  0 instructions:  225000002 cycles:  306495711 heartbeat IPC: 0.52249 cumulative IPC: 0.51938 (Simulation time: 0 hr 9 min 28 sec) 
Heartbeat CPU  0 instructions:  226000003 cycles:  308428116 heartbeat IPC: 0.51749 cumulative IPC: 0.51937 (Simulation time: 0 hr 9 min 31 sec) 
Heartbeat CPU  0 instructions:  227000002 cycles:  310344153 heartbeat IPC: 0.52191 cumulative IPC: 0.51939 (Simulation time: 0 hr 9 min 34 sec) 
Heartbeat CPU  0 instructions:  228000000 cycles:  312279962 heartbeat IPC: 0.51658 cumulative IPC: 0.51936 (Simulation time: 0 hr 9 min 37 sec) 
Heartbeat CPU  0 instructions:  229000000 cycles:  314195597 heartbeat IPC: 0.52202 cumulative IPC: 0.51938 (Simulation time: 0 hr 9 min 39 sec) 
Heartbeat CPU  0 instructions:  230000002 cycles:  316136170 heartbeat IPC: 0.51531 cumulative IPC: 0.51935 (Simulation time: 0 hr 9 min 42 sec) 
Heartbeat CPU  0 instructions:  231000001 cycles:  318051867 heartbeat IPC: 0.52200 cumulative IPC: 0.51937 (Simulation time: 0 hr 9 min 45 sec) 
Heartbeat CPU  0 instructions:  232000000 cycles:  319982912 heartbeat IPC: 0.51785 cumulative IPC: 0.51936 (Simulation time: 0 hr 9 min 48 sec) 
Heartbeat CPU  0 instructions:  233000000 cycles:  321914234 heartbeat IPC: 0.51778 cumulative IPC: 0.51935 (Simulation time: 0 hr 9 min 51 sec) 
Heartbeat CPU  0 instructions:  234000001 cycles:  323832597 heartbeat IPC: 0.52128 cumulative IPC: 0.51936 (Simulation time: 0 hr 9 min 53 sec) 
Heartbeat CPU  0 instructions:  235000001 cycles:  325764063 heartbeat IPC: 0.51774 cumulative IPC: 0.51935 (Simulation time: 0 hr 9 min 56 sec) 
Heartbeat CPU  0 instructions:  236000000 cycles:  327689653 heartbeat IPC: 0.51932 cumulative IPC: 0.51935 (Simulation time: 0 hr 9 min 59 sec) 
Heartbeat CPU  0 instructions:  237000002 cycles:  329614533 heartbeat IPC: 0.51951 cumulative IPC: 0.51935 (Simulation time: 0 hr 10 min 2 sec) 
Heartbeat CPU  0 instructions:  238000000 cycles:  331531842 heartbeat IPC: 0.52156 cumulative IPC: 0.51937 (Simulation time: 0 hr 10 min 4 sec) 
Heartbeat CPU  0 instructions:  239000001 cycles:  333456137 heartbeat IPC: 0.51967 cumulative IPC: 0.51937 (Simulation time: 0 hr 10 min 7 sec) 
Heartbeat CPU  0 instructions:  240000000 cycles:  335386016 heartbeat IPC: 0.51817 cumulative IPC: 0.51936 (Simulation time: 0 hr 10 min 10 sec) 
Heartbeat CPU  0 instructions:  241000000 cycles:  337300515 heartbeat IPC: 0.52233 cumulative IPC: 0.51938 (Simulation time: 0 hr 10 min 13 sec) 
Heartbeat CPU  0 instructions:  242000003 cycles:  339236840 heartbeat IPC: 0.51644 cumulative IPC: 0.51936 (Simulation time: 0 hr 10 min 16 sec) 
Heartbeat CPU  0 instructions:  243000000 cycles:  341156414 heartbeat IPC: 0.52095 cumulative IPC: 0.51937 (Simulation time: 0 hr 10 min 18 sec) 
Heartbeat CPU  0 instructions:  244000000 cycles:  343079176 heartbeat IPC: 0.52009 cumulative IPC: 0.51938 (Simulation time: 0 hr 10 min 21 sec) 
Heartbeat CPU  0 instructions:  245000001 cycles:  345000526 heartbeat IPC: 0.52047 cumulative IPC: 0.51939 (Simulation time: 0 hr 10 min 24 sec) 
Heartbeat CPU  0 instructions:  246000001 cycles:  346917538 heartbeat IPC: 0.52165 cumulative IPC: 0.51940 (Simulation time: 0 hr 10 min 27 sec) 
Heartbeat CPU  0 instructions:  247000001 cycles:  348837018 heartbeat IPC: 0.52097 cumulative IPC: 0.51941 (Simulation time: 0 hr 10 min 30 sec) 
Heartbeat CPU  0 instructions:  248000000 cycles:  350747979 heartbeat IPC: 0.52330 cumulative IPC: 0.51944 (Simulation time: 0 hr 10 min 32 sec) 
Heartbeat CPU  0 instructions:  249000003 cycles:  352679773 heartbeat IPC: 0.51766 cumulative IPC: 0.51943 (Simulation time: 0 hr 10 min 35 sec) 
Heartbeat CPU  0 instructions:  250000001 cycles:  354619966 heartbeat IPC: 0.51541 cumulative IPC: 0.51940 (Simulation time: 0 hr 10 min 38 sec) 
Heartbeat CPU  0 instructions:  251000000 cycles:  356543109 heartbeat IPC: 0.51998 cumulative IPC: 0.51940 (Simulation time: 0 hr 10 min 41 sec) 
Heartbeat CPU  0 instructions:  252000000 cycles:  358470766 heartbeat IPC: 0.51876 cumulative IPC: 0.51940 (Simulation time: 0 hr 10 min 43 sec) 
Heartbeat CPU  0 instructions:  253000000 cycles:  360403207 heartbeat IPC: 0.51748 cumulative IPC: 0.51939 (Simulation time: 0 hr 10 min 46 sec) 
Heartbeat CPU  0 instructions:  254000001 cycles:  362314182 heartbeat IPC: 0.52329 cumulative IPC: 0.51941 (Simulation time: 0 hr 10 min 49 sec) 
Heartbeat CPU  0 instructions:  255000000 cycles:  364261702 heartbeat IPC: 0.51347 cumulative IPC: 0.51937 (Simulation time: 0 hr 10 min 52 sec) 
Heartbeat CPU  0 instructions:  256000000 cycles:  366186789 heartbeat IPC: 0.51946 cumulative IPC: 0.51937 (Simulation time: 0 hr 10 min 55 sec) 
Heartbeat CPU  0 instructions:  257000000 cycles:  368110105 heartbeat IPC: 0.51994 cumulative IPC: 0.51938 (Simulation time: 0 hr 10 min 58 sec) 
Heartbeat CPU  0 instructions:  258000003 cycles:  370031303 heartbeat IPC: 0.52051 cumulative IPC: 0.51938 (Simulation time: 0 hr 11 min 0 sec) 
Heartbeat CPU  0 instructions:  259000002 cycles:  371954517 heartbeat IPC: 0.51996 cumulative IPC: 0.51939 (Simulation time: 0 hr 11 min 3 sec) 
Heartbeat CPU  0 instructions:  260000000 cycles:  373878037 heartbeat IPC: 0.51988 cumulative IPC: 0.51939 (Simulation time: 0 hr 11 min 6 sec) 
Heartbeat CPU  0 instructions:  261000003 cycles:  375799020 heartbeat IPC: 0.52057 cumulative IPC: 0.51940 (Simulation time: 0 hr 11 min 9 sec) 
Heartbeat CPU  0 instructions:  262000000 cycles:  377725555 heartbeat IPC: 0.51907 cumulative IPC: 0.51940 (Simulation time: 0 hr 11 min 11 sec) 
Heartbeat CPU  0 instructions:  263000000 cycles:  379656587 heartbeat IPC: 0.51786 cumulative IPC: 0.51939 (Simulation time: 0 hr 11 min 14 sec) 
Heartbeat CPU  0 instructions:  264000000 cycles:  381585043 heartbeat IPC: 0.51855 cumulative IPC: 0.51938 (Simulation time: 0 hr 11 min 17 sec) 
Heartbeat CPU  0 instructions:  265000002 cycles:  383511158 heartbeat IPC: 0.51918 cumulative IPC: 0.51938 (Simulation time: 0 hr 11 min 20 sec) 
Heartbeat CPU  0 instructions:  266000003 cycles:  385444375 heartbeat IPC: 0.51727 cumulative IPC: 0.51937 (Simulation time: 0 hr 11 min 23 sec) 
Heartbeat CPU  0 instructions:  267000003 cycles:  387362593 heartbeat IPC: 0.52132 cumulative IPC: 0.51938 (Simulation time: 0 hr 11 min 25 sec) 
Heartbeat CPU  0 instructions:  268000000 cycles:  389281456 heartbeat IPC: 0.52114 cumulative IPC: 0.51939 (Simulation time: 0 hr 11 min 28 sec) 
Heartbeat CPU  0 instructions:  269000000 cycles:  391208538 heartbeat IPC: 0.51892 cumulative IPC: 0.51939 (Simulation time: 0 hr 11 min 31 sec) 
Heartbeat CPU  0 instructions:  270000001 cycles:  393140131 heartbeat IPC: 0.51771 cumulative IPC: 0.51938 (Simulation time: 0 hr 11 min 34 sec) 
Heartbeat CPU  0 instructions:  271000001 cycles:  395069914 heartbeat IPC: 0.51819 cumulative IPC: 0.51937 (Simulation time: 0 hr 11 min 37 sec) 
Heartbeat CPU  0 instructions:  272000000 cycles:  397012559 heartbeat IPC: 0.51476 cumulative IPC: 0.51934 (Simulation time: 0 hr 11 min 39 sec) 
Heartbeat CPU  0 instructions:  273000001 cycles:  398931316 heartbeat IPC: 0.52117 cumulative IPC: 0.51935 (Simulation time: 0 hr 11 min 42 sec) 
Heartbeat CPU  0 instructions:  274000002 cycles:  400862859 heartbeat IPC: 0.51772 cumulative IPC: 0.51934 (Simulation time: 0 hr 11 min 45 sec) 
Heartbeat CPU  0 instructions:  275000000 cycles:  402790886 heartbeat IPC: 0.51866 cumulative IPC: 0.51934 (Simulation time: 0 hr 11 min 48 sec) 
Heartbeat CPU  0 instructions:  276000000 cycles:  404722010 heartbeat IPC: 0.51783 cumulative IPC: 0.51933 (Simulation time: 0 hr 11 min 51 sec) 
Heartbeat CPU  0 instructions:  277000002 cycles:  406661277 heartbeat IPC: 0.51566 cumulative IPC: 0.51931 (Simulation time: 0 hr 11 min 53 sec) 
Heartbeat CPU  0 instructions:  278000002 cycles:  408592947 heartbeat IPC: 0.51769 cumulative IPC: 0.51930 (Simulation time: 0 hr 11 min 56 sec) 
Heartbeat CPU  0 instructions:  279000001 cycles:  410525113 heartbeat IPC: 0.51755 cumulative IPC: 0.51929 (Simulation time: 0 hr 11 min 59 sec) 
Heartbeat CPU  0 instructions:  280000000 cycles:  412452294 heartbeat IPC: 0.51889 cumulative IPC: 0.51929 (Simulation time: 0 hr 12 min 2 sec) 
Heartbeat CPU  0 instructions:  281000000 cycles:  414395386 heartbeat IPC: 0.51464 cumulative IPC: 0.51926 (Simulation time: 0 hr 12 min 5 sec) 
Heartbeat CPU  0 instructions:  282000000 cycles:  416317078 heartbeat IPC: 0.52037 cumulative IPC: 0.51927 (Simulation time: 0 hr 12 min 7 sec) 
Heartbeat CPU  0 instructions:  283000003 cycles:  418242706 heartbeat IPC: 0.51931 cumulative IPC: 0.51927 (Simulation time: 0 hr 12 min 10 sec) 
Heartbeat CPU  0 instructions:  284000000 cycles:  420159117 heartbeat IPC: 0.52181 cumulative IPC: 0.51928 (Simulation time: 0 hr 12 min 13 sec) 
Heartbeat CPU  0 instructions:  285000000 cycles:  422081444 heartbeat IPC: 0.52020 cumulative IPC: 0.51929 (Simulation time: 0 hr 12 min 16 sec) 
Heartbeat CPU  0 instructions:  286000002 cycles:  424009788 heartbeat IPC: 0.51858 cumulative IPC: 0.51928 (Simulation time: 0 hr 12 min 19 sec) 
Heartbeat CPU  0 instructions:  287000000 cycles:  425945357 heartbeat IPC: 0.51664 cumulative IPC: 0.51927 (Simulation time: 0 hr 12 min 21 sec) 
Heartbeat CPU  0 instructions:  288000000 cycles:  427868094 heartbeat IPC: 0.52009 cumulative IPC: 0.51927 (Simulation time: 0 hr 12 min 24 sec) 
Heartbeat CPU  0 instructions:  289000001 cycles:  429807045 heartbeat IPC: 0.51574 cumulative IPC: 0.51926 (Simulation time: 0 hr 12 min 27 sec) 
Heartbeat CPU  0 instructions:  290000002 cycles:  431731130 heartbeat IPC: 0.51973 cumulative IPC: 0.51926 (Simulation time: 0 hr 12 min 30 sec) 
Heartbeat CPU  0 instructions:  291000002 cycles:  433660836 heartbeat IPC: 0.51821 cumulative IPC: 0.51925 (Simulation time: 0 hr 12 min 33 sec) 
Heartbeat CPU  0 instructions:  292000000 cycles:  435581711 heartbeat IPC: 0.52060 cumulative IPC: 0.51926 (Simulation time: 0 hr 12 min 35 sec) 
Heartbeat CPU  0 instructions:  293000001 cycles:  437493536 heartbeat IPC: 0.52306 cumulative IPC: 0.51928 (Simulation time: 0 hr 12 min 38 sec) 
Heartbeat CPU  0 instructions:  294000000 cycles:  439419016 heartbeat IPC: 0.51935 cumulative IPC: 0.51928 (Simulation time: 0 hr 12 min 41 sec) 
Heartbeat CPU  0 instructions:  295000003 cycles:  441361055 heartbeat IPC: 0.51492 cumulative IPC: 0.51926 (Simulation time: 0 hr 12 min 44 sec) 
Heartbeat CPU  0 instructions:  296000000 cycles:  443270756 heartbeat IPC: 0.52364 cumulative IPC: 0.51928 (Simulation time: 0 hr 12 min 47 sec) 
Heartbeat CPU  0 instructions:  297000001 cycles:  445195368 heartbeat IPC: 0.51959 cumulative IPC: 0.51928 (Simulation time: 0 hr 12 min 49 sec) 
Heartbeat CPU  0 instructions:  298000001 cycles:  447107840 heartbeat IPC: 0.52288 cumulative IPC: 0.51930 (Simulation time: 0 hr 12 min 52 sec) 
Heartbeat CPU  0 instructions:  299000000 cycles:  449034474 heartbeat IPC: 0.51904 cumulative IPC: 0.51930 (Simulation time: 0 hr 12 min 55 sec) 
Heartbeat CPU  0 instructions:  300000000 cycles:  450950876 heartbeat IPC: 0.52181 cumulative IPC: 0.51931 (Simulation time: 0 hr 12 min 58 sec) 
Heartbeat CPU  0 instructions:  301000000 cycles:  452886877 heartbeat IPC: 0.51653 cumulative IPC: 0.51930 (Simulation time: 0 hr 13 min 0 sec) 
Heartbeat CPU  0 instructions:  302000002 cycles:  454800456 heartbeat IPC: 0.52258 cumulative IPC: 0.51931 (Simulation time: 0 hr 13 min 3 sec) 
Heartbeat CPU  0 instructions:  303000000 cycles:  456727584 heartbeat IPC: 0.51891 cumulative IPC: 0.51931 (Simulation time: 0 hr 13 min 6 sec) 
Heartbeat CPU  0 instructions:  304000000 cycles:  458648126 heartbeat IPC: 0.52069 cumulative IPC: 0.51932 (Simulation time: 0 hr 13 min 9 sec) 
Heartbeat CPU  0 instructions:  305000001 cycles:  460577531 heartbeat IPC: 0.51829 cumulative IPC: 0.51931 (Simulation time: 0 hr 13 min 12 sec) 
Heartbeat CPU  0 instructions:  306000001 cycles:  462530770 heartbeat IPC: 0.51197 cumulative IPC: 0.51928 (Simulation time: 0 hr 13 min 14 sec) 
Heartbeat CPU  0 instructions:  307000002 cycles:  464464116 heartbeat IPC: 0.51724 cumulative IPC: 0.51927 (Simulation time: 0 hr 13 min 17 sec) 
Heartbeat CPU  0 instructions:  308000000 cycles:  466377826 heartbeat IPC: 0.52254 cumulative IPC: 0.51928 (Simulation time: 0 hr 13 min 20 sec) 
Heartbeat CPU  0 instructions:  309000002 cycles:  468317724 heartbeat IPC: 0.51549 cumulative IPC: 0.51926 (Simulation time: 0 hr 13 min 23 sec) 
Heartbeat CPU  0 instructions:  310000000 cycles:  470238634 heartbeat IPC: 0.52059 cumulative IPC: 0.51927 (Simulation time: 0 hr 13 min 26 sec) 
Heartbeat CPU  0 instructions:  311000002 cycles:  472149842 heartbeat IPC: 0.52323 cumulative IPC: 0.51929 (Simulation time: 0 hr 13 min 28 sec) 
Heartbeat CPU  0 instructions:  312000000 cycles:  474093154 heartbeat IPC: 0.51458 cumulative IPC: 0.51927 (Simulation time: 0 hr 13 min 31 sec) 
Heartbeat CPU  0 instructions:  313000003 cycles:  476028223 heartbeat IPC: 0.51678 cumulative IPC: 0.51925 (Simulation time: 0 hr 13 min 34 sec) 
Heartbeat CPU  0 instructions:  314000002 cycles:  477940045 heartbeat IPC: 0.52306 cumulative IPC: 0.51927 (Simulation time: 0 hr 13 min 37 sec) 
Heartbeat CPU  0 instructions:  315000000 cycles:  479868454 heartbeat IPC: 0.51856 cumulative IPC: 0.51927 (Simulation time: 0 hr 13 min 40 sec) 
Heartbeat CPU  0 instructions:  316000000 cycles:  481797786 heartbeat IPC: 0.51831 cumulative IPC: 0.51926 (Simulation time: 0 hr 13 min 42 sec) 
Heartbeat CPU  0 instructions:  317000001 cycles:  483724144 heartbeat IPC: 0.51911 cumulative IPC: 0.51926 (Simulation time: 0 hr 13 min 45 sec) 
Heartbeat CPU  0 instructions:  318000001 cycles:  485678521 heartbeat IPC: 0.51167 cumulative IPC: 0.51923 (Simulation time: 0 hr 13 min 48 sec) 
Heartbeat CPU  0 instructions:  319000000 cycles:  487607627 heartbeat IPC: 0.51837 cumulative IPC: 0.51922 (Simulation time: 0 hr 13 min 51 sec) 
Heartbeat CPU  0 instructions:  320000000 cycles:  489539877 heartbeat IPC: 0.51753 cumulative IPC: 0.51922 (Simulation time: 0 hr 13 min 54 sec) 
Heartbeat CPU  0 instructions:  321000000 cycles:  491458313 heartbeat IPC: 0.52126 cumulative IPC: 0.51923 (Simulation time: 0 hr 13 min 56 sec) 
Heartbeat CPU  0 instructions:  322000000 cycles:  493371382 heartbeat IPC: 0.52272 cumulative IPC: 0.51924 (Simulation time: 0 hr 13 min 59 sec) 
Heartbeat CPU  0 instructions:  323000002 cycles:  495305595 heartbeat IPC: 0.51701 cumulative IPC: 0.51923 (Simulation time: 0 hr 14 min 2 sec) 
Heartbeat CPU  0 instructions:  324000000 cycles:  497230031 heartbeat IPC: 0.51963 cumulative IPC: 0.51923 (Simulation time: 0 hr 14 min 5 sec) 
Heartbeat CPU  0 instructions:  325000002 cycles:  499155158 heartbeat IPC: 0.51945 cumulative IPC: 0.51923 (Simulation time: 0 hr 14 min 7 sec) 
Heartbeat CPU  0 instructions:  326000001 cycles:  501088445 heartbeat IPC: 0.51725 cumulative IPC: 0.51923 (Simulation time: 0 hr 14 min 10 sec) 
Heartbeat CPU  0 instructions:  327000000 cycles:  503015265 heartbeat IPC: 0.51899 cumulative IPC: 0.51922 (Simulation time: 0 hr 14 min 13 sec) 
Heartbeat CPU  0 instructions:  328000000 cycles:  504958037 heartbeat IPC: 0.51473 cumulative IPC: 0.51920 (Simulation time: 0 hr 14 min 16 sec) 
Heartbeat CPU  0 instructions:  329000003 cycles:  506874705 heartbeat IPC: 0.52174 cumulative IPC: 0.51922 (Simulation time: 0 hr 14 min 19 sec) 
Heartbeat CPU  0 instructions:  330000000 cycles:  508800600 heartbeat IPC: 0.51924 cumulative IPC: 0.51922 (Simulation time: 0 hr 14 min 21 sec) 
Heartbeat CPU  0 instructions:  331000000 cycles:  510721101 heartbeat IPC: 0.52070 cumulative IPC: 0.51922 (Simulation time: 0 hr 14 min 24 sec) 
Heartbeat CPU  0 instructions:  332000000 cycles:  512648227 heartbeat IPC: 0.51891 cumulative IPC: 0.51922 (Simulation time: 0 hr 14 min 27 sec) 
Heartbeat CPU  0 instructions:  333000002 cycles:  514556036 heartbeat IPC: 0.52416 cumulative IPC: 0.51924 (Simulation time: 0 hr 14 min 30 sec) 
Heartbeat CPU  0 instructions:  334000003 cycles:  516468853 heartbeat IPC: 0.52279 cumulative IPC: 0.51926 (Simulation time: 0 hr 14 min 33 sec) 
Heartbeat CPU  0 instructions:  335000000 cycles:  518395994 heartbeat IPC: 0.51890 cumulative IPC: 0.51925 (Simulation time: 0 hr 14 min 35 sec) 
Heartbeat CPU  0 instructions:  336000000 cycles:  520339645 heartbeat IPC: 0.51450 cumulative IPC: 0.51923 (Simulation time: 0 hr 14 min 38 sec) 
Heartbeat CPU  0 instructions:  337000001 cycles:  522282701 heartbeat IPC: 0.51465 cumulative IPC: 0.51922 (Simulation time: 0 hr 14 min 41 sec) 
Heartbeat CPU  0 instructions:  338000003 cycles:  524210816 heartbeat IPC: 0.51864 cumulative IPC: 0.51921 (Simulation time: 0 hr 14 min 44 sec) 
Heartbeat CPU  0 instructions:  339000001 cycles:  526123246 heartbeat IPC: 0.52289 cumulative IPC: 0.51923 (Simulation time: 0 hr 14 min 47 sec) 
Heartbeat CPU  0 instructions:  340000000 cycles:  528049235 heartbeat IPC: 0.51921 cumulative IPC: 0.51923 (Simulation time: 0 hr 14 min 49 sec) 
Heartbeat CPU  0 instructions:  341000001 cycles:  529976001 heartbeat IPC: 0.51900 cumulative IPC: 0.51923 (Simulation time: 0 hr 14 min 52 sec) 
Heartbeat CPU  0 instructions:  342000003 cycles:  531892621 heartbeat IPC: 0.52175 cumulative IPC: 0.51924 (Simulation time: 0 hr 14 min 55 sec) 
Heartbeat CPU  0 instructions:  343000003 cycles:  533835052 heartbeat IPC: 0.51482 cumulative IPC: 0.51922 (Simulation time: 0 hr 14 min 58 sec) 
Heartbeat CPU  0 instructions:  344000000 cycles:  535752525 heartbeat IPC: 0.52152 cumulative IPC: 0.51923 (Simulation time: 0 hr 15 min 1 sec) 
Heartbeat CPU  0 instructions:  345000001 cycles:  539645321 heartbeat IPC: 0.25689 cumulative IPC: 0.51707 (Simulation time: 0 hr 15 min 4 sec) 
Heartbeat CPU  0 instructions:  346000001 cycles:  543154759 heartbeat IPC: 0.28495 cumulative IPC: 0.51537 (Simulation time: 0 hr 15 min 6 sec) 
Heartbeat CPU  0 instructions:  347000003 cycles:  546330747 heartbeat IPC: 0.31486 cumulative IPC: 0.51404 (Simulation time: 0 hr 15 min 9 sec) 
Heartbeat CPU  0 instructions:  348000000 cycles:  549505666 heartbeat IPC: 0.31497 cumulative IPC: 0.51273 (Simulation time: 0 hr 15 min 11 sec) 
Heartbeat CPU  0 instructions:  349000002 cycles:  552679959 heartbeat IPC: 0.31503 cumulative IPC: 0.51145 (Simulation time: 0 hr 15 min 14 sec) 
Heartbeat CPU  0 instructions:  350000002 cycles:  555855189 heartbeat IPC: 0.31494 cumulative IPC: 0.51017 (Simulation time: 0 hr 15 min 16 sec) 
Heartbeat CPU  0 instructions:  351000001 cycles:  559033543 heartbeat IPC: 0.31463 cumulative IPC: 0.50891 (Simulation time: 0 hr 15 min 19 sec) 
Heartbeat CPU  0 instructions:  352000000 cycles:  562212344 heartbeat IPC: 0.31458 cumulative IPC: 0.50767 (Simulation time: 0 hr 15 min 21 sec) 
Heartbeat CPU  0 instructions:  353000003 cycles:  565391534 heartbeat IPC: 0.31455 cumulative IPC: 0.50644 (Simulation time: 0 hr 15 min 24 sec) 
Heartbeat CPU  0 instructions:  354000002 cycles:  568567104 heartbeat IPC: 0.31490 cumulative IPC: 0.50523 (Simulation time: 0 hr 15 min 26 sec) 
Heartbeat CPU  0 instructions:  355000002 cycles:  571741180 heartbeat IPC: 0.31505 cumulative IPC: 0.50404 (Simulation time: 0 hr 15 min 29 sec) 
Heartbeat CPU  0 instructions:  356000000 cycles:  574915961 heartbeat IPC: 0.31498 cumulative IPC: 0.50286 (Simulation time: 0 hr 15 min 31 sec) 
Heartbeat CPU  0 instructions:  357000003 cycles:  578090460 heartbeat IPC: 0.31501 cumulative IPC: 0.50169 (Simulation time: 0 hr 15 min 34 sec) 
Heartbeat CPU  0 instructions:  358000003 cycles:  581187567 heartbeat IPC: 0.32288 cumulative IPC: 0.50062 (Simulation time: 0 hr 15 min 36 sec) 
Heartbeat CPU  0 instructions:  359000003 cycles:  583103404 heartbeat IPC: 0.52197 cumulative IPC: 0.50070 (Simulation time: 0 hr 15 min 38 sec) 
Heartbeat CPU  0 instructions:  360000000 cycles:  584669477 heartbeat IPC: 0.63854 cumulative IPC: 0.50111 (Simulation time: 0 hr 15 min 40 sec) 
Heartbeat CPU  0 instructions:  361000000 cycles:  587517444 heartbeat IPC: 0.35113 cumulative IPC: 0.50029 (Simulation time: 0 hr 15 min 43 sec) 
Heartbeat CPU  0 instructions:  362000001 cycles:  590493693 heartbeat IPC: 0.33599 cumulative IPC: 0.49936 (Simulation time: 0 hr 15 min 46 sec) 
Heartbeat CPU  0 instructions:  363000000 cycles:  593451775 heartbeat IPC: 0.33806 cumulative IPC: 0.49846 (Simulation time: 0 hr 15 min 49 sec) 
Heartbeat CPU  0 instructions:  364000000 cycles:  596424697 heartbeat IPC: 0.33637 cumulative IPC: 0.49755 (Simulation time: 0 hr 15 min 52 sec) 
Heartbeat CPU  0 instructions:  365000000 cycles:  599383526 heartbeat IPC: 0.33797 cumulative IPC: 0.49666 (Simulation time: 0 hr 15 min 54 sec) 
Heartbeat CPU  0 instructions:  366000003 cycles:  602336384 heartbeat IPC: 0.33866 cumulative IPC: 0.49580 (Simulation time: 0 hr 15 min 57 sec) 
Heartbeat CPU  0 instructions:  367000001 cycles:  605284175 heartbeat IPC: 0.33924 cumulative IPC: 0.49494 (Simulation time: 0 hr 16 min 0 sec) 
Heartbeat CPU  0 instructions:  368000000 cycles:  608222562 heartbeat IPC: 0.34032 cumulative IPC: 0.49410 (Simulation time: 0 hr 16 min 3 sec) 
Heartbeat CPU  0 instructions:  369000002 cycles:  611210675 heartbeat IPC: 0.33466 cumulative IPC: 0.49323 (Simulation time: 0 hr 16 min 6 sec) 
Heartbeat CPU  0 instructions:  370000002 cycles:  614218981 heartbeat IPC: 0.33241 cumulative IPC: 0.49235 (Simulation time: 0 hr 16 min 8 sec) 
Heartbeat CPU  0 instructions:  371000000 cycles:  617224488 heartbeat IPC: 0.33272 cumulative IPC: 0.49148 (Simulation time: 0 hr 16 min 11 sec) 
Heartbeat CPU  0 instructions:  372000000 cycles:  620229514 heartbeat IPC: 0.33278 cumulative IPC: 0.49062 (Simulation time: 0 hr 16 min 14 sec) 
Heartbeat CPU  0 instructions:  373000003 cycles:  623249015 heartbeat IPC: 0.33118 cumulative IPC: 0.48975 (Simulation time: 0 hr 16 min 17 sec) 
Heartbeat CPU  0 instructions:  374000001 cycles:  626272782 heartbeat IPC: 0.33071 cumulative IPC: 0.48889 (Simulation time: 0 hr 16 min 20 sec) 
Heartbeat CPU  0 instructions:  375000000 cycles:  629272476 heartbeat IPC: 0.33337 cumulative IPC: 0.48807 (Simulation time: 0 hr 16 min 23 sec) 
Heartbeat CPU  0 instructions:  376000000 cycles:  632276038 heartbeat IPC: 0.33294 cumulative IPC: 0.48724 (Simulation time: 0 hr 16 min 25 sec) 
Heartbeat CPU  0 instructions:  377000001 cycles:  634315742 heartbeat IPC: 0.49027 cumulative IPC: 0.48725 (Simulation time: 0 hr 16 min 28 sec) 
Heartbeat CPU  0 instructions:  378000001 cycles:  636193051 heartbeat IPC: 0.53268 cumulative IPC: 0.48740 (Simulation time: 0 hr 16 min 31 sec) 
Heartbeat CPU  0 instructions:  379000002 cycles:  638066446 heartbeat IPC: 0.53379 cumulative IPC: 0.48756 (Simulation time: 0 hr 16 min 34 sec) 
Heartbeat CPU  0 instructions:  380000000 cycles:  639903744 heartbeat IPC: 0.54428 cumulative IPC: 0.48774 (Simulation time: 0 hr 16 min 37 sec) 
Heartbeat CPU  0 instructions:  381000003 cycles:  641756105 heartbeat IPC: 0.53985 cumulative IPC: 0.48791 (Simulation time: 0 hr 16 min 39 sec) 
Heartbeat CPU  0 instructions:  382000000 cycles:  643625768 heartbeat IPC: 0.53485 cumulative IPC: 0.48806 (Simulation time: 0 hr 16 min 42 sec) 
Heartbeat CPU  0 instructions:  383000000 cycles:  645542883 heartbeat IPC: 0.52162 cumulative IPC: 0.48817 (Simulation time: 0 hr 16 min 45 sec) 
Heartbeat CPU  0 instructions:  384000000 cycles:  647449459 heartbeat IPC: 0.52450 cumulative IPC: 0.48829 (Simulation time: 0 hr 16 min 48 sec) 
Heartbeat CPU  0 instructions:  385000000 cycles:  649377758 heartbeat IPC: 0.51859 cumulative IPC: 0.48839 (Simulation time: 0 hr 16 min 51 sec) 
Heartbeat CPU  0 instructions:  386000000 cycles:  651294385 heartbeat IPC: 0.52175 cumulative IPC: 0.48850 (Simulation time: 0 hr 16 min 53 sec) 
Heartbeat CPU  0 instructions:  387000003 cycles:  653210517 heartbeat IPC: 0.52189 cumulative IPC: 0.48861 (Simulation time: 0 hr 16 min 56 sec) 
Heartbeat CPU  0 instructions:  388000000 cycles:  655120677 heartbeat IPC: 0.52351 cumulative IPC: 0.48872 (Simulation time: 0 hr 16 min 59 sec) 
Heartbeat CPU  0 instructions:  389000000 cycles:  657042947 heartbeat IPC: 0.52022 cumulative IPC: 0.48882 (Simulation time: 0 hr 17 min 2 sec) 
Heartbeat CPU  0 instructions:  390000000 cycles:  658953289 heartbeat IPC: 0.52347 cumulative IPC: 0.48893 (Simulation time: 0 hr 17 min 4 sec) 
Heartbeat CPU  0 instructions:  391000001 cycles:  660876804 heartbeat IPC: 0.51988 cumulative IPC: 0.48903 (Simulation time: 0 hr 17 min 7 sec) 
Heartbeat CPU  0 instructions:  392000000 cycles:  662793673 heartbeat IPC: 0.52168 cumulative IPC: 0.48914 (Simulation time: 0 hr 17 min 10 sec) 
Heartbeat CPU  0 instructions:  393000000 cycles:  664712004 heartbeat IPC: 0.52129 cumulative IPC: 0.48924 (Simulation time: 0 hr 17 min 13 sec) 
Heartbeat CPU  0 instructions:  394000000 cycles:  666638459 heartbeat IPC: 0.51909 cumulative IPC: 0.48934 (Simulation time: 0 hr 17 min 16 sec) 
Heartbeat CPU  0 instructions:  395000000 cycles:  668579565 heartbeat IPC: 0.51517 cumulative IPC: 0.48942 (Simulation time: 0 hr 17 min 19 sec) 
Heartbeat CPU  0 instructions:  396000000 cycles:  670507485 heartbeat IPC: 0.51869 cumulative IPC: 0.48951 (Simulation time: 0 hr 17 min 22 sec) 
Heartbeat CPU  0 instructions:  397000001 cycles:  672428382 heartbeat IPC: 0.52059 cumulative IPC: 0.48961 (Simulation time: 0 hr 17 min 24 sec) 
Heartbeat CPU  0 instructions:  398000000 cycles:  674365245 heartbeat IPC: 0.51630 cumulative IPC: 0.48970 (Simulation time: 0 hr 17 min 27 sec) 
Heartbeat CPU  0 instructions:  399000000 cycles:  676279932 heartbeat IPC: 0.52228 cumulative IPC: 0.48980 (Simulation time: 0 hr 17 min 30 sec) 
Heartbeat CPU  0 instructions:  400000000 cycles:  678206103 heartbeat IPC: 0.51916 cumulative IPC: 0.48989 (Simulation time: 0 hr 17 min 33 sec) 
Heartbeat CPU  0 instructions:  401000003 cycles:  680138765 heartbeat IPC: 0.51742 cumulative IPC: 0.48998 (Simulation time: 0 hr 17 min 36 sec) 
Heartbeat CPU  0 instructions:  402000003 cycles:  682068154 heartbeat IPC: 0.51830 cumulative IPC: 0.49007 (Simulation time: 0 hr 17 min 38 sec) 
Heartbeat CPU  0 instructions:  403000000 cycles:  684019191 heartbeat IPC: 0.51255 cumulative IPC: 0.49014 (Simulation time: 0 hr 17 min 41 sec) 
Heartbeat CPU  0 instructions:  404000000 cycles:  685963405 heartbeat IPC: 0.51435 cumulative IPC: 0.49021 (Simulation time: 0 hr 17 min 44 sec) 
Heartbeat CPU  0 instructions:  405000000 cycles:  687885856 heartbeat IPC: 0.52017 cumulative IPC: 0.49031 (Simulation time: 0 hr 17 min 47 sec) 
Heartbeat CPU  0 instructions:  406000000 cycles:  689816513 heartbeat IPC: 0.51796 cumulative IPC: 0.49039 (Simulation time: 0 hr 17 min 50 sec) 
Heartbeat CPU  0 instructions:  407000001 cycles:  691770922 heartbeat IPC: 0.51166 cumulative IPC: 0.49046 (Simulation time: 0 hr 17 min 52 sec) 
Heartbeat CPU  0 instructions:  408000000 cycles:  693709205 heartbeat IPC: 0.51592 cumulative IPC: 0.49054 (Simulation time: 0 hr 17 min 55 sec) 
Heartbeat CPU  0 instructions:  409000002 cycles:  695659827 heartbeat IPC: 0.51266 cumulative IPC: 0.49060 (Simulation time: 0 hr 17 min 58 sec) 
Heartbeat CPU  0 instructions:  410000001 cycles:  697593556 heartbeat IPC: 0.51714 cumulative IPC: 0.49069 (Simulation time: 0 hr 18 min 1 sec) 
Heartbeat CPU  0 instructions:  411000000 cycles:  699512019 heartbeat IPC: 0.52125 cumulative IPC: 0.49078 (Simulation time: 0 hr 18 min 4 sec) 
Heartbeat CPU  0 instructions:  412000000 cycles:  701449209 heartbeat IPC: 0.51621 cumulative IPC: 0.49086 (Simulation time: 0 hr 18 min 6 sec) 
Heartbeat CPU  0 instructions:  413000001 cycles:  703363345 heartbeat IPC: 0.52243 cumulative IPC: 0.49095 (Simulation time: 0 hr 18 min 9 sec) 
Heartbeat CPU  0 instructions:  414000000 cycles:  705281413 heartbeat IPC: 0.52136 cumulative IPC: 0.49104 (Simulation time: 0 hr 18 min 12 sec) 
Heartbeat CPU  0 instructions:  415000002 cycles:  707202597 heartbeat IPC: 0.52051 cumulative IPC: 0.49113 (Simulation time: 0 hr 18 min 15 sec) 
Heartbeat CPU  0 instructions:  416000000 cycles:  709139881 heartbeat IPC: 0.51619 cumulative IPC: 0.49121 (Simulation time: 0 hr 18 min 18 sec) 
Heartbeat CPU  0 instructions:  417000000 cycles:  711078043 heartbeat IPC: 0.51595 cumulative IPC: 0.49128 (Simulation time: 0 hr 18 min 20 sec) 
Heartbeat CPU  0 instructions:  418000002 cycles:  712994444 heartbeat IPC: 0.52181 cumulative IPC: 0.49137 (Simulation time: 0 hr 18 min 23 sec) 
Heartbeat CPU  0 instructions:  419000002 cycles:  714942298 heartbeat IPC: 0.51339 cumulative IPC: 0.49144 (Simulation time: 0 hr 18 min 26 sec) 
Heartbeat CPU  0 instructions:  420000000 cycles:  716870057 heartbeat IPC: 0.51874 cumulative IPC: 0.49152 (Simulation time: 0 hr 18 min 29 sec) 
Heartbeat CPU  0 instructions:  421000001 cycles:  718782143 heartbeat IPC: 0.52299 cumulative IPC: 0.49161 (Simulation time: 0 hr 18 min 32 sec) 
Heartbeat CPU  0 instructions:  422000001 cycles:  720708988 heartbeat IPC: 0.51898 cumulative IPC: 0.49169 (Simulation time: 0 hr 18 min 34 sec) 
Heartbeat CPU  0 instructions:  423000000 cycles:  722625596 heartbeat IPC: 0.52175 cumulative IPC: 0.49178 (Simulation time: 0 hr 18 min 37 sec) 
Heartbeat CPU  0 instructions:  424000000 cycles:  724541681 heartbeat IPC: 0.52190 cumulative IPC: 0.49187 (Simulation time: 0 hr 18 min 40 sec) 
Heartbeat CPU  0 instructions:  425000002 cycles:  726474452 heartbeat IPC: 0.51739 cumulative IPC: 0.49194 (Simulation time: 0 hr 18 min 43 sec) 
Heartbeat CPU  0 instructions:  426000003 cycles:  728401458 heartbeat IPC: 0.51894 cumulative IPC: 0.49202 (Simulation time: 0 hr 18 min 45 sec) 
Heartbeat CPU  0 instructions:  427000002 cycles:  730321362 heartbeat IPC: 0.52086 cumulative IPC: 0.49210 (Simulation time: 0 hr 18 min 48 sec) 
Heartbeat CPU  0 instructions:  428000000 cycles:  732234727 heartbeat IPC: 0.52264 cumulative IPC: 0.49219 (Simulation time: 0 hr 18 min 51 sec) 
Heartbeat CPU  0 instructions:  429000000 cycles:  734164908 heartbeat IPC: 0.51809 cumulative IPC: 0.49226 (Simulation time: 0 hr 18 min 54 sec) 
Heartbeat CPU  0 instructions:  430000002 cycles:  736083920 heartbeat IPC: 0.52110 cumulative IPC: 0.49235 (Simulation time: 0 hr 18 min 57 sec) 
Heartbeat CPU  0 instructions:  431000001 cycles:  738008126 heartbeat IPC: 0.51969 cumulative IPC: 0.49242 (Simulation time: 0 hr 18 min 59 sec) 
Heartbeat CPU  0 instructions:  432000000 cycles:  739923923 heartbeat IPC: 0.52198 cumulative IPC: 0.49251 (Simulation time: 0 hr 19 min 2 sec) 
Heartbeat CPU  0 instructions:  433000002 cycles:  741843542 heartbeat IPC: 0.52094 cumulative IPC: 0.49259 (Simulation time: 0 hr 19 min 5 sec) 
Heartbeat CPU  0 instructions:  434000003 cycles:  743760980 heartbeat IPC: 0.52153 cumulative IPC: 0.49267 (Simulation time: 0 hr 19 min 8 sec) 
Heartbeat CPU  0 instructions:  435000001 cycles:  745697328 heartbeat IPC: 0.51644 cumulative IPC: 0.49274 (Simulation time: 0 hr 19 min 11 sec) 
Heartbeat CPU  0 instructions:  436000000 cycles:  747616020 heartbeat IPC: 0.52119 cumulative IPC: 0.49282 (Simulation time: 0 hr 19 min 13 sec) 
Heartbeat CPU  0 instructions:  437000001 cycles:  749540138 heartbeat IPC: 0.51972 cumulative IPC: 0.49289 (Simulation time: 0 hr 19 min 16 sec) 
Heartbeat CPU  0 instructions:  438000001 cycles:  751450803 heartbeat IPC: 0.52338 cumulative IPC: 0.49298 (Simulation time: 0 hr 19 min 19 sec) 
Heartbeat CPU  0 instructions:  439000001 cycles:  753367619 heartbeat IPC: 0.52170 cumulative IPC: 0.49306 (Simulation time: 0 hr 19 min 22 sec) 
Heartbeat CPU  0 instructions:  440000000 cycles:  755303817 heartbeat IPC: 0.51648 cumulative IPC: 0.49313 (Simulation time: 0 hr 19 min 25 sec) 
Heartbeat CPU  0 instructions:  441000000 cycles:  757227977 heartbeat IPC: 0.51971 cumulative IPC: 0.49320 (Simulation time: 0 hr 19 min 27 sec) 
Heartbeat CPU  0 instructions:  442000001 cycles:  759161095 heartbeat IPC: 0.51730 cumulative IPC: 0.49327 (Simulation time: 0 hr 19 min 30 sec) 
Heartbeat CPU  0 instructions:  443000001 cycles:  761094126 heartbeat IPC: 0.51732 cumulative IPC: 0.49333 (Simulation time: 0 hr 19 min 33 sec) 
Heartbeat CPU  0 instructions:  444000000 cycles:  763024650 heartbeat IPC: 0.51799 cumulative IPC: 0.49340 (Simulation time: 0 hr 19 min 36 sec) 
Heartbeat CPU  0 instructions:  445000000 cycles:  764965341 heartbeat IPC: 0.51528 cumulative IPC: 0.49346 (Simulation time: 0 hr 19 min 39 sec) 
Heartbeat CPU  0 instructions:  446000002 cycles:  766900518 heartbeat IPC: 0.51675 cumulative IPC: 0.49353 (Simulation time: 0 hr 19 min 41 sec) 
Heartbeat CPU  0 instructions:  447000000 cycles:  768826078 heartbeat IPC: 0.51933 cumulative IPC: 0.49360 (Simulation time: 0 hr 19 min 44 sec) 
Heartbeat CPU  0 instructions:  448000000 cycles:  770754551 heartbeat IPC: 0.51854 cumulative IPC: 0.49367 (Simulation time: 0 hr 19 min 47 sec) 
Heartbeat CPU  0 instructions:  449000001 cycles:  772679866 heartbeat IPC: 0.51940 cumulative IPC: 0.49374 (Simulation time: 0 hr 19 min 50 sec) 
Heartbeat CPU  0 instructions:  450000001 cycles:  774604779 heartbeat IPC: 0.51950 cumulative IPC: 0.49381 (Simulation time: 0 hr 19 min 53 sec) 
Heartbeat CPU  0 instructions:  451000002 cycles:  776526550 heartbeat IPC: 0.52035 cumulative IPC: 0.49388 (Simulation time: 0 hr 19 min 55 sec) 
Heartbeat CPU  0 instructions:  452000000 cycles:  778453859 heartbeat IPC: 0.51886 cumulative IPC: 0.49395 (Simulation time: 0 hr 19 min 58 sec) 
Heartbeat CPU  0 instructions:  453000001 cycles:  780396889 heartbeat IPC: 0.51466 cumulative IPC: 0.49400 (Simulation time: 0 hr 20 min 1 sec) 
Heartbeat CPU  0 instructions:  454000000 cycles:  782331879 heartbeat IPC: 0.51680 cumulative IPC: 0.49406 (Simulation time: 0 hr 20 min 4 sec) 
Heartbeat CPU  0 instructions:  455000003 cycles:  784257028 heartbeat IPC: 0.51944 cumulative IPC: 0.49413 (Simulation time: 0 hr 20 min 7 sec) 
Heartbeat CPU  0 instructions:  456000000 cycles:  786192606 heartbeat IPC: 0.51664 cumulative IPC: 0.49419 (Simulation time: 0 hr 20 min 9 sec) 
Heartbeat CPU  0 instructions:  457000000 cycles:  788128275 heartbeat IPC: 0.51662 cumulative IPC: 0.49425 (Simulation time: 0 hr 20 min 12 sec) 
Heartbeat CPU  0 instructions:  458000003 cycles:  790069337 heartbeat IPC: 0.51518 cumulative IPC: 0.49431 (Simulation time: 0 hr 20 min 15 sec) 
Heartbeat CPU  0 instructions:  459000002 cycles:  792009908 heartbeat IPC: 0.51531 cumulative IPC: 0.49436 (Simulation time: 0 hr 20 min 18 sec) 
Heartbeat CPU  0 instructions:  460000000 cycles:  793944845 heartbeat IPC: 0.51681 cumulative IPC: 0.49442 (Simulation time: 0 hr 20 min 21 sec) 
Heartbeat CPU  0 instructions:  461000000 cycles:  795871622 heartbeat IPC: 0.51900 cumulative IPC: 0.49449 (Simulation time: 0 hr 20 min 23 sec) 
Heartbeat CPU  0 instructions:  462000000 cycles:  797813500 heartbeat IPC: 0.51497 cumulative IPC: 0.49454 (Simulation time: 0 hr 20 min 26 sec) 
Heartbeat CPU  0 instructions:  463000000 cycles:  799736558 heartbeat IPC: 0.52001 cumulative IPC: 0.49461 (Simulation time: 0 hr 20 min 29 sec) 
Heartbeat CPU  0 instructions:  464000000 cycles:  801680728 heartbeat IPC: 0.51436 cumulative IPC: 0.49466 (Simulation time: 0 hr 20 min 32 sec) 
Heartbeat CPU  0 instructions:  465000001 cycles:  803601789 heartbeat IPC: 0.52055 cumulative IPC: 0.49473 (Simulation time: 0 hr 20 min 35 sec) 
Heartbeat CPU  0 instructions:  466000003 cycles:  805529570 heartbeat IPC: 0.51873 cumulative IPC: 0.49479 (Simulation time: 0 hr 20 min 38 sec) 
Heartbeat CPU  0 instructions:  467000002 cycles:  807466203 heartbeat IPC: 0.51636 cumulative IPC: 0.49485 (Simulation time: 0 hr 20 min 40 sec) 
Heartbeat CPU  0 instructions:  468000000 cycles:  809397494 heartbeat IPC: 0.51779 cumulative IPC: 0.49491 (Simulation time: 0 hr 20 min 43 sec) 
Heartbeat CPU  0 instructions:  469000000 cycles:  811331007 heartbeat IPC: 0.51719 cumulative IPC: 0.49497 (Simulation time: 0 hr 20 min 46 sec) 
Heartbeat CPU  0 instructions:  470000000 cycles:  813255368 heartbeat IPC: 0.51965 cumulative IPC: 0.49503 (Simulation time: 0 hr 20 min 49 sec) 
Heartbeat CPU  0 instructions:  471000003 cycles:  815171450 heartbeat IPC: 0.52190 cumulative IPC: 0.49510 (Simulation time: 0 hr 20 min 52 sec) 
Heartbeat CPU  0 instructions:  472000000 cycles:  817100449 heartbeat IPC: 0.51840 cumulative IPC: 0.49516 (Simulation time: 0 hr 20 min 54 sec) 
Heartbeat CPU  0 instructions:  473000000 cycles:  819029610 heartbeat IPC: 0.51836 cumulative IPC: 0.49522 (Simulation time: 0 hr 20 min 57 sec) 
Heartbeat CPU  0 instructions:  474000001 cycles:  820946526 heartbeat IPC: 0.52167 cumulative IPC: 0.49528 (Simulation time: 0 hr 21 min 0 sec) 
Heartbeat CPU  0 instructions:  475000000 cycles:  822887902 heartbeat IPC: 0.51510 cumulative IPC: 0.49533 (Simulation time: 0 hr 21 min 3 sec) 
Heartbeat CPU  0 instructions:  476000000 cycles:  824815627 heartbeat IPC: 0.51875 cumulative IPC: 0.49539 (Simulation time: 0 hr 21 min 6 sec) 
Heartbeat CPU  0 instructions:  477000002 cycles:  826748688 heartbeat IPC: 0.51732 cumulative IPC: 0.49545 (Simulation time: 0 hr 21 min 8 sec) 
Heartbeat CPU  0 instructions:  478000002 cycles:  828670630 heartbeat IPC: 0.52031 cumulative IPC: 0.49551 (Simulation time: 0 hr 21 min 11 sec) 
Heartbeat CPU  0 instructions:  479000001 cycles:  830596468 heartbeat IPC: 0.51925 cumulative IPC: 0.49557 (Simulation time: 0 hr 21 min 14 sec) 
Heartbeat CPU  0 instructions:  480000000 cycles:  832541043 heartbeat IPC: 0.51425 cumulative IPC: 0.49562 (Simulation time: 0 hr 21 min 17 sec) 
Heartbeat CPU  0 instructions:  481000002 cycles:  834466239 heartbeat IPC: 0.51943 cumulative IPC: 0.49568 (Simulation time: 0 hr 21 min 20 sec) 
Heartbeat CPU  0 instructions:  482000003 cycles:  836396848 heartbeat IPC: 0.51797 cumulative IPC: 0.49574 (Simulation time: 0 hr 21 min 22 sec) 
Heartbeat CPU  0 instructions:  483000002 cycles:  838339358 heartbeat IPC: 0.51480 cumulative IPC: 0.49578 (Simulation time: 0 hr 21 min 25 sec) 
Heartbeat CPU  0 instructions:  484000000 cycles:  840299503 heartbeat IPC: 0.51017 cumulative IPC: 0.49582 (Simulation time: 0 hr 21 min 28 sec) 
Heartbeat CPU  0 instructions:  485000003 cycles:  842223619 heartbeat IPC: 0.51972 cumulative IPC: 0.49588 (Simulation time: 0 hr 21 min 31 sec) 
Heartbeat CPU  0 instructions:  486000001 cycles:  844163039 heartbeat IPC: 0.51562 cumulative IPC: 0.49593 (Simulation time: 0 hr 21 min 34 sec) 
Heartbeat CPU  0 instructions:  487000002 cycles:  846091447 heartbeat IPC: 0.51856 cumulative IPC: 0.49598 (Simulation time: 0 hr 21 min 36 sec) 
Heartbeat CPU  0 instructions:  488000000 cycles:  848007776 heartbeat IPC: 0.52183 cumulative IPC: 0.49605 (Simulation time: 0 hr 21 min 39 sec) 
Heartbeat CPU  0 instructions:  489000003 cycles:  849935454 heartbeat IPC: 0.51876 cumulative IPC: 0.49610 (Simulation time: 0 hr 21 min 42 sec) 
Heartbeat CPU  0 instructions:  490000001 cycles:  851877869 heartbeat IPC: 0.51482 cumulative IPC: 0.49615 (Simulation time: 0 hr 21 min 45 sec) 
Heartbeat CPU  0 instructions:  491000000 cycles:  853808096 heartbeat IPC: 0.51807 cumulative IPC: 0.49620 (Simulation time: 0 hr 21 min 48 sec) 
Heartbeat CPU  0 instructions:  492000000 cycles:  855725412 heartbeat IPC: 0.52156 cumulative IPC: 0.49626 (Simulation time: 0 hr 21 min 50 sec) 
Heartbeat CPU  0 instructions:  493000001 cycles:  857661044 heartbeat IPC: 0.51663 cumulative IPC: 0.49631 (Simulation time: 0 hr 21 min 53 sec) 
Heartbeat CPU  0 instructions:  494000000 cycles:  859580513 heartbeat IPC: 0.52098 cumulative IPC: 0.49637 (Simulation time: 0 hr 21 min 56 sec) 
Heartbeat CPU  0 instructions:  495000003 cycles:  861499414 heartbeat IPC: 0.52113 cumulative IPC: 0.49643 (Simulation time: 0 hr 21 min 59 sec) 
Heartbeat CPU  0 instructions:  496000000 cycles:  863430369 heartbeat IPC: 0.51788 cumulative IPC: 0.49649 (Simulation time: 0 hr 22 min 2 sec) 
Heartbeat CPU  0 instructions:  497000001 cycles:  865360861 heartbeat IPC: 0.51800 cumulative IPC: 0.49654 (Simulation time: 0 hr 22 min 4 sec) 
Heartbeat CPU  0 instructions:  498000003 cycles:  867304072 heartbeat IPC: 0.51461 cumulative IPC: 0.49658 (Simulation time: 0 hr 22 min 7 sec) 
Heartbeat CPU  0 instructions:  499000001 cycles:  869230358 heartbeat IPC: 0.51913 cumulative IPC: 0.49664 (Simulation time: 0 hr 22 min 10 sec) 
Heartbeat CPU  0 instructions:  500000000 cycles:  871181088 heartbeat IPC: 0.51263 cumulative IPC: 0.49667 (Simulation time: 0 hr 22 min 13 sec) 
Heartbeat CPU  0 instructions:  501000003 cycles:  873100625 heartbeat IPC: 0.52096 cumulative IPC: 0.49673 (Simulation time: 0 hr 22 min 16 sec) 
Heartbeat CPU  0 instructions:  502000001 cycles:  875042307 heartbeat IPC: 0.51502 cumulative IPC: 0.49678 (Simulation time: 0 hr 22 min 18 sec) 
Heartbeat CPU  0 instructions:  503000000 cycles:  876964632 heartbeat IPC: 0.52020 cumulative IPC: 0.49683 (Simulation time: 0 hr 22 min 21 sec) 
Heartbeat CPU  0 instructions:  504000000 cycles:  878908844 heartbeat IPC: 0.51435 cumulative IPC: 0.49687 (Simulation time: 0 hr 22 min 24 sec) 
Heartbeat CPU  0 instructions:  505000000 cycles:  880843202 heartbeat IPC: 0.51697 cumulative IPC: 0.49692 (Simulation time: 0 hr 22 min 27 sec) 
Heartbeat CPU  0 instructions:  506000001 cycles:  882763013 heartbeat IPC: 0.52089 cumulative IPC: 0.49698 (Simulation time: 0 hr 22 min 30 sec) 
Heartbeat CPU  0 instructions:  507000000 cycles:  884692956 heartbeat IPC: 0.51815 cumulative IPC: 0.49703 (Simulation time: 0 hr 22 min 32 sec) 
Heartbeat CPU  0 instructions:  508000000 cycles:  886630873 heartbeat IPC: 0.51602 cumulative IPC: 0.49707 (Simulation time: 0 hr 22 min 35 sec) 
Heartbeat CPU  0 instructions:  509000000 cycles:  888550495 heartbeat IPC: 0.52094 cumulative IPC: 0.49713 (Simulation time: 0 hr 22 min 38 sec) 
Heartbeat CPU  0 instructions:  510000001 cycles:  890488333 heartbeat IPC: 0.51604 cumulative IPC: 0.49717 (Simulation time: 0 hr 22 min 41 sec) 
Heartbeat CPU  0 instructions:  511000001 cycles:  892430057 heartbeat IPC: 0.51501 cumulative IPC: 0.49721 (Simulation time: 0 hr 22 min 44 sec) 
Heartbeat CPU  0 instructions:  512000000 cycles:  894354920 heartbeat IPC: 0.51952 cumulative IPC: 0.49727 (Simulation time: 0 hr 22 min 46 sec) 
Heartbeat CPU  0 instructions:  513000003 cycles:  896286046 heartbeat IPC: 0.51783 cumulative IPC: 0.49731 (Simulation time: 0 hr 22 min 49 sec) 
Heartbeat CPU  0 instructions:  514000000 cycles:  898217372 heartbeat IPC: 0.51778 cumulative IPC: 0.49736 (Simulation time: 0 hr 22 min 52 sec) 
Heartbeat CPU  0 instructions:  515000001 cycles:  900153969 heartbeat IPC: 0.51637 cumulative IPC: 0.49741 (Simulation time: 0 hr 22 min 55 sec) 
Heartbeat CPU  0 instructions:  516000000 cycles:  902079597 heartbeat IPC: 0.51931 cumulative IPC: 0.49746 (Simulation time: 0 hr 22 min 58 sec) 
Heartbeat CPU  0 instructions:  517000002 cycles:  904018629 heartbeat IPC: 0.51572 cumulative IPC: 0.49750 (Simulation time: 0 hr 23 min 0 sec) 
Heartbeat CPU  0 instructions:  518000000 cycles:  905959946 heartbeat IPC: 0.51511 cumulative IPC: 0.49754 (Simulation time: 0 hr 23 min 3 sec) 
Heartbeat CPU  0 instructions:  519000003 cycles:  907878191 heartbeat IPC: 0.52131 cumulative IPC: 0.49759 (Simulation time: 0 hr 23 min 6 sec) 
Heartbeat CPU  0 instructions:  520000000 cycles:  909810313 heartbeat IPC: 0.51756 cumulative IPC: 0.49764 (Simulation time: 0 hr 23 min 9 sec) 
Heartbeat CPU  0 instructions:  521000000 cycles:  911729858 heartbeat IPC: 0.52096 cumulative IPC: 0.49769 (Simulation time: 0 hr 23 min 12 sec) 
Heartbeat CPU  0 instructions:  522000000 cycles:  913647797 heartbeat IPC: 0.52139 cumulative IPC: 0.49775 (Simulation time: 0 hr 23 min 14 sec) 
Heartbeat CPU  0 instructions:  523000002 cycles:  915564644 heartbeat IPC: 0.52169 cumulative IPC: 0.49780 (Simulation time: 0 hr 23 min 17 sec) 
Heartbeat CPU  0 instructions:  524000000 cycles:  917493796 heartbeat IPC: 0.51836 cumulative IPC: 0.49785 (Simulation time: 0 hr 23 min 20 sec) 
Heartbeat CPU  0 instructions:  525000000 cycles:  919413947 heartbeat IPC: 0.52079 cumulative IPC: 0.49790 (Simulation time: 0 hr 23 min 23 sec) 
Heartbeat CPU  0 instructions:  526000001 cycles:  921339007 heartbeat IPC: 0.51946 cumulative IPC: 0.49795 (Simulation time: 0 hr 23 min 26 sec) 
Heartbeat CPU  0 instructions:  527000000 cycles:  923271058 heartbeat IPC: 0.51758 cumulative IPC: 0.49799 (Simulation time: 0 hr 23 min 28 sec) 
Heartbeat CPU  0 instructions:  528000000 cycles:  925199153 heartbeat IPC: 0.51865 cumulative IPC: 0.49804 (Simulation time: 0 hr 23 min 31 sec) 
Heartbeat CPU  0 instructions:  529000002 cycles:  927116411 heartbeat IPC: 0.52158 cumulative IPC: 0.49809 (Simulation time: 0 hr 23 min 34 sec) 
Heartbeat CPU  0 instructions:  530000001 cycles:  929044848 heartbeat IPC: 0.51855 cumulative IPC: 0.49813 (Simulation time: 0 hr 23 min 37 sec) 
Heartbeat CPU  0 instructions:  531000000 cycles:  930970855 heartbeat IPC: 0.51921 cumulative IPC: 0.49818 (Simulation time: 0 hr 23 min 40 sec) 
Heartbeat CPU  0 instructions:  532000000 cycles:  932903436 heartbeat IPC: 0.51744 cumulative IPC: 0.49822 (Simulation time: 0 hr 23 min 42 sec) 
Heartbeat CPU  0 instructions:  533000002 cycles:  934829922 heartbeat IPC: 0.51908 cumulative IPC: 0.49827 (Simulation time: 0 hr 23 min 45 sec) 
Heartbeat CPU  0 instructions:  534000000 cycles:  936760834 heartbeat IPC: 0.51789 cumulative IPC: 0.49831 (Simulation time: 0 hr 23 min 48 sec) 
Heartbeat CPU  0 instructions:  535000003 cycles:  938710883 heartbeat IPC: 0.51281 cumulative IPC: 0.49835 (Simulation time: 0 hr 23 min 51 sec) 
Heartbeat CPU  0 instructions:  536000000 cycles:  940668625 heartbeat IPC: 0.51079 cumulative IPC: 0.49837 (Simulation time: 0 hr 23 min 54 sec) 
Heartbeat CPU  0 instructions:  537000000 cycles:  942586774 heartbeat IPC: 0.52134 cumulative IPC: 0.49842 (Simulation time: 0 hr 23 min 56 sec) 
Heartbeat CPU  0 instructions:  538000002 cycles:  944525135 heartbeat IPC: 0.51590 cumulative IPC: 0.49846 (Simulation time: 0 hr 23 min 59 sec) 
Heartbeat CPU  0 instructions:  539000001 cycles:  946447421 heartbeat IPC: 0.52021 cumulative IPC: 0.49851 (Simulation time: 0 hr 24 min 2 sec) 
Heartbeat CPU  0 instructions:  540000000 cycles:  948373885 heartbeat IPC: 0.51909 cumulative IPC: 0.49856 (Simulation time: 0 hr 24 min 5 sec) 
Heartbeat CPU  0 instructions:  541000000 cycles:  950304453 heartbeat IPC: 0.51798 cumulative IPC: 0.49860 (Simulation time: 0 hr 24 min 7 sec) 
Heartbeat CPU  0 instructions:  542000003 cycles:  952222215 heartbeat IPC: 0.52144 cumulative IPC: 0.49865 (Simulation time: 0 hr 24 min 10 sec) 
Heartbeat CPU  0 instructions:  543000001 cycles:  954165516 heartbeat IPC: 0.51459 cumulative IPC: 0.49868 (Simulation time: 0 hr 24 min 13 sec) 
Heartbeat CPU  0 instructions:  544000000 cycles:  956090589 heartbeat IPC: 0.51946 cumulative IPC: 0.49873 (Simulation time: 0 hr 24 min 16 sec) 
Heartbeat CPU  0 instructions:  545000002 cycles:  958034650 heartbeat IPC: 0.51439 cumulative IPC: 0.49876 (Simulation time: 0 hr 24 min 19 sec) 
Heartbeat CPU  0 instructions:  546000000 cycles:  959970878 heartbeat IPC: 0.51647 cumulative IPC: 0.49880 (Simulation time: 0 hr 24 min 21 sec) 
Heartbeat CPU  0 instructions:  547000002 cycles:  961911579 heartbeat IPC: 0.51528 cumulative IPC: 0.49884 (Simulation time: 0 hr 24 min 24 sec) 
Heartbeat CPU  0 instructions:  548000000 cycles:  963837200 heartbeat IPC: 0.51931 cumulative IPC: 0.49888 (Simulation time: 0 hr 24 min 27 sec) 
Heartbeat CPU  0 instructions:  549000003 cycles:  965782420 heartbeat IPC: 0.51408 cumulative IPC: 0.49891 (Simulation time: 0 hr 24 min 30 sec) 
Heartbeat CPU  0 instructions:  550000002 cycles:  967704136 heartbeat IPC: 0.52037 cumulative IPC: 0.49896 (Simulation time: 0 hr 24 min 33 sec) 
Heartbeat CPU  0 instructions:  551000003 cycles:  969618729 heartbeat IPC: 0.52230 cumulative IPC: 0.49901 (Simulation time: 0 hr 24 min 35 sec) 
Heartbeat CPU  0 instructions:  552000000 cycles:  971566173 heartbeat IPC: 0.51349 cumulative IPC: 0.49904 (Simulation time: 0 hr 24 min 38 sec) 
Heartbeat CPU  0 instructions:  553000000 cycles:  973504146 heartbeat IPC: 0.51600 cumulative IPC: 0.49907 (Simulation time: 0 hr 24 min 41 sec) 
Heartbeat CPU  0 instructions:  554000000 cycles:  975426361 heartbeat IPC: 0.52023 cumulative IPC: 0.49912 (Simulation time: 0 hr 24 min 44 sec) 
Heartbeat CPU  0 instructions:  555000001 cycles:  977365168 heartbeat IPC: 0.51578 cumulative IPC: 0.49915 (Simulation time: 0 hr 24 min 47 sec) 
Heartbeat CPU  0 instructions:  556000000 cycles:  979291793 heartbeat IPC: 0.51904 cumulative IPC: 0.49920 (Simulation time: 0 hr 24 min 49 sec) 
Heartbeat CPU  0 instructions:  557000001 cycles:  981221259 heartbeat IPC: 0.51828 cumulative IPC: 0.49924 (Simulation time: 0 hr 24 min 52 sec) 
Heartbeat CPU  0 instructions:  558000001 cycles:  983149832 heartbeat IPC: 0.51852 cumulative IPC: 0.49928 (Simulation time: 0 hr 24 min 55 sec) 
Heartbeat CPU  0 instructions:  559000002 cycles:  985083152 heartbeat IPC: 0.51725 cumulative IPC: 0.49932 (Simulation time: 0 hr 24 min 58 sec) 
Heartbeat CPU  0 instructions:  560000000 cycles:  987020772 heartbeat IPC: 0.51610 cumulative IPC: 0.49935 (Simulation time: 0 hr 25 min 1 sec) 
Heartbeat CPU  0 instructions:  561000001 cycles:  988947337 heartbeat IPC: 0.51906 cumulative IPC: 0.49939 (Simulation time: 0 hr 25 min 3 sec) 
Heartbeat CPU  0 instructions:  562000002 cycles:  990892748 heartbeat IPC: 0.51403 cumulative IPC: 0.49942 (Simulation time: 0 hr 25 min 6 sec) 
Heartbeat CPU  0 instructions:  563000002 cycles:  992816422 heartbeat IPC: 0.51984 cumulative IPC: 0.49946 (Simulation time: 0 hr 25 min 9 sec) 
Heartbeat CPU  0 instructions:  564000000 cycles:  994740979 heartbeat IPC: 0.51960 cumulative IPC: 0.49951 (Simulation time: 0 hr 25 min 12 sec) 
Heartbeat CPU  0 instructions:  565000002 cycles:  996667686 heartbeat IPC: 0.51902 cumulative IPC: 0.49955 (Simulation time: 0 hr 25 min 15 sec) 
Heartbeat CPU  0 instructions:  566000001 cycles:  998590485 heartbeat IPC: 0.52007 cumulative IPC: 0.49959 (Simulation time: 0 hr 25 min 17 sec) 
Heartbeat CPU  0 instructions:  567000000 cycles: 1000511194 heartbeat IPC: 0.52064 cumulative IPC: 0.49963 (Simulation time: 0 hr 25 min 20 sec) 
Heartbeat CPU  0 instructions:  568000000 cycles: 1002459683 heartbeat IPC: 0.51322 cumulative IPC: 0.49966 (Simulation time: 0 hr 25 min 23 sec) 
Heartbeat CPU  0 instructions:  569000002 cycles: 1004381408 heartbeat IPC: 0.52037 cumulative IPC: 0.49970 (Simulation time: 0 hr 25 min 26 sec) 
Heartbeat CPU  0 instructions:  570000000 cycles: 1006336892 heartbeat IPC: 0.51138 cumulative IPC: 0.49973 (Simulation time: 0 hr 25 min 28 sec) 
Heartbeat CPU  0 instructions:  571000003 cycles: 1008258823 heartbeat IPC: 0.52031 cumulative IPC: 0.49977 (Simulation time: 0 hr 25 min 31 sec) 
Heartbeat CPU  0 instructions:  572000000 cycles: 1010197733 heartbeat IPC: 0.51575 cumulative IPC: 0.49980 (Simulation time: 0 hr 25 min 34 sec) 
Heartbeat CPU  0 instructions:  573000000 cycles: 1012122588 heartbeat IPC: 0.51952 cumulative IPC: 0.49984 (Simulation time: 0 hr 25 min 37 sec) 
Heartbeat CPU  0 instructions:  574000000 cycles: 1014049805 heartbeat IPC: 0.51888 cumulative IPC: 0.49988 (Simulation time: 0 hr 25 min 40 sec) 
Heartbeat CPU  0 instructions:  575000002 cycles: 1015998181 heartbeat IPC: 0.51325 cumulative IPC: 0.49991 (Simulation time: 0 hr 25 min 42 sec) 
Heartbeat CPU  0 instructions:  576000000 cycles: 1017926297 heartbeat IPC: 0.51864 cumulative IPC: 0.49995 (Simulation time: 0 hr 25 min 45 sec) 
Heartbeat CPU  0 instructions:  577000000 cycles: 1019849047 heartbeat IPC: 0.52009 cumulative IPC: 0.49999 (Simulation time: 0 hr 25 min 48 sec) 
Heartbeat CPU  0 instructions:  578000001 cycles: 1021779559 heartbeat IPC: 0.51800 cumulative IPC: 0.50002 (Simulation time: 0 hr 25 min 51 sec) 
Heartbeat CPU  0 instructions:  579000002 cycles: 1023700499 heartbeat IPC: 0.52058 cumulative IPC: 0.50006 (Simulation time: 0 hr 25 min 54 sec) 
Heartbeat CPU  0 instructions:  580000000 cycles: 1025627873 heartbeat IPC: 0.51884 cumulative IPC: 0.50010 (Simulation time: 0 hr 25 min 56 sec) 
Heartbeat CPU  0 instructions:  581000000 cycles: 1027564701 heartbeat IPC: 0.51631 cumulative IPC: 0.50014 (Simulation time: 0 hr 25 min 59 sec) 
Heartbeat CPU  0 instructions:  582000000 cycles: 1029506028 heartbeat IPC: 0.51511 cumulative IPC: 0.50017 (Simulation time: 0 hr 26 min 2 sec) 
Heartbeat CPU  0 instructions:  583000001 cycles: 1031434288 heartbeat IPC: 0.51860 cumulative IPC: 0.50020 (Simulation time: 0 hr 26 min 5 sec) 
Heartbeat CPU  0 instructions:  584000000 cycles: 1033372155 heartbeat IPC: 0.51603 cumulative IPC: 0.50023 (Simulation time: 0 hr 26 min 8 sec) 
Heartbeat CPU  0 instructions:  585000000 cycles: 1035301810 heartbeat IPC: 0.51823 cumulative IPC: 0.50027 (Simulation time: 0 hr 26 min 10 sec) 
Heartbeat CPU  0 instructions:  586000000 cycles: 1037233595 heartbeat IPC: 0.51766 cumulative IPC: 0.50030 (Simulation time: 0 hr 26 min 13 sec) 
Heartbeat CPU  0 instructions:  587000001 cycles: 1039180870 heartbeat IPC: 0.51354 cumulative IPC: 0.50033 (Simulation time: 0 hr 26 min 16 sec) 
Heartbeat CPU  0 instructions:  588000000 cycles: 1041100767 heartbeat IPC: 0.52086 cumulative IPC: 0.50037 (Simulation time: 0 hr 26 min 19 sec) 
Heartbeat CPU  0 instructions:  589000000 cycles: 1043037888 heartbeat IPC: 0.51623 cumulative IPC: 0.50040 (Simulation time: 0 hr 26 min 22 sec) 
Heartbeat CPU  0 instructions:  590000001 cycles: 1044957303 heartbeat IPC: 0.52099 cumulative IPC: 0.50044 (Simulation time: 0 hr 26 min 24 sec) 
Heartbeat CPU  0 instructions:  591000002 cycles: 1046892077 heartbeat IPC: 0.51686 cumulative IPC: 0.50048 (Simulation time: 0 hr 26 min 27 sec) 
Heartbeat CPU  0 instructions:  592000000 cycles: 1048815033 heartbeat IPC: 0.52003 cumulative IPC: 0.50051 (Simulation time: 0 hr 26 min 30 sec) 
Heartbeat CPU  0 instructions:  593000003 cycles: 1050742309 heartbeat IPC: 0.51887 cumulative IPC: 0.50055 (Simulation time: 0 hr 26 min 33 sec) 
Heartbeat CPU  0 instructions:  594000000 cycles: 1052685809 heartbeat IPC: 0.51453 cumulative IPC: 0.50058 (Simulation time: 0 hr 26 min 36 sec) 
Heartbeat CPU  0 instructions:  595000001 cycles: 1054605485 heartbeat IPC: 0.52092 cumulative IPC: 0.50062 (Simulation time: 0 hr 26 min 38 sec) 
Heartbeat CPU  0 instructions:  596000000 cycles: 1056542100 heartbeat IPC: 0.51636 cumulative IPC: 0.50065 (Simulation time: 0 hr 26 min 41 sec) 
Heartbeat CPU  0 instructions:  597000002 cycles: 1058462627 heartbeat IPC: 0.52069 cumulative IPC: 0.50069 (Simulation time: 0 hr 26 min 44 sec) 
Heartbeat CPU  0 instructions:  598000001 cycles: 1060391878 heartbeat IPC: 0.51834 cumulative IPC: 0.50072 (Simulation time: 0 hr 26 min 47 sec) 
Heartbeat CPU  0 instructions:  599000000 cycles: 1062317673 heartbeat IPC: 0.51927 cumulative IPC: 0.50076 (Simulation time: 0 hr 26 min 50 sec) 
Heartbeat CPU  0 instructions:  600000000 cycles: 1064249459 heartbeat IPC: 0.51766 cumulative IPC: 0.50079 (Simulation time: 0 hr 26 min 52 sec) 
Finished CPU 0 instructions: 500000000 cycles: 998425008 cumulative IPC: 0.50079 (Simulation time: 0 hr 26 min 52 sec) 

ChampSim completed all CPUs

[ROI Statistics]
Core_0_instructions 500000000
Core_0_cycles 998425008
Core_0_IPC 0.50079

Core_0_branch_prediction_accuracy 97.89350
Core_0_branch_MPKI 0.73267
Core_0_average_ROB_occupancy_at_mispredict 252.57760

Core_0_L1D_total_access 233091610
Core_0_L1D_total_hit 222900145
Core_0_L1D_total_miss 10191465
Core_0_L1D_loads 196943397
Core_0_L1D_load_hit 187018252
Core_0_L1D_load_miss 9925145
Core_0_L1D_RFOs 36148213
Core_0_L1D_RFO_hit 35881893
Core_0_L1D_RFO_miss 266320
Core_0_L1D_prefetches 0
Core_0_L1D_prefetch_hit 0
Core_0_L1D_prefetch_miss 0
Core_0_L1D_writebacks 0
Core_0_L1D_writeback_hit 0
Core_0_L1D_writeback_miss 0
Core_0_L1D_prefetch_requested 0
Core_0_L1D_prefetch_dropped 0
Core_0_L1D_prefetch_issued 0
Core_0_L1D_prefetch_filled 0
Core_0_L1D_prefetch_useful 0
Core_0_L1D_prefetch_useless 0
Core_0_L1D_prefetch_late 0
Core_0_L1D_average_miss_latency 409.75042

Core_0_L1D_rq_access 254240648
Core_0_L1D_rq_forward 0
Core_0_L1D_rq_merged 53043451
Core_0_L1D_rq_to_cache 201197195
Core_0_L1D_rq_full 0

Core_0_L1D_wq_access 36392435
Core_0_L1D_wq_forward 2
Core_0_L1D_wq_merged 0
Core_0_L1D_wq_to_cache 36392435
Core_0_L1D_wq_full 0

Core_0_L1D_pq_access 0
Core_0_L1D_pq_forward 0
Core_0_L1D_pq_merged 0
Core_0_L1D_pq_to_cache 0
Core_0_L1D_pq_full 0

Core_0_L1D_acc_epochs 1025602
Core_0_L1D_acc_level_0 1025602
Core_0_L1D_acc_level_1 0
Core_0_L1D_acc_level_2 0
Core_0_L1D_acc_level_3 0
Core_0_L1D_acc_level_4 0
Core_0_L1D_acc_level_5 0
Core_0_L1D_acc_level_6 0
Core_0_L1D_acc_level_7 0
Core_0_L1D_acc_level_8 0
Core_0_L1D_acc_level_9 0

Core_0_L1I_total_access 119410748
Core_0_L1I_total_hit 119410694
Core_0_L1I_total_miss 54
Core_0_L1I_loads 119410748
Core_0_L1I_load_hit 119410694
Core_0_L1I_load_miss 54
Core_0_L1I_RFOs 0
Core_0_L1I_RFO_hit 0
Core_0_L1I_RFO_miss 0
Core_0_L1I_prefetches 0
Core_0_L1I_prefetch_hit 0
Core_0_L1I_prefetch_miss 0
Core_0_L1I_writebacks 0
Core_0_L1I_writeback_hit 0
Core_0_L1I_writeback_miss 0
Core_0_L1I_prefetch_requested 0
Core_0_L1I_prefetch_dropped 0
Core_0_L1I_prefetch_issued 0
Core_0_L1I_prefetch_filled 0
Core_0_L1I_prefetch_useful 0
Core_0_L1I_prefetch_useless 0
Core_0_L1I_prefetch_late 0
Core_0_L1I_average_miss_latency 306.81481

Core_0_L1I_rq_access 500000250
Core_0_L1I_rq_forward 0
Core_0_L1I_rq_merged 380589490
Core_0_L1I_rq_to_cache 119410760
Core_0_L1I_rq_full 0

Core_0_L1I_wq_access 0
Core_0_L1I_wq_forward 0
Core_0_L1I_wq_merged 0
Core_0_L1I_wq_to_cache 0
Core_0_L1I_wq_full 0

Core_0_L1I_pq_access 0
Core_0_L1I_pq_forward 0
Core_0_L1I_pq_merged 0
Core_0_L1I_pq_to_cache 0
Core_0_L1I_pq_full 0

Core_0_L1I_acc_epochs 1025602
Core_0_L1I_acc_level_0 1025602
Core_0_L1I_acc_level_1 0
Core_0_L1I_acc_level_2 0
Core_0_L1I_acc_level_3 0
Core_0_L1I_acc_level_4 0
Core_0_L1I_acc_level_5 0
Core_0_L1I_acc_level_6 0
Core_0_L1I_acc_level_7 0
Core_0_L1I_acc_level_8 0
Core_0_L1I_acc_level_9 0

Core_0_L2C_total_access 10659847
Core_0_L2C_total_hit 1388914
Core_0_L2C_total_miss 9270933
Core_0_L2C_loads 9922415
Core_0_L2C_load_hit 876557
Core_0_L2C_load_miss 9045858
Core_0_L2C_RFOs 263643
Core_0_L2C_RFO_hit 43416
Core_0_L2C_RFO_miss 220227
Core_0_L2C_prefetches 0
Core_0_L2C_prefetch_hit 0
Core_0_L2C_prefetch_miss 0
Core_0_L2C_writebacks 473789
Core_0_L2C_writeback_hit 468941
Core_0_L2C_writeback_miss 4848
Core_0_L2C_prefetch_requested 0
Core_0_L2C_prefetch_dropped 0
Core_0_L2C_prefetch_issued 0
Core_0_L2C_prefetch_filled 0
Core_0_L2C_prefetch_useful 0
Core_0_L2C_prefetch_useless 0
Core_0_L2C_prefetch_late 0
Core_0_L2C_average_miss_latency 434.01725

Core_0_L2C_rq_access 10191519
Core_0_L2C_rq_forward 0
Core_0_L2C_rq_merged 0
Core_0_L2C_rq_to_cache 10186058
Core_0_L2C_rq_full 0

Core_0_L2C_wq_access 473789
Core_0_L2C_wq_forward 5461
Core_0_L2C_wq_merged 0
Core_0_L2C_wq_to_cache 473789
Core_0_L2C_wq_full 0

Core_0_L2C_pq_access 0
Core_0_L2C_pq_forward 0
Core_0_L2C_pq_merged 0
Core_0_L2C_pq_to_cache 0
Core_0_L2C_pq_full 0

Core_0_L2C_acc_epochs 1025602
Core_0_L2C_acc_level_0 1025602
Core_0_L2C_acc_level_1 0
Core_0_L2C_acc_level_2 0
Core_0_L2C_acc_level_3 0
Core_0_L2C_acc_level_4 0
Core_0_L2C_acc_level_5 0
Core_0_L2C_acc_level_6 0
Core_0_L2C_acc_level_7 0
Core_0_L2C_acc_level_8 0
Core_0_L2C_acc_level_9 0

Core_0_LLC_total_access 9660285
Core_0_LLC_total_hit 41455
Core_0_LLC_total_miss 9618830
Core_0_LLC_loads 9045858
Core_0_LLC_load_hit 20109
Core_0_LLC_load_miss 9025749
Core_0_LLC_RFOs 220227
Core_0_LLC_RFO_hit 0
Core_0_LLC_RFO_miss 220227
Core_0_LLC_prefetches 0
Core_0_LLC_prefetch_hit 0
Core_0_LLC_prefetch_miss 0
Core_0_LLC_writebacks 394200
Core_0_LLC_writeback_hit 21346
Core_0_LLC_writeback_miss 372854
Core_0_LLC_prefetch_requested 0
Core_0_LLC_prefetch_dropped 0
Core_0_LLC_prefetch_issued 0
Core_0_LLC_prefetch_filled 0
Core_0_LLC_prefetch_useful 0
Core_0_LLC_prefetch_useless 0
Core_0_LLC_prefetch_late 0
Core_0_LLC_average_miss_latency 388.68978

Core_0_LLC_rq_access 9266085
Core_0_LLC_rq_forward 0
Core_0_LLC_rq_merged 0
Core_0_LLC_rq_to_cache 9266085
Core_0_LLC_rq_full 0

Core_0_LLC_wq_access 394200
Core_0_LLC_wq_forward 0
Core_0_LLC_wq_merged 0
Core_0_LLC_wq_to_cache 394200
Core_0_LLC_wq_full 0

Core_0_LLC_pq_access 0
Core_0_LLC_pq_forward 0
Core_0_LLC_pq_merged 0
Core_0_LLC_pq_to_cache 0
Core_0_LLC_pq_full 0

Core_0_LLC_acc_epochs 1039307
Core_0_LLC_acc_level_0 1039307
Core_0_LLC_acc_level_1 0
Core_0_LLC_acc_level_2 0
Core_0_LLC_acc_level_3 0
Core_0_LLC_acc_level_4 0
Core_0_LLC_acc_level_5 0
Core_0_LLC_acc_level_6 0
Core_0_LLC_acc_level_7 0
Core_0_LLC_acc_level_8 0
Core_0_LLC_acc_level_9 0

Core_0_major_page_fault 0
Core_0_minor_page_fault 104619

Channel_0_RQ_row_buffer_hit 6676060
Channel_0_RQ_row_buffer_miss 2569916
Channel_0_WQ_row_buffer_hit 186522
Channel_0_WQ_row_buffer_miss 201210
Channel_0_WQ_full 0
Channel_0_dbus_congested 7582428

avg_congested_cycle 34

DRAM_bw_pochs 4157225
DRAM_bw_level_0 1409463
DRAM_bw_level_1 528868
DRAM_bw_level_2 553353
DRAM_bw_level_3 1665541
