*************************************************
   ChampSim Multicore Out-of-Order Simulator
   Last compiled: Dec 11 2024 17:59:53
*************************************************
parsing config file: /home/functionmain/桌面/Pythia/config/bingo.ini

trace_0 /home/functionmain/桌面/Pythia/traces/429.mcf-192B.champsimtrace.xz
adding L2C_PREFETCHER: Bingo
Initialize SHIP state
warmup_instructions 100000000
simulation_instructions 500000000
champsim_seed 222
measure_ipc 0
measure_ipc_epoch 1000
measure_dram_bw 1
measure_dram_bw_epoch 256
measure_cache_acc 1
measure_cache_acc_epoch 1024
l1d_perfect 0
l2c_perfect 0
llc_perfect 0
l1d_semi_perfect 0
l2c_semi_perfect 0
llc_semi_perfect 0
semi_perfect_cache_page_buffer_size 64

num_cpus 1
cpu_freq 4000
dram_io_freq 4800
page_size 4096
block_size 64
max_read_per_cycle 8
max_fill_per_cycle 1
dram_channels 1
log2_dram_channels 0
dram_ranks 1
dram_banks 8
dram_rows 65536
dram_columns 128
dram_row_size 8
dram_size 4096
dram_pages 1048576

fetch_width 6
decode_width 6
exec_width 4
lq_width 2
sq_width 2
retire_width 4
scheduler_size 128
branch_mispredict_penalty 20
rob_size 256
lq_size 72
sq_size 56
num_instr_destinations_sparc 4
num_instr_destinations 2
num_instr_sources 4

itlb_set 16
itlb_way 8
itlb_rq_size 16
itlb_wq_size 16
itlb_pq_size 0
itlb_mshr_size 8
itlb_latency 1

dtlb_set 16
dtlb_way 4
dtlb_rq_size 16
dtlb_wq_size 16
dtlb_pq_size 0
dtlb_mshr_size 8
dtlb_latency 1

stlb_set 128
stlb_way 12
stlb_rq_size 32
stlb_wq_size 32
stlb_pq_size 0
stlb_mshr_size 16
stlb_latency 8

l1i_size 32
l1i_set 64
l1i_way 8
l1i_rq_size 64
l1i_wq_size 64
l1i_pq_size 8
l1i_mshr_size 8
l1i_latency 1

l1d_size 32
l1d_set 64
l1d_way 8
l1d_rq_size 64
l1d_wq_size 64
l1d_pq_size 8
l1d_mshr_size 16
l1d_latency 4

l2c_size 256
l2c_set 512
l2c_way 8
l2c_rq_size 32
l2c_wq_size 32
l2c_pq_size 32
l2c_mshr_size 32
l2c_latency 10

llc_size 2048
llc_set 2048
llc_way 16
llc_rq_size 32
llc_wq_size 32
llc_pq_size 32
llc_mshr_size 64
llc_latency 20

dram_channel_width 8
dram_wq_size 64
dram_rq_size 64
tRP 15
tRCD 15
tCAS 12.5
dram_dbus_turn_around_time 30
dram_write_high_wm 56
dram_write_low_wm 48
min_dram_writes_per_switch 16
dram_mtps 4800
dram_dbus_return_time 6

bingo_region_size 2048
bingo_pattern_len 32
bingo_pc_width 16
bingo_min_addr_width 5
bingo_max_addr_width 16
bingo_ft_size 64
bingo_at_size 128
bingo_pht_size 4096
bingo_pht_ways 16
bingo_pf_streamer_size 128
bingo_debug_level 0
bingo_l1d_thresh 1.01
bingo_l2c_thresh 0.8
bingo_llc_thresh 0.05
bingo_pc_address_fill_level L2


Heartbeat CPU  0 instructions:    1000002 cycles:    1179134 heartbeat IPC: 0.84808 cumulative IPC: 0.84808 (Simulation time: 0 hr 0 min 2 sec) 
Heartbeat CPU  0 instructions:    2000002 cycles:    2370240 heartbeat IPC: 0.83956 cumulative IPC: 0.84380 (Simulation time: 0 hr 0 min 5 sec) 
Heartbeat CPU  0 instructions:    3000000 cycles:    3543316 heartbeat IPC: 0.85246 cumulative IPC: 0.84666 (Simulation time: 0 hr 0 min 8 sec) 
Heartbeat CPU  0 instructions:    4000000 cycles:    4692077 heartbeat IPC: 0.87050 cumulative IPC: 0.85250 (Simulation time: 0 hr 0 min 11 sec) 
Heartbeat CPU  0 instructions:    5000001 cycles:    5860008 heartbeat IPC: 0.85622 cumulative IPC: 0.85324 (Simulation time: 0 hr 0 min 14 sec) 
Heartbeat CPU  0 instructions:    6000002 cycles:    7022918 heartbeat IPC: 0.85991 cumulative IPC: 0.85435 (Simulation time: 0 hr 0 min 17 sec) 
Heartbeat CPU  0 instructions:    7000000 cycles:    8204804 heartbeat IPC: 0.84610 cumulative IPC: 0.85316 (Simulation time: 0 hr 0 min 19 sec) 
Heartbeat CPU  0 instructions:    8000000 cycles:    9371010 heartbeat IPC: 0.85748 cumulative IPC: 0.85370 (Simulation time: 0 hr 0 min 22 sec) 
Heartbeat CPU  0 instructions:    9000002 cycles:   10546773 heartbeat IPC: 0.85051 cumulative IPC: 0.85334 (Simulation time: 0 hr 0 min 25 sec) 
Heartbeat CPU  0 instructions:   10000000 cycles:   11720099 heartbeat IPC: 0.85228 cumulative IPC: 0.85324 (Simulation time: 0 hr 0 min 28 sec) 
Heartbeat CPU  0 instructions:   11000003 cycles:   12866425 heartbeat IPC: 0.87235 cumulative IPC: 0.85494 (Simulation time: 0 hr 0 min 31 sec) 
Heartbeat CPU  0 instructions:   12000000 cycles:   13986657 heartbeat IPC: 0.89267 cumulative IPC: 0.85796 (Simulation time: 0 hr 0 min 34 sec) 
Heartbeat CPU  0 instructions:   13000001 cycles:   15137648 heartbeat IPC: 0.86882 cumulative IPC: 0.85879 (Simulation time: 0 hr 0 min 36 sec) 
Heartbeat CPU  0 instructions:   14000000 cycles:   16297364 heartbeat IPC: 0.86228 cumulative IPC: 0.85903 (Simulation time: 0 hr 0 min 39 sec) 
Heartbeat CPU  0 instructions:   15000000 cycles:   17471368 heartbeat IPC: 0.85179 cumulative IPC: 0.85855 (Simulation time: 0 hr 0 min 42 sec) 
Heartbeat CPU  0 instructions:   16000000 cycles:   18647940 heartbeat IPC: 0.84993 cumulative IPC: 0.85800 (Simulation time: 0 hr 0 min 45 sec) 
Heartbeat CPU  0 instructions:   17000001 cycles:   19831651 heartbeat IPC: 0.84480 cumulative IPC: 0.85722 (Simulation time: 0 hr 0 min 48 sec) 
Heartbeat CPU  0 instructions:   18000000 cycles:   21011378 heartbeat IPC: 0.84765 cumulative IPC: 0.85668 (Simulation time: 0 hr 0 min 51 sec) 
Heartbeat CPU  0 instructions:   19000003 cycles:   22175458 heartbeat IPC: 0.85905 cumulative IPC: 0.85680 (Simulation time: 0 hr 0 min 54 sec) 
Heartbeat CPU  0 instructions:   20000000 cycles:   23332602 heartbeat IPC: 0.86419 cumulative IPC: 0.85717 (Simulation time: 0 hr 0 min 56 sec) 
Heartbeat CPU  0 instructions:   21000000 cycles:   24497536 heartbeat IPC: 0.85842 cumulative IPC: 0.85723 (Simulation time: 0 hr 0 min 59 sec) 
Heartbeat CPU  0 instructions:   22000003 cycles:   25667171 heartbeat IPC: 0.85497 cumulative IPC: 0.85713 (Simulation time: 0 hr 1 min 2 sec) 
Heartbeat CPU  0 instructions:   23000001 cycles:   26821217 heartbeat IPC: 0.86651 cumulative IPC: 0.85753 (Simulation time: 0 hr 1 min 5 sec) 
Heartbeat CPU  0 instructions:   24000000 cycles:   27975566 heartbeat IPC: 0.86629 cumulative IPC: 0.85789 (Simulation time: 0 hr 1 min 8 sec) 
Heartbeat CPU  0 instructions:   25000001 cycles:   29129463 heartbeat IPC: 0.86663 cumulative IPC: 0.85824 (Simulation time: 0 hr 1 min 11 sec) 
Heartbeat CPU  0 instructions:   26000000 cycles:   30289565 heartbeat IPC: 0.86199 cumulative IPC: 0.85838 (Simulation time: 0 hr 1 min 14 sec) 
Heartbeat CPU  0 instructions:   27000000 cycles:   31450121 heartbeat IPC: 0.86166 cumulative IPC: 0.85850 (Simulation time: 0 hr 1 min 17 sec) 
Heartbeat CPU  0 instructions:   28000000 cycles:   32588215 heartbeat IPC: 0.87866 cumulative IPC: 0.85921 (Simulation time: 0 hr 1 min 20 sec) 
Heartbeat CPU  0 instructions:   29000000 cycles:   33771061 heartbeat IPC: 0.84542 cumulative IPC: 0.85872 (Simulation time: 0 hr 1 min 23 sec) 
Heartbeat CPU  0 instructions:   30000002 cycles:   34952454 heartbeat IPC: 0.84646 cumulative IPC: 0.85831 (Simulation time: 0 hr 1 min 26 sec) 
Heartbeat CPU  0 instructions:   31000002 cycles:   36140622 heartbeat IPC: 0.84163 cumulative IPC: 0.85776 (Simulation time: 0 hr 1 min 29 sec) 
Heartbeat CPU  0 instructions:   32000000 cycles:   37314845 heartbeat IPC: 0.85163 cumulative IPC: 0.85757 (Simulation time: 0 hr 1 min 32 sec) 
Heartbeat CPU  0 instructions:   33000000 cycles:   38486317 heartbeat IPC: 0.85363 cumulative IPC: 0.85745 (Simulation time: 0 hr 1 min 35 sec) 
Heartbeat CPU  0 instructions:   34000002 cycles:   39653603 heartbeat IPC: 0.85669 cumulative IPC: 0.85743 (Simulation time: 0 hr 1 min 39 sec) 
Heartbeat CPU  0 instructions:   35000000 cycles:   40833467 heartbeat IPC: 0.84755 cumulative IPC: 0.85714 (Simulation time: 0 hr 1 min 42 sec) 
Heartbeat CPU  0 instructions:   36000000 cycles:   42025293 heartbeat IPC: 0.83905 cumulative IPC: 0.85663 (Simulation time: 0 hr 1 min 45 sec) 
Heartbeat CPU  0 instructions:   37000001 cycles:   43210057 heartbeat IPC: 0.84405 cumulative IPC: 0.85628 (Simulation time: 0 hr 1 min 48 sec) 
Heartbeat CPU  0 instructions:   38000000 cycles:   44380922 heartbeat IPC: 0.85407 cumulative IPC: 0.85622 (Simulation time: 0 hr 1 min 51 sec) 
Heartbeat CPU  0 instructions:   39000000 cycles:   45550912 heartbeat IPC: 0.85471 cumulative IPC: 0.85618 (Simulation time: 0 hr 1 min 54 sec) 
Heartbeat CPU  0 instructions:   40000000 cycles:   46715173 heartbeat IPC: 0.85891 cumulative IPC: 0.85625 (Simulation time: 0 hr 1 min 57 sec) 
Heartbeat CPU  0 instructions:   41000001 cycles:   47926076 heartbeat IPC: 0.82583 cumulative IPC: 0.85548 (Simulation time: 0 hr 2 min 1 sec) 
Heartbeat CPU  0 instructions:   42000000 cycles:   49121276 heartbeat IPC: 0.83668 cumulative IPC: 0.85503 (Simulation time: 0 hr 2 min 4 sec) 
Heartbeat CPU  0 instructions:   43000000 cycles:   50309866 heartbeat IPC: 0.84133 cumulative IPC: 0.85470 (Simulation time: 0 hr 2 min 7 sec) 
Heartbeat CPU  0 instructions:   44000000 cycles:   51478621 heartbeat IPC: 0.85561 cumulative IPC: 0.85472 (Simulation time: 0 hr 2 min 10 sec) 
Heartbeat CPU  0 instructions:   45000000 cycles:   52646745 heartbeat IPC: 0.85607 cumulative IPC: 0.85475 (Simulation time: 0 hr 2 min 13 sec) 
Heartbeat CPU  0 instructions:   46000002 cycles:   53790100 heartbeat IPC: 0.87462 cumulative IPC: 0.85518 (Simulation time: 0 hr 2 min 16 sec) 
Heartbeat CPU  0 instructions:   47000000 cycles:   54953940 heartbeat IPC: 0.85922 cumulative IPC: 0.85526 (Simulation time: 0 hr 2 min 19 sec) 
Heartbeat CPU  0 instructions:   48000000 cycles:   56115343 heartbeat IPC: 0.86103 cumulative IPC: 0.85538 (Simulation time: 0 hr 2 min 22 sec) 
Heartbeat CPU  0 instructions:   49000001 cycles:   57281738 heartbeat IPC: 0.85734 cumulative IPC: 0.85542 (Simulation time: 0 hr 2 min 26 sec) 
Heartbeat CPU  0 instructions:   50000002 cycles:   58429531 heartbeat IPC: 0.87124 cumulative IPC: 0.85573 (Simulation time: 0 hr 2 min 29 sec) 
Heartbeat CPU  0 instructions:   51000000 cycles:   59572774 heartbeat IPC: 0.87470 cumulative IPC: 0.85610 (Simulation time: 0 hr 2 min 32 sec) 
Heartbeat CPU  0 instructions:   52000000 cycles:   60711264 heartbeat IPC: 0.87836 cumulative IPC: 0.85651 (Simulation time: 0 hr 2 min 35 sec) 
Heartbeat CPU  0 instructions:   53000001 cycles:   61847235 heartbeat IPC: 0.88031 cumulative IPC: 0.85695 (Simulation time: 0 hr 2 min 38 sec) 
Heartbeat CPU  0 instructions:   54000000 cycles:   62983027 heartbeat IPC: 0.88044 cumulative IPC: 0.85737 (Simulation time: 0 hr 2 min 41 sec) 
Heartbeat CPU  0 instructions:   55000001 cycles:   64118963 heartbeat IPC: 0.88033 cumulative IPC: 0.85778 (Simulation time: 0 hr 2 min 44 sec) 
Heartbeat CPU  0 instructions:   56000000 cycles:   65279025 heartbeat IPC: 0.86202 cumulative IPC: 0.85786 (Simulation time: 0 hr 2 min 47 sec) 
Heartbeat CPU  0 instructions:   57000000 cycles:   66428445 heartbeat IPC: 0.87000 cumulative IPC: 0.85807 (Simulation time: 0 hr 2 min 50 sec) 
Heartbeat CPU  0 instructions:   58000003 cycles:   67586685 heartbeat IPC: 0.86338 cumulative IPC: 0.85816 (Simulation time: 0 hr 2 min 53 sec) 
Heartbeat CPU  0 instructions:   59000003 cycles:   68755646 heartbeat IPC: 0.85546 cumulative IPC: 0.85811 (Simulation time: 0 hr 2 min 57 sec) 
Heartbeat CPU  0 instructions:   60000000 cycles:   69932097 heartbeat IPC: 0.85001 cumulative IPC: 0.85798 (Simulation time: 0 hr 3 min 0 sec) 
Heartbeat CPU  0 instructions:   61000002 cycles:   71120429 heartbeat IPC: 0.84152 cumulative IPC: 0.85770 (Simulation time: 0 hr 3 min 3 sec) 
Heartbeat CPU  0 instructions:   62000000 cycles:   72308706 heartbeat IPC: 0.84155 cumulative IPC: 0.85743 (Simulation time: 0 hr 3 min 6 sec) 
Heartbeat CPU  0 instructions:   63000000 cycles:   73509112 heartbeat IPC: 0.83305 cumulative IPC: 0.85704 (Simulation time: 0 hr 3 min 9 sec) 
Heartbeat CPU  0 instructions:   64000000 cycles:   74713642 heartbeat IPC: 0.83020 cumulative IPC: 0.85660 (Simulation time: 0 hr 3 min 12 sec) 
Heartbeat CPU  0 instructions:   65000000 cycles:   75921708 heartbeat IPC: 0.82777 cumulative IPC: 0.85615 (Simulation time: 0 hr 3 min 15 sec) 
Heartbeat CPU  0 instructions:   66000002 cycles:   77126348 heartbeat IPC: 0.83013 cumulative IPC: 0.85574 (Simulation time: 0 hr 3 min 18 sec) 
Heartbeat CPU  0 instructions:   67000001 cycles:   78317736 heartbeat IPC: 0.83936 cumulative IPC: 0.85549 (Simulation time: 0 hr 3 min 21 sec) 
Heartbeat CPU  0 instructions:   68000000 cycles:   79505507 heartbeat IPC: 0.84191 cumulative IPC: 0.85529 (Simulation time: 0 hr 3 min 24 sec) 
Heartbeat CPU  0 instructions:   69000001 cycles:   80692465 heartbeat IPC: 0.84249 cumulative IPC: 0.85510 (Simulation time: 0 hr 3 min 26 sec) 
Heartbeat CPU  0 instructions:   70000001 cycles:   81877614 heartbeat IPC: 0.84378 cumulative IPC: 0.85493 (Simulation time: 0 hr 3 min 29 sec) 
Heartbeat CPU  0 instructions:   71000003 cycles:   83058589 heartbeat IPC: 0.84676 cumulative IPC: 0.85482 (Simulation time: 0 hr 3 min 32 sec) 
Heartbeat CPU  0 instructions:   72000000 cycles:   84231554 heartbeat IPC: 0.85254 cumulative IPC: 0.85479 (Simulation time: 0 hr 3 min 35 sec) 
Heartbeat CPU  0 instructions:   73000000 cycles:   85417323 heartbeat IPC: 0.84333 cumulative IPC: 0.85463 (Simulation time: 0 hr 3 min 38 sec) 
Heartbeat CPU  0 instructions:   74000000 cycles:   86606194 heartbeat IPC: 0.84113 cumulative IPC: 0.85444 (Simulation time: 0 hr 3 min 41 sec) 
Heartbeat CPU  0 instructions:   75000001 cycles:   87766826 heartbeat IPC: 0.86160 cumulative IPC: 0.85454 (Simulation time: 0 hr 3 min 43 sec) 
Heartbeat CPU  0 instructions:   76000000 cycles:   88829288 heartbeat IPC: 0.94121 cumulative IPC: 0.85557 (Simulation time: 0 hr 3 min 46 sec) 
Heartbeat CPU  0 instructions:   77000000 cycles:   89811743 heartbeat IPC: 1.01786 cumulative IPC: 0.85735 (Simulation time: 0 hr 3 min 49 sec) 
Heartbeat CPU  0 instructions:   78000001 cycles:   91004751 heartbeat IPC: 0.83822 cumulative IPC: 0.85710 (Simulation time: 0 hr 3 min 52 sec) 
Heartbeat CPU  0 instructions:   79000003 cycles:   92202383 heartbeat IPC: 0.83498 cumulative IPC: 0.85681 (Simulation time: 0 hr 3 min 55 sec) 
Heartbeat CPU  0 instructions:   80000000 cycles:   93406417 heartbeat IPC: 0.83054 cumulative IPC: 0.85647 (Simulation time: 0 hr 3 min 57 sec) 
Heartbeat CPU  0 instructions:   81000003 cycles:   94591321 heartbeat IPC: 0.84395 cumulative IPC: 0.85632 (Simulation time: 0 hr 4 min 0 sec) 
Heartbeat CPU  0 instructions:   82000003 cycles:   95776552 heartbeat IPC: 0.84372 cumulative IPC: 0.85616 (Simulation time: 0 hr 4 min 3 sec) 
Heartbeat CPU  0 instructions:   83000003 cycles:   96953186 heartbeat IPC: 0.84988 cumulative IPC: 0.85608 (Simulation time: 0 hr 4 min 6 sec) 
Heartbeat CPU  0 instructions:   84000000 cycles:   98121172 heartbeat IPC: 0.85617 cumulative IPC: 0.85608 (Simulation time: 0 hr 4 min 9 sec) 
Heartbeat CPU  0 instructions:   85000001 cycles:   99291267 heartbeat IPC: 0.85463 cumulative IPC: 0.85607 (Simulation time: 0 hr 4 min 12 sec) 
Heartbeat CPU  0 instructions:   86000000 cycles:  100442689 heartbeat IPC: 0.86849 cumulative IPC: 0.85621 (Simulation time: 0 hr 4 min 15 sec) 
Heartbeat CPU  0 instructions:   87000001 cycles:  101614444 heartbeat IPC: 0.85342 cumulative IPC: 0.85618 (Simulation time: 0 hr 4 min 18 sec) 
Heartbeat CPU  0 instructions:   88000000 cycles:  102763205 heartbeat IPC: 0.87050 cumulative IPC: 0.85634 (Simulation time: 0 hr 4 min 20 sec) 
Heartbeat CPU  0 instructions:   89000000 cycles:  103939780 heartbeat IPC: 0.84992 cumulative IPC: 0.85627 (Simulation time: 0 hr 4 min 23 sec) 
Heartbeat CPU  0 instructions:   90000000 cycles:  105076889 heartbeat IPC: 0.87942 cumulative IPC: 0.85652 (Simulation time: 0 hr 4 min 26 sec) 
Heartbeat CPU  0 instructions:   91000003 cycles:  106208972 heartbeat IPC: 0.88333 cumulative IPC: 0.85680 (Simulation time: 0 hr 4 min 29 sec) 
Heartbeat CPU  0 instructions:   92000000 cycles:  107339234 heartbeat IPC: 0.88475 cumulative IPC: 0.85710 (Simulation time: 0 hr 4 min 32 sec) 
Heartbeat CPU  0 instructions:   93000002 cycles:  108468997 heartbeat IPC: 0.88514 cumulative IPC: 0.85739 (Simulation time: 0 hr 4 min 35 sec) 
Heartbeat CPU  0 instructions:   94000001 cycles:  109606052 heartbeat IPC: 0.87946 cumulative IPC: 0.85762 (Simulation time: 0 hr 4 min 38 sec) 
Heartbeat CPU  0 instructions:   95000001 cycles:  110770832 heartbeat IPC: 0.85853 cumulative IPC: 0.85763 (Simulation time: 0 hr 4 min 41 sec) 
Heartbeat CPU  0 instructions:   96000000 cycles:  111938206 heartbeat IPC: 0.85662 cumulative IPC: 0.85762 (Simulation time: 0 hr 4 min 44 sec) 
Heartbeat CPU  0 instructions:   97000000 cycles:  113104643 heartbeat IPC: 0.85731 cumulative IPC: 0.85761 (Simulation time: 0 hr 4 min 47 sec) 
Heartbeat CPU  0 instructions:   98000001 cycles:  114259863 heartbeat IPC: 0.86564 cumulative IPC: 0.85769 (Simulation time: 0 hr 4 min 49 sec) 
Heartbeat CPU  0 instructions:   99000000 cycles:  115432274 heartbeat IPC: 0.85294 cumulative IPC: 0.85765 (Simulation time: 0 hr 4 min 52 sec) 
Heartbeat CPU  0 instructions:  100000000 cycles:  116585575 heartbeat IPC: 0.86708 cumulative IPC: 0.85774 (Simulation time: 0 hr 4 min 55 sec) 

Warmup complete CPU  0 instructions:  100000002 cycles:  116585576 (Simulation time: 0 hr 4 min 55 sec) 

Heartbeat CPU  0 instructions:  101000000 cycles:  136737013 heartbeat IPC: 0.04962 cumulative IPC: 0.04962 (Simulation time: 0 hr 5 min 5 sec) 
Heartbeat CPU  0 instructions:  102000000 cycles:  156976560 heartbeat IPC: 0.04941 cumulative IPC: 0.04952 (Simulation time: 0 hr 5 min 15 sec) 
Heartbeat CPU  0 instructions:  103000000 cycles:  176896409 heartbeat IPC: 0.05020 cumulative IPC: 0.04974 (Simulation time: 0 hr 5 min 24 sec) 
Heartbeat CPU  0 instructions:  104000000 cycles:  197154888 heartbeat IPC: 0.04936 cumulative IPC: 0.04965 (Simulation time: 0 hr 5 min 34 sec) 
Heartbeat CPU  0 instructions:  105000000 cycles:  217612788 heartbeat IPC: 0.04888 cumulative IPC: 0.04949 (Simulation time: 0 hr 5 min 43 sec) 
Heartbeat CPU  0 instructions:  106000000 cycles:  238024337 heartbeat IPC: 0.04899 cumulative IPC: 0.04941 (Simulation time: 0 hr 5 min 53 sec) 
Heartbeat CPU  0 instructions:  107000001 cycles:  258268545 heartbeat IPC: 0.04940 cumulative IPC: 0.04941 (Simulation time: 0 hr 6 min 3 sec) 
Heartbeat CPU  0 instructions:  108000000 cycles:  278719866 heartbeat IPC: 0.04890 cumulative IPC: 0.04934 (Simulation time: 0 hr 6 min 13 sec) 
Heartbeat CPU  0 instructions:  109000000 cycles:  298910460 heartbeat IPC: 0.04953 cumulative IPC: 0.04936 (Simulation time: 0 hr 6 min 22 sec) 
Heartbeat CPU  0 instructions:  110000000 cycles:  319482269 heartbeat IPC: 0.04861 cumulative IPC: 0.04929 (Simulation time: 0 hr 6 min 32 sec) 
Heartbeat CPU  0 instructions:  111000001 cycles:  339803653 heartbeat IPC: 0.04921 cumulative IPC: 0.04928 (Simulation time: 0 hr 6 min 42 sec) 
Heartbeat CPU  0 instructions:  112000000 cycles:  360401076 heartbeat IPC: 0.04855 cumulative IPC: 0.04922 (Simulation time: 0 hr 6 min 52 sec) 
Heartbeat CPU  0 instructions:  113000000 cycles:  380811237 heartbeat IPC: 0.04900 cumulative IPC: 0.04920 (Simulation time: 0 hr 7 min 1 sec) 
Heartbeat CPU  0 instructions:  114000000 cycles:  401217617 heartbeat IPC: 0.04900 cumulative IPC: 0.04919 (Simulation time: 0 hr 7 min 11 sec) 
Heartbeat CPU  0 instructions:  115000001 cycles:  421738372 heartbeat IPC: 0.04873 cumulative IPC: 0.04916 (Simulation time: 0 hr 7 min 21 sec) 
Heartbeat CPU  0 instructions:  116000000 cycles:  442170445 heartbeat IPC: 0.04894 cumulative IPC: 0.04914 (Simulation time: 0 hr 7 min 31 sec) 
Heartbeat CPU  0 instructions:  117000000 cycles:  462569254 heartbeat IPC: 0.04902 cumulative IPC: 0.04914 (Simulation time: 0 hr 7 min 40 sec) 
Heartbeat CPU  0 instructions:  118000000 cycles:  483133947 heartbeat IPC: 0.04863 cumulative IPC: 0.04911 (Simulation time: 0 hr 7 min 50 sec) 
Heartbeat CPU  0 instructions:  119000002 cycles:  503598814 heartbeat IPC: 0.04886 cumulative IPC: 0.04909 (Simulation time: 0 hr 8 min 0 sec) 
Heartbeat CPU  0 instructions:  120000000 cycles:  523920764 heartbeat IPC: 0.04921 cumulative IPC: 0.04910 (Simulation time: 0 hr 8 min 10 sec) 
Heartbeat CPU  0 instructions:  121000000 cycles:  543976283 heartbeat IPC: 0.04986 cumulative IPC: 0.04914 (Simulation time: 0 hr 8 min 19 sec) 
Heartbeat CPU  0 instructions:  122000000 cycles:  564428913 heartbeat IPC: 0.04889 cumulative IPC: 0.04912 (Simulation time: 0 hr 8 min 29 sec) 
Heartbeat CPU  0 instructions:  123000000 cycles:  584765650 heartbeat IPC: 0.04917 cumulative IPC: 0.04913 (Simulation time: 0 hr 8 min 38 sec) 
Heartbeat CPU  0 instructions:  124000000 cycles:  605269182 heartbeat IPC: 0.04877 cumulative IPC: 0.04911 (Simulation time: 0 hr 8 min 48 sec) 
Heartbeat CPU  0 instructions:  125000000 cycles:  625590422 heartbeat IPC: 0.04921 cumulative IPC: 0.04912 (Simulation time: 0 hr 8 min 58 sec) 
Heartbeat CPU  0 instructions:  126000001 cycles:  645846229 heartbeat IPC: 0.04937 cumulative IPC: 0.04913 (Simulation time: 0 hr 9 min 8 sec) 
Heartbeat CPU  0 instructions:  127000001 cycles:  665950312 heartbeat IPC: 0.04974 cumulative IPC: 0.04915 (Simulation time: 0 hr 9 min 17 sec) 
Heartbeat CPU  0 instructions:  128000000 cycles:  685845510 heartbeat IPC: 0.05026 cumulative IPC: 0.04919 (Simulation time: 0 hr 9 min 27 sec) 
Heartbeat CPU  0 instructions:  129000002 cycles:  705594817 heartbeat IPC: 0.05063 cumulative IPC: 0.04924 (Simulation time: 0 hr 9 min 37 sec) 
Heartbeat CPU  0 instructions:  130000001 cycles:  725516648 heartbeat IPC: 0.05020 cumulative IPC: 0.04927 (Simulation time: 0 hr 9 min 47 sec) 
Heartbeat CPU  0 instructions:  131000001 cycles:  745306318 heartbeat IPC: 0.05053 cumulative IPC: 0.04931 (Simulation time: 0 hr 9 min 56 sec) 
Heartbeat CPU  0 instructions:  132000000 cycles:  765195962 heartbeat IPC: 0.05028 cumulative IPC: 0.04934 (Simulation time: 0 hr 10 min 6 sec) 
Heartbeat CPU  0 instructions:  133000000 cycles:  785079837 heartbeat IPC: 0.05029 cumulative IPC: 0.04936 (Simulation time: 0 hr 10 min 15 sec) 
Heartbeat CPU  0 instructions:  134000001 cycles:  804625776 heartbeat IPC: 0.05116 cumulative IPC: 0.04942 (Simulation time: 0 hr 10 min 25 sec) 
Heartbeat CPU  0 instructions:  135000000 cycles:  824347539 heartbeat IPC: 0.05071 cumulative IPC: 0.04945 (Simulation time: 0 hr 10 min 35 sec) 
Heartbeat CPU  0 instructions:  136000000 cycles:  843875330 heartbeat IPC: 0.05121 cumulative IPC: 0.04950 (Simulation time: 0 hr 10 min 44 sec) 
Heartbeat CPU  0 instructions:  137000000 cycles:  864012524 heartbeat IPC: 0.04966 cumulative IPC: 0.04950 (Simulation time: 0 hr 10 min 54 sec) 
Heartbeat CPU  0 instructions:  138000000 cycles:  883555700 heartbeat IPC: 0.05117 cumulative IPC: 0.04955 (Simulation time: 0 hr 11 min 3 sec) 
Heartbeat CPU  0 instructions:  139000000 cycles:  903362923 heartbeat IPC: 0.05049 cumulative IPC: 0.04957 (Simulation time: 0 hr 11 min 13 sec) 
Heartbeat CPU  0 instructions:  140000000 cycles:  923574879 heartbeat IPC: 0.04948 cumulative IPC: 0.04957 (Simulation time: 0 hr 11 min 22 sec) 
Heartbeat CPU  0 instructions:  141000000 cycles:  943546173 heartbeat IPC: 0.05007 cumulative IPC: 0.04958 (Simulation time: 0 hr 11 min 32 sec) 
Heartbeat CPU  0 instructions:  142000001 cycles:  963434101 heartbeat IPC: 0.05028 cumulative IPC: 0.04960 (Simulation time: 0 hr 11 min 42 sec) 
Heartbeat CPU  0 instructions:  143000003 cycles:  983363176 heartbeat IPC: 0.05018 cumulative IPC: 0.04961 (Simulation time: 0 hr 11 min 51 sec) 
Heartbeat CPU  0 instructions:  144000000 cycles: 1003355066 heartbeat IPC: 0.05002 cumulative IPC: 0.04962 (Simulation time: 0 hr 12 min 1 sec) 
Heartbeat CPU  0 instructions:  145000000 cycles: 1023505834 heartbeat IPC: 0.04963 cumulative IPC: 0.04962 (Simulation time: 0 hr 12 min 11 sec) 
Heartbeat CPU  0 instructions:  146000001 cycles: 1043765972 heartbeat IPC: 0.04936 cumulative IPC: 0.04961 (Simulation time: 0 hr 12 min 20 sec) 
Heartbeat CPU  0 instructions:  147000002 cycles: 1063926971 heartbeat IPC: 0.04960 cumulative IPC: 0.04961 (Simulation time: 0 hr 12 min 30 sec) 
Heartbeat CPU  0 instructions:  148000000 cycles: 1084138224 heartbeat IPC: 0.04948 cumulative IPC: 0.04961 (Simulation time: 0 hr 12 min 40 sec) 
Heartbeat CPU  0 instructions:  149000000 cycles: 1104460350 heartbeat IPC: 0.04921 cumulative IPC: 0.04960 (Simulation time: 0 hr 12 min 50 sec) 
Heartbeat CPU  0 instructions:  150000000 cycles: 1124810641 heartbeat IPC: 0.04914 cumulative IPC: 0.04959 (Simulation time: 0 hr 12 min 59 sec) 
Heartbeat CPU  0 instructions:  151000000 cycles: 1145371158 heartbeat IPC: 0.04864 cumulative IPC: 0.04957 (Simulation time: 0 hr 13 min 9 sec) 
Heartbeat CPU  0 instructions:  152000000 cycles: 1165612503 heartbeat IPC: 0.04940 cumulative IPC: 0.04957 (Simulation time: 0 hr 13 min 19 sec) 
Heartbeat CPU  0 instructions:  153000000 cycles: 1184624364 heartbeat IPC: 0.05260 cumulative IPC: 0.04962 (Simulation time: 0 hr 13 min 28 sec) 
Heartbeat CPU  0 instructions:  154000000 cycles: 1205092733 heartbeat IPC: 0.04886 cumulative IPC: 0.04961 (Simulation time: 0 hr 13 min 37 sec) 
Heartbeat CPU  0 instructions:  155000000 cycles: 1225677727 heartbeat IPC: 0.04858 cumulative IPC: 0.04959 (Simulation time: 0 hr 13 min 47 sec) 
Heartbeat CPU  0 instructions:  156000000 cycles: 1246126549 heartbeat IPC: 0.04890 cumulative IPC: 0.04958 (Simulation time: 0 hr 13 min 57 sec) 
Heartbeat CPU  0 instructions:  157000000 cycles: 1266616984 heartbeat IPC: 0.04880 cumulative IPC: 0.04956 (Simulation time: 0 hr 14 min 6 sec) 
Heartbeat CPU  0 instructions:  158000000 cycles: 1287070722 heartbeat IPC: 0.04889 cumulative IPC: 0.04955 (Simulation time: 0 hr 14 min 16 sec) 
Heartbeat CPU  0 instructions:  159000000 cycles: 1307610713 heartbeat IPC: 0.04869 cumulative IPC: 0.04954 (Simulation time: 0 hr 14 min 26 sec) 
Heartbeat CPU  0 instructions:  160000000 cycles: 1328194059 heartbeat IPC: 0.04858 cumulative IPC: 0.04952 (Simulation time: 0 hr 14 min 36 sec) 
Heartbeat CPU  0 instructions:  161000001 cycles: 1348705869 heartbeat IPC: 0.04875 cumulative IPC: 0.04951 (Simulation time: 0 hr 14 min 46 sec) 
Heartbeat CPU  0 instructions:  162000000 cycles: 1369307714 heartbeat IPC: 0.04854 cumulative IPC: 0.04949 (Simulation time: 0 hr 14 min 55 sec) 
Heartbeat CPU  0 instructions:  163000002 cycles: 1389890168 heartbeat IPC: 0.04859 cumulative IPC: 0.04948 (Simulation time: 0 hr 15 min 6 sec) 
Heartbeat CPU  0 instructions:  164000000 cycles: 1410434270 heartbeat IPC: 0.04868 cumulative IPC: 0.04946 (Simulation time: 0 hr 15 min 16 sec) 
Heartbeat CPU  0 instructions:  165000001 cycles: 1430834334 heartbeat IPC: 0.04902 cumulative IPC: 0.04946 (Simulation time: 0 hr 15 min 26 sec) 
Heartbeat CPU  0 instructions:  166000000 cycles: 1451367534 heartbeat IPC: 0.04870 cumulative IPC: 0.04945 (Simulation time: 0 hr 15 min 36 sec) 
Heartbeat CPU  0 instructions:  167000000 cycles: 1472163334 heartbeat IPC: 0.04809 cumulative IPC: 0.04943 (Simulation time: 0 hr 15 min 46 sec) 
Heartbeat CPU  0 instructions:  168000000 cycles: 1492786641 heartbeat IPC: 0.04849 cumulative IPC: 0.04941 (Simulation time: 0 hr 15 min 55 sec) 
Heartbeat CPU  0 instructions:  169000000 cycles: 1513378313 heartbeat IPC: 0.04856 cumulative IPC: 0.04940 (Simulation time: 0 hr 16 min 5 sec) 
Heartbeat CPU  0 instructions:  170000000 cycles: 1534099342 heartbeat IPC: 0.04826 cumulative IPC: 0.04938 (Simulation time: 0 hr 16 min 15 sec) 
Heartbeat CPU  0 instructions:  171000000 cycles: 1554798984 heartbeat IPC: 0.04831 cumulative IPC: 0.04937 (Simulation time: 0 hr 16 min 25 sec) 
Heartbeat CPU  0 instructions:  172000000 cycles: 1575401756 heartbeat IPC: 0.04854 cumulative IPC: 0.04936 (Simulation time: 0 hr 16 min 35 sec) 
Heartbeat CPU  0 instructions:  173000000 cycles: 1595794182 heartbeat IPC: 0.04904 cumulative IPC: 0.04935 (Simulation time: 0 hr 16 min 45 sec) 
Heartbeat CPU  0 instructions:  174000002 cycles: 1615893881 heartbeat IPC: 0.04975 cumulative IPC: 0.04936 (Simulation time: 0 hr 16 min 55 sec) 
Heartbeat CPU  0 instructions:  175000001 cycles: 1636057026 heartbeat IPC: 0.04960 cumulative IPC: 0.04936 (Simulation time: 0 hr 17 min 5 sec) 
Heartbeat CPU  0 instructions:  176000000 cycles: 1656186650 heartbeat IPC: 0.04968 cumulative IPC: 0.04936 (Simulation time: 0 hr 17 min 14 sec) 
Heartbeat CPU  0 instructions:  177000002 cycles: 1676370851 heartbeat IPC: 0.04954 cumulative IPC: 0.04937 (Simulation time: 0 hr 17 min 24 sec) 
Heartbeat CPU  0 instructions:  178000003 cycles: 1696738938 heartbeat IPC: 0.04910 cumulative IPC: 0.04936 (Simulation time: 0 hr 17 min 34 sec) 
Heartbeat CPU  0 instructions:  179000001 cycles: 1716980574 heartbeat IPC: 0.04940 cumulative IPC: 0.04936 (Simulation time: 0 hr 17 min 44 sec) 
Heartbeat CPU  0 instructions:  180000000 cycles: 1737370987 heartbeat IPC: 0.04904 cumulative IPC: 0.04936 (Simulation time: 0 hr 17 min 53 sec) 
Heartbeat CPU  0 instructions:  181000000 cycles: 1757920346 heartbeat IPC: 0.04866 cumulative IPC: 0.04935 (Simulation time: 0 hr 18 min 3 sec) 
Heartbeat CPU  0 instructions:  182000000 cycles: 1778403275 heartbeat IPC: 0.04882 cumulative IPC: 0.04934 (Simulation time: 0 hr 18 min 13 sec) 
Heartbeat CPU  0 instructions:  183000002 cycles: 1798754943 heartbeat IPC: 0.04914 cumulative IPC: 0.04934 (Simulation time: 0 hr 18 min 23 sec) 
Heartbeat CPU  0 instructions:  184000000 cycles: 1819296910 heartbeat IPC: 0.04868 cumulative IPC: 0.04933 (Simulation time: 0 hr 18 min 33 sec) 
Heartbeat CPU  0 instructions:  185000001 cycles: 1839453291 heartbeat IPC: 0.04961 cumulative IPC: 0.04934 (Simulation time: 0 hr 18 min 42 sec) 
Heartbeat CPU  0 instructions:  186000000 cycles: 1859723795 heartbeat IPC: 0.04933 cumulative IPC: 0.04934 (Simulation time: 0 hr 18 min 52 sec) 
Heartbeat CPU  0 instructions:  187000000 cycles: 1879862451 heartbeat IPC: 0.04966 cumulative IPC: 0.04934 (Simulation time: 0 hr 19 min 2 sec) 
Heartbeat CPU  0 instructions:  188000000 cycles: 1900570767 heartbeat IPC: 0.04829 cumulative IPC: 0.04933 (Simulation time: 0 hr 19 min 11 sec) 
Heartbeat CPU  0 instructions:  189000000 cycles: 1921179814 heartbeat IPC: 0.04852 cumulative IPC: 0.04932 (Simulation time: 0 hr 19 min 21 sec) 
Heartbeat CPU  0 instructions:  190000000 cycles: 1941733632 heartbeat IPC: 0.04865 cumulative IPC: 0.04931 (Simulation time: 0 hr 19 min 31 sec) 
Heartbeat CPU  0 instructions:  191000000 cycles: 1962312795 heartbeat IPC: 0.04859 cumulative IPC: 0.04930 (Simulation time: 0 hr 19 min 41 sec) 
Heartbeat CPU  0 instructions:  192000000 cycles: 1982842305 heartbeat IPC: 0.04871 cumulative IPC: 0.04930 (Simulation time: 0 hr 19 min 51 sec) 
Heartbeat CPU  0 instructions:  193000001 cycles: 2003257348 heartbeat IPC: 0.04898 cumulative IPC: 0.04929 (Simulation time: 0 hr 20 min 0 sec) 
Heartbeat CPU  0 instructions:  194000001 cycles: 2023808699 heartbeat IPC: 0.04866 cumulative IPC: 0.04929 (Simulation time: 0 hr 20 min 10 sec) 
Heartbeat CPU  0 instructions:  195000000 cycles: 2044303578 heartbeat IPC: 0.04879 cumulative IPC: 0.04928 (Simulation time: 0 hr 20 min 20 sec) 
Heartbeat CPU  0 instructions:  196000000 cycles: 2064902253 heartbeat IPC: 0.04855 cumulative IPC: 0.04927 (Simulation time: 0 hr 20 min 30 sec) 
Heartbeat CPU  0 instructions:  197000000 cycles: 2085400221 heartbeat IPC: 0.04879 cumulative IPC: 0.04927 (Simulation time: 0 hr 20 min 40 sec) 
Heartbeat CPU  0 instructions:  198000001 cycles: 2105956235 heartbeat IPC: 0.04865 cumulative IPC: 0.04926 (Simulation time: 0 hr 20 min 49 sec) 
Heartbeat CPU  0 instructions:  199000001 cycles: 2126377555 heartbeat IPC: 0.04897 cumulative IPC: 0.04926 (Simulation time: 0 hr 20 min 59 sec) 
Heartbeat CPU  0 instructions:  200000000 cycles: 2147022505 heartbeat IPC: 0.04844 cumulative IPC: 0.04925 (Simulation time: 0 hr 21 min 9 sec) 
Heartbeat CPU  0 instructions:  201000000 cycles: 2167601306 heartbeat IPC: 0.04859 cumulative IPC: 0.04924 (Simulation time: 0 hr 21 min 19 sec) 
Heartbeat CPU  0 instructions:  202000000 cycles: 2188033497 heartbeat IPC: 0.04894 cumulative IPC: 0.04924 (Simulation time: 0 hr 21 min 29 sec) 
Heartbeat CPU  0 instructions:  203000003 cycles: 2208424287 heartbeat IPC: 0.04904 cumulative IPC: 0.04924 (Simulation time: 0 hr 21 min 39 sec) 
Heartbeat CPU  0 instructions:  204000000 cycles: 2228573553 heartbeat IPC: 0.04963 cumulative IPC: 0.04924 (Simulation time: 0 hr 21 min 48 sec) 
Heartbeat CPU  0 instructions:  205000000 cycles: 2248783866 heartbeat IPC: 0.04948 cumulative IPC: 0.04924 (Simulation time: 0 hr 21 min 58 sec) 
Heartbeat CPU  0 instructions:  206000002 cycles: 2269093448 heartbeat IPC: 0.04924 cumulative IPC: 0.04924 (Simulation time: 0 hr 22 min 8 sec) 
Heartbeat CPU  0 instructions:  207000000 cycles: 2289368301 heartbeat IPC: 0.04932 cumulative IPC: 0.04925 (Simulation time: 0 hr 22 min 17 sec) 
Heartbeat CPU  0 instructions:  208000000 cycles: 2309524757 heartbeat IPC: 0.04961 cumulative IPC: 0.04925 (Simulation time: 0 hr 22 min 27 sec) 
Heartbeat CPU  0 instructions:  209000002 cycles: 2329784233 heartbeat IPC: 0.04936 cumulative IPC: 0.04925 (Simulation time: 0 hr 22 min 37 sec) 
Heartbeat CPU  0 instructions:  210000002 cycles: 2350180710 heartbeat IPC: 0.04903 cumulative IPC: 0.04925 (Simulation time: 0 hr 22 min 47 sec) 
Heartbeat CPU  0 instructions:  211000000 cycles: 2370404347 heartbeat IPC: 0.04945 cumulative IPC: 0.04925 (Simulation time: 0 hr 22 min 56 sec) 
Heartbeat CPU  0 instructions:  212000000 cycles: 2390720510 heartbeat IPC: 0.04922 cumulative IPC: 0.04925 (Simulation time: 0 hr 23 min 6 sec) 
Heartbeat CPU  0 instructions:  213000000 cycles: 2411222592 heartbeat IPC: 0.04878 cumulative IPC: 0.04925 (Simulation time: 0 hr 23 min 16 sec) 
Heartbeat CPU  0 instructions:  214000000 cycles: 2431621542 heartbeat IPC: 0.04902 cumulative IPC: 0.04924 (Simulation time: 0 hr 23 min 26 sec) 
Heartbeat CPU  0 instructions:  215000000 cycles: 2452022216 heartbeat IPC: 0.04902 cumulative IPC: 0.04924 (Simulation time: 0 hr 23 min 35 sec) 
Heartbeat CPU  0 instructions:  216000000 cycles: 2472467193 heartbeat IPC: 0.04891 cumulative IPC: 0.04924 (Simulation time: 0 hr 23 min 45 sec) 
Heartbeat CPU  0 instructions:  217000000 cycles: 2492819424 heartbeat IPC: 0.04913 cumulative IPC: 0.04924 (Simulation time: 0 hr 23 min 55 sec) 
Heartbeat CPU  0 instructions:  218000003 cycles: 2513185778 heartbeat IPC: 0.04910 cumulative IPC: 0.04924 (Simulation time: 0 hr 24 min 5 sec) 
Heartbeat CPU  0 instructions:  219000001 cycles: 2533680013 heartbeat IPC: 0.04879 cumulative IPC: 0.04923 (Simulation time: 0 hr 24 min 15 sec) 
Heartbeat CPU  0 instructions:  220000000 cycles: 2553943553 heartbeat IPC: 0.04935 cumulative IPC: 0.04923 (Simulation time: 0 hr 24 min 24 sec) 
Heartbeat CPU  0 instructions:  221000000 cycles: 2574136999 heartbeat IPC: 0.04952 cumulative IPC: 0.04924 (Simulation time: 0 hr 24 min 34 sec) 
Heartbeat CPU  0 instructions:  222000000 cycles: 2594543382 heartbeat IPC: 0.04900 cumulative IPC: 0.04923 (Simulation time: 0 hr 24 min 44 sec) 
Heartbeat CPU  0 instructions:  223000000 cycles: 2614738941 heartbeat IPC: 0.04952 cumulative IPC: 0.04924 (Simulation time: 0 hr 24 min 53 sec) 
Heartbeat CPU  0 instructions:  224000000 cycles: 2634720272 heartbeat IPC: 0.05005 cumulative IPC: 0.04924 (Simulation time: 0 hr 25 min 3 sec) 
Heartbeat CPU  0 instructions:  225000000 cycles: 2655034328 heartbeat IPC: 0.04923 cumulative IPC: 0.04924 (Simulation time: 0 hr 25 min 13 sec) 
Heartbeat CPU  0 instructions:  226000001 cycles: 2675361851 heartbeat IPC: 0.04919 cumulative IPC: 0.04924 (Simulation time: 0 hr 25 min 22 sec) 
Heartbeat CPU  0 instructions:  227000002 cycles: 2695664426 heartbeat IPC: 0.04925 cumulative IPC: 0.04924 (Simulation time: 0 hr 25 min 32 sec) 
Heartbeat CPU  0 instructions:  228000000 cycles: 2715899546 heartbeat IPC: 0.04942 cumulative IPC: 0.04924 (Simulation time: 0 hr 25 min 42 sec) 
Heartbeat CPU  0 instructions:  229000000 cycles: 2735697633 heartbeat IPC: 0.05051 cumulative IPC: 0.04925 (Simulation time: 0 hr 25 min 51 sec) 
Heartbeat CPU  0 instructions:  230000001 cycles: 2755496178 heartbeat IPC: 0.05051 cumulative IPC: 0.04926 (Simulation time: 0 hr 26 min 1 sec) 
Heartbeat CPU  0 instructions:  231000000 cycles: 2775420118 heartbeat IPC: 0.05019 cumulative IPC: 0.04927 (Simulation time: 0 hr 26 min 10 sec) 
Heartbeat CPU  0 instructions:  232000000 cycles: 2794667425 heartbeat IPC: 0.05196 cumulative IPC: 0.04929 (Simulation time: 0 hr 26 min 20 sec) 
Heartbeat CPU  0 instructions:  233000000 cycles: 2814418732 heartbeat IPC: 0.05063 cumulative IPC: 0.04930 (Simulation time: 0 hr 26 min 29 sec) 
Heartbeat CPU  0 instructions:  234000000 cycles: 2834089584 heartbeat IPC: 0.05084 cumulative IPC: 0.04931 (Simulation time: 0 hr 26 min 38 sec) 
Heartbeat CPU  0 instructions:  235000000 cycles: 2854222290 heartbeat IPC: 0.04967 cumulative IPC: 0.04931 (Simulation time: 0 hr 26 min 48 sec) 
Heartbeat CPU  0 instructions:  236000000 cycles: 2874342188 heartbeat IPC: 0.04970 cumulative IPC: 0.04932 (Simulation time: 0 hr 26 min 58 sec) 
Heartbeat CPU  0 instructions:  237000001 cycles: 2894570648 heartbeat IPC: 0.04944 cumulative IPC: 0.04932 (Simulation time: 0 hr 27 min 8 sec) 
Heartbeat CPU  0 instructions:  238000000 cycles: 2914659439 heartbeat IPC: 0.04978 cumulative IPC: 0.04932 (Simulation time: 0 hr 27 min 17 sec) 
Heartbeat CPU  0 instructions:  239000002 cycles: 2934547268 heartbeat IPC: 0.05028 cumulative IPC: 0.04933 (Simulation time: 0 hr 27 min 27 sec) 
Heartbeat CPU  0 instructions:  240000000 cycles: 2954684155 heartbeat IPC: 0.04966 cumulative IPC: 0.04933 (Simulation time: 0 hr 27 min 37 sec) 
Heartbeat CPU  0 instructions:  241000000 cycles: 2974611395 heartbeat IPC: 0.05018 cumulative IPC: 0.04933 (Simulation time: 0 hr 27 min 47 sec) 
Heartbeat CPU  0 instructions:  242000000 cycles: 2994617094 heartbeat IPC: 0.04999 cumulative IPC: 0.04934 (Simulation time: 0 hr 27 min 57 sec) 
Heartbeat CPU  0 instructions:  243000001 cycles: 3014738357 heartbeat IPC: 0.04970 cumulative IPC: 0.04934 (Simulation time: 0 hr 28 min 6 sec) 
Heartbeat CPU  0 instructions:  244000000 cycles: 3035006542 heartbeat IPC: 0.04934 cumulative IPC: 0.04934 (Simulation time: 0 hr 28 min 16 sec) 
Heartbeat CPU  0 instructions:  245000000 cycles: 3055130032 heartbeat IPC: 0.04969 cumulative IPC: 0.04934 (Simulation time: 0 hr 28 min 26 sec) 
Heartbeat CPU  0 instructions:  246000000 cycles: 3075339485 heartbeat IPC: 0.04948 cumulative IPC: 0.04935 (Simulation time: 0 hr 28 min 36 sec) 
Heartbeat CPU  0 instructions:  247000000 cycles: 3095688628 heartbeat IPC: 0.04914 cumulative IPC: 0.04934 (Simulation time: 0 hr 28 min 46 sec) 
Heartbeat CPU  0 instructions:  248000000 cycles: 3115969852 heartbeat IPC: 0.04931 cumulative IPC: 0.04934 (Simulation time: 0 hr 28 min 56 sec) 
Heartbeat CPU  0 instructions:  249000003 cycles: 3136494100 heartbeat IPC: 0.04872 cumulative IPC: 0.04934 (Simulation time: 0 hr 29 min 6 sec) 
Heartbeat CPU  0 instructions:  250000002 cycles: 3156804935 heartbeat IPC: 0.04923 cumulative IPC: 0.04934 (Simulation time: 0 hr 29 min 15 sec) 
Heartbeat CPU  0 instructions:  251000000 cycles: 3177027217 heartbeat IPC: 0.04945 cumulative IPC: 0.04934 (Simulation time: 0 hr 29 min 25 sec) 
Heartbeat CPU  0 instructions:  252000000 cycles: 3197387008 heartbeat IPC: 0.04912 cumulative IPC: 0.04934 (Simulation time: 0 hr 29 min 35 sec) 
Heartbeat CPU  0 instructions:  253000000 cycles: 3217982080 heartbeat IPC: 0.04856 cumulative IPC: 0.04933 (Simulation time: 0 hr 29 min 45 sec) 
Heartbeat CPU  0 instructions:  254000000 cycles: 3238596493 heartbeat IPC: 0.04851 cumulative IPC: 0.04933 (Simulation time: 0 hr 29 min 55 sec) 
Heartbeat CPU  0 instructions:  255000002 cycles: 3259099582 heartbeat IPC: 0.04877 cumulative IPC: 0.04932 (Simulation time: 0 hr 30 min 5 sec) 
Heartbeat CPU  0 instructions:  256000000 cycles: 3279609085 heartbeat IPC: 0.04876 cumulative IPC: 0.04932 (Simulation time: 0 hr 30 min 15 sec) 
Heartbeat CPU  0 instructions:  257000000 cycles: 3300078616 heartbeat IPC: 0.04885 cumulative IPC: 0.04932 (Simulation time: 0 hr 30 min 25 sec) 
Heartbeat CPU  0 instructions:  258000002 cycles: 3320600889 heartbeat IPC: 0.04873 cumulative IPC: 0.04931 (Simulation time: 0 hr 30 min 34 sec) 
Heartbeat CPU  0 instructions:  259000001 cycles: 3341098785 heartbeat IPC: 0.04879 cumulative IPC: 0.04931 (Simulation time: 0 hr 30 min 44 sec) 
Heartbeat CPU  0 instructions:  260000000 cycles: 3361415247 heartbeat IPC: 0.04922 cumulative IPC: 0.04931 (Simulation time: 0 hr 30 min 54 sec) 
Heartbeat CPU  0 instructions:  261000002 cycles: 3381736951 heartbeat IPC: 0.04921 cumulative IPC: 0.04931 (Simulation time: 0 hr 31 min 4 sec) 
Heartbeat CPU  0 instructions:  262000001 cycles: 3401884844 heartbeat IPC: 0.04963 cumulative IPC: 0.04931 (Simulation time: 0 hr 31 min 14 sec) 
Heartbeat CPU  0 instructions:  263000000 cycles: 3421912126 heartbeat IPC: 0.04993 cumulative IPC: 0.04931 (Simulation time: 0 hr 31 min 23 sec) 
Heartbeat CPU  0 instructions:  264000000 cycles: 3442571897 heartbeat IPC: 0.04840 cumulative IPC: 0.04931 (Simulation time: 0 hr 31 min 33 sec) 
Heartbeat CPU  0 instructions:  265000000 cycles: 3462709138 heartbeat IPC: 0.04966 cumulative IPC: 0.04931 (Simulation time: 0 hr 31 min 43 sec) 
Heartbeat CPU  0 instructions:  266000000 cycles: 3481315967 heartbeat IPC: 0.05374 cumulative IPC: 0.04934 (Simulation time: 0 hr 31 min 52 sec) 
Heartbeat CPU  0 instructions:  267000003 cycles: 3502022703 heartbeat IPC: 0.04829 cumulative IPC: 0.04933 (Simulation time: 0 hr 32 min 2 sec) 
Heartbeat CPU  0 instructions:  268000000 cycles: 3522793710 heartbeat IPC: 0.04814 cumulative IPC: 0.04932 (Simulation time: 0 hr 32 min 11 sec) 
Heartbeat CPU  0 instructions:  269000000 cycles: 3543436298 heartbeat IPC: 0.04844 cumulative IPC: 0.04932 (Simulation time: 0 hr 32 min 21 sec) 
Heartbeat CPU  0 instructions:  270000000 cycles: 3564199137 heartbeat IPC: 0.04816 cumulative IPC: 0.04931 (Simulation time: 0 hr 32 min 31 sec) 
Heartbeat CPU  0 instructions:  271000001 cycles: 3584880243 heartbeat IPC: 0.04835 cumulative IPC: 0.04930 (Simulation time: 0 hr 32 min 41 sec) 
Heartbeat CPU  0 instructions:  272000000 cycles: 3605285695 heartbeat IPC: 0.04901 cumulative IPC: 0.04930 (Simulation time: 0 hr 32 min 51 sec) 
Heartbeat CPU  0 instructions:  273000000 cycles: 3625812148 heartbeat IPC: 0.04872 cumulative IPC: 0.04930 (Simulation time: 0 hr 33 min 1 sec) 
Heartbeat CPU  0 instructions:  274000000 cycles: 3646194929 heartbeat IPC: 0.04906 cumulative IPC: 0.04930 (Simulation time: 0 hr 33 min 11 sec) 
Heartbeat CPU  0 instructions:  275000001 cycles: 3666562012 heartbeat IPC: 0.04910 cumulative IPC: 0.04930 (Simulation time: 0 hr 33 min 21 sec) 
Heartbeat CPU  0 instructions:  276000000 cycles: 3686853207 heartbeat IPC: 0.04928 cumulative IPC: 0.04930 (Simulation time: 0 hr 33 min 30 sec) 
Heartbeat CPU  0 instructions:  277000001 cycles: 3707203521 heartbeat IPC: 0.04914 cumulative IPC: 0.04930 (Simulation time: 0 hr 33 min 40 sec) 
Heartbeat CPU  0 instructions:  278000000 cycles: 3727683354 heartbeat IPC: 0.04883 cumulative IPC: 0.04929 (Simulation time: 0 hr 33 min 50 sec) 
Heartbeat CPU  0 instructions:  279000003 cycles: 3748204083 heartbeat IPC: 0.04873 cumulative IPC: 0.04929 (Simulation time: 0 hr 34 min 0 sec) 
Heartbeat CPU  0 instructions:  280000000 cycles: 3768741665 heartbeat IPC: 0.04869 cumulative IPC: 0.04929 (Simulation time: 0 hr 34 min 10 sec) 
Heartbeat CPU  0 instructions:  281000001 cycles: 3789236644 heartbeat IPC: 0.04879 cumulative IPC: 0.04928 (Simulation time: 0 hr 34 min 20 sec) 
Heartbeat CPU  0 instructions:  282000000 cycles: 3809844685 heartbeat IPC: 0.04852 cumulative IPC: 0.04928 (Simulation time: 0 hr 34 min 30 sec) 
Heartbeat CPU  0 instructions:  283000000 cycles: 3830304089 heartbeat IPC: 0.04888 cumulative IPC: 0.04928 (Simulation time: 0 hr 34 min 39 sec) 
Heartbeat CPU  0 instructions:  284000000 cycles: 3850919420 heartbeat IPC: 0.04851 cumulative IPC: 0.04927 (Simulation time: 0 hr 34 min 49 sec) 
Heartbeat CPU  0 instructions:  285000001 cycles: 3871318341 heartbeat IPC: 0.04902 cumulative IPC: 0.04927 (Simulation time: 0 hr 34 min 59 sec) 
Heartbeat CPU  0 instructions:  286000001 cycles: 3891811439 heartbeat IPC: 0.04880 cumulative IPC: 0.04927 (Simulation time: 0 hr 35 min 9 sec) 
Heartbeat CPU  0 instructions:  287000000 cycles: 3912437681 heartbeat IPC: 0.04848 cumulative IPC: 0.04926 (Simulation time: 0 hr 35 min 19 sec) 
Heartbeat CPU  0 instructions:  288000000 cycles: 3933098653 heartbeat IPC: 0.04840 cumulative IPC: 0.04926 (Simulation time: 0 hr 35 min 29 sec) 
Heartbeat CPU  0 instructions:  289000001 cycles: 3953717775 heartbeat IPC: 0.04850 cumulative IPC: 0.04926 (Simulation time: 0 hr 35 min 39 sec) 
Heartbeat CPU  0 instructions:  290000001 cycles: 3974329570 heartbeat IPC: 0.04852 cumulative IPC: 0.04925 (Simulation time: 0 hr 35 min 49 sec) 
Heartbeat CPU  0 instructions:  291000000 cycles: 3994629747 heartbeat IPC: 0.04926 cumulative IPC: 0.04925 (Simulation time: 0 hr 35 min 58 sec) 
Heartbeat CPU  0 instructions:  292000000 cycles: 4015071530 heartbeat IPC: 0.04892 cumulative IPC: 0.04925 (Simulation time: 0 hr 36 min 8 sec) 
Heartbeat CPU  0 instructions:  293000000 cycles: 4035496549 heartbeat IPC: 0.04896 cumulative IPC: 0.04925 (Simulation time: 0 hr 36 min 18 sec) 
Heartbeat CPU  0 instructions:  294000002 cycles: 4055902620 heartbeat IPC: 0.04901 cumulative IPC: 0.04925 (Simulation time: 0 hr 36 min 28 sec) 
Heartbeat CPU  0 instructions:  295000000 cycles: 4076031654 heartbeat IPC: 0.04968 cumulative IPC: 0.04925 (Simulation time: 0 hr 36 min 38 sec) 
Heartbeat CPU  0 instructions:  296000000 cycles: 4096083254 heartbeat IPC: 0.04987 cumulative IPC: 0.04925 (Simulation time: 0 hr 36 min 48 sec) 
Heartbeat CPU  0 instructions:  297000000 cycles: 4116561291 heartbeat IPC: 0.04883 cumulative IPC: 0.04925 (Simulation time: 0 hr 36 min 58 sec) 
Heartbeat CPU  0 instructions:  298000002 cycles: 4137085122 heartbeat IPC: 0.04872 cumulative IPC: 0.04925 (Simulation time: 0 hr 37 min 8 sec) 
Heartbeat CPU  0 instructions:  299000001 cycles: 4157589664 heartbeat IPC: 0.04877 cumulative IPC: 0.04925 (Simulation time: 0 hr 37 min 17 sec) 
Heartbeat CPU  0 instructions:  300000000 cycles: 4178214285 heartbeat IPC: 0.04849 cumulative IPC: 0.04924 (Simulation time: 0 hr 37 min 27 sec) 
Heartbeat CPU  0 instructions:  301000000 cycles: 4198818773 heartbeat IPC: 0.04853 cumulative IPC: 0.04924 (Simulation time: 0 hr 37 min 37 sec) 
Heartbeat CPU  0 instructions:  302000000 cycles: 4219495056 heartbeat IPC: 0.04836 cumulative IPC: 0.04923 (Simulation time: 0 hr 37 min 47 sec) 
Heartbeat CPU  0 instructions:  303000000 cycles: 4240144228 heartbeat IPC: 0.04843 cumulative IPC: 0.04923 (Simulation time: 0 hr 37 min 57 sec) 
Heartbeat CPU  0 instructions:  304000000 cycles: 4260650550 heartbeat IPC: 0.04877 cumulative IPC: 0.04923 (Simulation time: 0 hr 38 min 7 sec) 
Heartbeat CPU  0 instructions:  305000003 cycles: 4281100917 heartbeat IPC: 0.04890 cumulative IPC: 0.04923 (Simulation time: 0 hr 38 min 17 sec) 
Heartbeat CPU  0 instructions:  306000000 cycles: 4301628548 heartbeat IPC: 0.04871 cumulative IPC: 0.04922 (Simulation time: 0 hr 38 min 27 sec) 
Heartbeat CPU  0 instructions:  307000000 cycles: 4322329647 heartbeat IPC: 0.04831 cumulative IPC: 0.04922 (Simulation time: 0 hr 38 min 37 sec) 
Heartbeat CPU  0 instructions:  308000000 cycles: 4343004968 heartbeat IPC: 0.04837 cumulative IPC: 0.04921 (Simulation time: 0 hr 38 min 47 sec) 
Heartbeat CPU  0 instructions:  309000000 cycles: 4363576912 heartbeat IPC: 0.04861 cumulative IPC: 0.04921 (Simulation time: 0 hr 38 min 57 sec) 
Heartbeat CPU  0 instructions:  310000001 cycles: 4384394180 heartbeat IPC: 0.04804 cumulative IPC: 0.04921 (Simulation time: 0 hr 39 min 7 sec) 
Heartbeat CPU  0 instructions:  311000000 cycles: 4405039787 heartbeat IPC: 0.04844 cumulative IPC: 0.04920 (Simulation time: 0 hr 39 min 17 sec) 
Heartbeat CPU  0 instructions:  312000000 cycles: 4425625908 heartbeat IPC: 0.04858 cumulative IPC: 0.04920 (Simulation time: 0 hr 39 min 27 sec) 
Heartbeat CPU  0 instructions:  313000000 cycles: 4446195192 heartbeat IPC: 0.04862 cumulative IPC: 0.04920 (Simulation time: 0 hr 39 min 37 sec) 
Heartbeat CPU  0 instructions:  314000000 cycles: 4466634882 heartbeat IPC: 0.04892 cumulative IPC: 0.04919 (Simulation time: 0 hr 39 min 47 sec) 
Heartbeat CPU  0 instructions:  315000000 cycles: 4487006434 heartbeat IPC: 0.04909 cumulative IPC: 0.04919 (Simulation time: 0 hr 39 min 57 sec) 
Heartbeat CPU  0 instructions:  316000000 cycles: 4507345150 heartbeat IPC: 0.04917 cumulative IPC: 0.04919 (Simulation time: 0 hr 40 min 6 sec) 
Heartbeat CPU  0 instructions:  317000001 cycles: 4527732552 heartbeat IPC: 0.04905 cumulative IPC: 0.04919 (Simulation time: 0 hr 40 min 17 sec) 
Heartbeat CPU  0 instructions:  318000003 cycles: 4548142551 heartbeat IPC: 0.04900 cumulative IPC: 0.04919 (Simulation time: 0 hr 40 min 27 sec) 
Heartbeat CPU  0 instructions:  319000001 cycles: 4568704572 heartbeat IPC: 0.04863 cumulative IPC: 0.04919 (Simulation time: 0 hr 40 min 37 sec) 
Heartbeat CPU  0 instructions:  320000000 cycles: 4589438310 heartbeat IPC: 0.04823 cumulative IPC: 0.04919 (Simulation time: 0 hr 40 min 47 sec) 
Heartbeat CPU  0 instructions:  321000000 cycles: 4610247252 heartbeat IPC: 0.04806 cumulative IPC: 0.04918 (Simulation time: 0 hr 40 min 56 sec) 
Heartbeat CPU  0 instructions:  322000001 cycles: 4631126737 heartbeat IPC: 0.04789 cumulative IPC: 0.04917 (Simulation time: 0 hr 41 min 6 sec) 
Heartbeat CPU  0 instructions:  323000003 cycles: 4651861964 heartbeat IPC: 0.04823 cumulative IPC: 0.04917 (Simulation time: 0 hr 41 min 16 sec) 
Heartbeat CPU  0 instructions:  324000000 cycles: 4672402014 heartbeat IPC: 0.04869 cumulative IPC: 0.04917 (Simulation time: 0 hr 41 min 26 sec) 
Heartbeat CPU  0 instructions:  325000000 cycles: 4692795419 heartbeat IPC: 0.04904 cumulative IPC: 0.04917 (Simulation time: 0 hr 41 min 36 sec) 
Heartbeat CPU  0 instructions:  326000000 cycles: 4712857404 heartbeat IPC: 0.04985 cumulative IPC: 0.04917 (Simulation time: 0 hr 41 min 46 sec) 
Heartbeat CPU  0 instructions:  327000000 cycles: 4733142713 heartbeat IPC: 0.04930 cumulative IPC: 0.04917 (Simulation time: 0 hr 41 min 55 sec) 
Heartbeat CPU  0 instructions:  328000000 cycles: 4753392555 heartbeat IPC: 0.04938 cumulative IPC: 0.04917 (Simulation time: 0 hr 42 min 5 sec) 
Heartbeat CPU  0 instructions:  329000000 cycles: 4773960694 heartbeat IPC: 0.04862 cumulative IPC: 0.04917 (Simulation time: 0 hr 42 min 15 sec) 
Heartbeat CPU  0 instructions:  330000000 cycles: 4794459478 heartbeat IPC: 0.04878 cumulative IPC: 0.04917 (Simulation time: 0 hr 42 min 25 sec) 
Heartbeat CPU  0 instructions:  331000000 cycles: 4815077152 heartbeat IPC: 0.04850 cumulative IPC: 0.04916 (Simulation time: 0 hr 42 min 35 sec) 
Heartbeat CPU  0 instructions:  332000000 cycles: 4835257845 heartbeat IPC: 0.04955 cumulative IPC: 0.04917 (Simulation time: 0 hr 42 min 45 sec) 
Heartbeat CPU  0 instructions:  333000000 cycles: 4855728915 heartbeat IPC: 0.04885 cumulative IPC: 0.04917 (Simulation time: 0 hr 42 min 55 sec) 
Heartbeat CPU  0 instructions:  334000001 cycles: 4876087796 heartbeat IPC: 0.04912 cumulative IPC: 0.04916 (Simulation time: 0 hr 43 min 5 sec) 
Heartbeat CPU  0 instructions:  335000000 cycles: 4896742549 heartbeat IPC: 0.04841 cumulative IPC: 0.04916 (Simulation time: 0 hr 43 min 15 sec) 
Heartbeat CPU  0 instructions:  336000000 cycles: 4917396720 heartbeat IPC: 0.04842 cumulative IPC: 0.04916 (Simulation time: 0 hr 43 min 24 sec) 
Heartbeat CPU  0 instructions:  337000002 cycles: 4937984293 heartbeat IPC: 0.04857 cumulative IPC: 0.04916 (Simulation time: 0 hr 43 min 34 sec) 
Heartbeat CPU  0 instructions:  338000002 cycles: 4958394295 heartbeat IPC: 0.04900 cumulative IPC: 0.04916 (Simulation time: 0 hr 43 min 44 sec) 
Heartbeat CPU  0 instructions:  339000000 cycles: 4979011819 heartbeat IPC: 0.04850 cumulative IPC: 0.04915 (Simulation time: 0 hr 43 min 54 sec) 
Heartbeat CPU  0 instructions:  340000000 cycles: 4999513039 heartbeat IPC: 0.04878 cumulative IPC: 0.04915 (Simulation time: 0 hr 44 min 4 sec) 
Heartbeat CPU  0 instructions:  341000001 cycles: 5019885928 heartbeat IPC: 0.04908 cumulative IPC: 0.04915 (Simulation time: 0 hr 44 min 14 sec) 
Heartbeat CPU  0 instructions:  342000000 cycles: 5040401092 heartbeat IPC: 0.04874 cumulative IPC: 0.04915 (Simulation time: 0 hr 44 min 24 sec) 
Heartbeat CPU  0 instructions:  343000000 cycles: 5060952690 heartbeat IPC: 0.04866 cumulative IPC: 0.04915 (Simulation time: 0 hr 44 min 34 sec) 
Heartbeat CPU  0 instructions:  344000000 cycles: 5081494115 heartbeat IPC: 0.04868 cumulative IPC: 0.04914 (Simulation time: 0 hr 44 min 44 sec) 
Heartbeat CPU  0 instructions:  345000000 cycles: 5101874041 heartbeat IPC: 0.04907 cumulative IPC: 0.04914 (Simulation time: 0 hr 44 min 54 sec) 
Heartbeat CPU  0 instructions:  346000000 cycles: 5122505445 heartbeat IPC: 0.04847 cumulative IPC: 0.04914 (Simulation time: 0 hr 45 min 4 sec) 
Heartbeat CPU  0 instructions:  347000001 cycles: 5143199749 heartbeat IPC: 0.04832 cumulative IPC: 0.04914 (Simulation time: 0 hr 45 min 14 sec) 
Heartbeat CPU  0 instructions:  348000000 cycles: 5163933420 heartbeat IPC: 0.04823 cumulative IPC: 0.04913 (Simulation time: 0 hr 45 min 24 sec) 
Heartbeat CPU  0 instructions:  349000000 cycles: 5184497448 heartbeat IPC: 0.04863 cumulative IPC: 0.04913 (Simulation time: 0 hr 45 min 34 sec) 
Heartbeat CPU  0 instructions:  350000000 cycles: 5205147023 heartbeat IPC: 0.04843 cumulative IPC: 0.04913 (Simulation time: 0 hr 45 min 44 sec) 
Heartbeat CPU  0 instructions:  351000000 cycles: 5225425268 heartbeat IPC: 0.04931 cumulative IPC: 0.04913 (Simulation time: 0 hr 45 min 54 sec) 
Heartbeat CPU  0 instructions:  352000000 cycles: 5245686741 heartbeat IPC: 0.04935 cumulative IPC: 0.04913 (Simulation time: 0 hr 46 min 4 sec) 
Heartbeat CPU  0 instructions:  353000000 cycles: 5266034724 heartbeat IPC: 0.04914 cumulative IPC: 0.04913 (Simulation time: 0 hr 46 min 14 sec) 
Heartbeat CPU  0 instructions:  354000001 cycles: 5286223538 heartbeat IPC: 0.04953 cumulative IPC: 0.04913 (Simulation time: 0 hr 46 min 23 sec) 
Heartbeat CPU  0 instructions:  355000000 cycles: 5306494689 heartbeat IPC: 0.04933 cumulative IPC: 0.04913 (Simulation time: 0 hr 46 min 33 sec) 
Heartbeat CPU  0 instructions:  356000000 cycles: 5326512187 heartbeat IPC: 0.04996 cumulative IPC: 0.04914 (Simulation time: 0 hr 46 min 43 sec) 
Heartbeat CPU  0 instructions:  357000003 cycles: 5346695447 heartbeat IPC: 0.04955 cumulative IPC: 0.04914 (Simulation time: 0 hr 46 min 53 sec) 
Heartbeat CPU  0 instructions:  358000000 cycles: 5366968485 heartbeat IPC: 0.04933 cumulative IPC: 0.04914 (Simulation time: 0 hr 47 min 3 sec) 
Heartbeat CPU  0 instructions:  359000000 cycles: 5387240714 heartbeat IPC: 0.04933 cumulative IPC: 0.04914 (Simulation time: 0 hr 47 min 13 sec) 
Heartbeat CPU  0 instructions:  360000000 cycles: 5407186570 heartbeat IPC: 0.05014 cumulative IPC: 0.04914 (Simulation time: 0 hr 47 min 22 sec) 
Heartbeat CPU  0 instructions:  361000000 cycles: 5427371582 heartbeat IPC: 0.04954 cumulative IPC: 0.04915 (Simulation time: 0 hr 47 min 32 sec) 
Heartbeat CPU  0 instructions:  362000000 cycles: 5447567124 heartbeat IPC: 0.04952 cumulative IPC: 0.04915 (Simulation time: 0 hr 47 min 42 sec) 
Heartbeat CPU  0 instructions:  363000000 cycles: 5467970318 heartbeat IPC: 0.04901 cumulative IPC: 0.04915 (Simulation time: 0 hr 47 min 52 sec) 
Heartbeat CPU  0 instructions:  364000000 cycles: 5488485210 heartbeat IPC: 0.04875 cumulative IPC: 0.04914 (Simulation time: 0 hr 48 min 2 sec) 
Heartbeat CPU  0 instructions:  365000000 cycles: 5508801229 heartbeat IPC: 0.04922 cumulative IPC: 0.04914 (Simulation time: 0 hr 48 min 11 sec) 
Heartbeat CPU  0 instructions:  366000000 cycles: 5529723097 heartbeat IPC: 0.04780 cumulative IPC: 0.04914 (Simulation time: 0 hr 48 min 21 sec) 
Heartbeat CPU  0 instructions:  367000000 cycles: 5550416097 heartbeat IPC: 0.04833 cumulative IPC: 0.04914 (Simulation time: 0 hr 48 min 31 sec) 
Heartbeat CPU  0 instructions:  368000000 cycles: 5571258641 heartbeat IPC: 0.04798 cumulative IPC: 0.04913 (Simulation time: 0 hr 48 min 41 sec) 
Heartbeat CPU  0 instructions:  369000000 cycles: 5591622279 heartbeat IPC: 0.04911 cumulative IPC: 0.04913 (Simulation time: 0 hr 48 min 51 sec) 
Heartbeat CPU  0 instructions:  370000002 cycles: 5612402359 heartbeat IPC: 0.04812 cumulative IPC: 0.04913 (Simulation time: 0 hr 49 min 1 sec) 
Heartbeat CPU  0 instructions:  371000000 cycles: 5633121608 heartbeat IPC: 0.04826 cumulative IPC: 0.04913 (Simulation time: 0 hr 49 min 11 sec) 
Heartbeat CPU  0 instructions:  372000000 cycles: 5653754078 heartbeat IPC: 0.04847 cumulative IPC: 0.04912 (Simulation time: 0 hr 49 min 20 sec) 
Heartbeat CPU  0 instructions:  373000000 cycles: 5674454847 heartbeat IPC: 0.04831 cumulative IPC: 0.04912 (Simulation time: 0 hr 49 min 30 sec) 
Heartbeat CPU  0 instructions:  374000002 cycles: 5695171763 heartbeat IPC: 0.04827 cumulative IPC: 0.04912 (Simulation time: 0 hr 49 min 40 sec) 
Heartbeat CPU  0 instructions:  375000000 cycles: 5715712970 heartbeat IPC: 0.04868 cumulative IPC: 0.04911 (Simulation time: 0 hr 49 min 50 sec) 
Heartbeat CPU  0 instructions:  376000000 cycles: 5736238217 heartbeat IPC: 0.04872 cumulative IPC: 0.04911 (Simulation time: 0 hr 49 min 59 sec) 
Heartbeat CPU  0 instructions:  377000000 cycles: 5756901198 heartbeat IPC: 0.04840 cumulative IPC: 0.04911 (Simulation time: 0 hr 50 min 9 sec) 
Heartbeat CPU  0 instructions:  378000003 cycles: 5777094799 heartbeat IPC: 0.04952 cumulative IPC: 0.04911 (Simulation time: 0 hr 50 min 19 sec) 
Heartbeat CPU  0 instructions:  379000001 cycles: 5797670040 heartbeat IPC: 0.04860 cumulative IPC: 0.04911 (Simulation time: 0 hr 50 min 29 sec) 
Heartbeat CPU  0 instructions:  380000000 cycles: 5818106533 heartbeat IPC: 0.04893 cumulative IPC: 0.04911 (Simulation time: 0 hr 50 min 38 sec) 
Heartbeat CPU  0 instructions:  381000000 cycles: 5838668287 heartbeat IPC: 0.04863 cumulative IPC: 0.04911 (Simulation time: 0 hr 50 min 49 sec) 
Heartbeat CPU  0 instructions:  382000000 cycles: 5859186694 heartbeat IPC: 0.04874 cumulative IPC: 0.04911 (Simulation time: 0 hr 50 min 59 sec) 
Heartbeat CPU  0 instructions:  383000001 cycles: 5879808644 heartbeat IPC: 0.04849 cumulative IPC: 0.04910 (Simulation time: 0 hr 51 min 8 sec) 
Heartbeat CPU  0 instructions:  384000000 cycles: 5900352150 heartbeat IPC: 0.04868 cumulative IPC: 0.04910 (Simulation time: 0 hr 51 min 18 sec) 
Heartbeat CPU  0 instructions:  385000000 cycles: 5921104386 heartbeat IPC: 0.04819 cumulative IPC: 0.04910 (Simulation time: 0 hr 51 min 28 sec) 
Heartbeat CPU  0 instructions:  386000000 cycles: 5941946879 heartbeat IPC: 0.04798 cumulative IPC: 0.04910 (Simulation time: 0 hr 51 min 38 sec) 
Heartbeat CPU  0 instructions:  387000000 cycles: 5962529984 heartbeat IPC: 0.04858 cumulative IPC: 0.04909 (Simulation time: 0 hr 51 min 48 sec) 
Heartbeat CPU  0 instructions:  388000000 cycles: 5983157511 heartbeat IPC: 0.04848 cumulative IPC: 0.04909 (Simulation time: 0 hr 51 min 57 sec) 
Heartbeat CPU  0 instructions:  389000000 cycles: 6003817012 heartbeat IPC: 0.04840 cumulative IPC: 0.04909 (Simulation time: 0 hr 52 min 7 sec) 
Heartbeat CPU  0 instructions:  390000000 cycles: 6024311394 heartbeat IPC: 0.04879 cumulative IPC: 0.04909 (Simulation time: 0 hr 52 min 17 sec) 
Heartbeat CPU  0 instructions:  391000000 cycles: 6045089694 heartbeat IPC: 0.04813 cumulative IPC: 0.04908 (Simulation time: 0 hr 52 min 27 sec) 
Heartbeat CPU  0 instructions:  392000000 cycles: 6065862079 heartbeat IPC: 0.04814 cumulative IPC: 0.04908 (Simulation time: 0 hr 52 min 36 sec) 
Heartbeat CPU  0 instructions:  393000000 cycles: 6086739891 heartbeat IPC: 0.04790 cumulative IPC: 0.04908 (Simulation time: 0 hr 52 min 46 sec) 
Heartbeat CPU  0 instructions:  394000001 cycles: 6107447347 heartbeat IPC: 0.04829 cumulative IPC: 0.04907 (Simulation time: 0 hr 52 min 56 sec) 
Heartbeat CPU  0 instructions:  395000003 cycles: 6127701210 heartbeat IPC: 0.04937 cumulative IPC: 0.04908 (Simulation time: 0 hr 53 min 5 sec) 
Heartbeat CPU  0 instructions:  396000000 cycles: 6147590345 heartbeat IPC: 0.05028 cumulative IPC: 0.04908 (Simulation time: 0 hr 53 min 15 sec) 
Heartbeat CPU  0 instructions:  397000000 cycles: 6168018415 heartbeat IPC: 0.04895 cumulative IPC: 0.04908 (Simulation time: 0 hr 53 min 24 sec) 
Heartbeat CPU  0 instructions:  398000001 cycles: 6188362947 heartbeat IPC: 0.04915 cumulative IPC: 0.04908 (Simulation time: 0 hr 53 min 34 sec) 
Heartbeat CPU  0 instructions:  399000002 cycles: 6208767964 heartbeat IPC: 0.04901 cumulative IPC: 0.04908 (Simulation time: 0 hr 53 min 44 sec) 
Heartbeat CPU  0 instructions:  400000000 cycles: 6229206127 heartbeat IPC: 0.04893 cumulative IPC: 0.04908 (Simulation time: 0 hr 53 min 53 sec) 
Heartbeat CPU  0 instructions:  401000001 cycles: 6249715857 heartbeat IPC: 0.04876 cumulative IPC: 0.04908 (Simulation time: 0 hr 54 min 3 sec) 
Heartbeat CPU  0 instructions:  402000000 cycles: 6270122317 heartbeat IPC: 0.04900 cumulative IPC: 0.04908 (Simulation time: 0 hr 54 min 13 sec) 
Heartbeat CPU  0 instructions:  403000000 cycles: 6290417285 heartbeat IPC: 0.04927 cumulative IPC: 0.04908 (Simulation time: 0 hr 54 min 22 sec) 
Heartbeat CPU  0 instructions:  404000000 cycles: 6310770578 heartbeat IPC: 0.04913 cumulative IPC: 0.04908 (Simulation time: 0 hr 54 min 32 sec) 
Heartbeat CPU  0 instructions:  405000003 cycles: 6331135200 heartbeat IPC: 0.04910 cumulative IPC: 0.04908 (Simulation time: 0 hr 54 min 42 sec) 
Heartbeat CPU  0 instructions:  406000003 cycles: 6351389571 heartbeat IPC: 0.04937 cumulative IPC: 0.04908 (Simulation time: 0 hr 54 min 51 sec) 
Heartbeat CPU  0 instructions:  407000000 cycles: 6371535133 heartbeat IPC: 0.04964 cumulative IPC: 0.04908 (Simulation time: 0 hr 55 min 1 sec) 
Heartbeat CPU  0 instructions:  408000000 cycles: 6391933807 heartbeat IPC: 0.04902 cumulative IPC: 0.04908 (Simulation time: 0 hr 55 min 11 sec) 
Heartbeat CPU  0 instructions:  409000000 cycles: 6412276825 heartbeat IPC: 0.04916 cumulative IPC: 0.04908 (Simulation time: 0 hr 55 min 21 sec) 
Heartbeat CPU  0 instructions:  410000001 cycles: 6432345312 heartbeat IPC: 0.04983 cumulative IPC: 0.04908 (Simulation time: 0 hr 55 min 30 sec) 
Heartbeat CPU  0 instructions:  411000000 cycles: 6452461612 heartbeat IPC: 0.04971 cumulative IPC: 0.04909 (Simulation time: 0 hr 55 min 40 sec) 
Heartbeat CPU  0 instructions:  412000000 cycles: 6472602387 heartbeat IPC: 0.04965 cumulative IPC: 0.04909 (Simulation time: 0 hr 55 min 50 sec) 
Heartbeat CPU  0 instructions:  413000003 cycles: 6492877495 heartbeat IPC: 0.04932 cumulative IPC: 0.04909 (Simulation time: 0 hr 56 min 0 sec) 
Heartbeat CPU  0 instructions:  414000000 cycles: 6513100540 heartbeat IPC: 0.04945 cumulative IPC: 0.04909 (Simulation time: 0 hr 56 min 10 sec) 
Heartbeat CPU  0 instructions:  415000001 cycles: 6533290388 heartbeat IPC: 0.04953 cumulative IPC: 0.04909 (Simulation time: 0 hr 56 min 19 sec) 
Heartbeat CPU  0 instructions:  416000000 cycles: 6553499999 heartbeat IPC: 0.04948 cumulative IPC: 0.04909 (Simulation time: 0 hr 56 min 29 sec) 
Heartbeat CPU  0 instructions:  417000000 cycles: 6573816762 heartbeat IPC: 0.04922 cumulative IPC: 0.04909 (Simulation time: 0 hr 56 min 39 sec) 
Heartbeat CPU  0 instructions:  418000000 cycles: 6594288477 heartbeat IPC: 0.04885 cumulative IPC: 0.04909 (Simulation time: 0 hr 56 min 49 sec) 
Heartbeat CPU  0 instructions:  419000000 cycles: 6614725460 heartbeat IPC: 0.04893 cumulative IPC: 0.04909 (Simulation time: 0 hr 56 min 59 sec) 
Heartbeat CPU  0 instructions:  420000000 cycles: 6635067777 heartbeat IPC: 0.04916 cumulative IPC: 0.04909 (Simulation time: 0 hr 57 min 9 sec) 
Heartbeat CPU  0 instructions:  421000001 cycles: 6655320375 heartbeat IPC: 0.04938 cumulative IPC: 0.04909 (Simulation time: 0 hr 57 min 19 sec) 
Heartbeat CPU  0 instructions:  422000003 cycles: 6675792076 heartbeat IPC: 0.04885 cumulative IPC: 0.04909 (Simulation time: 0 hr 57 min 29 sec) 
Heartbeat CPU  0 instructions:  423000000 cycles: 6696299791 heartbeat IPC: 0.04876 cumulative IPC: 0.04909 (Simulation time: 0 hr 57 min 39 sec) 
Heartbeat CPU  0 instructions:  424000000 cycles: 6716711942 heartbeat IPC: 0.04899 cumulative IPC: 0.04909 (Simulation time: 0 hr 57 min 48 sec) 
Heartbeat CPU  0 instructions:  425000000 cycles: 6737141506 heartbeat IPC: 0.04895 cumulative IPC: 0.04909 (Simulation time: 0 hr 57 min 58 sec) 
Heartbeat CPU  0 instructions:  426000001 cycles: 6757598519 heartbeat IPC: 0.04888 cumulative IPC: 0.04909 (Simulation time: 0 hr 58 min 8 sec) 
Heartbeat CPU  0 instructions:  427000000 cycles: 6778040474 heartbeat IPC: 0.04892 cumulative IPC: 0.04909 (Simulation time: 0 hr 58 min 18 sec) 
Heartbeat CPU  0 instructions:  428000000 cycles: 6798272892 heartbeat IPC: 0.04943 cumulative IPC: 0.04909 (Simulation time: 0 hr 58 min 28 sec) 
Heartbeat CPU  0 instructions:  429000000 cycles: 6818400438 heartbeat IPC: 0.04968 cumulative IPC: 0.04909 (Simulation time: 0 hr 58 min 38 sec) 
Heartbeat CPU  0 instructions:  430000000 cycles: 6838557674 heartbeat IPC: 0.04961 cumulative IPC: 0.04909 (Simulation time: 0 hr 58 min 47 sec) 
Heartbeat CPU  0 instructions:  431000001 cycles: 6858887540 heartbeat IPC: 0.04919 cumulative IPC: 0.04909 (Simulation time: 0 hr 58 min 57 sec) 
Heartbeat CPU  0 instructions:  432000000 cycles: 6879154922 heartbeat IPC: 0.04934 cumulative IPC: 0.04909 (Simulation time: 0 hr 59 min 7 sec) 
Heartbeat CPU  0 instructions:  433000000 cycles: 6899469385 heartbeat IPC: 0.04923 cumulative IPC: 0.04909 (Simulation time: 0 hr 59 min 16 sec) 
Heartbeat CPU  0 instructions:  434000002 cycles: 6919759506 heartbeat IPC: 0.04929 cumulative IPC: 0.04909 (Simulation time: 0 hr 59 min 26 sec) 
Heartbeat CPU  0 instructions:  435000000 cycles: 6940114793 heartbeat IPC: 0.04913 cumulative IPC: 0.04909 (Simulation time: 0 hr 59 min 36 sec) 
Heartbeat CPU  0 instructions:  436000000 cycles: 6960453232 heartbeat IPC: 0.04917 cumulative IPC: 0.04910 (Simulation time: 0 hr 59 min 46 sec) 
Heartbeat CPU  0 instructions:  437000002 cycles: 6980589384 heartbeat IPC: 0.04966 cumulative IPC: 0.04910 (Simulation time: 0 hr 59 min 56 sec) 
Heartbeat CPU  0 instructions:  438000000 cycles: 7000902703 heartbeat IPC: 0.04923 cumulative IPC: 0.04910 (Simulation time: 1 hr 0 min 6 sec) 
Heartbeat CPU  0 instructions:  439000000 cycles: 7021209279 heartbeat IPC: 0.04925 cumulative IPC: 0.04910 (Simulation time: 1 hr 0 min 15 sec) 
Heartbeat CPU  0 instructions:  440000000 cycles: 7041702639 heartbeat IPC: 0.04880 cumulative IPC: 0.04910 (Simulation time: 1 hr 0 min 25 sec) 
Heartbeat CPU  0 instructions:  441000000 cycles: 7062226615 heartbeat IPC: 0.04872 cumulative IPC: 0.04910 (Simulation time: 1 hr 0 min 35 sec) 
Heartbeat CPU  0 instructions:  442000000 cycles: 7082809911 heartbeat IPC: 0.04858 cumulative IPC: 0.04909 (Simulation time: 1 hr 0 min 45 sec) 
Heartbeat CPU  0 instructions:  443000003 cycles: 7103307661 heartbeat IPC: 0.04879 cumulative IPC: 0.04909 (Simulation time: 1 hr 0 min 55 sec) 
Heartbeat CPU  0 instructions:  444000000 cycles: 7123784952 heartbeat IPC: 0.04883 cumulative IPC: 0.04909 (Simulation time: 1 hr 1 min 4 sec) 
Heartbeat CPU  0 instructions:  445000003 cycles: 7144274700 heartbeat IPC: 0.04881 cumulative IPC: 0.04909 (Simulation time: 1 hr 1 min 14 sec) 
Heartbeat CPU  0 instructions:  446000000 cycles: 7164849934 heartbeat IPC: 0.04860 cumulative IPC: 0.04909 (Simulation time: 1 hr 1 min 24 sec) 
Heartbeat CPU  0 instructions:  447000000 cycles: 7185455855 heartbeat IPC: 0.04853 cumulative IPC: 0.04909 (Simulation time: 1 hr 1 min 34 sec) 
Heartbeat CPU  0 instructions:  448000000 cycles: 7205818249 heartbeat IPC: 0.04911 cumulative IPC: 0.04909 (Simulation time: 1 hr 1 min 44 sec) 
Heartbeat CPU  0 instructions:  449000003 cycles: 7226381439 heartbeat IPC: 0.04863 cumulative IPC: 0.04909 (Simulation time: 1 hr 1 min 54 sec) 
Heartbeat CPU  0 instructions:  450000002 cycles: 7246999582 heartbeat IPC: 0.04850 cumulative IPC: 0.04909 (Simulation time: 1 hr 2 min 4 sec) 
Heartbeat CPU  0 instructions:  451000002 cycles: 7267594224 heartbeat IPC: 0.04856 cumulative IPC: 0.04908 (Simulation time: 1 hr 2 min 13 sec) 
Heartbeat CPU  0 instructions:  452000000 cycles: 7287984677 heartbeat IPC: 0.04904 cumulative IPC: 0.04908 (Simulation time: 1 hr 2 min 23 sec) 
Heartbeat CPU  0 instructions:  453000000 cycles: 7308652437 heartbeat IPC: 0.04838 cumulative IPC: 0.04908 (Simulation time: 1 hr 2 min 33 sec) 
Heartbeat CPU  0 instructions:  454000000 cycles: 7329266071 heartbeat IPC: 0.04851 cumulative IPC: 0.04908 (Simulation time: 1 hr 2 min 43 sec) 
Heartbeat CPU  0 instructions:  455000000 cycles: 7349958876 heartbeat IPC: 0.04833 cumulative IPC: 0.04908 (Simulation time: 1 hr 2 min 53 sec) 
Heartbeat CPU  0 instructions:  456000000 cycles: 7370545926 heartbeat IPC: 0.04857 cumulative IPC: 0.04908 (Simulation time: 1 hr 3 min 2 sec) 
Heartbeat CPU  0 instructions:  457000002 cycles: 7391215954 heartbeat IPC: 0.04838 cumulative IPC: 0.04907 (Simulation time: 1 hr 3 min 12 sec) 
Heartbeat CPU  0 instructions:  458000000 cycles: 7411940826 heartbeat IPC: 0.04825 cumulative IPC: 0.04907 (Simulation time: 1 hr 3 min 22 sec) 
Heartbeat CPU  0 instructions:  459000000 cycles: 7432605901 heartbeat IPC: 0.04839 cumulative IPC: 0.04907 (Simulation time: 1 hr 3 min 32 sec) 
Heartbeat CPU  0 instructions:  460000000 cycles: 7453084705 heartbeat IPC: 0.04883 cumulative IPC: 0.04907 (Simulation time: 1 hr 3 min 42 sec) 
Heartbeat CPU  0 instructions:  461000000 cycles: 7473508953 heartbeat IPC: 0.04896 cumulative IPC: 0.04907 (Simulation time: 1 hr 3 min 52 sec) 
Heartbeat CPU  0 instructions:  462000000 cycles: 7493961746 heartbeat IPC: 0.04889 cumulative IPC: 0.04907 (Simulation time: 1 hr 4 min 2 sec) 
Heartbeat CPU  0 instructions:  463000001 cycles: 7514191957 heartbeat IPC: 0.04943 cumulative IPC: 0.04907 (Simulation time: 1 hr 4 min 11 sec) 
Heartbeat CPU  0 instructions:  464000000 cycles: 7534754952 heartbeat IPC: 0.04863 cumulative IPC: 0.04907 (Simulation time: 1 hr 4 min 21 sec) 
Heartbeat CPU  0 instructions:  465000000 cycles: 7555401051 heartbeat IPC: 0.04844 cumulative IPC: 0.04907 (Simulation time: 1 hr 4 min 31 sec) 
Heartbeat CPU  0 instructions:  466000000 cycles: 7576176839 heartbeat IPC: 0.04813 cumulative IPC: 0.04906 (Simulation time: 1 hr 4 min 41 sec) 
Heartbeat CPU  0 instructions:  467000000 cycles: 7596755456 heartbeat IPC: 0.04859 cumulative IPC: 0.04906 (Simulation time: 1 hr 4 min 51 sec) 
Heartbeat CPU  0 instructions:  468000000 cycles: 7617262126 heartbeat IPC: 0.04876 cumulative IPC: 0.04906 (Simulation time: 1 hr 5 min 1 sec) 
Heartbeat CPU  0 instructions:  469000000 cycles: 7637735101 heartbeat IPC: 0.04884 cumulative IPC: 0.04906 (Simulation time: 1 hr 5 min 11 sec) 
Heartbeat CPU  0 instructions:  470000000 cycles: 7658186947 heartbeat IPC: 0.04890 cumulative IPC: 0.04906 (Simulation time: 1 hr 5 min 21 sec) 
Heartbeat CPU  0 instructions:  471000000 cycles: 7678609504 heartbeat IPC: 0.04897 cumulative IPC: 0.04906 (Simulation time: 1 hr 5 min 31 sec) 
Heartbeat CPU  0 instructions:  472000000 cycles: 7698766523 heartbeat IPC: 0.04961 cumulative IPC: 0.04906 (Simulation time: 1 hr 5 min 41 sec) 
Heartbeat CPU  0 instructions:  473000000 cycles: 7718801703 heartbeat IPC: 0.04991 cumulative IPC: 0.04906 (Simulation time: 1 hr 5 min 51 sec) 
Heartbeat CPU  0 instructions:  474000000 cycles: 7739149209 heartbeat IPC: 0.04915 cumulative IPC: 0.04906 (Simulation time: 1 hr 6 min 0 sec) 
Heartbeat CPU  0 instructions:  475000000 cycles: 7759254209 heartbeat IPC: 0.04974 cumulative IPC: 0.04907 (Simulation time: 1 hr 6 min 10 sec) 
Heartbeat CPU  0 instructions:  476000000 cycles: 7779651282 heartbeat IPC: 0.04903 cumulative IPC: 0.04907 (Simulation time: 1 hr 6 min 20 sec) 
Heartbeat CPU  0 instructions:  477000000 cycles: 7799983478 heartbeat IPC: 0.04918 cumulative IPC: 0.04907 (Simulation time: 1 hr 6 min 30 sec) 
Heartbeat CPU  0 instructions:  478000001 cycles: 7820523637 heartbeat IPC: 0.04869 cumulative IPC: 0.04907 (Simulation time: 1 hr 6 min 39 sec) 
Heartbeat CPU  0 instructions:  479000001 cycles: 7841017220 heartbeat IPC: 0.04880 cumulative IPC: 0.04907 (Simulation time: 1 hr 6 min 49 sec) 
Heartbeat CPU  0 instructions:  480000000 cycles: 7861541143 heartbeat IPC: 0.04872 cumulative IPC: 0.04906 (Simulation time: 1 hr 6 min 59 sec) 
Heartbeat CPU  0 instructions:  481000000 cycles: 7882071282 heartbeat IPC: 0.04871 cumulative IPC: 0.04906 (Simulation time: 1 hr 7 min 8 sec) 
Heartbeat CPU  0 instructions:  482000000 cycles: 7902544335 heartbeat IPC: 0.04884 cumulative IPC: 0.04906 (Simulation time: 1 hr 7 min 18 sec) 
Heartbeat CPU  0 instructions:  483000000 cycles: 7922820090 heartbeat IPC: 0.04932 cumulative IPC: 0.04906 (Simulation time: 1 hr 7 min 28 sec) 
Heartbeat CPU  0 instructions:  484000000 cycles: 7943347924 heartbeat IPC: 0.04871 cumulative IPC: 0.04906 (Simulation time: 1 hr 7 min 37 sec) 
Heartbeat CPU  0 instructions:  485000000 cycles: 7964051238 heartbeat IPC: 0.04830 cumulative IPC: 0.04906 (Simulation time: 1 hr 7 min 47 sec) 
Heartbeat CPU  0 instructions:  486000002 cycles: 7984555567 heartbeat IPC: 0.04877 cumulative IPC: 0.04906 (Simulation time: 1 hr 7 min 57 sec) 
Heartbeat CPU  0 instructions:  487000000 cycles: 8004934393 heartbeat IPC: 0.04907 cumulative IPC: 0.04906 (Simulation time: 1 hr 8 min 7 sec) 
Heartbeat CPU  0 instructions:  488000000 cycles: 8025003674 heartbeat IPC: 0.04983 cumulative IPC: 0.04906 (Simulation time: 1 hr 8 min 16 sec) 
Heartbeat CPU  0 instructions:  489000000 cycles: 8045345769 heartbeat IPC: 0.04916 cumulative IPC: 0.04906 (Simulation time: 1 hr 8 min 26 sec) 
Heartbeat CPU  0 instructions:  490000000 cycles: 8065615751 heartbeat IPC: 0.04933 cumulative IPC: 0.04906 (Simulation time: 1 hr 8 min 35 sec) 
Heartbeat CPU  0 instructions:  491000000 cycles: 8085883834 heartbeat IPC: 0.04934 cumulative IPC: 0.04906 (Simulation time: 1 hr 8 min 45 sec) 
Heartbeat CPU  0 instructions:  492000000 cycles: 8106362237 heartbeat IPC: 0.04883 cumulative IPC: 0.04906 (Simulation time: 1 hr 8 min 55 sec) 
Heartbeat CPU  0 instructions:  493000001 cycles: 8126872229 heartbeat IPC: 0.04876 cumulative IPC: 0.04906 (Simulation time: 1 hr 9 min 5 sec) 
Heartbeat CPU  0 instructions:  494000001 cycles: 8147426553 heartbeat IPC: 0.04865 cumulative IPC: 0.04906 (Simulation time: 1 hr 9 min 14 sec) 
Heartbeat CPU  0 instructions:  495000002 cycles: 8167949266 heartbeat IPC: 0.04873 cumulative IPC: 0.04906 (Simulation time: 1 hr 9 min 24 sec) 
Heartbeat CPU  0 instructions:  496000000 cycles: 8188432278 heartbeat IPC: 0.04882 cumulative IPC: 0.04906 (Simulation time: 1 hr 9 min 34 sec) 
Heartbeat CPU  0 instructions:  497000001 cycles: 8208783063 heartbeat IPC: 0.04914 cumulative IPC: 0.04906 (Simulation time: 1 hr 9 min 44 sec) 
Heartbeat CPU  0 instructions:  498000000 cycles: 8229240562 heartbeat IPC: 0.04888 cumulative IPC: 0.04906 (Simulation time: 1 hr 9 min 54 sec) 
Heartbeat CPU  0 instructions:  499000003 cycles: 8249566315 heartbeat IPC: 0.04920 cumulative IPC: 0.04906 (Simulation time: 1 hr 10 min 4 sec) 
Heartbeat CPU  0 instructions:  500000000 cycles: 8269841544 heartbeat IPC: 0.04932 cumulative IPC: 0.04906 (Simulation time: 1 hr 10 min 13 sec) 
Heartbeat CPU  0 instructions:  501000000 cycles: 8290269751 heartbeat IPC: 0.04895 cumulative IPC: 0.04906 (Simulation time: 1 hr 10 min 23 sec) 
Heartbeat CPU  0 instructions:  502000001 cycles: 8310742035 heartbeat IPC: 0.04885 cumulative IPC: 0.04906 (Simulation time: 1 hr 10 min 33 sec) 
Heartbeat CPU  0 instructions:  503000001 cycles: 8331142994 heartbeat IPC: 0.04902 cumulative IPC: 0.04906 (Simulation time: 1 hr 10 min 43 sec) 
Heartbeat CPU  0 instructions:  504000000 cycles: 8351452646 heartbeat IPC: 0.04924 cumulative IPC: 0.04906 (Simulation time: 1 hr 10 min 52 sec) 
Heartbeat CPU  0 instructions:  505000001 cycles: 8371642811 heartbeat IPC: 0.04953 cumulative IPC: 0.04906 (Simulation time: 1 hr 11 min 2 sec) 
Heartbeat CPU  0 instructions:  506000003 cycles: 8391956852 heartbeat IPC: 0.04923 cumulative IPC: 0.04906 (Simulation time: 1 hr 11 min 12 sec) 
Heartbeat CPU  0 instructions:  507000000 cycles: 8412063066 heartbeat IPC: 0.04974 cumulative IPC: 0.04906 (Simulation time: 1 hr 11 min 22 sec) 
Heartbeat CPU  0 instructions:  508000000 cycles: 8432353245 heartbeat IPC: 0.04928 cumulative IPC: 0.04906 (Simulation time: 1 hr 11 min 31 sec) 
Heartbeat CPU  0 instructions:  509000000 cycles: 8452786831 heartbeat IPC: 0.04894 cumulative IPC: 0.04906 (Simulation time: 1 hr 11 min 41 sec) 
Heartbeat CPU  0 instructions:  510000001 cycles: 8473012922 heartbeat IPC: 0.04944 cumulative IPC: 0.04906 (Simulation time: 1 hr 11 min 51 sec) 
Heartbeat CPU  0 instructions:  511000003 cycles: 8493112463 heartbeat IPC: 0.04975 cumulative IPC: 0.04907 (Simulation time: 1 hr 12 min 0 sec) 
Heartbeat CPU  0 instructions:  512000000 cycles: 8513301842 heartbeat IPC: 0.04953 cumulative IPC: 0.04907 (Simulation time: 1 hr 12 min 10 sec) 
Heartbeat CPU  0 instructions:  513000001 cycles: 8533569380 heartbeat IPC: 0.04934 cumulative IPC: 0.04907 (Simulation time: 1 hr 12 min 20 sec) 
Heartbeat CPU  0 instructions:  514000000 cycles: 8553884011 heartbeat IPC: 0.04923 cumulative IPC: 0.04907 (Simulation time: 1 hr 12 min 30 sec) 
Heartbeat CPU  0 instructions:  515000001 cycles: 8574128665 heartbeat IPC: 0.04940 cumulative IPC: 0.04907 (Simulation time: 1 hr 12 min 39 sec) 
Heartbeat CPU  0 instructions:  516000000 cycles: 8594639589 heartbeat IPC: 0.04875 cumulative IPC: 0.04907 (Simulation time: 1 hr 12 min 49 sec) 
Heartbeat CPU  0 instructions:  517000002 cycles: 8615012041 heartbeat IPC: 0.04909 cumulative IPC: 0.04907 (Simulation time: 1 hr 12 min 59 sec) 
Heartbeat CPU  0 instructions:  518000000 cycles: 8635575132 heartbeat IPC: 0.04863 cumulative IPC: 0.04907 (Simulation time: 1 hr 13 min 9 sec) 
Heartbeat CPU  0 instructions:  519000000 cycles: 8656211428 heartbeat IPC: 0.04846 cumulative IPC: 0.04907 (Simulation time: 1 hr 13 min 19 sec) 
Heartbeat CPU  0 instructions:  520000000 cycles: 8676724378 heartbeat IPC: 0.04875 cumulative IPC: 0.04906 (Simulation time: 1 hr 13 min 28 sec) 
Heartbeat CPU  0 instructions:  521000000 cycles: 8697294844 heartbeat IPC: 0.04861 cumulative IPC: 0.04906 (Simulation time: 1 hr 13 min 38 sec) 
Heartbeat CPU  0 instructions:  522000000 cycles: 8717570985 heartbeat IPC: 0.04932 cumulative IPC: 0.04906 (Simulation time: 1 hr 13 min 48 sec) 
Heartbeat CPU  0 instructions:  523000001 cycles: 8737959827 heartbeat IPC: 0.04905 cumulative IPC: 0.04906 (Simulation time: 1 hr 13 min 58 sec) 
Heartbeat CPU  0 instructions:  524000000 cycles: 8758456300 heartbeat IPC: 0.04879 cumulative IPC: 0.04906 (Simulation time: 1 hr 14 min 7 sec) 
Heartbeat CPU  0 instructions:  525000000 cycles: 8778955721 heartbeat IPC: 0.04878 cumulative IPC: 0.04906 (Simulation time: 1 hr 14 min 17 sec) 
Heartbeat CPU  0 instructions:  526000001 cycles: 8799537287 heartbeat IPC: 0.04859 cumulative IPC: 0.04906 (Simulation time: 1 hr 14 min 27 sec) 
Heartbeat CPU  0 instructions:  527000000 cycles: 8820010362 heartbeat IPC: 0.04884 cumulative IPC: 0.04906 (Simulation time: 1 hr 14 min 37 sec) 
Heartbeat CPU  0 instructions:  528000000 cycles: 8840375032 heartbeat IPC: 0.04910 cumulative IPC: 0.04906 (Simulation time: 1 hr 14 min 47 sec) 
Heartbeat CPU  0 instructions:  529000001 cycles: 8860933551 heartbeat IPC: 0.04864 cumulative IPC: 0.04906 (Simulation time: 1 hr 14 min 56 sec) 
Heartbeat CPU  0 instructions:  530000000 cycles: 8881271783 heartbeat IPC: 0.04917 cumulative IPC: 0.04906 (Simulation time: 1 hr 15 min 6 sec) 
Heartbeat CPU  0 instructions:  531000001 cycles: 8900598421 heartbeat IPC: 0.05174 cumulative IPC: 0.04907 (Simulation time: 1 hr 15 min 15 sec) 
Heartbeat CPU  0 instructions:  532000000 cycles: 8920937592 heartbeat IPC: 0.04917 cumulative IPC: 0.04907 (Simulation time: 1 hr 15 min 25 sec) 
Heartbeat CPU  0 instructions:  533000000 cycles: 8941250064 heartbeat IPC: 0.04923 cumulative IPC: 0.04907 (Simulation time: 1 hr 15 min 35 sec) 
Heartbeat CPU  0 instructions:  534000003 cycles: 8961468112 heartbeat IPC: 0.04946 cumulative IPC: 0.04907 (Simulation time: 1 hr 15 min 44 sec) 
Heartbeat CPU  0 instructions:  535000002 cycles: 8981426880 heartbeat IPC: 0.05010 cumulative IPC: 0.04907 (Simulation time: 1 hr 15 min 54 sec) 
Heartbeat CPU  0 instructions:  536000000 cycles: 9001391848 heartbeat IPC: 0.05009 cumulative IPC: 0.04907 (Simulation time: 1 hr 16 min 3 sec) 
Heartbeat CPU  0 instructions:  537000001 cycles: 9021838914 heartbeat IPC: 0.04891 cumulative IPC: 0.04907 (Simulation time: 1 hr 16 min 13 sec) 
Heartbeat CPU  0 instructions:  538000000 cycles: 9042082617 heartbeat IPC: 0.04940 cumulative IPC: 0.04907 (Simulation time: 1 hr 16 min 23 sec) 
Heartbeat CPU  0 instructions:  539000000 cycles: 9062361843 heartbeat IPC: 0.04931 cumulative IPC: 0.04907 (Simulation time: 1 hr 16 min 32 sec) 
Heartbeat CPU  0 instructions:  540000000 cycles: 9082651845 heartbeat IPC: 0.04929 cumulative IPC: 0.04907 (Simulation time: 1 hr 16 min 42 sec) 
Heartbeat CPU  0 instructions:  541000000 cycles: 9102766040 heartbeat IPC: 0.04972 cumulative IPC: 0.04908 (Simulation time: 1 hr 16 min 52 sec) 
Heartbeat CPU  0 instructions:  542000001 cycles: 9122694164 heartbeat IPC: 0.05018 cumulative IPC: 0.04908 (Simulation time: 1 hr 17 min 1 sec) 
Heartbeat CPU  0 instructions:  543000000 cycles: 9142652068 heartbeat IPC: 0.05011 cumulative IPC: 0.04908 (Simulation time: 1 hr 17 min 11 sec) 
Heartbeat CPU  0 instructions:  544000000 cycles: 9162568372 heartbeat IPC: 0.05021 cumulative IPC: 0.04908 (Simulation time: 1 hr 17 min 20 sec) 
Heartbeat CPU  0 instructions:  545000002 cycles: 9182898317 heartbeat IPC: 0.04919 cumulative IPC: 0.04908 (Simulation time: 1 hr 17 min 30 sec) 
Heartbeat CPU  0 instructions:  546000001 cycles: 9203120572 heartbeat IPC: 0.04945 cumulative IPC: 0.04908 (Simulation time: 1 hr 17 min 40 sec) 
Heartbeat CPU  0 instructions:  547000001 cycles: 9223225826 heartbeat IPC: 0.04974 cumulative IPC: 0.04909 (Simulation time: 1 hr 17 min 49 sec) 
Heartbeat CPU  0 instructions:  548000000 cycles: 9243298593 heartbeat IPC: 0.04982 cumulative IPC: 0.04909 (Simulation time: 1 hr 17 min 59 sec) 
Heartbeat CPU  0 instructions:  549000000 cycles: 9263421897 heartbeat IPC: 0.04969 cumulative IPC: 0.04909 (Simulation time: 1 hr 18 min 8 sec) 
Heartbeat CPU  0 instructions:  550000001 cycles: 9283302459 heartbeat IPC: 0.05030 cumulative IPC: 0.04909 (Simulation time: 1 hr 18 min 18 sec) 
Heartbeat CPU  0 instructions:  551000002 cycles: 9303193855 heartbeat IPC: 0.05027 cumulative IPC: 0.04909 (Simulation time: 1 hr 18 min 27 sec) 
Heartbeat CPU  0 instructions:  552000000 cycles: 9323262634 heartbeat IPC: 0.04983 cumulative IPC: 0.04909 (Simulation time: 1 hr 18 min 37 sec) 
Heartbeat CPU  0 instructions:  553000000 cycles: 9343261901 heartbeat IPC: 0.05000 cumulative IPC: 0.04910 (Simulation time: 1 hr 18 min 47 sec) 
Heartbeat CPU  0 instructions:  554000001 cycles: 9363214780 heartbeat IPC: 0.05012 cumulative IPC: 0.04910 (Simulation time: 1 hr 18 min 56 sec) 
Heartbeat CPU  0 instructions:  555000000 cycles: 9383327093 heartbeat IPC: 0.04972 cumulative IPC: 0.04910 (Simulation time: 1 hr 19 min 6 sec) 
Heartbeat CPU  0 instructions:  556000000 cycles: 9403342591 heartbeat IPC: 0.04996 cumulative IPC: 0.04910 (Simulation time: 1 hr 19 min 15 sec) 
Heartbeat CPU  0 instructions:  557000000 cycles: 9423284087 heartbeat IPC: 0.05015 cumulative IPC: 0.04910 (Simulation time: 1 hr 19 min 25 sec) 
Heartbeat CPU  0 instructions:  558000000 cycles: 9442892258 heartbeat IPC: 0.05100 cumulative IPC: 0.04911 (Simulation time: 1 hr 19 min 34 sec) 
Heartbeat CPU  0 instructions:  559000003 cycles: 9462930413 heartbeat IPC: 0.04990 cumulative IPC: 0.04911 (Simulation time: 1 hr 19 min 44 sec) 
Heartbeat CPU  0 instructions:  560000000 cycles: 9483205556 heartbeat IPC: 0.04932 cumulative IPC: 0.04911 (Simulation time: 1 hr 19 min 54 sec) 
Heartbeat CPU  0 instructions:  561000001 cycles: 9503291249 heartbeat IPC: 0.04979 cumulative IPC: 0.04911 (Simulation time: 1 hr 20 min 5 sec) 
Heartbeat CPU  0 instructions:  562000000 cycles: 9523383062 heartbeat IPC: 0.04977 cumulative IPC: 0.04911 (Simulation time: 1 hr 20 min 14 sec) 
Heartbeat CPU  0 instructions:  563000001 cycles: 9543516915 heartbeat IPC: 0.04967 cumulative IPC: 0.04911 (Simulation time: 1 hr 20 min 24 sec) 
Heartbeat CPU  0 instructions:  564000000 cycles: 9563640317 heartbeat IPC: 0.04969 cumulative IPC: 0.04912 (Simulation time: 1 hr 20 min 34 sec) 
Heartbeat CPU  0 instructions:  565000003 cycles: 9583660187 heartbeat IPC: 0.04995 cumulative IPC: 0.04912 (Simulation time: 1 hr 20 min 43 sec) 
Heartbeat CPU  0 instructions:  566000001 cycles: 9603837163 heartbeat IPC: 0.04956 cumulative IPC: 0.04912 (Simulation time: 1 hr 20 min 53 sec) 
Heartbeat CPU  0 instructions:  567000001 cycles: 9623857541 heartbeat IPC: 0.04995 cumulative IPC: 0.04912 (Simulation time: 1 hr 21 min 2 sec) 
Heartbeat CPU  0 instructions:  568000000 cycles: 9643908304 heartbeat IPC: 0.04987 cumulative IPC: 0.04912 (Simulation time: 1 hr 21 min 11 sec) 
Heartbeat CPU  0 instructions:  569000002 cycles: 9663657888 heartbeat IPC: 0.05063 cumulative IPC: 0.04913 (Simulation time: 1 hr 21 min 21 sec) 
Heartbeat CPU  0 instructions:  570000001 cycles: 9683280076 heartbeat IPC: 0.05096 cumulative IPC: 0.04913 (Simulation time: 1 hr 21 min 30 sec) 
Heartbeat CPU  0 instructions:  571000001 cycles: 9703268912 heartbeat IPC: 0.05003 cumulative IPC: 0.04913 (Simulation time: 1 hr 21 min 39 sec) 
Heartbeat CPU  0 instructions:  572000000 cycles: 9723164346 heartbeat IPC: 0.05026 cumulative IPC: 0.04913 (Simulation time: 1 hr 21 min 49 sec) 
Heartbeat CPU  0 instructions:  573000000 cycles: 9743127960 heartbeat IPC: 0.05009 cumulative IPC: 0.04913 (Simulation time: 1 hr 21 min 58 sec) 
Heartbeat CPU  0 instructions:  574000000 cycles: 9762907195 heartbeat IPC: 0.05056 cumulative IPC: 0.04914 (Simulation time: 1 hr 22 min 7 sec) 
Heartbeat CPU  0 instructions:  575000000 cycles: 9782723201 heartbeat IPC: 0.05046 cumulative IPC: 0.04914 (Simulation time: 1 hr 22 min 17 sec) 
Heartbeat CPU  0 instructions:  576000000 cycles: 9802175190 heartbeat IPC: 0.05141 cumulative IPC: 0.04915 (Simulation time: 1 hr 22 min 26 sec) 
Heartbeat CPU  0 instructions:  577000000 cycles: 9821516322 heartbeat IPC: 0.05170 cumulative IPC: 0.04915 (Simulation time: 1 hr 22 min 35 sec) 
Heartbeat CPU  0 instructions:  578000002 cycles: 9840913896 heartbeat IPC: 0.05155 cumulative IPC: 0.04916 (Simulation time: 1 hr 22 min 44 sec) 
Heartbeat CPU  0 instructions:  579000001 cycles: 9860136739 heartbeat IPC: 0.05202 cumulative IPC: 0.04916 (Simulation time: 1 hr 22 min 53 sec) 
Heartbeat CPU  0 instructions:  580000000 cycles: 9879202377 heartbeat IPC: 0.05245 cumulative IPC: 0.04917 (Simulation time: 1 hr 23 min 2 sec) 
Heartbeat CPU  0 instructions:  581000000 cycles: 9898266230 heartbeat IPC: 0.05246 cumulative IPC: 0.04917 (Simulation time: 1 hr 23 min 11 sec) 
Heartbeat CPU  0 instructions:  582000001 cycles: 9916956650 heartbeat IPC: 0.05350 cumulative IPC: 0.04918 (Simulation time: 1 hr 23 min 20 sec) 
Heartbeat CPU  0 instructions:  583000000 cycles: 9935979415 heartbeat IPC: 0.05257 cumulative IPC: 0.04919 (Simulation time: 1 hr 23 min 29 sec) 
Heartbeat CPU  0 instructions:  584000000 cycles: 9955065932 heartbeat IPC: 0.05239 cumulative IPC: 0.04919 (Simulation time: 1 hr 23 min 38 sec) 
Heartbeat CPU  0 instructions:  585000000 cycles: 9974248083 heartbeat IPC: 0.05213 cumulative IPC: 0.04920 (Simulation time: 1 hr 23 min 48 sec) 
Heartbeat CPU  0 instructions:  586000001 cycles: 9993568532 heartbeat IPC: 0.05176 cumulative IPC: 0.04921 (Simulation time: 1 hr 23 min 57 sec) 
Heartbeat CPU  0 instructions:  587000001 cycles: 10012913492 heartbeat IPC: 0.05169 cumulative IPC: 0.04921 (Simulation time: 1 hr 24 min 6 sec) 
Heartbeat CPU  0 instructions:  588000000 cycles: 10032351662 heartbeat IPC: 0.05145 cumulative IPC: 0.04921 (Simulation time: 1 hr 24 min 15 sec) 
Heartbeat CPU  0 instructions:  589000002 cycles: 10051948010 heartbeat IPC: 0.05103 cumulative IPC: 0.04922 (Simulation time: 1 hr 24 min 24 sec) 
Heartbeat CPU  0 instructions:  590000000 cycles: 10071455214 heartbeat IPC: 0.05126 cumulative IPC: 0.04922 (Simulation time: 1 hr 24 min 34 sec) 
Heartbeat CPU  0 instructions:  591000000 cycles: 10091269301 heartbeat IPC: 0.05047 cumulative IPC: 0.04922 (Simulation time: 1 hr 24 min 43 sec) 
Heartbeat CPU  0 instructions:  592000000 cycles: 10110989989 heartbeat IPC: 0.05071 cumulative IPC: 0.04923 (Simulation time: 1 hr 24 min 52 sec) 
Heartbeat CPU  0 instructions:  593000000 cycles: 10130714928 heartbeat IPC: 0.05070 cumulative IPC: 0.04923 (Simulation time: 1 hr 25 min 1 sec) 
Heartbeat CPU  0 instructions:  594000000 cycles: 10150736477 heartbeat IPC: 0.04995 cumulative IPC: 0.04923 (Simulation time: 1 hr 25 min 11 sec) 
Heartbeat CPU  0 instructions:  595000002 cycles: 10170728497 heartbeat IPC: 0.05002 cumulative IPC: 0.04923 (Simulation time: 1 hr 25 min 20 sec) 
Heartbeat CPU  0 instructions:  596000000 cycles: 10190717419 heartbeat IPC: 0.05003 cumulative IPC: 0.04924 (Simulation time: 1 hr 25 min 29 sec) 
Heartbeat CPU  0 instructions:  597000000 cycles: 10210773418 heartbeat IPC: 0.04986 cumulative IPC: 0.04924 (Simulation time: 1 hr 25 min 39 sec) 
Heartbeat CPU  0 instructions:  598000000 cycles: 10230744987 heartbeat IPC: 0.05007 cumulative IPC: 0.04924 (Simulation time: 1 hr 25 min 48 sec) 
Heartbeat CPU  0 instructions:  599000002 cycles: 10250622459 heartbeat IPC: 0.05031 cumulative IPC: 0.04924 (Simulation time: 1 hr 25 min 58 sec) 
Heartbeat CPU  0 instructions:  600000000 cycles: 10270633022 heartbeat IPC: 0.04997 cumulative IPC: 0.04924 (Simulation time: 1 hr 26 min 7 sec) 
Finished CPU 0 instructions: 500000003 cycles: 10154047456 cumulative IPC: 0.04924 (Simulation time: 1 hr 26 min 7 sec) 

ChampSim completed all CPUs

[ROI Statistics]
Core_0_instructions 500000003
Core_0_cycles 10154047456
Core_0_IPC 0.04924

Core_0_branch_prediction_accuracy 91.38259
Core_0_branch_MPKI 20.71461
Core_0_average_ROB_occupancy_at_mispredict 46.75692

Core_0_L1D_total_access 104098847
Core_0_L1D_total_hit 29056361
Core_0_L1D_total_miss 75042486
Core_0_L1D_loads 103983948
Core_0_L1D_load_hit 28943957
Core_0_L1D_load_miss 75039991
Core_0_L1D_RFOs 114899
Core_0_L1D_RFO_hit 112404
Core_0_L1D_RFO_miss 2495
Core_0_L1D_prefetches 0
Core_0_L1D_prefetch_hit 0
Core_0_L1D_prefetch_miss 0
Core_0_L1D_writebacks 0
Core_0_L1D_writeback_hit 0
Core_0_L1D_writeback_miss 0
Core_0_L1D_prefetch_requested 0
Core_0_L1D_prefetch_dropped 0
Core_0_L1D_prefetch_issued 0
Core_0_L1D_prefetch_filled 0
Core_0_L1D_prefetch_useful 0
Core_0_L1D_prefetch_useless 0
Core_0_L1D_prefetch_late 0
Core_0_L1D_average_miss_latency 253.00240

Core_0_L1D_rq_access 155342333
Core_0_L1D_rq_forward 0
Core_0_L1D_rq_merged 51322899
Core_0_L1D_rq_to_cache 104019434
Core_0_L1D_rq_full 0

Core_0_L1D_wq_access 123159
Core_0_L1D_wq_forward 0
Core_0_L1D_wq_merged 6867
Core_0_L1D_wq_to_cache 116292
Core_0_L1D_wq_full 0

Core_0_L1D_pq_access 0
Core_0_L1D_pq_forward 0
Core_0_L1D_pq_merged 0
Core_0_L1D_pq_to_cache 0
Core_0_L1D_pq_full 0

Core_0_L1D_acc_epochs 9905958
Core_0_L1D_acc_level_0 9905958
Core_0_L1D_acc_level_1 0
Core_0_L1D_acc_level_2 0
Core_0_L1D_acc_level_3 0
Core_0_L1D_acc_level_4 0
Core_0_L1D_acc_level_5 0
Core_0_L1D_acc_level_6 0
Core_0_L1D_acc_level_7 0
Core_0_L1D_acc_level_8 0
Core_0_L1D_acc_level_9 0

Core_0_L1I_total_access 90892724
Core_0_L1I_total_hit 90892724
Core_0_L1I_total_miss 0
Core_0_L1I_loads 90892724
Core_0_L1I_load_hit 90892724
Core_0_L1I_load_miss 0
Core_0_L1I_RFOs 0
Core_0_L1I_RFO_hit 0
Core_0_L1I_RFO_miss 0
Core_0_L1I_prefetches 0
Core_0_L1I_prefetch_hit 0
Core_0_L1I_prefetch_miss 0
Core_0_L1I_writebacks 0
Core_0_L1I_writeback_hit 0
Core_0_L1I_writeback_miss 0
Core_0_L1I_prefetch_requested 0
Core_0_L1I_prefetch_dropped 0
Core_0_L1I_prefetch_issued 0
Core_0_L1I_prefetch_filled 0
Core_0_L1I_prefetch_useful 0
Core_0_L1I_prefetch_useless 0
Core_0_L1I_prefetch_late 0
Core_0_L1I_average_miss_latency -nan

Core_0_L1I_rq_access 499999982
Core_0_L1I_rq_forward 0
Core_0_L1I_rq_merged 409107258
Core_0_L1I_rq_to_cache 90892724
Core_0_L1I_rq_full 0

Core_0_L1I_wq_access 0
Core_0_L1I_wq_forward 0
Core_0_L1I_wq_merged 0
Core_0_L1I_wq_to_cache 0
Core_0_L1I_wq_full 0

Core_0_L1I_pq_access 0
Core_0_L1I_pq_forward 0
Core_0_L1I_pq_merged 0
Core_0_L1I_pq_to_cache 0
Core_0_L1I_pq_full 0

Core_0_L1I_acc_epochs 9905958
Core_0_L1I_acc_level_0 9905958
Core_0_L1I_acc_level_1 0
Core_0_L1I_acc_level_2 0
Core_0_L1I_acc_level_3 0
Core_0_L1I_acc_level_4 0
Core_0_L1I_acc_level_5 0
Core_0_L1I_acc_level_6 0
Core_0_L1I_acc_level_7 0
Core_0_L1I_acc_level_8 0
Core_0_L1I_acc_level_9 0

Core_0_L2C_total_access 138565437
Core_0_L2C_total_hit 70896196
Core_0_L2C_total_miss 67669241
Core_0_L2C_loads 75039991
Core_0_L2C_load_hit 15736076
Core_0_L2C_load_miss 59303915
Core_0_L2C_RFOs 2495
Core_0_L2C_RFO_hit 574
Core_0_L2C_RFO_miss 1921
Core_0_L2C_prefetches 63460398
Core_0_L2C_prefetch_hit 55097008
Core_0_L2C_prefetch_miss 8363390
Core_0_L2C_writebacks 62553
Core_0_L2C_writeback_hit 62538
Core_0_L2C_writeback_miss 15
Core_0_L2C_prefetch_requested 937991664
Core_0_L2C_prefetch_dropped 0
Core_0_L2C_prefetch_issued 937991664
Core_0_L2C_prefetch_filled 9784576
Core_0_L2C_prefetch_useful 1840427
Core_0_L2C_prefetch_useless 7943596
Core_0_L2C_prefetch_late 22902
Core_0_L2C_average_miss_latency 285.66773

Core_0_L2C_rq_access 75042486
Core_0_L2C_rq_forward 0
Core_0_L2C_rq_merged 0
Core_0_L2C_rq_to_cache 75042486
Core_0_L2C_rq_full 0

Core_0_L2C_wq_access 62553
Core_0_L2C_wq_forward 0
Core_0_L2C_wq_merged 0
Core_0_L2C_wq_to_cache 62553
Core_0_L2C_wq_full 0

Core_0_L2C_pq_access 937991664
Core_0_L2C_pq_forward 0
Core_0_L2C_pq_merged 16
Core_0_L2C_pq_to_cache 937991648
Core_0_L2C_pq_full 0

Core_0_L2C_acc_epochs 9905958
Core_0_L2C_acc_level_0 8728901
Core_0_L2C_acc_level_1 491185
Core_0_L2C_acc_level_2 341442
Core_0_L2C_acc_level_3 50242
Core_0_L2C_acc_level_4 10637
Core_0_L2C_acc_level_5 218639
Core_0_L2C_acc_level_6 13557
Core_0_L2C_acc_level_7 10286
Core_0_L2C_acc_level_8 3414
Core_0_L2C_acc_level_9 37655

Core_0_LLC_total_access 866250654
Core_0_LLC_total_hit 572973068
Core_0_LLC_total_miss 293277586
Core_0_LLC_loads 59281603
Core_0_LLC_load_hit 18361389
Core_0_LLC_load_miss 40920214
Core_0_LLC_RFOs 1889
Core_0_LLC_RFO_hit 244
Core_0_LLC_RFO_miss 1645
Core_0_LLC_prefetches 806906022
Core_0_LLC_prefetch_hit 554567714
Core_0_LLC_prefetch_miss 252338308
Core_0_LLC_writebacks 61140
Core_0_LLC_writeback_hit 43721
Core_0_LLC_writeback_miss 17419
Core_0_LLC_prefetch_requested 0
Core_0_LLC_prefetch_dropped 0
Core_0_LLC_prefetch_issued 0
Core_0_LLC_prefetch_filled 274854190
Core_0_LLC_prefetch_useful 14749603
Core_0_LLC_prefetch_useless 260076110
Core_0_LLC_prefetch_late 24117
Core_0_LLC_average_miss_latency 320.43857

Core_0_LLC_rq_access 59283492
Core_0_LLC_rq_forward 0
Core_0_LLC_rq_merged 0
Core_0_LLC_rq_to_cache 59283492
Core_0_LLC_rq_full 0

Core_0_LLC_wq_access 61140
Core_0_LLC_wq_forward 0
Core_0_LLC_wq_merged 0
Core_0_LLC_wq_to_cache 61140
Core_0_LLC_wq_full 0

Core_0_LLC_pq_access 878387592
Core_0_LLC_pq_forward 0
Core_0_LLC_pq_merged 0
Core_0_LLC_pq_to_cache 878387589
Core_0_LLC_pq_full 0

Core_0_LLC_acc_epochs 10029916
Core_0_LLC_acc_level_0 6320461
Core_0_LLC_acc_level_1 2111371
Core_0_LLC_acc_level_2 726506
Core_0_LLC_acc_level_3 316440
Core_0_LLC_acc_level_4 113402
Core_0_LLC_acc_level_5 210428
Core_0_LLC_acc_level_6 46207
Core_0_LLC_acc_level_7 42059
Core_0_LLC_acc_level_8 23701
Core_0_LLC_acc_level_9 119341

Core_0_major_page_fault 0
Core_0_minor_page_fault 428295

[Bingo] PHT Access: 81118354
[Bingo] PHT Hit PC+Addr: 7055001
[Bingo] PHT Hit PC+Offs: 43223570
[Bingo] PHT Miss: 30839783
[Bingo] Prefetch PC+Addr: 0
[Bingo] Prefetch PC+Offs: 0
[Bingo] Useful PC+Addr: 0
[Bingo] Useful PC+Offs: 0
[Bingo] Useless PC+Addr: 0
[Bingo] Useless PC+Offs: 0
[Bingo] L1 Prefetch per Region: 0.00000
[Bingo] L2 Prefetch per Region: 1.38522
[Bingo] L3 Prefetch per Region: 20.29630
[Bingo] No Prefetch per Region: 10.31848
[Bingo] Number of Voters Mean: 15.86258
[Bingo] Number of Voters SD: 1.04298

Channel_0_RQ_row_buffer_hit 145061446
Channel_0_RQ_row_buffer_miss 148198333
Channel_0_WQ_row_buffer_hit 16565
Channel_0_WQ_row_buffer_miss 42620
Channel_0_WQ_full 0
Channel_0_dbus_congested 70158807

avg_congested_cycle 4

DRAM_bw_pochs 40119661
DRAM_bw_level_0 20015573
DRAM_bw_level_1 11066147
DRAM_bw_level_2 5466755
DRAM_bw_level_3 3571186
