*************************************************
   ChampSim Multicore Out-of-Order Simulator
   Last compiled: Dec 11 2024 17:59:53
*************************************************
parsing config file: /home/functionmain/桌面/Pythia/config/pythia.ini

trace_0 /home/functionmain/桌面/Pythia/traces/429.mcf-192B.champsimtrace.xz
adding L2C_PREFETCHER: Scooby
Initialize SHIP state
warmup_instructions 100000000
simulation_instructions 500000000
champsim_seed 222
measure_ipc 0
measure_ipc_epoch 1000
measure_dram_bw 1
measure_dram_bw_epoch 256
measure_cache_acc 1
measure_cache_acc_epoch 1024
l1d_perfect 0
l2c_perfect 0
llc_perfect 0
l1d_semi_perfect 0
l2c_semi_perfect 0
llc_semi_perfect 0
semi_perfect_cache_page_buffer_size 64

num_cpus 1
cpu_freq 4000
dram_io_freq 2400
page_size 4096
block_size 64
max_read_per_cycle 8
max_fill_per_cycle 1
dram_channels 1
log2_dram_channels 0
dram_ranks 1
dram_banks 8
dram_rows 65536
dram_columns 128
dram_row_size 8
dram_size 4096
dram_pages 1048576

fetch_width 6
decode_width 6
exec_width 4
lq_width 2
sq_width 2
retire_width 4
scheduler_size 128
branch_mispredict_penalty 20
rob_size 256
lq_size 72
sq_size 56
num_instr_destinations_sparc 4
num_instr_destinations 2
num_instr_sources 4

itlb_set 16
itlb_way 8
itlb_rq_size 16
itlb_wq_size 16
itlb_pq_size 0
itlb_mshr_size 8
itlb_latency 1

dtlb_set 16
dtlb_way 4
dtlb_rq_size 16
dtlb_wq_size 16
dtlb_pq_size 0
dtlb_mshr_size 8
dtlb_latency 1

stlb_set 128
stlb_way 12
stlb_rq_size 32
stlb_wq_size 32
stlb_pq_size 0
stlb_mshr_size 16
stlb_latency 8

l1i_size 32
l1i_set 64
l1i_way 8
l1i_rq_size 64
l1i_wq_size 64
l1i_pq_size 8
l1i_mshr_size 8
l1i_latency 1

l1d_size 32
l1d_set 64
l1d_way 8
l1d_rq_size 64
l1d_wq_size 64
l1d_pq_size 8
l1d_mshr_size 16
l1d_latency 4

l2c_size 256
l2c_set 512
l2c_way 8
l2c_rq_size 32
l2c_wq_size 32
l2c_pq_size 32
l2c_mshr_size 32
l2c_latency 10

llc_size 2048
llc_set 2048
llc_way 16
llc_rq_size 32
llc_wq_size 32
llc_pq_size 32
llc_mshr_size 64
llc_latency 20

dram_channel_width 8
dram_wq_size 64
dram_rq_size 64
tRP 15
tRCD 15
tCAS 12.5
dram_dbus_turn_around_time 30
dram_write_high_wm 56
dram_write_low_wm 48
min_dram_writes_per_switch 16
dram_mtps 2400
dram_dbus_return_time 13

scooby_alpha 0.0065088
scooby_gamma 0.556301
scooby_epsilon 0.00182284
scooby_state_num_bits 10
scooby_max_states 1024
scooby_seed 200
scooby_policy EGreedy
scooby_learning_type SARSA
scooby_actions 1,3,4,5,10,11,12,22,23,30,32,-1,-3,-6,0,
scooby_max_actions 15
scooby_pt_size 256
scooby_st_size 64
scooby_max_pcs 5
scooby_max_offsets 5
scooby_max_deltas 5
scooby_reward_none -4
scooby_reward_incorrect -8
scooby_reward_correct_untimely 12
scooby_reward_correct_timely 20
scooby_brain_zero_init 0
scooby_enable_reward_all 0
scooby_enable_track_multiple 0
scooby_enable_reward_out_of_bounds 1
scooby_reward_out_of_bounds -12
scooby_state_type 1
scooby_state_hash_type 11
scooby_access_debug 0
scooby_print_access_debug 0
scooby_print_access_debug_pc deadbeef
scooby_print_access_debug_pc_count 0
scooby_print_trace 0
scooby_enable_state_action_stats 1
scooby_enable_reward_tracker_hit 0
scooby_reward_tracker_hit -2
scooby_enable_featurewise_engine 1
scooby_pref_degree 1
scooby_enable_dyn_degree 1
scooby_max_to_avg_q_thresholds 0.5,1,2,
scooby_dyn_degrees 1,2,4,4,
scooby_multi_deg_select_type 2
scooby_last_pref_offset_conf_thresholds 1,3,8,
scooby_dyn_degrees_type2 1,2,4,6,
scooby_action_tracker_size 2
scooby_high_bw_thresh 4
scooby_enable_hbw_reward 1
scooby_reward_hbw_correct_timely 20
scooby_reward_hbw_correct_untimely 12
scooby_reward_hbw_incorrect -14
scooby_reward_hbw_none -2
scooby_reward_hbw_out_of_bounds -12
scooby_reward_hbw_tracker_hit -2
scooby_last_pref_offset_conf_thresholds_hbw 1,3,8,
scooby_dyn_degrees_type2_hbw 1,2,4,6,

le_enable_trace 0
le_trace_interval 0
le_trace_file_name 
le_trace_state 0
le_enable_score_plot 0
le_plot_file_name 
le_plot_actions 
le_enable_action_trace 0
le_action_trace_interval 0
le_action_trace_name 
le_enable_action_plot 0

le_featurewise_active_features PC, PC_Delta
le_featurewise_num_tilings 3,3,
le_featurewise_num_tiles 128,128,
le_featurewise_hash_types 2,2,
le_featurewise_enable_tiling_offset 1,1,
le_featurewise_max_q_thresh 0.5
le_featurewise_enable_action_fallback 1
le_featurewise_feature_weights 1,1,
le_featurewise_enable_dynamic_weight 0
le_featurewise_weight_gradient 0.001
le_featurewise_disable_adjust_weight_all_features_align 1
le_featurewise_selective_update 0
le_featurewise_pooling_type 2
le_featurewise_enable_dyn_action_fallback 1
le_featurewise_bw_acc_check_level 1
le_featurewise_acc_thresh 2
le_featurewise_enable_trace 0
le_featurewise_trace_feature_type 0
le_featurewise_trace_feature 
le_featurewise_trace_interval 0
le_featurewise_trace_record_count 0
le_featurewise_trace_file_name 
le_featurewise_enable_score_plot 0
le_featurewise_plot_actions 
le_featurewise_plot_file_name 


Heartbeat CPU  0 instructions:    1000002 cycles:    1163897 heartbeat IPC: 0.85918 cumulative IPC: 0.85918 (Simulation time: 0 hr 0 min 3 sec) 
Heartbeat CPU  0 instructions:    2000002 cycles:    2334963 heartbeat IPC: 0.85392 cumulative IPC: 0.85655 (Simulation time: 0 hr 0 min 7 sec) 
Heartbeat CPU  0 instructions:    3000000 cycles:    3488762 heartbeat IPC: 0.86670 cumulative IPC: 0.85990 (Simulation time: 0 hr 0 min 10 sec) 
Heartbeat CPU  0 instructions:    4000000 cycles:    4619883 heartbeat IPC: 0.88408 cumulative IPC: 0.86582 (Simulation time: 0 hr 0 min 13 sec) 
Heartbeat CPU  0 instructions:    5000001 cycles:    5768455 heartbeat IPC: 0.87065 cumulative IPC: 0.86678 (Simulation time: 0 hr 0 min 17 sec) 
Heartbeat CPU  0 instructions:    6000002 cycles:    6912851 heartbeat IPC: 0.87382 cumulative IPC: 0.86795 (Simulation time: 0 hr 0 min 20 sec) 
Heartbeat CPU  0 instructions:    7000000 cycles:    8075591 heartbeat IPC: 0.86004 cumulative IPC: 0.86681 (Simulation time: 0 hr 0 min 23 sec) 
Heartbeat CPU  0 instructions:    8000000 cycles:    9222485 heartbeat IPC: 0.87192 cumulative IPC: 0.86745 (Simulation time: 0 hr 0 min 26 sec) 
Heartbeat CPU  0 instructions:    9000002 cycles:   10378820 heartbeat IPC: 0.86480 cumulative IPC: 0.86715 (Simulation time: 0 hr 0 min 30 sec) 
Heartbeat CPU  0 instructions:   10000000 cycles:   11532474 heartbeat IPC: 0.86681 cumulative IPC: 0.86712 (Simulation time: 0 hr 0 min 33 sec) 
Heartbeat CPU  0 instructions:   11000003 cycles:   12660321 heartbeat IPC: 0.88665 cumulative IPC: 0.86886 (Simulation time: 0 hr 0 min 36 sec) 
Heartbeat CPU  0 instructions:   12000000 cycles:   13763616 heartbeat IPC: 0.90637 cumulative IPC: 0.87186 (Simulation time: 0 hr 0 min 40 sec) 
Heartbeat CPU  0 instructions:   13000001 cycles:   14896217 heartbeat IPC: 0.88292 cumulative IPC: 0.87270 (Simulation time: 0 hr 0 min 43 sec) 
Heartbeat CPU  0 instructions:   14000000 cycles:   16037720 heartbeat IPC: 0.87604 cumulative IPC: 0.87294 (Simulation time: 0 hr 0 min 46 sec) 
Heartbeat CPU  0 instructions:   15000000 cycles:   17192177 heartbeat IPC: 0.86621 cumulative IPC: 0.87249 (Simulation time: 0 hr 0 min 50 sec) 
Heartbeat CPU  0 instructions:   16000000 cycles:   18349437 heartbeat IPC: 0.86411 cumulative IPC: 0.87196 (Simulation time: 0 hr 0 min 53 sec) 
Heartbeat CPU  0 instructions:   17000001 cycles:   19513126 heartbeat IPC: 0.85934 cumulative IPC: 0.87121 (Simulation time: 0 hr 0 min 56 sec) 
Heartbeat CPU  0 instructions:   18000000 cycles:   20673079 heartbeat IPC: 0.86210 cumulative IPC: 0.87070 (Simulation time: 0 hr 1 min 0 sec) 
Heartbeat CPU  0 instructions:   19000003 cycles:   21817974 heartbeat IPC: 0.87345 cumulative IPC: 0.87084 (Simulation time: 0 hr 1 min 3 sec) 
Heartbeat CPU  0 instructions:   20000000 cycles:   22956854 heartbeat IPC: 0.87805 cumulative IPC: 0.87120 (Simulation time: 0 hr 1 min 6 sec) 
Heartbeat CPU  0 instructions:   21000000 cycles:   24102762 heartbeat IPC: 0.87267 cumulative IPC: 0.87127 (Simulation time: 0 hr 1 min 9 sec) 
Heartbeat CPU  0 instructions:   22000002 cycles:   25253818 heartbeat IPC: 0.86877 cumulative IPC: 0.87116 (Simulation time: 0 hr 1 min 13 sec) 
Heartbeat CPU  0 instructions:   23000001 cycles:   26390201 heartbeat IPC: 0.87998 cumulative IPC: 0.87154 (Simulation time: 0 hr 1 min 16 sec) 
Heartbeat CPU  0 instructions:   24000000 cycles:   27526314 heartbeat IPC: 0.88019 cumulative IPC: 0.87189 (Simulation time: 0 hr 1 min 20 sec) 
Heartbeat CPU  0 instructions:   25000001 cycles:   28661350 heartbeat IPC: 0.88103 cumulative IPC: 0.87225 (Simulation time: 0 hr 1 min 23 sec) 
Heartbeat CPU  0 instructions:   26000000 cycles:   29803001 heartbeat IPC: 0.87592 cumulative IPC: 0.87240 (Simulation time: 0 hr 1 min 26 sec) 
Heartbeat CPU  0 instructions:   27000000 cycles:   30944918 heartbeat IPC: 0.87572 cumulative IPC: 0.87252 (Simulation time: 0 hr 1 min 30 sec) 
Heartbeat CPU  0 instructions:   28000000 cycles:   32065376 heartbeat IPC: 0.89249 cumulative IPC: 0.87322 (Simulation time: 0 hr 1 min 33 sec) 
Heartbeat CPU  0 instructions:   29000000 cycles:   33228380 heartbeat IPC: 0.85984 cumulative IPC: 0.87275 (Simulation time: 0 hr 1 min 36 sec) 
Heartbeat CPU  0 instructions:   30000002 cycles:   34390197 heartbeat IPC: 0.86072 cumulative IPC: 0.87234 (Simulation time: 0 hr 1 min 40 sec) 
Heartbeat CPU  0 instructions:   31000002 cycles:   35558945 heartbeat IPC: 0.85562 cumulative IPC: 0.87179 (Simulation time: 0 hr 1 min 43 sec) 
Heartbeat CPU  0 instructions:   32000000 cycles:   36714081 heartbeat IPC: 0.86570 cumulative IPC: 0.87160 (Simulation time: 0 hr 1 min 46 sec) 
Heartbeat CPU  0 instructions:   33000000 cycles:   37866210 heartbeat IPC: 0.86796 cumulative IPC: 0.87149 (Simulation time: 0 hr 1 min 49 sec) 
Heartbeat CPU  0 instructions:   34000002 cycles:   39014448 heartbeat IPC: 0.87090 cumulative IPC: 0.87147 (Simulation time: 0 hr 1 min 53 sec) 
Heartbeat CPU  0 instructions:   35000000 cycles:   40174681 heartbeat IPC: 0.86189 cumulative IPC: 0.87120 (Simulation time: 0 hr 1 min 56 sec) 
Heartbeat CPU  0 instructions:   36000000 cycles:   41346039 heartbeat IPC: 0.85371 cumulative IPC: 0.87070 (Simulation time: 0 hr 1 min 59 sec) 
Heartbeat CPU  0 instructions:   37000001 cycles:   42510819 heartbeat IPC: 0.85853 cumulative IPC: 0.87037 (Simulation time: 0 hr 2 min 3 sec) 
Heartbeat CPU  0 instructions:   38000000 cycles:   43662606 heartbeat IPC: 0.86822 cumulative IPC: 0.87031 (Simulation time: 0 hr 2 min 6 sec) 
Heartbeat CPU  0 instructions:   39000000 cycles:   44813544 heartbeat IPC: 0.86886 cumulative IPC: 0.87027 (Simulation time: 0 hr 2 min 9 sec) 
Heartbeat CPU  0 instructions:   40000000 cycles:   45959756 heartbeat IPC: 0.87244 cumulative IPC: 0.87033 (Simulation time: 0 hr 2 min 13 sec) 
Heartbeat CPU  0 instructions:   41000001 cycles:   47150340 heartbeat IPC: 0.83992 cumulative IPC: 0.86956 (Simulation time: 0 hr 2 min 16 sec) 
Heartbeat CPU  0 instructions:   42000000 cycles:   48325541 heartbeat IPC: 0.85092 cumulative IPC: 0.86911 (Simulation time: 0 hr 2 min 19 sec) 
Heartbeat CPU  0 instructions:   43000000 cycles:   49494209 heartbeat IPC: 0.85567 cumulative IPC: 0.86879 (Simulation time: 0 hr 2 min 22 sec) 
Heartbeat CPU  0 instructions:   44000000 cycles:   50644357 heartbeat IPC: 0.86945 cumulative IPC: 0.86880 (Simulation time: 0 hr 2 min 26 sec) 
Heartbeat CPU  0 instructions:   45000000 cycles:   51794702 heartbeat IPC: 0.86930 cumulative IPC: 0.86881 (Simulation time: 0 hr 2 min 29 sec) 
Heartbeat CPU  0 instructions:   46000002 cycles:   52921176 heartbeat IPC: 0.88773 cumulative IPC: 0.86922 (Simulation time: 0 hr 2 min 32 sec) 
Heartbeat CPU  0 instructions:   47000000 cycles:   54066769 heartbeat IPC: 0.87291 cumulative IPC: 0.86930 (Simulation time: 0 hr 2 min 35 sec) 
Heartbeat CPU  0 instructions:   48000000 cycles:   55210490 heartbeat IPC: 0.87434 cumulative IPC: 0.86940 (Simulation time: 0 hr 2 min 39 sec) 
Heartbeat CPU  0 instructions:   49000001 cycles:   56358684 heartbeat IPC: 0.87093 cumulative IPC: 0.86943 (Simulation time: 0 hr 2 min 42 sec) 
Heartbeat CPU  0 instructions:   50000002 cycles:   57489178 heartbeat IPC: 0.88457 cumulative IPC: 0.86973 (Simulation time: 0 hr 2 min 45 sec) 
Heartbeat CPU  0 instructions:   51000000 cycles:   58615520 heartbeat IPC: 0.88783 cumulative IPC: 0.87008 (Simulation time: 0 hr 2 min 48 sec) 
Heartbeat CPU  0 instructions:   52000000 cycles:   59737446 heartbeat IPC: 0.89132 cumulative IPC: 0.87048 (Simulation time: 0 hr 2 min 52 sec) 
Heartbeat CPU  0 instructions:   53000001 cycles:   60856562 heartbeat IPC: 0.89356 cumulative IPC: 0.87090 (Simulation time: 0 hr 2 min 55 sec) 
Heartbeat CPU  0 instructions:   54000000 cycles:   61975816 heartbeat IPC: 0.89345 cumulative IPC: 0.87131 (Simulation time: 0 hr 2 min 58 sec) 
Heartbeat CPU  0 instructions:   55000001 cycles:   63095030 heartbeat IPC: 0.89349 cumulative IPC: 0.87170 (Simulation time: 0 hr 3 min 2 sec) 
Heartbeat CPU  0 instructions:   56000000 cycles:   64236948 heartbeat IPC: 0.87572 cumulative IPC: 0.87177 (Simulation time: 0 hr 3 min 5 sec) 
Heartbeat CPU  0 instructions:   57000000 cycles:   65368405 heartbeat IPC: 0.88382 cumulative IPC: 0.87198 (Simulation time: 0 hr 3 min 8 sec) 
Heartbeat CPU  0 instructions:   58000003 cycles:   66508397 heartbeat IPC: 0.87720 cumulative IPC: 0.87207 (Simulation time: 0 hr 3 min 11 sec) 
Heartbeat CPU  0 instructions:   59000003 cycles:   67658659 heartbeat IPC: 0.86937 cumulative IPC: 0.87202 (Simulation time: 0 hr 3 min 15 sec) 
Heartbeat CPU  0 instructions:   60000000 cycles:   68816067 heartbeat IPC: 0.86400 cumulative IPC: 0.87189 (Simulation time: 0 hr 3 min 18 sec) 
Heartbeat CPU  0 instructions:   61000002 cycles:   69984482 heartbeat IPC: 0.85586 cumulative IPC: 0.87162 (Simulation time: 0 hr 3 min 21 sec) 
Heartbeat CPU  0 instructions:   62000000 cycles:   71152729 heartbeat IPC: 0.85598 cumulative IPC: 0.87137 (Simulation time: 0 hr 3 min 25 sec) 
Heartbeat CPU  0 instructions:   63000000 cycles:   72332982 heartbeat IPC: 0.84728 cumulative IPC: 0.87097 (Simulation time: 0 hr 3 min 28 sec) 
Heartbeat CPU  0 instructions:   64000000 cycles:   73516600 heartbeat IPC: 0.84487 cumulative IPC: 0.87055 (Simulation time: 0 hr 3 min 31 sec) 
Heartbeat CPU  0 instructions:   65000000 cycles:   74703791 heartbeat IPC: 0.84232 cumulative IPC: 0.87010 (Simulation time: 0 hr 3 min 34 sec) 
Heartbeat CPU  0 instructions:   66000002 cycles:   75887706 heartbeat IPC: 0.84466 cumulative IPC: 0.86971 (Simulation time: 0 hr 3 min 38 sec) 
Heartbeat CPU  0 instructions:   67000001 cycles:   77059288 heartbeat IPC: 0.85355 cumulative IPC: 0.86946 (Simulation time: 0 hr 3 min 41 sec) 
Heartbeat CPU  0 instructions:   68000000 cycles:   78227052 heartbeat IPC: 0.85634 cumulative IPC: 0.86926 (Simulation time: 0 hr 3 min 44 sec) 
Heartbeat CPU  0 instructions:   69000001 cycles:   79394209 heartbeat IPC: 0.85678 cumulative IPC: 0.86908 (Simulation time: 0 hr 3 min 48 sec) 
Heartbeat CPU  0 instructions:   70000001 cycles:   80560945 heartbeat IPC: 0.85709 cumulative IPC: 0.86891 (Simulation time: 0 hr 3 min 51 sec) 
Heartbeat CPU  0 instructions:   71000003 cycles:   81722824 heartbeat IPC: 0.86068 cumulative IPC: 0.86879 (Simulation time: 0 hr 3 min 54 sec) 
Heartbeat CPU  0 instructions:   72000000 cycles:   82876865 heartbeat IPC: 0.86652 cumulative IPC: 0.86876 (Simulation time: 0 hr 3 min 58 sec) 
Heartbeat CPU  0 instructions:   73000000 cycles:   84042878 heartbeat IPC: 0.85762 cumulative IPC: 0.86860 (Simulation time: 0 hr 4 min 1 sec) 
Heartbeat CPU  0 instructions:   74000000 cycles:   85211629 heartbeat IPC: 0.85561 cumulative IPC: 0.86843 (Simulation time: 0 hr 4 min 4 sec) 
Heartbeat CPU  0 instructions:   75000001 cycles:   86353381 heartbeat IPC: 0.87585 cumulative IPC: 0.86852 (Simulation time: 0 hr 4 min 8 sec) 
Heartbeat CPU  0 instructions:   76000000 cycles:   87406145 heartbeat IPC: 0.94988 cumulative IPC: 0.86950 (Simulation time: 0 hr 4 min 11 sec) 
Heartbeat CPU  0 instructions:   77000000 cycles:   88387192 heartbeat IPC: 1.01932 cumulative IPC: 0.87117 (Simulation time: 0 hr 4 min 14 sec) 
Heartbeat CPU  0 instructions:   78000001 cycles:   89561299 heartbeat IPC: 0.85171 cumulative IPC: 0.87091 (Simulation time: 0 hr 4 min 18 sec) 
Heartbeat CPU  0 instructions:   79000003 cycles:   90737945 heartbeat IPC: 0.84987 cumulative IPC: 0.87064 (Simulation time: 0 hr 4 min 21 sec) 
Heartbeat CPU  0 instructions:   80000000 cycles:   91919941 heartbeat IPC: 0.84602 cumulative IPC: 0.87032 (Simulation time: 0 hr 4 min 25 sec) 
Heartbeat CPU  0 instructions:   81000003 cycles:   93084190 heartbeat IPC: 0.85893 cumulative IPC: 0.87018 (Simulation time: 0 hr 4 min 28 sec) 
Heartbeat CPU  0 instructions:   82000003 cycles:   94249830 heartbeat IPC: 0.85790 cumulative IPC: 0.87003 (Simulation time: 0 hr 4 min 31 sec) 
Heartbeat CPU  0 instructions:   83000003 cycles:   95406982 heartbeat IPC: 0.86419 cumulative IPC: 0.86996 (Simulation time: 0 hr 4 min 35 sec) 
Heartbeat CPU  0 instructions:   84000000 cycles:   96555654 heartbeat IPC: 0.87057 cumulative IPC: 0.86996 (Simulation time: 0 hr 4 min 38 sec) 
Heartbeat CPU  0 instructions:   85000001 cycles:   97706301 heartbeat IPC: 0.86908 cumulative IPC: 0.86995 (Simulation time: 0 hr 4 min 42 sec) 
Heartbeat CPU  0 instructions:   86000000 cycles:   98838649 heartbeat IPC: 0.88312 cumulative IPC: 0.87010 (Simulation time: 0 hr 4 min 45 sec) 
Heartbeat CPU  0 instructions:   87000001 cycles:   99990838 heartbeat IPC: 0.86791 cumulative IPC: 0.87008 (Simulation time: 0 hr 4 min 48 sec) 
Heartbeat CPU  0 instructions:   88000000 cycles:  101121470 heartbeat IPC: 0.88446 cumulative IPC: 0.87024 (Simulation time: 0 hr 4 min 51 sec) 
Heartbeat CPU  0 instructions:   89000000 cycles:  102277529 heartbeat IPC: 0.86501 cumulative IPC: 0.87018 (Simulation time: 0 hr 4 min 55 sec) 
Heartbeat CPU  0 instructions:   90000000 cycles:  103397001 heartbeat IPC: 0.89328 cumulative IPC: 0.87043 (Simulation time: 0 hr 4 min 58 sec) 
Heartbeat CPU  0 instructions:   91000003 cycles:  104511824 heartbeat IPC: 0.89701 cumulative IPC: 0.87071 (Simulation time: 0 hr 5 min 1 sec) 
Heartbeat CPU  0 instructions:   92000000 cycles:  105624842 heartbeat IPC: 0.89846 cumulative IPC: 0.87101 (Simulation time: 0 hr 5 min 5 sec) 
Heartbeat CPU  0 instructions:   93000002 cycles:  106737135 heartbeat IPC: 0.89905 cumulative IPC: 0.87130 (Simulation time: 0 hr 5 min 8 sec) 
Heartbeat CPU  0 instructions:   94000001 cycles:  107856595 heartbeat IPC: 0.89329 cumulative IPC: 0.87153 (Simulation time: 0 hr 5 min 12 sec) 
Heartbeat CPU  0 instructions:   95000001 cycles:  109002342 heartbeat IPC: 0.87279 cumulative IPC: 0.87154 (Simulation time: 0 hr 5 min 15 sec) 
Heartbeat CPU  0 instructions:   96000000 cycles:  110149978 heartbeat IPC: 0.87136 cumulative IPC: 0.87154 (Simulation time: 0 hr 5 min 18 sec) 
Heartbeat CPU  0 instructions:   97000000 cycles:  111296890 heartbeat IPC: 0.87191 cumulative IPC: 0.87154 (Simulation time: 0 hr 5 min 22 sec) 
Heartbeat CPU  0 instructions:   98000001 cycles:  112432696 heartbeat IPC: 0.88043 cumulative IPC: 0.87163 (Simulation time: 0 hr 5 min 25 sec) 
Heartbeat CPU  0 instructions:   99000000 cycles:  113584603 heartbeat IPC: 0.86812 cumulative IPC: 0.87160 (Simulation time: 0 hr 5 min 28 sec) 
Heartbeat CPU  0 instructions:  100000000 cycles:  114718753 heartbeat IPC: 0.88172 cumulative IPC: 0.87170 (Simulation time: 0 hr 5 min 32 sec) 

Warmup complete CPU  0 instructions:  100000002 cycles:  114718754 (Simulation time: 0 hr 5 min 32 sec) 

Heartbeat CPU  0 instructions:  101000000 cycles:  123972276 heartbeat IPC: 0.10807 cumulative IPC: 0.10807 (Simulation time: 0 hr 5 min 38 sec) 
Heartbeat CPU  0 instructions:  102000000 cycles:  133271684 heartbeat IPC: 0.10753 cumulative IPC: 0.10780 (Simulation time: 0 hr 5 min 45 sec) 
Heartbeat CPU  0 instructions:  103000000 cycles:  142643692 heartbeat IPC: 0.10670 cumulative IPC: 0.10743 (Simulation time: 0 hr 5 min 51 sec) 
Heartbeat CPU  0 instructions:  104000000 cycles:  152094218 heartbeat IPC: 0.10581 cumulative IPC: 0.10702 (Simulation time: 0 hr 5 min 58 sec) 
Heartbeat CPU  0 instructions:  105000000 cycles:  161623032 heartbeat IPC: 0.10494 cumulative IPC: 0.10660 (Simulation time: 0 hr 6 min 4 sec) 
Heartbeat CPU  0 instructions:  106000000 cycles:  171220551 heartbeat IPC: 0.10419 cumulative IPC: 0.10619 (Simulation time: 0 hr 6 min 11 sec) 
Heartbeat CPU  0 instructions:  107000001 cycles:  180631468 heartbeat IPC: 0.10626 cumulative IPC: 0.10620 (Simulation time: 0 hr 6 min 17 sec) 
Heartbeat CPU  0 instructions:  108000000 cycles:  190125936 heartbeat IPC: 0.10532 cumulative IPC: 0.10609 (Simulation time: 0 hr 6 min 24 sec) 
Heartbeat CPU  0 instructions:  109000000 cycles:  199480444 heartbeat IPC: 0.10690 cumulative IPC: 0.10618 (Simulation time: 0 hr 6 min 30 sec) 
Heartbeat CPU  0 instructions:  110000000 cycles:  209024940 heartbeat IPC: 0.10477 cumulative IPC: 0.10604 (Simulation time: 0 hr 6 min 37 sec) 
Heartbeat CPU  0 instructions:  111000001 cycles:  218533573 heartbeat IPC: 0.10517 cumulative IPC: 0.10596 (Simulation time: 0 hr 6 min 43 sec) 
Heartbeat CPU  0 instructions:  112000000 cycles:  228100082 heartbeat IPC: 0.10453 cumulative IPC: 0.10584 (Simulation time: 0 hr 6 min 50 sec) 
Heartbeat CPU  0 instructions:  113000000 cycles:  237527045 heartbeat IPC: 0.10608 cumulative IPC: 0.10586 (Simulation time: 0 hr 6 min 56 sec) 
Heartbeat CPU  0 instructions:  114000000 cycles:  246866535 heartbeat IPC: 0.10707 cumulative IPC: 0.10594 (Simulation time: 0 hr 7 min 3 sec) 
Heartbeat CPU  0 instructions:  115000001 cycles:  256315226 heartbeat IPC: 0.10583 cumulative IPC: 0.10593 (Simulation time: 0 hr 7 min 9 sec) 
Heartbeat CPU  0 instructions:  116000000 cycles:  265748391 heartbeat IPC: 0.10601 cumulative IPC: 0.10594 (Simulation time: 0 hr 7 min 16 sec) 
Heartbeat CPU  0 instructions:  117000000 cycles:  275259620 heartbeat IPC: 0.10514 cumulative IPC: 0.10589 (Simulation time: 0 hr 7 min 22 sec) 
Heartbeat CPU  0 instructions:  118000000 cycles:  284753431 heartbeat IPC: 0.10533 cumulative IPC: 0.10586 (Simulation time: 0 hr 7 min 29 sec) 
Heartbeat CPU  0 instructions:  119000002 cycles:  294233453 heartbeat IPC: 0.10549 cumulative IPC: 0.10584 (Simulation time: 0 hr 7 min 35 sec) 
Heartbeat CPU  0 instructions:  120000000 cycles:  303610425 heartbeat IPC: 0.10664 cumulative IPC: 0.10588 (Simulation time: 0 hr 7 min 42 sec) 
Heartbeat CPU  0 instructions:  121000000 cycles:  312964657 heartbeat IPC: 0.10690 cumulative IPC: 0.10593 (Simulation time: 0 hr 7 min 48 sec) 
Heartbeat CPU  0 instructions:  122000000 cycles:  322467760 heartbeat IPC: 0.10523 cumulative IPC: 0.10590 (Simulation time: 0 hr 7 min 55 sec) 
Heartbeat CPU  0 instructions:  123000000 cycles:  331796843 heartbeat IPC: 0.10719 cumulative IPC: 0.10595 (Simulation time: 0 hr 8 min 1 sec) 
Heartbeat CPU  0 instructions:  124000000 cycles:  341125519 heartbeat IPC: 0.10720 cumulative IPC: 0.10600 (Simulation time: 0 hr 8 min 7 sec) 
Heartbeat CPU  0 instructions:  125000000 cycles:  350433022 heartbeat IPC: 0.10744 cumulative IPC: 0.10606 (Simulation time: 0 hr 8 min 14 sec) 
Heartbeat CPU  0 instructions:  126000001 cycles:  359682000 heartbeat IPC: 0.10812 cumulative IPC: 0.10614 (Simulation time: 0 hr 8 min 20 sec) 
Heartbeat CPU  0 instructions:  127000001 cycles:  368769642 heartbeat IPC: 0.11004 cumulative IPC: 0.10628 (Simulation time: 0 hr 8 min 27 sec) 
Heartbeat CPU  0 instructions:  128000000 cycles:  377786529 heartbeat IPC: 0.11090 cumulative IPC: 0.10644 (Simulation time: 0 hr 8 min 33 sec) 
Heartbeat CPU  0 instructions:  129000002 cycles:  386813682 heartbeat IPC: 0.11078 cumulative IPC: 0.10658 (Simulation time: 0 hr 8 min 39 sec) 
Heartbeat CPU  0 instructions:  130000001 cycles:  395917416 heartbeat IPC: 0.10984 cumulative IPC: 0.10669 (Simulation time: 0 hr 8 min 46 sec) 
Heartbeat CPU  0 instructions:  131000001 cycles:  405062808 heartbeat IPC: 0.10934 cumulative IPC: 0.10677 (Simulation time: 0 hr 8 min 52 sec) 
Heartbeat CPU  0 instructions:  132000000 cycles:  414254253 heartbeat IPC: 0.10880 cumulative IPC: 0.10683 (Simulation time: 0 hr 8 min 59 sec) 
Heartbeat CPU  0 instructions:  133000000 cycles:  423459643 heartbeat IPC: 0.10863 cumulative IPC: 0.10689 (Simulation time: 0 hr 9 min 5 sec) 
Heartbeat CPU  0 instructions:  134000001 cycles:  432392248 heartbeat IPC: 0.11195 cumulative IPC: 0.10703 (Simulation time: 0 hr 9 min 12 sec) 
Heartbeat CPU  0 instructions:  135000000 cycles:  441478707 heartbeat IPC: 0.11005 cumulative IPC: 0.10711 (Simulation time: 0 hr 9 min 18 sec) 
Heartbeat CPU  0 instructions:  136000000 cycles:  451117174 heartbeat IPC: 0.10375 cumulative IPC: 0.10702 (Simulation time: 0 hr 9 min 25 sec) 
Heartbeat CPU  0 instructions:  137000000 cycles:  460511178 heartbeat IPC: 0.10645 cumulative IPC: 0.10700 (Simulation time: 0 hr 9 min 31 sec) 
Heartbeat CPU  0 instructions:  138000000 cycles:  469698426 heartbeat IPC: 0.10885 cumulative IPC: 0.10705 (Simulation time: 0 hr 9 min 38 sec) 
Heartbeat CPU  0 instructions:  139000000 cycles:  479079630 heartbeat IPC: 0.10660 cumulative IPC: 0.10704 (Simulation time: 0 hr 9 min 44 sec) 
Heartbeat CPU  0 instructions:  140000000 cycles:  488422557 heartbeat IPC: 0.10703 cumulative IPC: 0.10704 (Simulation time: 0 hr 9 min 51 sec) 
Heartbeat CPU  0 instructions:  141000000 cycles:  497812808 heartbeat IPC: 0.10649 cumulative IPC: 0.10702 (Simulation time: 0 hr 9 min 57 sec) 
Heartbeat CPU  0 instructions:  142000001 cycles:  507017336 heartbeat IPC: 0.10864 cumulative IPC: 0.10706 (Simulation time: 0 hr 10 min 4 sec) 
Heartbeat CPU  0 instructions:  143000003 cycles:  516199185 heartbeat IPC: 0.10891 cumulative IPC: 0.10710 (Simulation time: 0 hr 10 min 10 sec) 
Heartbeat CPU  0 instructions:  144000000 cycles:  525350157 heartbeat IPC: 0.10928 cumulative IPC: 0.10715 (Simulation time: 0 hr 10 min 17 sec) 
Heartbeat CPU  0 instructions:  145000000 cycles:  534547664 heartbeat IPC: 0.10873 cumulative IPC: 0.10719 (Simulation time: 0 hr 10 min 23 sec) 
Heartbeat CPU  0 instructions:  146000003 cycles:  543926369 heartbeat IPC: 0.10662 cumulative IPC: 0.10717 (Simulation time: 0 hr 10 min 30 sec) 
Heartbeat CPU  0 instructions:  147000002 cycles:  553187573 heartbeat IPC: 0.10798 cumulative IPC: 0.10719 (Simulation time: 0 hr 10 min 36 sec) 
Heartbeat CPU  0 instructions:  148000000 cycles:  562514884 heartbeat IPC: 0.10721 cumulative IPC: 0.10719 (Simulation time: 0 hr 10 min 43 sec) 
Heartbeat CPU  0 instructions:  149000000 cycles:  572000659 heartbeat IPC: 0.10542 cumulative IPC: 0.10715 (Simulation time: 0 hr 10 min 49 sec) 
Heartbeat CPU  0 instructions:  150000000 cycles:  581592792 heartbeat IPC: 0.10425 cumulative IPC: 0.10710 (Simulation time: 0 hr 10 min 56 sec) 
Heartbeat CPU  0 instructions:  151000002 cycles:  591120998 heartbeat IPC: 0.10495 cumulative IPC: 0.10705 (Simulation time: 0 hr 11 min 2 sec) 
Heartbeat CPU  0 instructions:  152000000 cycles:  600665052 heartbeat IPC: 0.10478 cumulative IPC: 0.10701 (Simulation time: 0 hr 11 min 9 sec) 
Heartbeat CPU  0 instructions:  153000000 cycles:  611018221 heartbeat IPC: 0.09659 cumulative IPC: 0.10679 (Simulation time: 0 hr 11 min 15 sec) 
Heartbeat CPU  0 instructions:  154000000 cycles:  621187270 heartbeat IPC: 0.09834 cumulative IPC: 0.10662 (Simulation time: 0 hr 11 min 22 sec) 
Heartbeat CPU  0 instructions:  155000000 cycles:  630628992 heartbeat IPC: 0.10591 cumulative IPC: 0.10661 (Simulation time: 0 hr 11 min 29 sec) 
Heartbeat CPU  0 instructions:  156000000 cycles:  639995770 heartbeat IPC: 0.10676 cumulative IPC: 0.10661 (Simulation time: 0 hr 11 min 35 sec) 
Heartbeat CPU  0 instructions:  157000000 cycles:  649487413 heartbeat IPC: 0.10536 cumulative IPC: 0.10659 (Simulation time: 0 hr 11 min 42 sec) 
Heartbeat CPU  0 instructions:  158000002 cycles:  658993547 heartbeat IPC: 0.10520 cumulative IPC: 0.10656 (Simulation time: 0 hr 11 min 49 sec) 
Heartbeat CPU  0 instructions:  159000000 cycles:  668481895 heartbeat IPC: 0.10539 cumulative IPC: 0.10654 (Simulation time: 0 hr 11 min 55 sec) 
Heartbeat CPU  0 instructions:  160000000 cycles:  677951443 heartbeat IPC: 0.10560 cumulative IPC: 0.10653 (Simulation time: 0 hr 12 min 2 sec) 
Heartbeat CPU  0 instructions:  161000001 cycles:  687522661 heartbeat IPC: 0.10448 cumulative IPC: 0.10649 (Simulation time: 0 hr 12 min 8 sec) 
Heartbeat CPU  0 instructions:  162000000 cycles:  697007572 heartbeat IPC: 0.10543 cumulative IPC: 0.10648 (Simulation time: 0 hr 12 min 15 sec) 
Heartbeat CPU  0 instructions:  163000002 cycles:  706442497 heartbeat IPC: 0.10599 cumulative IPC: 0.10647 (Simulation time: 0 hr 12 min 21 sec) 
Heartbeat CPU  0 instructions:  164000000 cycles:  715820263 heartbeat IPC: 0.10663 cumulative IPC: 0.10647 (Simulation time: 0 hr 12 min 28 sec) 
Heartbeat CPU  0 instructions:  165000001 cycles:  725215206 heartbeat IPC: 0.10644 cumulative IPC: 0.10647 (Simulation time: 0 hr 12 min 34 sec) 
Heartbeat CPU  0 instructions:  166000000 cycles:  734662427 heartbeat IPC: 0.10585 cumulative IPC: 0.10646 (Simulation time: 0 hr 12 min 41 sec) 
Heartbeat CPU  0 instructions:  167000000 cycles:  744194561 heartbeat IPC: 0.10491 cumulative IPC: 0.10644 (Simulation time: 0 hr 12 min 47 sec) 
Heartbeat CPU  0 instructions:  168000000 cycles:  753567353 heartbeat IPC: 0.10669 cumulative IPC: 0.10644 (Simulation time: 0 hr 12 min 54 sec) 
Heartbeat CPU  0 instructions:  169000000 cycles:  762914237 heartbeat IPC: 0.10699 cumulative IPC: 0.10645 (Simulation time: 0 hr 13 min 0 sec) 
Heartbeat CPU  0 instructions:  170000000 cycles:  772405157 heartbeat IPC: 0.10536 cumulative IPC: 0.10643 (Simulation time: 0 hr 13 min 7 sec) 
Heartbeat CPU  0 instructions:  171000000 cycles:  781895599 heartbeat IPC: 0.10537 cumulative IPC: 0.10642 (Simulation time: 0 hr 13 min 13 sec) 
Heartbeat CPU  0 instructions:  172000000 cycles:  791413695 heartbeat IPC: 0.10506 cumulative IPC: 0.10640 (Simulation time: 0 hr 13 min 20 sec) 
Heartbeat CPU  0 instructions:  173000000 cycles:  800874181 heartbeat IPC: 0.10570 cumulative IPC: 0.10639 (Simulation time: 0 hr 13 min 27 sec) 
Heartbeat CPU  0 instructions:  174000000 cycles:  810035144 heartbeat IPC: 0.10916 cumulative IPC: 0.10643 (Simulation time: 0 hr 13 min 33 sec) 
Heartbeat CPU  0 instructions:  175000001 cycles:  819327502 heartbeat IPC: 0.10762 cumulative IPC: 0.10644 (Simulation time: 0 hr 13 min 40 sec) 
Heartbeat CPU  0 instructions:  176000000 cycles:  828778511 heartbeat IPC: 0.10581 cumulative IPC: 0.10643 (Simulation time: 0 hr 13 min 46 sec) 
Heartbeat CPU  0 instructions:  177000002 cycles:  838120148 heartbeat IPC: 0.10705 cumulative IPC: 0.10644 (Simulation time: 0 hr 13 min 53 sec) 
Heartbeat CPU  0 instructions:  178000003 cycles:  847540417 heartbeat IPC: 0.10615 cumulative IPC: 0.10644 (Simulation time: 0 hr 13 min 59 sec) 
Heartbeat CPU  0 instructions:  179000001 cycles:  856803550 heartbeat IPC: 0.10795 cumulative IPC: 0.10646 (Simulation time: 0 hr 14 min 6 sec) 
Heartbeat CPU  0 instructions:  180000000 cycles:  866219220 heartbeat IPC: 0.10621 cumulative IPC: 0.10645 (Simulation time: 0 hr 14 min 12 sec) 
Heartbeat CPU  0 instructions:  181000002 cycles:  875642262 heartbeat IPC: 0.10612 cumulative IPC: 0.10645 (Simulation time: 0 hr 14 min 19 sec) 
Heartbeat CPU  0 instructions:  182000000 cycles:  885110198 heartbeat IPC: 0.10562 cumulative IPC: 0.10644 (Simulation time: 0 hr 14 min 25 sec) 
Heartbeat CPU  0 instructions:  183000002 cycles:  894624176 heartbeat IPC: 0.10511 cumulative IPC: 0.10642 (Simulation time: 0 hr 14 min 32 sec) 
Heartbeat CPU  0 instructions:  184000000 cycles:  904059746 heartbeat IPC: 0.10598 cumulative IPC: 0.10642 (Simulation time: 0 hr 14 min 38 sec) 
Heartbeat CPU  0 instructions:  185000001 cycles:  913509656 heartbeat IPC: 0.10582 cumulative IPC: 0.10641 (Simulation time: 0 hr 14 min 45 sec) 
Heartbeat CPU  0 instructions:  186000000 cycles:  922922260 heartbeat IPC: 0.10624 cumulative IPC: 0.10641 (Simulation time: 0 hr 14 min 51 sec) 
Heartbeat CPU  0 instructions:  187000000 cycles:  932458799 heartbeat IPC: 0.10486 cumulative IPC: 0.10639 (Simulation time: 0 hr 14 min 58 sec) 
Heartbeat CPU  0 instructions:  188000000 cycles:  942103022 heartbeat IPC: 0.10369 cumulative IPC: 0.10636 (Simulation time: 0 hr 15 min 4 sec) 
Heartbeat CPU  0 instructions:  189000000 cycles:  951703992 heartbeat IPC: 0.10416 cumulative IPC: 0.10633 (Simulation time: 0 hr 15 min 11 sec) 
Heartbeat CPU  0 instructions:  190000000 cycles:  961272345 heartbeat IPC: 0.10451 cumulative IPC: 0.10631 (Simulation time: 0 hr 15 min 18 sec) 
Heartbeat CPU  0 instructions:  191000000 cycles:  970801562 heartbeat IPC: 0.10494 cumulative IPC: 0.10630 (Simulation time: 0 hr 15 min 24 sec) 
Heartbeat CPU  0 instructions:  192000000 cycles:  980364715 heartbeat IPC: 0.10457 cumulative IPC: 0.10628 (Simulation time: 0 hr 15 min 31 sec) 
Heartbeat CPU  0 instructions:  193000001 cycles:  989808610 heartbeat IPC: 0.10589 cumulative IPC: 0.10627 (Simulation time: 0 hr 15 min 37 sec) 
Heartbeat CPU  0 instructions:  194000001 cycles:  999326656 heartbeat IPC: 0.10506 cumulative IPC: 0.10626 (Simulation time: 0 hr 15 min 44 sec) 
Heartbeat CPU  0 instructions:  195000000 cycles: 1008952956 heartbeat IPC: 0.10388 cumulative IPC: 0.10624 (Simulation time: 0 hr 15 min 51 sec) 
Heartbeat CPU  0 instructions:  196000000 cycles: 1018561855 heartbeat IPC: 0.10407 cumulative IPC: 0.10621 (Simulation time: 0 hr 15 min 57 sec) 
Heartbeat CPU  0 instructions:  197000000 cycles: 1028212005 heartbeat IPC: 0.10363 cumulative IPC: 0.10619 (Simulation time: 0 hr 16 min 4 sec) 
Heartbeat CPU  0 instructions:  198000001 cycles: 1037705819 heartbeat IPC: 0.10533 cumulative IPC: 0.10618 (Simulation time: 0 hr 16 min 10 sec) 
Heartbeat CPU  0 instructions:  199000003 cycles: 1047065111 heartbeat IPC: 0.10685 cumulative IPC: 0.10618 (Simulation time: 0 hr 16 min 17 sec) 
Heartbeat CPU  0 instructions:  200000000 cycles: 1056611352 heartbeat IPC: 0.10475 cumulative IPC: 0.10617 (Simulation time: 0 hr 16 min 23 sec) 
Heartbeat CPU  0 instructions:  201000000 cycles: 1066134110 heartbeat IPC: 0.10501 cumulative IPC: 0.10616 (Simulation time: 0 hr 16 min 30 sec) 
Heartbeat CPU  0 instructions:  202000000 cycles: 1075420197 heartbeat IPC: 0.10769 cumulative IPC: 0.10617 (Simulation time: 0 hr 16 min 37 sec) 
Heartbeat CPU  0 instructions:  203000003 cycles: 1084663112 heartbeat IPC: 0.10819 cumulative IPC: 0.10619 (Simulation time: 0 hr 16 min 43 sec) 
Heartbeat CPU  0 instructions:  204000000 cycles: 1093945192 heartbeat IPC: 0.10773 cumulative IPC: 0.10621 (Simulation time: 0 hr 16 min 50 sec) 
Heartbeat CPU  0 instructions:  205000000 cycles: 1103182976 heartbeat IPC: 0.10825 cumulative IPC: 0.10623 (Simulation time: 0 hr 16 min 56 sec) 
Heartbeat CPU  0 instructions:  206000002 cycles: 1112579801 heartbeat IPC: 0.10642 cumulative IPC: 0.10623 (Simulation time: 0 hr 17 min 3 sec) 
Heartbeat CPU  0 instructions:  207000000 cycles: 1121994354 heartbeat IPC: 0.10622 cumulative IPC: 0.10623 (Simulation time: 0 hr 17 min 9 sec) 
Heartbeat CPU  0 instructions:  208000000 cycles: 1131331451 heartbeat IPC: 0.10710 cumulative IPC: 0.10624 (Simulation time: 0 hr 17 min 16 sec) 
Heartbeat CPU  0 instructions:  209000002 cycles: 1140678980 heartbeat IPC: 0.10698 cumulative IPC: 0.10624 (Simulation time: 0 hr 17 min 22 sec) 
Heartbeat CPU  0 instructions:  210000002 cycles: 1150055725 heartbeat IPC: 0.10665 cumulative IPC: 0.10625 (Simulation time: 0 hr 17 min 29 sec) 
Heartbeat CPU  0 instructions:  211000000 cycles: 1159325749 heartbeat IPC: 0.10787 cumulative IPC: 0.10626 (Simulation time: 0 hr 17 min 35 sec) 
Heartbeat CPU  0 instructions:  212000000 cycles: 1168708932 heartbeat IPC: 0.10657 cumulative IPC: 0.10626 (Simulation time: 0 hr 17 min 42 sec) 
Heartbeat CPU  0 instructions:  213000000 cycles: 1178051946 heartbeat IPC: 0.10703 cumulative IPC: 0.10627 (Simulation time: 0 hr 17 min 48 sec) 
Heartbeat CPU  0 instructions:  214000000 cycles: 1187256337 heartbeat IPC: 0.10864 cumulative IPC: 0.10629 (Simulation time: 0 hr 17 min 55 sec) 
Heartbeat CPU  0 instructions:  215000000 cycles: 1196304843 heartbeat IPC: 0.11052 cumulative IPC: 0.10633 (Simulation time: 0 hr 18 min 1 sec) 
Heartbeat CPU  0 instructions:  216000000 cycles: 1205652606 heartbeat IPC: 0.10698 cumulative IPC: 0.10633 (Simulation time: 0 hr 18 min 8 sec) 
Heartbeat CPU  0 instructions:  217000002 cycles: 1214871985 heartbeat IPC: 0.10847 cumulative IPC: 0.10635 (Simulation time: 0 hr 18 min 14 sec) 
Heartbeat CPU  0 instructions:  218000003 cycles: 1224082245 heartbeat IPC: 0.10857 cumulative IPC: 0.10637 (Simulation time: 0 hr 18 min 21 sec) 
Heartbeat CPU  0 instructions:  219000001 cycles: 1233527824 heartbeat IPC: 0.10587 cumulative IPC: 0.10636 (Simulation time: 0 hr 18 min 27 sec) 
Heartbeat CPU  0 instructions:  220000000 cycles: 1242849534 heartbeat IPC: 0.10728 cumulative IPC: 0.10637 (Simulation time: 0 hr 18 min 34 sec) 
Heartbeat CPU  0 instructions:  221000000 cycles: 1252188669 heartbeat IPC: 0.10708 cumulative IPC: 0.10638 (Simulation time: 0 hr 18 min 40 sec) 
Heartbeat CPU  0 instructions:  222000000 cycles: 1261631187 heartbeat IPC: 0.10590 cumulative IPC: 0.10637 (Simulation time: 0 hr 18 min 47 sec) 
Heartbeat CPU  0 instructions:  223000000 cycles: 1270896036 heartbeat IPC: 0.10793 cumulative IPC: 0.10639 (Simulation time: 0 hr 18 min 53 sec) 
Heartbeat CPU  0 instructions:  224000000 cycles: 1280154298 heartbeat IPC: 0.10801 cumulative IPC: 0.10640 (Simulation time: 0 hr 18 min 59 sec) 
Heartbeat CPU  0 instructions:  225000000 cycles: 1289439626 heartbeat IPC: 0.10770 cumulative IPC: 0.10641 (Simulation time: 0 hr 19 min 6 sec) 
Heartbeat CPU  0 instructions:  226000001 cycles: 1298783127 heartbeat IPC: 0.10703 cumulative IPC: 0.10641 (Simulation time: 0 hr 19 min 12 sec) 
Heartbeat CPU  0 instructions:  227000002 cycles: 1308148045 heartbeat IPC: 0.10678 cumulative IPC: 0.10642 (Simulation time: 0 hr 19 min 19 sec) 
Heartbeat CPU  0 instructions:  228000000 cycles: 1317376541 heartbeat IPC: 0.10836 cumulative IPC: 0.10643 (Simulation time: 0 hr 19 min 25 sec) 
Heartbeat CPU  0 instructions:  229000000 cycles: 1326629973 heartbeat IPC: 0.10807 cumulative IPC: 0.10644 (Simulation time: 0 hr 19 min 32 sec) 
Heartbeat CPU  0 instructions:  230000001 cycles: 1335740601 heartbeat IPC: 0.10976 cumulative IPC: 0.10647 (Simulation time: 0 hr 19 min 38 sec) 
Heartbeat CPU  0 instructions:  231000000 cycles: 1344886900 heartbeat IPC: 0.10933 cumulative IPC: 0.10649 (Simulation time: 0 hr 19 min 45 sec) 
Heartbeat CPU  0 instructions:  232000000 cycles: 1353904487 heartbeat IPC: 0.11089 cumulative IPC: 0.10652 (Simulation time: 0 hr 19 min 51 sec) 
Heartbeat CPU  0 instructions:  233000000 cycles: 1363172109 heartbeat IPC: 0.10790 cumulative IPC: 0.10653 (Simulation time: 0 hr 19 min 57 sec) 
Heartbeat CPU  0 instructions:  234000000 cycles: 1372311476 heartbeat IPC: 0.10942 cumulative IPC: 0.10655 (Simulation time: 0 hr 20 min 4 sec) 
Heartbeat CPU  0 instructions:  235000000 cycles: 1381549146 heartbeat IPC: 0.10825 cumulative IPC: 0.10657 (Simulation time: 0 hr 20 min 10 sec) 
Heartbeat CPU  0 instructions:  236000000 cycles: 1390763266 heartbeat IPC: 0.10853 cumulative IPC: 0.10658 (Simulation time: 0 hr 20 min 17 sec) 
Heartbeat CPU  0 instructions:  237000001 cycles: 1399947700 heartbeat IPC: 0.10888 cumulative IPC: 0.10660 (Simulation time: 0 hr 20 min 23 sec) 
Heartbeat CPU  0 instructions:  238000000 cycles: 1409170538 heartbeat IPC: 0.10843 cumulative IPC: 0.10661 (Simulation time: 0 hr 20 min 30 sec) 
Heartbeat CPU  0 instructions:  239000002 cycles: 1418426455 heartbeat IPC: 0.10804 cumulative IPC: 0.10662 (Simulation time: 0 hr 20 min 36 sec) 
Heartbeat CPU  0 instructions:  240000000 cycles: 1427722885 heartbeat IPC: 0.10757 cumulative IPC: 0.10663 (Simulation time: 0 hr 20 min 43 sec) 
Heartbeat CPU  0 instructions:  241000000 cycles: 1436846350 heartbeat IPC: 0.10961 cumulative IPC: 0.10665 (Simulation time: 0 hr 20 min 49 sec) 
Heartbeat CPU  0 instructions:  242000000 cycles: 1446198094 heartbeat IPC: 0.10693 cumulative IPC: 0.10665 (Simulation time: 0 hr 20 min 55 sec) 
Heartbeat CPU  0 instructions:  243000001 cycles: 1455596194 heartbeat IPC: 0.10640 cumulative IPC: 0.10665 (Simulation time: 0 hr 21 min 2 sec) 
Heartbeat CPU  0 instructions:  244000000 cycles: 1465097090 heartbeat IPC: 0.10525 cumulative IPC: 0.10664 (Simulation time: 0 hr 21 min 8 sec) 
Heartbeat CPU  0 instructions:  245000000 cycles: 1474511013 heartbeat IPC: 0.10623 cumulative IPC: 0.10663 (Simulation time: 0 hr 21 min 15 sec) 
Heartbeat CPU  0 instructions:  246000000 cycles: 1483907927 heartbeat IPC: 0.10642 cumulative IPC: 0.10663 (Simulation time: 0 hr 21 min 21 sec) 
Heartbeat CPU  0 instructions:  247000000 cycles: 1493316389 heartbeat IPC: 0.10629 cumulative IPC: 0.10663 (Simulation time: 0 hr 21 min 28 sec) 
Heartbeat CPU  0 instructions:  248000000 cycles: 1502654458 heartbeat IPC: 0.10709 cumulative IPC: 0.10663 (Simulation time: 0 hr 21 min 34 sec) 
Heartbeat CPU  0 instructions:  249000003 cycles: 1512126304 heartbeat IPC: 0.10558 cumulative IPC: 0.10663 (Simulation time: 0 hr 21 min 41 sec) 
Heartbeat CPU  0 instructions:  250000002 cycles: 1521506669 heartbeat IPC: 0.10661 cumulative IPC: 0.10663 (Simulation time: 0 hr 21 min 47 sec) 
Heartbeat CPU  0 instructions:  251000000 cycles: 1530984450 heartbeat IPC: 0.10551 cumulative IPC: 0.10662 (Simulation time: 0 hr 21 min 54 sec) 
Heartbeat CPU  0 instructions:  252000000 cycles: 1540477640 heartbeat IPC: 0.10534 cumulative IPC: 0.10661 (Simulation time: 0 hr 22 min 0 sec) 
Heartbeat CPU  0 instructions:  253000000 cycles: 1549946216 heartbeat IPC: 0.10561 cumulative IPC: 0.10660 (Simulation time: 0 hr 22 min 7 sec) 
Heartbeat CPU  0 instructions:  254000000 cycles: 1559573815 heartbeat IPC: 0.10387 cumulative IPC: 0.10659 (Simulation time: 0 hr 22 min 13 sec) 
Heartbeat CPU  0 instructions:  255000002 cycles: 1569062094 heartbeat IPC: 0.10539 cumulative IPC: 0.10658 (Simulation time: 0 hr 22 min 20 sec) 
Heartbeat CPU  0 instructions:  256000000 cycles: 1578447481 heartbeat IPC: 0.10655 cumulative IPC: 0.10658 (Simulation time: 0 hr 22 min 26 sec) 
Heartbeat CPU  0 instructions:  257000000 cycles: 1587887809 heartbeat IPC: 0.10593 cumulative IPC: 0.10657 (Simulation time: 0 hr 22 min 33 sec) 
Heartbeat CPU  0 instructions:  258000002 cycles: 1597353061 heartbeat IPC: 0.10565 cumulative IPC: 0.10657 (Simulation time: 0 hr 22 min 39 sec) 
Heartbeat CPU  0 instructions:  259000001 cycles: 1606921295 heartbeat IPC: 0.10451 cumulative IPC: 0.10655 (Simulation time: 0 hr 22 min 46 sec) 
Heartbeat CPU  0 instructions:  260000000 cycles: 1616359215 heartbeat IPC: 0.10596 cumulative IPC: 0.10655 (Simulation time: 0 hr 22 min 52 sec) 
Heartbeat CPU  0 instructions:  261000002 cycles: 1625802576 heartbeat IPC: 0.10589 cumulative IPC: 0.10655 (Simulation time: 0 hr 22 min 59 sec) 
Heartbeat CPU  0 instructions:  262000003 cycles: 1635330438 heartbeat IPC: 0.10496 cumulative IPC: 0.10654 (Simulation time: 0 hr 23 min 5 sec) 
Heartbeat CPU  0 instructions:  263000000 cycles: 1644926266 heartbeat IPC: 0.10421 cumulative IPC: 0.10652 (Simulation time: 0 hr 23 min 12 sec) 
Heartbeat CPU  0 instructions:  264000000 cycles: 1654488822 heartbeat IPC: 0.10457 cumulative IPC: 0.10651 (Simulation time: 0 hr 23 min 18 sec) 
Heartbeat CPU  0 instructions:  265000000 cycles: 1663841369 heartbeat IPC: 0.10692 cumulative IPC: 0.10651 (Simulation time: 0 hr 23 min 25 sec) 
Heartbeat CPU  0 instructions:  266000000 cycles: 1674725917 heartbeat IPC: 0.09187 cumulative IPC: 0.10641 (Simulation time: 0 hr 23 min 32 sec) 
Heartbeat CPU  0 instructions:  267000003 cycles: 1684778607 heartbeat IPC: 0.09948 cumulative IPC: 0.10637 (Simulation time: 0 hr 23 min 39 sec) 
Heartbeat CPU  0 instructions:  268000000 cycles: 1694453242 heartbeat IPC: 0.10336 cumulative IPC: 0.10635 (Simulation time: 0 hr 23 min 45 sec) 
Heartbeat CPU  0 instructions:  269000000 cycles: 1704063417 heartbeat IPC: 0.10406 cumulative IPC: 0.10633 (Simulation time: 0 hr 23 min 52 sec) 
Heartbeat CPU  0 instructions:  270000000 cycles: 1713674676 heartbeat IPC: 0.10404 cumulative IPC: 0.10632 (Simulation time: 0 hr 23 min 58 sec) 
Heartbeat CPU  0 instructions:  271000001 cycles: 1723293278 heartbeat IPC: 0.10397 cumulative IPC: 0.10631 (Simulation time: 0 hr 24 min 5 sec) 
Heartbeat CPU  0 instructions:  272000000 cycles: 1732794251 heartbeat IPC: 0.10525 cumulative IPC: 0.10630 (Simulation time: 0 hr 24 min 11 sec) 
Heartbeat CPU  0 instructions:  273000000 cycles: 1742248833 heartbeat IPC: 0.10577 cumulative IPC: 0.10630 (Simulation time: 0 hr 24 min 18 sec) 
Heartbeat CPU  0 instructions:  274000000 cycles: 1751660257 heartbeat IPC: 0.10625 cumulative IPC: 0.10630 (Simulation time: 0 hr 24 min 24 sec) 
Heartbeat CPU  0 instructions:  275000001 cycles: 1760907720 heartbeat IPC: 0.10814 cumulative IPC: 0.10631 (Simulation time: 0 hr 24 min 31 sec) 
Heartbeat CPU  0 instructions:  276000000 cycles: 1770106922 heartbeat IPC: 0.10870 cumulative IPC: 0.10632 (Simulation time: 0 hr 24 min 37 sec) 
Heartbeat CPU  0 instructions:  277000001 cycles: 1779575509 heartbeat IPC: 0.10561 cumulative IPC: 0.10632 (Simulation time: 0 hr 24 min 44 sec) 
Heartbeat CPU  0 instructions:  278000000 cycles: 1788997145 heartbeat IPC: 0.10614 cumulative IPC: 0.10631 (Simulation time: 0 hr 24 min 50 sec) 
Heartbeat CPU  0 instructions:  279000003 cycles: 1798469718 heartbeat IPC: 0.10557 cumulative IPC: 0.10631 (Simulation time: 0 hr 24 min 57 sec) 
Heartbeat CPU  0 instructions:  280000000 cycles: 1807929903 heartbeat IPC: 0.10571 cumulative IPC: 0.10631 (Simulation time: 0 hr 25 min 3 sec) 
Heartbeat CPU  0 instructions:  281000001 cycles: 1817335062 heartbeat IPC: 0.10632 cumulative IPC: 0.10631 (Simulation time: 0 hr 25 min 10 sec) 
Heartbeat CPU  0 instructions:  282000000 cycles: 1826729527 heartbeat IPC: 0.10645 cumulative IPC: 0.10631 (Simulation time: 0 hr 25 min 16 sec) 
Heartbeat CPU  0 instructions:  283000000 cycles: 1836129533 heartbeat IPC: 0.10638 cumulative IPC: 0.10631 (Simulation time: 0 hr 25 min 23 sec) 
Heartbeat CPU  0 instructions:  284000000 cycles: 1845624695 heartbeat IPC: 0.10532 cumulative IPC: 0.10630 (Simulation time: 0 hr 25 min 29 sec) 
Heartbeat CPU  0 instructions:  285000001 cycles: 1854968431 heartbeat IPC: 0.10702 cumulative IPC: 0.10631 (Simulation time: 0 hr 25 min 36 sec) 
Heartbeat CPU  0 instructions:  286000001 cycles: 1864278031 heartbeat IPC: 0.10742 cumulative IPC: 0.10631 (Simulation time: 0 hr 25 min 42 sec) 
Heartbeat CPU  0 instructions:  287000002 cycles: 1873745501 heartbeat IPC: 0.10562 cumulative IPC: 0.10631 (Simulation time: 0 hr 25 min 49 sec) 
Heartbeat CPU  0 instructions:  288000000 cycles: 1883307058 heartbeat IPC: 0.10459 cumulative IPC: 0.10630 (Simulation time: 0 hr 25 min 55 sec) 
Heartbeat CPU  0 instructions:  289000001 cycles: 1892889003 heartbeat IPC: 0.10436 cumulative IPC: 0.10629 (Simulation time: 0 hr 26 min 2 sec) 
Heartbeat CPU  0 instructions:  290000001 cycles: 1902373563 heartbeat IPC: 0.10543 cumulative IPC: 0.10628 (Simulation time: 0 hr 26 min 9 sec) 
Heartbeat CPU  0 instructions:  291000000 cycles: 1911802366 heartbeat IPC: 0.10606 cumulative IPC: 0.10628 (Simulation time: 0 hr 26 min 15 sec) 
Heartbeat CPU  0 instructions:  292000000 cycles: 1921245129 heartbeat IPC: 0.10590 cumulative IPC: 0.10628 (Simulation time: 0 hr 26 min 22 sec) 
Heartbeat CPU  0 instructions:  293000000 cycles: 1930652633 heartbeat IPC: 0.10630 cumulative IPC: 0.10628 (Simulation time: 0 hr 26 min 28 sec) 
Heartbeat CPU  0 instructions:  294000002 cycles: 1939854828 heartbeat IPC: 0.10867 cumulative IPC: 0.10629 (Simulation time: 0 hr 26 min 35 sec) 
Heartbeat CPU  0 instructions:  295000000 cycles: 1949018017 heartbeat IPC: 0.10913 cumulative IPC: 0.10631 (Simulation time: 0 hr 26 min 41 sec) 
Heartbeat CPU  0 instructions:  296000000 cycles: 1958199122 heartbeat IPC: 0.10892 cumulative IPC: 0.10632 (Simulation time: 0 hr 26 min 48 sec) 
Heartbeat CPU  0 instructions:  297000000 cycles: 1967510731 heartbeat IPC: 0.10739 cumulative IPC: 0.10633 (Simulation time: 0 hr 26 min 54 sec) 
Heartbeat CPU  0 instructions:  298000002 cycles: 1976908219 heartbeat IPC: 0.10641 cumulative IPC: 0.10633 (Simulation time: 0 hr 27 min 1 sec) 
Heartbeat CPU  0 instructions:  299000001 cycles: 1986374849 heartbeat IPC: 0.10563 cumulative IPC: 0.10632 (Simulation time: 0 hr 27 min 7 sec) 
Heartbeat CPU  0 instructions:  300000000 cycles: 1995855629 heartbeat IPC: 0.10548 cumulative IPC: 0.10632 (Simulation time: 0 hr 27 min 14 sec) 
Heartbeat CPU  0 instructions:  301000000 cycles: 2005295897 heartbeat IPC: 0.10593 cumulative IPC: 0.10632 (Simulation time: 0 hr 27 min 20 sec) 
Heartbeat CPU  0 instructions:  302000000 cycles: 2014828366 heartbeat IPC: 0.10490 cumulative IPC: 0.10631 (Simulation time: 0 hr 27 min 27 sec) 
Heartbeat CPU  0 instructions:  303000000 cycles: 2024307490 heartbeat IPC: 0.10549 cumulative IPC: 0.10631 (Simulation time: 0 hr 27 min 33 sec) 
Heartbeat CPU  0 instructions:  304000000 cycles: 2033697632 heartbeat IPC: 0.10649 cumulative IPC: 0.10631 (Simulation time: 0 hr 27 min 40 sec) 
Heartbeat CPU  0 instructions:  305000003 cycles: 2043082562 heartbeat IPC: 0.10655 cumulative IPC: 0.10631 (Simulation time: 0 hr 27 min 46 sec) 
Heartbeat CPU  0 instructions:  306000000 cycles: 2052416586 heartbeat IPC: 0.10713 cumulative IPC: 0.10631 (Simulation time: 0 hr 27 min 53 sec) 
Heartbeat CPU  0 instructions:  307000000 cycles: 2061892910 heartbeat IPC: 0.10553 cumulative IPC: 0.10631 (Simulation time: 0 hr 27 min 59 sec) 
Heartbeat CPU  0 instructions:  308000000 cycles: 2071388125 heartbeat IPC: 0.10532 cumulative IPC: 0.10630 (Simulation time: 0 hr 28 min 6 sec) 
Heartbeat CPU  0 instructions:  309000000 cycles: 2080915755 heartbeat IPC: 0.10496 cumulative IPC: 0.10630 (Simulation time: 0 hr 28 min 13 sec) 
Heartbeat CPU  0 instructions:  310000001 cycles: 2090460679 heartbeat IPC: 0.10477 cumulative IPC: 0.10629 (Simulation time: 0 hr 28 min 19 sec) 
Heartbeat CPU  0 instructions:  311000000 cycles: 2100018301 heartbeat IPC: 0.10463 cumulative IPC: 0.10628 (Simulation time: 0 hr 28 min 26 sec) 
Heartbeat CPU  0 instructions:  312000000 cycles: 2109738166 heartbeat IPC: 0.10288 cumulative IPC: 0.10626 (Simulation time: 0 hr 28 min 32 sec) 
Heartbeat CPU  0 instructions:  313000000 cycles: 2119432954 heartbeat IPC: 0.10315 cumulative IPC: 0.10625 (Simulation time: 0 hr 28 min 39 sec) 
Heartbeat CPU  0 instructions:  314000002 cycles: 2129075720 heartbeat IPC: 0.10370 cumulative IPC: 0.10624 (Simulation time: 0 hr 28 min 45 sec) 
Heartbeat CPU  0 instructions:  315000000 cycles: 2138596518 heartbeat IPC: 0.10503 cumulative IPC: 0.10623 (Simulation time: 0 hr 28 min 52 sec) 
Heartbeat CPU  0 instructions:  316000000 cycles: 2147987721 heartbeat IPC: 0.10648 cumulative IPC: 0.10623 (Simulation time: 0 hr 28 min 59 sec) 
Heartbeat CPU  0 instructions:  317000001 cycles: 2157470278 heartbeat IPC: 0.10546 cumulative IPC: 0.10623 (Simulation time: 0 hr 29 min 5 sec) 
Heartbeat CPU  0 instructions:  318000003 cycles: 2167028403 heartbeat IPC: 0.10462 cumulative IPC: 0.10622 (Simulation time: 0 hr 29 min 12 sec) 
Heartbeat CPU  0 instructions:  319000001 cycles: 2176734130 heartbeat IPC: 0.10303 cumulative IPC: 0.10621 (Simulation time: 0 hr 29 min 18 sec) 
Heartbeat CPU  0 instructions:  320000000 cycles: 2186506094 heartbeat IPC: 0.10233 cumulative IPC: 0.10619 (Simulation time: 0 hr 29 min 25 sec) 
Heartbeat CPU  0 instructions:  321000000 cycles: 2196376106 heartbeat IPC: 0.10132 cumulative IPC: 0.10617 (Simulation time: 0 hr 29 min 31 sec) 
Heartbeat CPU  0 instructions:  322000001 cycles: 2206147363 heartbeat IPC: 0.10234 cumulative IPC: 0.10615 (Simulation time: 0 hr 29 min 38 sec) 
Heartbeat CPU  0 instructions:  323000003 cycles: 2216141190 heartbeat IPC: 0.10006 cumulative IPC: 0.10612 (Simulation time: 0 hr 29 min 45 sec) 
Heartbeat CPU  0 instructions:  324000000 cycles: 2226109932 heartbeat IPC: 0.10031 cumulative IPC: 0.10609 (Simulation time: 0 hr 29 min 51 sec) 
Heartbeat CPU  0 instructions:  325000000 cycles: 2235961055 heartbeat IPC: 0.10151 cumulative IPC: 0.10607 (Simulation time: 0 hr 29 min 58 sec) 
Heartbeat CPU  0 instructions:  326000000 cycles: 2245812255 heartbeat IPC: 0.10151 cumulative IPC: 0.10605 (Simulation time: 0 hr 30 min 4 sec) 
Heartbeat CPU  0 instructions:  327000000 cycles: 2255452189 heartbeat IPC: 0.10374 cumulative IPC: 0.10604 (Simulation time: 0 hr 30 min 11 sec) 
Heartbeat CPU  0 instructions:  328000000 cycles: 2264874320 heartbeat IPC: 0.10613 cumulative IPC: 0.10604 (Simulation time: 0 hr 30 min 17 sec) 
Heartbeat CPU  0 instructions:  329000000 cycles: 2274383508 heartbeat IPC: 0.10516 cumulative IPC: 0.10603 (Simulation time: 0 hr 30 min 24 sec) 
Heartbeat CPU  0 instructions:  330000000 cycles: 2283933480 heartbeat IPC: 0.10471 cumulative IPC: 0.10603 (Simulation time: 0 hr 30 min 30 sec) 
Heartbeat CPU  0 instructions:  331000000 cycles: 2293403617 heartbeat IPC: 0.10560 cumulative IPC: 0.10603 (Simulation time: 0 hr 30 min 37 sec) 
Heartbeat CPU  0 instructions:  332000000 cycles: 2302680162 heartbeat IPC: 0.10780 cumulative IPC: 0.10603 (Simulation time: 0 hr 30 min 43 sec) 
Heartbeat CPU  0 instructions:  333000000 cycles: 2312136763 heartbeat IPC: 0.10575 cumulative IPC: 0.10603 (Simulation time: 0 hr 30 min 50 sec) 
Heartbeat CPU  0 instructions:  334000001 cycles: 2321421219 heartbeat IPC: 0.10771 cumulative IPC: 0.10604 (Simulation time: 0 hr 30 min 56 sec) 
Heartbeat CPU  0 instructions:  335000000 cycles: 2330870094 heartbeat IPC: 0.10583 cumulative IPC: 0.10604 (Simulation time: 0 hr 31 min 3 sec) 
Heartbeat CPU  0 instructions:  336000000 cycles: 2340314523 heartbeat IPC: 0.10588 cumulative IPC: 0.10604 (Simulation time: 0 hr 31 min 9 sec) 
Heartbeat CPU  0 instructions:  337000002 cycles: 2349696216 heartbeat IPC: 0.10659 cumulative IPC: 0.10604 (Simulation time: 0 hr 31 min 16 sec) 
Heartbeat CPU  0 instructions:  338000002 cycles: 2358949189 heartbeat IPC: 0.10807 cumulative IPC: 0.10605 (Simulation time: 0 hr 31 min 22 sec) 
Heartbeat CPU  0 instructions:  339000000 cycles: 2368322585 heartbeat IPC: 0.10668 cumulative IPC: 0.10605 (Simulation time: 0 hr 31 min 29 sec) 
Heartbeat CPU  0 instructions:  340000000 cycles: 2377751084 heartbeat IPC: 0.10606 cumulative IPC: 0.10605 (Simulation time: 0 hr 31 min 35 sec) 
Heartbeat CPU  0 instructions:  341000001 cycles: 2387094414 heartbeat IPC: 0.10703 cumulative IPC: 0.10606 (Simulation time: 0 hr 31 min 42 sec) 
Heartbeat CPU  0 instructions:  342000000 cycles: 2396445774 heartbeat IPC: 0.10694 cumulative IPC: 0.10606 (Simulation time: 0 hr 31 min 48 sec) 
Heartbeat CPU  0 instructions:  343000000 cycles: 2405856741 heartbeat IPC: 0.10626 cumulative IPC: 0.10606 (Simulation time: 0 hr 31 min 55 sec) 
Heartbeat CPU  0 instructions:  344000000 cycles: 2415277620 heartbeat IPC: 0.10615 cumulative IPC: 0.10606 (Simulation time: 0 hr 32 min 1 sec) 
Heartbeat CPU  0 instructions:  345000000 cycles: 2424532289 heartbeat IPC: 0.10805 cumulative IPC: 0.10607 (Simulation time: 0 hr 32 min 8 sec) 
Heartbeat CPU  0 instructions:  346000000 cycles: 2433841916 heartbeat IPC: 0.10742 cumulative IPC: 0.10607 (Simulation time: 0 hr 32 min 14 sec) 
Heartbeat CPU  0 instructions:  347000001 cycles: 2443371250 heartbeat IPC: 0.10494 cumulative IPC: 0.10607 (Simulation time: 0 hr 32 min 21 sec) 
Heartbeat CPU  0 instructions:  348000000 cycles: 2452906324 heartbeat IPC: 0.10488 cumulative IPC: 0.10607 (Simulation time: 0 hr 32 min 27 sec) 
Heartbeat CPU  0 instructions:  349000000 cycles: 2462313824 heartbeat IPC: 0.10630 cumulative IPC: 0.10607 (Simulation time: 0 hr 32 min 34 sec) 
Heartbeat CPU  0 instructions:  350000000 cycles: 2471754698 heartbeat IPC: 0.10592 cumulative IPC: 0.10607 (Simulation time: 0 hr 32 min 40 sec) 
Heartbeat CPU  0 instructions:  351000000 cycles: 2481133924 heartbeat IPC: 0.10662 cumulative IPC: 0.10607 (Simulation time: 0 hr 32 min 47 sec) 
Heartbeat CPU  0 instructions:  352000000 cycles: 2490407170 heartbeat IPC: 0.10784 cumulative IPC: 0.10607 (Simulation time: 0 hr 32 min 53 sec) 
Heartbeat CPU  0 instructions:  353000000 cycles: 2499653297 heartbeat IPC: 0.10815 cumulative IPC: 0.10608 (Simulation time: 0 hr 33 min 0 sec) 
Heartbeat CPU  0 instructions:  354000001 cycles: 2508979287 heartbeat IPC: 0.10723 cumulative IPC: 0.10609 (Simulation time: 0 hr 33 min 6 sec) 
Heartbeat CPU  0 instructions:  355000000 cycles: 2518233803 heartbeat IPC: 0.10806 cumulative IPC: 0.10609 (Simulation time: 0 hr 33 min 13 sec) 
Heartbeat CPU  0 instructions:  356000000 cycles: 2527319190 heartbeat IPC: 0.11007 cumulative IPC: 0.10611 (Simulation time: 0 hr 33 min 19 sec) 
Heartbeat CPU  0 instructions:  357000003 cycles: 2536565701 heartbeat IPC: 0.10815 cumulative IPC: 0.10612 (Simulation time: 0 hr 33 min 26 sec) 
Heartbeat CPU  0 instructions:  358000000 cycles: 2545874056 heartbeat IPC: 0.10743 cumulative IPC: 0.10612 (Simulation time: 0 hr 33 min 32 sec) 
Heartbeat CPU  0 instructions:  359000000 cycles: 2555175913 heartbeat IPC: 0.10751 cumulative IPC: 0.10613 (Simulation time: 0 hr 33 min 39 sec) 
Heartbeat CPU  0 instructions:  360000000 cycles: 2564351885 heartbeat IPC: 0.10898 cumulative IPC: 0.10614 (Simulation time: 0 hr 33 min 45 sec) 
Heartbeat CPU  0 instructions:  361000000 cycles: 2573607693 heartbeat IPC: 0.10804 cumulative IPC: 0.10615 (Simulation time: 0 hr 33 min 52 sec) 
Heartbeat CPU  0 instructions:  362000000 cycles: 2582930639 heartbeat IPC: 0.10726 cumulative IPC: 0.10615 (Simulation time: 0 hr 33 min 58 sec) 
Heartbeat CPU  0 instructions:  363000000 cycles: 2592315969 heartbeat IPC: 0.10655 cumulative IPC: 0.10615 (Simulation time: 0 hr 34 min 5 sec) 
Heartbeat CPU  0 instructions:  364000000 cycles: 2601721772 heartbeat IPC: 0.10632 cumulative IPC: 0.10615 (Simulation time: 0 hr 34 min 11 sec) 
Heartbeat CPU  0 instructions:  365000002 cycles: 2611008315 heartbeat IPC: 0.10768 cumulative IPC: 0.10616 (Simulation time: 0 hr 34 min 18 sec) 
Heartbeat CPU  0 instructions:  366000000 cycles: 2620616884 heartbeat IPC: 0.10407 cumulative IPC: 0.10615 (Simulation time: 0 hr 34 min 24 sec) 
Heartbeat CPU  0 instructions:  367000000 cycles: 2630146750 heartbeat IPC: 0.10493 cumulative IPC: 0.10614 (Simulation time: 0 hr 34 min 31 sec) 
Heartbeat CPU  0 instructions:  368000000 cycles: 2639732481 heartbeat IPC: 0.10432 cumulative IPC: 0.10614 (Simulation time: 0 hr 34 min 37 sec) 
Heartbeat CPU  0 instructions:  369000001 cycles: 2649021141 heartbeat IPC: 0.10766 cumulative IPC: 0.10614 (Simulation time: 0 hr 34 min 44 sec) 
Heartbeat CPU  0 instructions:  370000002 cycles: 2658516566 heartbeat IPC: 0.10531 cumulative IPC: 0.10614 (Simulation time: 0 hr 34 min 50 sec) 
Heartbeat CPU  0 instructions:  371000002 cycles: 2668052088 heartbeat IPC: 0.10487 cumulative IPC: 0.10614 (Simulation time: 0 hr 34 min 57 sec) 
Heartbeat CPU  0 instructions:  372000000 cycles: 2677831279 heartbeat IPC: 0.10226 cumulative IPC: 0.10612 (Simulation time: 0 hr 35 min 3 sec) 
Heartbeat CPU  0 instructions:  373000000 cycles: 2687271980 heartbeat IPC: 0.10592 cumulative IPC: 0.10612 (Simulation time: 0 hr 35 min 10 sec) 
Heartbeat CPU  0 instructions:  374000002 cycles: 2696846317 heartbeat IPC: 0.10445 cumulative IPC: 0.10611 (Simulation time: 0 hr 35 min 16 sec) 
Heartbeat CPU  0 instructions:  375000000 cycles: 2706291908 heartbeat IPC: 0.10587 cumulative IPC: 0.10611 (Simulation time: 0 hr 35 min 23 sec) 
Heartbeat CPU  0 instructions:  376000000 cycles: 2715694725 heartbeat IPC: 0.10635 cumulative IPC: 0.10611 (Simulation time: 0 hr 35 min 30 sec) 
Heartbeat CPU  0 instructions:  377000001 cycles: 2725120316 heartbeat IPC: 0.10609 cumulative IPC: 0.10611 (Simulation time: 0 hr 35 min 36 sec) 
Heartbeat CPU  0 instructions:  378000003 cycles: 2734547362 heartbeat IPC: 0.10608 cumulative IPC: 0.10611 (Simulation time: 0 hr 35 min 43 sec) 
Heartbeat CPU  0 instructions:  379000001 cycles: 2744100095 heartbeat IPC: 0.10468 cumulative IPC: 0.10611 (Simulation time: 0 hr 35 min 49 sec) 
Heartbeat CPU  0 instructions:  380000000 cycles: 2753498680 heartbeat IPC: 0.10640 cumulative IPC: 0.10611 (Simulation time: 0 hr 35 min 56 sec) 
Heartbeat CPU  0 instructions:  381000000 cycles: 2762919392 heartbeat IPC: 0.10615 cumulative IPC: 0.10611 (Simulation time: 0 hr 36 min 2 sec) 
Heartbeat CPU  0 instructions:  382000000 cycles: 2772257189 heartbeat IPC: 0.10709 cumulative IPC: 0.10611 (Simulation time: 0 hr 36 min 9 sec) 
Heartbeat CPU  0 instructions:  383000001 cycles: 2781687802 heartbeat IPC: 0.10604 cumulative IPC: 0.10611 (Simulation time: 0 hr 36 min 15 sec) 
Heartbeat CPU  0 instructions:  384000000 cycles: 2791037783 heartbeat IPC: 0.10695 cumulative IPC: 0.10612 (Simulation time: 0 hr 36 min 22 sec) 
Heartbeat CPU  0 instructions:  385000002 cycles: 2800551920 heartbeat IPC: 0.10511 cumulative IPC: 0.10611 (Simulation time: 0 hr 36 min 28 sec) 
Heartbeat CPU  0 instructions:  386000000 cycles: 2810148314 heartbeat IPC: 0.10421 cumulative IPC: 0.10611 (Simulation time: 0 hr 36 min 35 sec) 
Heartbeat CPU  0 instructions:  387000000 cycles: 2819627762 heartbeat IPC: 0.10549 cumulative IPC: 0.10610 (Simulation time: 0 hr 36 min 41 sec) 
Heartbeat CPU  0 instructions:  388000000 cycles: 2829083377 heartbeat IPC: 0.10576 cumulative IPC: 0.10610 (Simulation time: 0 hr 36 min 48 sec) 
Heartbeat CPU  0 instructions:  389000000 cycles: 2838561362 heartbeat IPC: 0.10551 cumulative IPC: 0.10610 (Simulation time: 0 hr 36 min 54 sec) 
Heartbeat CPU  0 instructions:  390000000 cycles: 2847997280 heartbeat IPC: 0.10598 cumulative IPC: 0.10610 (Simulation time: 0 hr 37 min 1 sec) 
Heartbeat CPU  0 instructions:  391000000 cycles: 2857521668 heartbeat IPC: 0.10499 cumulative IPC: 0.10610 (Simulation time: 0 hr 37 min 8 sec) 
Heartbeat CPU  0 instructions:  392000000 cycles: 2867068089 heartbeat IPC: 0.10475 cumulative IPC: 0.10609 (Simulation time: 0 hr 37 min 14 sec) 
Heartbeat CPU  0 instructions:  393000000 cycles: 2876558504 heartbeat IPC: 0.10537 cumulative IPC: 0.10609 (Simulation time: 0 hr 37 min 21 sec) 
Heartbeat CPU  0 instructions:  394000001 cycles: 2885951734 heartbeat IPC: 0.10646 cumulative IPC: 0.10609 (Simulation time: 0 hr 37 min 27 sec) 
Heartbeat CPU  0 instructions:  395000003 cycles: 2895319747 heartbeat IPC: 0.10675 cumulative IPC: 0.10609 (Simulation time: 0 hr 37 min 34 sec) 
Heartbeat CPU  0 instructions:  396000000 cycles: 2904638887 heartbeat IPC: 0.10731 cumulative IPC: 0.10610 (Simulation time: 0 hr 37 min 40 sec) 
Heartbeat CPU  0 instructions:  397000000 cycles: 2914074173 heartbeat IPC: 0.10599 cumulative IPC: 0.10610 (Simulation time: 0 hr 37 min 47 sec) 
Heartbeat CPU  0 instructions:  398000001 cycles: 2923446817 heartbeat IPC: 0.10669 cumulative IPC: 0.10610 (Simulation time: 0 hr 37 min 54 sec) 
Heartbeat CPU  0 instructions:  399000002 cycles: 2932950113 heartbeat IPC: 0.10523 cumulative IPC: 0.10609 (Simulation time: 0 hr 38 min 0 sec) 
Heartbeat CPU  0 instructions:  400000000 cycles: 2942387146 heartbeat IPC: 0.10597 cumulative IPC: 0.10609 (Simulation time: 0 hr 38 min 7 sec) 
Heartbeat CPU  0 instructions:  401000001 cycles: 2951704777 heartbeat IPC: 0.10732 cumulative IPC: 0.10610 (Simulation time: 0 hr 38 min 13 sec) 
Heartbeat CPU  0 instructions:  402000000 cycles: 2961033130 heartbeat IPC: 0.10720 cumulative IPC: 0.10610 (Simulation time: 0 hr 38 min 20 sec) 
Heartbeat CPU  0 instructions:  403000001 cycles: 2970220411 heartbeat IPC: 0.10885 cumulative IPC: 0.10611 (Simulation time: 0 hr 38 min 27 sec) 
Heartbeat CPU  0 instructions:  404000000 cycles: 2979573275 heartbeat IPC: 0.10692 cumulative IPC: 0.10611 (Simulation time: 0 hr 38 min 33 sec) 
Heartbeat CPU  0 instructions:  405000003 cycles: 2988889096 heartbeat IPC: 0.10734 cumulative IPC: 0.10612 (Simulation time: 0 hr 38 min 40 sec) 
Heartbeat CPU  0 instructions:  406000003 cycles: 2998153598 heartbeat IPC: 0.10794 cumulative IPC: 0.10612 (Simulation time: 0 hr 38 min 47 sec) 
Heartbeat CPU  0 instructions:  407000001 cycles: 3007381497 heartbeat IPC: 0.10837 cumulative IPC: 0.10613 (Simulation time: 0 hr 38 min 53 sec) 
Heartbeat CPU  0 instructions:  408000000 cycles: 3016795278 heartbeat IPC: 0.10623 cumulative IPC: 0.10613 (Simulation time: 0 hr 39 min 0 sec) 
Heartbeat CPU  0 instructions:  409000000 cycles: 3026064518 heartbeat IPC: 0.10788 cumulative IPC: 0.10614 (Simulation time: 0 hr 39 min 6 sec) 
Heartbeat CPU  0 instructions:  410000001 cycles: 3035158505 heartbeat IPC: 0.10996 cumulative IPC: 0.10615 (Simulation time: 0 hr 39 min 13 sec) 
Heartbeat CPU  0 instructions:  411000000 cycles: 3044341897 heartbeat IPC: 0.10889 cumulative IPC: 0.10616 (Simulation time: 0 hr 39 min 19 sec) 
Heartbeat CPU  0 instructions:  412000000 cycles: 3053441418 heartbeat IPC: 0.10990 cumulative IPC: 0.10617 (Simulation time: 0 hr 39 min 26 sec) 
Heartbeat CPU  0 instructions:  413000003 cycles: 3062686602 heartbeat IPC: 0.10816 cumulative IPC: 0.10617 (Simulation time: 0 hr 39 min 32 sec) 
Heartbeat CPU  0 instructions:  414000000 cycles: 3071847916 heartbeat IPC: 0.10915 cumulative IPC: 0.10618 (Simulation time: 0 hr 39 min 39 sec) 
Heartbeat CPU  0 instructions:  415000001 cycles: 3080983918 heartbeat IPC: 0.10946 cumulative IPC: 0.10619 (Simulation time: 0 hr 39 min 46 sec) 
Heartbeat CPU  0 instructions:  416000000 cycles: 3090113406 heartbeat IPC: 0.10954 cumulative IPC: 0.10620 (Simulation time: 0 hr 39 min 54 sec) 
Heartbeat CPU  0 instructions:  417000001 cycles: 3099291268 heartbeat IPC: 0.10896 cumulative IPC: 0.10621 (Simulation time: 0 hr 40 min 2 sec) 
Heartbeat CPU  0 instructions:  418000002 cycles: 3108624082 heartbeat IPC: 0.10715 cumulative IPC: 0.10622 (Simulation time: 0 hr 40 min 9 sec) 
Heartbeat CPU  0 instructions:  419000000 cycles: 3117912639 heartbeat IPC: 0.10766 cumulative IPC: 0.10622 (Simulation time: 0 hr 40 min 17 sec) 
Heartbeat CPU  0 instructions:  420000000 cycles: 3127264991 heartbeat IPC: 0.10692 cumulative IPC: 0.10622 (Simulation time: 0 hr 40 min 25 sec) 
Heartbeat CPU  0 instructions:  421000001 cycles: 3136476654 heartbeat IPC: 0.10856 cumulative IPC: 0.10623 (Simulation time: 0 hr 40 min 32 sec) 
Heartbeat CPU  0 instructions:  422000001 cycles: 3145849689 heartbeat IPC: 0.10669 cumulative IPC: 0.10623 (Simulation time: 0 hr 40 min 39 sec) 
Heartbeat CPU  0 instructions:  423000000 cycles: 3155306510 heartbeat IPC: 0.10574 cumulative IPC: 0.10623 (Simulation time: 0 hr 40 min 47 sec) 
Heartbeat CPU  0 instructions:  424000000 cycles: 3164734373 heartbeat IPC: 0.10607 cumulative IPC: 0.10623 (Simulation time: 0 hr 40 min 54 sec) 
Heartbeat CPU  0 instructions:  425000000 cycles: 3174120130 heartbeat IPC: 0.10654 cumulative IPC: 0.10623 (Simulation time: 0 hr 41 min 2 sec) 
Heartbeat CPU  0 instructions:  426000001 cycles: 3183461197 heartbeat IPC: 0.10705 cumulative IPC: 0.10623 (Simulation time: 0 hr 41 min 9 sec) 
Heartbeat CPU  0 instructions:  427000000 cycles: 3192765906 heartbeat IPC: 0.10747 cumulative IPC: 0.10624 (Simulation time: 0 hr 41 min 17 sec) 
Heartbeat CPU  0 instructions:  428000000 cycles: 3202077041 heartbeat IPC: 0.10740 cumulative IPC: 0.10624 (Simulation time: 0 hr 41 min 24 sec) 
Heartbeat CPU  0 instructions:  429000000 cycles: 3211340633 heartbeat IPC: 0.10795 cumulative IPC: 0.10624 (Simulation time: 0 hr 41 min 31 sec) 
Heartbeat CPU  0 instructions:  430000000 cycles: 3220722293 heartbeat IPC: 0.10659 cumulative IPC: 0.10625 (Simulation time: 0 hr 41 min 39 sec) 
Heartbeat CPU  0 instructions:  431000001 cycles: 3230045857 heartbeat IPC: 0.10726 cumulative IPC: 0.10625 (Simulation time: 0 hr 41 min 46 sec) 
Heartbeat CPU  0 instructions:  432000000 cycles: 3239391565 heartbeat IPC: 0.10700 cumulative IPC: 0.10625 (Simulation time: 0 hr 41 min 54 sec) 
Heartbeat CPU  0 instructions:  433000000 cycles: 3248790621 heartbeat IPC: 0.10639 cumulative IPC: 0.10625 (Simulation time: 0 hr 42 min 1 sec) 
Heartbeat CPU  0 instructions:  434000002 cycles: 3258130567 heartbeat IPC: 0.10707 cumulative IPC: 0.10625 (Simulation time: 0 hr 42 min 9 sec) 
Heartbeat CPU  0 instructions:  435000000 cycles: 3267447444 heartbeat IPC: 0.10733 cumulative IPC: 0.10626 (Simulation time: 0 hr 42 min 17 sec) 
Heartbeat CPU  0 instructions:  436000000 cycles: 3276782697 heartbeat IPC: 0.10712 cumulative IPC: 0.10626 (Simulation time: 0 hr 42 min 25 sec) 
Heartbeat CPU  0 instructions:  437000002 cycles: 3285990061 heartbeat IPC: 0.10861 cumulative IPC: 0.10627 (Simulation time: 0 hr 42 min 32 sec) 
Heartbeat CPU  0 instructions:  438000000 cycles: 3295208214 heartbeat IPC: 0.10848 cumulative IPC: 0.10627 (Simulation time: 0 hr 42 min 40 sec) 
Heartbeat CPU  0 instructions:  439000000 cycles: 3304539050 heartbeat IPC: 0.10717 cumulative IPC: 0.10628 (Simulation time: 0 hr 42 min 48 sec) 
Heartbeat CPU  0 instructions:  440000000 cycles: 3313933306 heartbeat IPC: 0.10645 cumulative IPC: 0.10628 (Simulation time: 0 hr 42 min 56 sec) 
Heartbeat CPU  0 instructions:  441000000 cycles: 3323384368 heartbeat IPC: 0.10581 cumulative IPC: 0.10627 (Simulation time: 0 hr 43 min 4 sec) 
Heartbeat CPU  0 instructions:  442000000 cycles: 3332863924 heartbeat IPC: 0.10549 cumulative IPC: 0.10627 (Simulation time: 0 hr 43 min 11 sec) 
Heartbeat CPU  0 instructions:  443000003 cycles: 3342301118 heartbeat IPC: 0.10596 cumulative IPC: 0.10627 (Simulation time: 0 hr 43 min 19 sec) 
Heartbeat CPU  0 instructions:  444000000 cycles: 3351689258 heartbeat IPC: 0.10652 cumulative IPC: 0.10627 (Simulation time: 0 hr 43 min 26 sec) 
Heartbeat CPU  0 instructions:  445000003 cycles: 3361216521 heartbeat IPC: 0.10496 cumulative IPC: 0.10627 (Simulation time: 0 hr 43 min 34 sec) 
Heartbeat CPU  0 instructions:  446000000 cycles: 3370872469 heartbeat IPC: 0.10356 cumulative IPC: 0.10626 (Simulation time: 0 hr 43 min 42 sec) 
Heartbeat CPU  0 instructions:  447000000 cycles: 3380564786 heartbeat IPC: 0.10317 cumulative IPC: 0.10625 (Simulation time: 0 hr 43 min 51 sec) 
Heartbeat CPU  0 instructions:  448000000 cycles: 3390134132 heartbeat IPC: 0.10450 cumulative IPC: 0.10625 (Simulation time: 0 hr 43 min 58 sec) 
Heartbeat CPU  0 instructions:  449000003 cycles: 3399800480 heartbeat IPC: 0.10345 cumulative IPC: 0.10624 (Simulation time: 0 hr 44 min 7 sec) 
Heartbeat CPU  0 instructions:  450000002 cycles: 3409313265 heartbeat IPC: 0.10512 cumulative IPC: 0.10623 (Simulation time: 0 hr 44 min 14 sec) 
Heartbeat CPU  0 instructions:  451000002 cycles: 3418792015 heartbeat IPC: 0.10550 cumulative IPC: 0.10623 (Simulation time: 0 hr 44 min 21 sec) 
Heartbeat CPU  0 instructions:  452000000 cycles: 3428262461 heartbeat IPC: 0.10559 cumulative IPC: 0.10623 (Simulation time: 0 hr 44 min 28 sec) 
Heartbeat CPU  0 instructions:  453000002 cycles: 3437819092 heartbeat IPC: 0.10464 cumulative IPC: 0.10623 (Simulation time: 0 hr 44 min 35 sec) 
Heartbeat CPU  0 instructions:  454000000 cycles: 3447317133 heartbeat IPC: 0.10528 cumulative IPC: 0.10622 (Simulation time: 0 hr 44 min 42 sec) 
Heartbeat CPU  0 instructions:  455000000 cycles: 3456974866 heartbeat IPC: 0.10354 cumulative IPC: 0.10622 (Simulation time: 0 hr 44 min 49 sec) 
Heartbeat CPU  0 instructions:  456000000 cycles: 3466487477 heartbeat IPC: 0.10512 cumulative IPC: 0.10621 (Simulation time: 0 hr 44 min 55 sec) 
Heartbeat CPU  0 instructions:  457000002 cycles: 3475974173 heartbeat IPC: 0.10541 cumulative IPC: 0.10621 (Simulation time: 0 hr 45 min 2 sec) 
Heartbeat CPU  0 instructions:  458000000 cycles: 3485480044 heartbeat IPC: 0.10520 cumulative IPC: 0.10621 (Simulation time: 0 hr 45 min 10 sec) 
Heartbeat CPU  0 instructions:  459000000 cycles: 3494979398 heartbeat IPC: 0.10527 cumulative IPC: 0.10620 (Simulation time: 0 hr 45 min 17 sec) 
Heartbeat CPU  0 instructions:  460000000 cycles: 3504386375 heartbeat IPC: 0.10630 cumulative IPC: 0.10621 (Simulation time: 0 hr 45 min 24 sec) 
Heartbeat CPU  0 instructions:  461000000 cycles: 3513831067 heartbeat IPC: 0.10588 cumulative IPC: 0.10620 (Simulation time: 0 hr 45 min 31 sec) 
Heartbeat CPU  0 instructions:  462000000 cycles: 3523272380 heartbeat IPC: 0.10592 cumulative IPC: 0.10620 (Simulation time: 0 hr 45 min 38 sec) 
Heartbeat CPU  0 instructions:  463000001 cycles: 3532615630 heartbeat IPC: 0.10703 cumulative IPC: 0.10621 (Simulation time: 0 hr 45 min 45 sec) 
Heartbeat CPU  0 instructions:  464000000 cycles: 3542086728 heartbeat IPC: 0.10558 cumulative IPC: 0.10620 (Simulation time: 0 hr 45 min 51 sec) 
Heartbeat CPU  0 instructions:  465000000 cycles: 3551579831 heartbeat IPC: 0.10534 cumulative IPC: 0.10620 (Simulation time: 0 hr 45 min 58 sec) 
Heartbeat CPU  0 instructions:  466000000 cycles: 3561056040 heartbeat IPC: 0.10553 cumulative IPC: 0.10620 (Simulation time: 0 hr 46 min 5 sec) 
Heartbeat CPU  0 instructions:  467000000 cycles: 3570460277 heartbeat IPC: 0.10634 cumulative IPC: 0.10620 (Simulation time: 0 hr 46 min 12 sec) 
Heartbeat CPU  0 instructions:  468000000 cycles: 3579870410 heartbeat IPC: 0.10627 cumulative IPC: 0.10620 (Simulation time: 0 hr 46 min 19 sec) 
Heartbeat CPU  0 instructions:  469000000 cycles: 3589172932 heartbeat IPC: 0.10750 cumulative IPC: 0.10620 (Simulation time: 0 hr 46 min 26 sec) 
Heartbeat CPU  0 instructions:  470000000 cycles: 3598529647 heartbeat IPC: 0.10688 cumulative IPC: 0.10621 (Simulation time: 0 hr 46 min 33 sec) 
Heartbeat CPU  0 instructions:  471000000 cycles: 3607929558 heartbeat IPC: 0.10638 cumulative IPC: 0.10621 (Simulation time: 0 hr 46 min 40 sec) 
Heartbeat CPU  0 instructions:  472000000 cycles: 3617089575 heartbeat IPC: 0.10917 cumulative IPC: 0.10621 (Simulation time: 0 hr 46 min 47 sec) 
Heartbeat CPU  0 instructions:  473000000 cycles: 3626426903 heartbeat IPC: 0.10710 cumulative IPC: 0.10622 (Simulation time: 0 hr 46 min 53 sec) 
Heartbeat CPU  0 instructions:  474000000 cycles: 3635972359 heartbeat IPC: 0.10476 cumulative IPC: 0.10621 (Simulation time: 0 hr 47 min 0 sec) 
Heartbeat CPU  0 instructions:  475000001 cycles: 3645313623 heartbeat IPC: 0.10705 cumulative IPC: 0.10621 (Simulation time: 0 hr 47 min 7 sec) 
Heartbeat CPU  0 instructions:  476000000 cycles: 3654737591 heartbeat IPC: 0.10611 cumulative IPC: 0.10621 (Simulation time: 0 hr 47 min 14 sec) 
Heartbeat CPU  0 instructions:  477000000 cycles: 3664134710 heartbeat IPC: 0.10642 cumulative IPC: 0.10621 (Simulation time: 0 hr 47 min 21 sec) 
Heartbeat CPU  0 instructions:  478000001 cycles: 3673576677 heartbeat IPC: 0.10591 cumulative IPC: 0.10621 (Simulation time: 0 hr 47 min 28 sec) 
Heartbeat CPU  0 instructions:  479000003 cycles: 3683073319 heartbeat IPC: 0.10530 cumulative IPC: 0.10621 (Simulation time: 0 hr 47 min 35 sec) 
Heartbeat CPU  0 instructions:  480000000 cycles: 3692642456 heartbeat IPC: 0.10450 cumulative IPC: 0.10621 (Simulation time: 0 hr 47 min 42 sec) 
Heartbeat CPU  0 instructions:  481000000 cycles: 3702239327 heartbeat IPC: 0.10420 cumulative IPC: 0.10620 (Simulation time: 0 hr 47 min 49 sec) 
Heartbeat CPU  0 instructions:  482000000 cycles: 3711694481 heartbeat IPC: 0.10576 cumulative IPC: 0.10620 (Simulation time: 0 hr 47 min 56 sec) 
Heartbeat CPU  0 instructions:  483000000 cycles: 3721102469 heartbeat IPC: 0.10629 cumulative IPC: 0.10620 (Simulation time: 0 hr 48 min 2 sec) 
Heartbeat CPU  0 instructions:  484000000 cycles: 3730597208 heartbeat IPC: 0.10532 cumulative IPC: 0.10620 (Simulation time: 0 hr 48 min 9 sec) 
Heartbeat CPU  0 instructions:  485000000 cycles: 3740170635 heartbeat IPC: 0.10446 cumulative IPC: 0.10619 (Simulation time: 0 hr 48 min 16 sec) 
Heartbeat CPU  0 instructions:  486000002 cycles: 3749723307 heartbeat IPC: 0.10468 cumulative IPC: 0.10619 (Simulation time: 0 hr 48 min 22 sec) 
Heartbeat CPU  0 instructions:  487000000 cycles: 3759311936 heartbeat IPC: 0.10429 cumulative IPC: 0.10618 (Simulation time: 0 hr 48 min 29 sec) 
Heartbeat CPU  0 instructions:  488000000 cycles: 3768711615 heartbeat IPC: 0.10639 cumulative IPC: 0.10619 (Simulation time: 0 hr 48 min 35 sec) 
Heartbeat CPU  0 instructions:  489000000 cycles: 3778144980 heartbeat IPC: 0.10601 cumulative IPC: 0.10618 (Simulation time: 0 hr 48 min 41 sec) 
Heartbeat CPU  0 instructions:  490000000 cycles: 3787585023 heartbeat IPC: 0.10593 cumulative IPC: 0.10618 (Simulation time: 0 hr 48 min 48 sec) 
Heartbeat CPU  0 instructions:  491000000 cycles: 3796924435 heartbeat IPC: 0.10707 cumulative IPC: 0.10619 (Simulation time: 0 hr 48 min 54 sec) 
Heartbeat CPU  0 instructions:  492000000 cycles: 3806368742 heartbeat IPC: 0.10588 cumulative IPC: 0.10619 (Simulation time: 0 hr 49 min 1 sec) 
Heartbeat CPU  0 instructions:  493000001 cycles: 3815908667 heartbeat IPC: 0.10482 cumulative IPC: 0.10618 (Simulation time: 0 hr 49 min 7 sec) 
Heartbeat CPU  0 instructions:  494000001 cycles: 3825457706 heartbeat IPC: 0.10472 cumulative IPC: 0.10618 (Simulation time: 0 hr 49 min 14 sec) 
Heartbeat CPU  0 instructions:  495000002 cycles: 3835054993 heartbeat IPC: 0.10420 cumulative IPC: 0.10617 (Simulation time: 0 hr 49 min 20 sec) 
Heartbeat CPU  0 instructions:  496000000 cycles: 3844478354 heartbeat IPC: 0.10612 cumulative IPC: 0.10617 (Simulation time: 0 hr 49 min 27 sec) 
Heartbeat CPU  0 instructions:  497000001 cycles: 3853726938 heartbeat IPC: 0.10812 cumulative IPC: 0.10618 (Simulation time: 0 hr 49 min 33 sec) 
Heartbeat CPU  0 instructions:  498000000 cycles: 3863093887 heartbeat IPC: 0.10676 cumulative IPC: 0.10618 (Simulation time: 0 hr 49 min 40 sec) 
Heartbeat CPU  0 instructions:  499000003 cycles: 3872236879 heartbeat IPC: 0.10937 cumulative IPC: 0.10619 (Simulation time: 0 hr 49 min 46 sec) 
Heartbeat CPU  0 instructions:  500000000 cycles: 3881587144 heartbeat IPC: 0.10695 cumulative IPC: 0.10619 (Simulation time: 0 hr 49 min 53 sec) 
Heartbeat CPU  0 instructions:  501000000 cycles: 3891051486 heartbeat IPC: 0.10566 cumulative IPC: 0.10619 (Simulation time: 0 hr 49 min 59 sec) 
Heartbeat CPU  0 instructions:  502000001 cycles: 3900625409 heartbeat IPC: 0.10445 cumulative IPC: 0.10618 (Simulation time: 0 hr 50 min 6 sec) 
Heartbeat CPU  0 instructions:  503000003 cycles: 3909945854 heartbeat IPC: 0.10729 cumulative IPC: 0.10619 (Simulation time: 0 hr 50 min 12 sec) 
Heartbeat CPU  0 instructions:  504000000 cycles: 3919341997 heartbeat IPC: 0.10643 cumulative IPC: 0.10619 (Simulation time: 0 hr 50 min 19 sec) 
Heartbeat CPU  0 instructions:  505000001 cycles: 3928607105 heartbeat IPC: 0.10793 cumulative IPC: 0.10619 (Simulation time: 0 hr 50 min 25 sec) 
Heartbeat CPU  0 instructions:  506000003 cycles: 3937934004 heartbeat IPC: 0.10722 cumulative IPC: 0.10619 (Simulation time: 0 hr 50 min 32 sec) 
Heartbeat CPU  0 instructions:  507000000 cycles: 3947237563 heartbeat IPC: 0.10749 cumulative IPC: 0.10620 (Simulation time: 0 hr 50 min 38 sec) 
Heartbeat CPU  0 instructions:  508000000 cycles: 3956604077 heartbeat IPC: 0.10676 cumulative IPC: 0.10620 (Simulation time: 0 hr 50 min 45 sec) 
Heartbeat CPU  0 instructions:  509000001 cycles: 3965920196 heartbeat IPC: 0.10734 cumulative IPC: 0.10620 (Simulation time: 0 hr 50 min 51 sec) 
Heartbeat CPU  0 instructions:  510000001 cycles: 3975299830 heartbeat IPC: 0.10661 cumulative IPC: 0.10620 (Simulation time: 0 hr 50 min 58 sec) 
Heartbeat CPU  0 instructions:  511000003 cycles: 3984581321 heartbeat IPC: 0.10774 cumulative IPC: 0.10621 (Simulation time: 0 hr 51 min 4 sec) 
[...]
scooby_state_40061c|8|-52 0,0,0,0,0,0,0,0,0,0,0,1,0,0,0,1,
scooby_state_4005e1|2|-58 1,0,0,0,0,0,0,0,0,0,0,0,0,0,0,1,
scooby_state_40061c|18|4 1,0,0,0,0,0,0,0,0,0,0,0,0,0,0,1,
scooby_state_401d77|31|-29 0,0,0,0,0,0,0,0,0,0,0,1,0,0,0,1,
scooby_state_4005f2|11|-16 1,0,0,0,0,0,0,0,0,0,0,0,0,0,0,1,
scooby_state_40061c|21|-10 0,0,0,0,0,0,0,0,0,0,0,1,0,0,0,1,
scooby_state_4005ef|38|11 0,0,0,1,0,0,0,0,0,0,0,0,0,0,0,1,
scooby_state_4005ef|26|-12 0,0,0,0,0,0,0,0,0,0,0,0,0,0,1,1,
scooby_state_4005ef|45|17 0,0,0,0,0,0,0,0,0,0,0,0,0,0,1,1,
scooby_state_40061c|48|13 1,0,0,0,0,0,0,0,0,0,0,0,0,0,0,1,
scooby_state_4005ef|57|16 0,0,0,0,0,0,0,0,0,0,0,0,0,0,1,1,
scooby_state_401c58|34|4 0,0,0,0,0,0,0,0,0,0,0,1,0,0,0,1,
scooby_state_4005f2|30|17 1,0,0,0,0,0,0,0,0,0,0,0,0,0,0,1,
scooby_state_401c5c|3|-50 0,0,0,0,0,0,0,0,0,0,0,0,0,1,0,1,
scooby_state_40061c|24|23 1,0,0,0,0,0,0,0,0,0,0,0,0,0,0,1,
scooby_state_4005f2|21|5 1,0,0,0,0,0,0,0,0,0,0,0,0,0,0,1,
scooby_state_401b28|2|-42 0,0,0,0,1,0,0,0,0,0,0,0,0,0,0,1,
scooby_state_4005eb|0|-39 0,1,0,0,0,0,0,0,0,0,0,0,0,0,0,1,
scooby_state_4005f2|2|-60 1,0,0,0,0,0,0,0,0,0,0,0,0,0,0,1,
scooby_state_4005f2|41|-15 1,0,0,0,0,0,0,0,0,0,0,0,0,0,0,1,
scooby_state_40061c|55|32 0,0,0,0,0,0,0,0,0,0,0,0,0,0,1,1,
scooby_state_401f5e|59|25 1,0,0,0,0,0,0,0,0,0,0,0,0,0,0,1,
scooby_state_4005cf|16|14 1,0,0,0,0,0,0,0,0,0,0,0,0,0,0,1,
scooby_state_4005ef|52|6 0,0,0,0,0,0,0,0,0,0,0,0,0,1,0,1,
scooby_state_401d7b|26|-10 0,0,0,0,0,0,0,0,0,0,0,1,0,0,0,1,
scooby_state_40061c|42|8 1,0,0,0,0,0,0,0,0,0,0,0,0,0,0,1,
scooby_state_4005ef|17|4 0,0,0,1,0,0,0,0,0,0,0,0,0,0,0,1,
scooby_state_4005e1|20|-8 1,0,0,0,0,0,0,0,0,0,0,0,0,0,0,1,
scooby_state_40061c|56|18 1,0,0,0,0,0,0,0,0,0,0,0,0,0,0,1,
scooby_state_4005cf|31|6 0,0,0,0,0,0,1,0,0,0,0,0,0,0,0,1,
scooby_state_4005ef|10|-43 0,0,0,0,0,0,0,0,0,0,1,0,0,0,0,1,
scooby_state_4005cf|24|-21 0,0,0,0,1,0,0,0,0,0,0,0,0,0,0,1,
scooby_state_40061c|16|-15 1,0,0,0,0,0,0,0,0,0,0,0,0,0,0,1,
scooby_state_4005ef|40|4 0,0,0,0,0,0,0,0,0,0,1,0,0,0,0,1,
scooby_state_4005f2|63|27 0,0,0,0,0,0,0,0,0,0,0,0,1,0,0,1,
scooby_state_4005ef|37|16 0,0,0,1,0,0,0,0,0,0,0,0,0,0,0,1,
scooby_state_40061c|23|-36 1,0,0,0,0,0,0,0,0,0,0,0,0,0,0,1,
scooby_state_401c7c|8|2 1,0,0,0,0,0,0,0,0,0,0,0,0,0,0,1,
scooby_state_40061c|36|36 0,0,0,0,0,0,0,0,0,0,0,1,0,0,0,1,
scooby_state_402146|15|-37 0,0,0,0,0,0,0,1,0,0,0,0,0,0,0,1,
scooby_state_4005ef|35|17 0,0,0,1,0,0,0,0,0,0,0,0,0,0,0,1,
scooby_state_40061c|45|13 1,0,0,0,0,0,0,0,0,0,0,0,0,0,0,1,
scooby_state_4005f2|58|32 1,0,0,0,0,0,0,0,0,0,0,0,0,0,0,1,
scooby_state_401c78|56|52 0,0,0,0,0,0,0,0,0,1,0,0,0,0,0,1,
scooby_state_40061c|62|21 1,0,0,0,0,0,0,0,0,0,0,0,0,0,0,1,
scooby_state_4005cf|31|3 0,0,0,0,0,0,0,0,0,0,0,0,0,0,1,1,
scooby_state_402146|14|-20 1,0,0,0,0,0,0,0,0,0,0,0,0,0,0,1,
scooby_state_4005f2|40|38 1,0,0,0,0,0,0,0,0,0,0,0,0,0,0,1,
scooby_state_4005ef|19|18 1,0,0,0,0,0,0,0,0,0,0,0,0,0,0,1,
scooby_state_4005cf|47|-15 1,0,0,0,0,0,0,0,0,0,0,0,0,0,0,1,
scooby_state_4005e1|47|25 1,0,0,0,0,0,0,0,0,0,0,0,0,0,0,1,
scooby_state_4005f2|54|7 1,0,0,0,0,0,0,0,0,0,0,0,0,0,0,1,
scooby_state_4005f2|48|9 0,0,0,0,0,1,0,0,0,0,0,0,0,0,0,1,
scooby_state_4005e1|11|-49 1,0,0,0,0,0,0,0,0,0,0,0,0,0,0,1,
scooby_state_401c78|48|25 0,0,0,0,0,0,0,0,0,0,0,1,0,0,0,1,
scooby_state_4005e1|13|-45 1,0,0,0,0,0,0,0,0,0,0,0,0,0,0,1,
scooby_state_4005ef|35|-13 1,0,0,0,0,0,0,0,0,0,0,0,0,0,0,1,
scooby_state_40221a|14|-41 1,0,0,0,0,0,0,0,0,0,0,0,0,0,0,1,
scooby_state_4005f2|3|-14 1,0,0,0,0,0,0,0,0,0,0,0,0,0,0,1,
scooby_state_401f9e|50|0 0,0,0,0,0,0,0,0,0,1,0,0,0,0,0,1,
scooby_state_40061c|40|36 0,0,0,0,0,0,0,1,0,0,0,0,0,0,0,1,
scooby_state_4005f2|11|1 1,0,0,0,0,0,0,0,0,0,0,0,0,0,0,1,
scooby_state_4005f2|33|-18 1,0,0,0,0,0,0,0,0,0,0,0,0,0,0,1,
scooby_state_4005f2|56|32 1,0,0,0,0,0,0,0,0,0,0,0,0,0,0,1,
scooby_state_4005f2|62|28 1,0,0,0,0,0,0,0,0,0,0,0,0,0,0,1,
scooby_state_40061c|49|-12 1,0,0,0,0,0,0,0,0,0,0,0,0,0,0,1,
scooby_state_4005e1|24|2 1,0,0,0,0,0,0,0,0,0,0,0,0,0,0,1,
scooby_state_4005f2|46|6 1,0,0,0,0,0,0,0,0,0,0,0,0,0,0,1,
scooby_state_4005cf|40|-4 1,0,0,0,0,0,0,0,0,0,0,0,0,0,0,1,
scooby_state_4005f2|61|42 0,0,0,0,0,1,0,0,0,0,0,0,0,0,0,1,
scooby_state_40061c|26|-8 0,1,0,0,0,0,0,0,0,0,0,0,0,0,0,1,
scooby_state_4005e1|23|-9 1,0,0,0,0,0,0,0,0,0,0,0,0,0,0,1,
scooby_state_4005f2|58|15 1,0,0,0,0,0,0,0,0,0,0,0,0,0,0,1,
scooby_state_4005f2|51|38 1,0,0,0,0,0,0,0,0,0,0,0,0,0,0,1,
scooby_state_4005f2|62|45 1,0,0,0,0,0,0,0,0,0,0,0,0,0,0,1,
scooby_state_4005f2|12|-12 0,0,0,0,0,0,0,0,0,1,0,0,0,0,0,1,
scooby_state_4005f2|40|29 1,0,0,0,0,0,0,0,0,0,0,0,0,0,0,1,
scooby_state_401d7b|55|3 0,0,0,0,0,0,0,0,0,0,0,1,0,0,0,1,
scooby_state_401c78|51|15 0,0,0,0,0,0,0,0,0,0,0,1,0,0,0,1,
scooby_state_4005f2|27|-22 0,0,0,0,0,0,0,0,1,0,0,0,0,0,0,1,
scooby_state_4005ef|4|-12 1,0,0,0,0,0,0,0,0,0,0,0,0,0,0,1,
scooby_state_4005f2|40|21 1,0,0,0,0,0,0,0,0,0,0,0,0,0,0,1,
scooby_state_4005f2|7|-23 1,0,0,0,0,0,0,0,0,0,0,0,0,0,0,1,
scooby_state_4005e1|22|-13 1,0,0,0,0,0,0,0,0,0,0,0,0,0,0,1,
scooby_state_4005f2|30|-19 1,0,0,0,0,0,0,0,0,0,0,0,0,0,0,1,
scooby_state_40061c|25|-35 0,0,0,0,0,0,0,0,0,0,0,1,0,0,0,1,
scooby_state_4005e1|35|15 1,0,0,0,0,0,0,0,0,0,0,0,0,0,0,1,
scooby_state_4005f2|2|-36 1,0,0,0,0,0,0,0,0,0,0,0,0,0,0,1,
scooby_state_4005cf|20|-32 1,0,0,0,0,0,0,0,0,0,0,0,0,0,0,1,
scooby_state_4005cf|31|7 1,0,0,0,0,0,0,0,0,0,0,0,0,0,0,1,
scooby_state_4005f2|49|8 1,0,0,0,0,0,0,0,0,0,0,0,0,0,0,1,
scooby_state_4005f2|28|-24 1,0,0,0,0,0,0,0,0,0,0,0,0,0,0,1,
scooby_state_40061c|9|-54 1,0,0,0,0,0,0,0,0,0,0,0,0,0,0,1,
scooby_state_4005ef|46|-7 1,0,0,0,0,0,0,0,0,0,0,0,0,0,0,1,
scooby_state_4005cf|41|3 1,0,0,0,0,0,0,0,0,0,0,0,0,0,0,1,
scooby_state_40221a|24|-18 0,0,0,0,0,0,0,1,0,0,0,0,0,0,0,1,
scooby_state_4005f2|53|9 0,0,0,1,0,0,0,0,0,0,0,0,0,0,0,1,
scooby_state_4005cf|7|3 0,0,0,1,0,0,0,0,0,0,0,0,0,0,0,1,
scooby_state_401c7c|15|-22 1,0,0,0,0,0,0,0,0,0,0,0,0,0,0,1,
scooby_state_40061c|18|10 0,0,0,1,0,0,0,0,0,0,0,0,0,0,0,1,
scooby_state_4005ef|28|27 1,0,0,0,0,0,0,0,0,0,0,0,0,0,0,1,
scooby_state_40061c|60|37 0,0,0,0,0,0,0,0,0,0,0,1,0,0,0,1,
scooby_state_40061c|21|21 1,0,0,0,0,0,0,0,0,0,0,0,0,0,0,1,
scooby_state_400610|22|0 1,0,0,0,0,0,0,0,0,0,0,0,0,0,0,1,
scooby_state_4005f2|19|-15 1,0,0,0,0,0,0,0,0,0,0,0,0,0,0,1,
scooby_state_4005cf|24|-5 0,0,0,0,0,0,1,0,0,0,0,0,0,0,0,1,
scooby_state_4005c0|0|-45 0,0,0,0,0,0,0,0,0,0,0,0,1,0,0,1,
scooby_state_401e1d|20|-1 0,0,0,0,0,1,0,0,0,0,0,0,0,0,0,1,
scooby_state_40061c|45|4 1,0,0,0,0,0,0,0,0,0,0,0,0,0,0,1,
scooby_state_40061c|26|22 0,0,1,0,0,0,0,0,0,0,0,0,0,0,0,1,
scooby_state_4005e1|43|-10 1,0,0,0,0,0,0,0,0,0,0,0,0,0,0,1,
scooby_state_4005f2|32|24 1,0,0,0,0,0,0,0,0,0,0,0,0,0,0,1,
scooby_state_4005e1|1|-24 0,0,0,0,0,0,0,1,0,0,0,0,0,0,0,1,
scooby_state_4005f2|16|-29 1,0,0,0,0,0,0,0,0,0,0,0,0,0,0,1,
scooby_state_4005ef|4|-8 1,0,0,0,0,0,0,0,0,0,0,0,0,0,0,1,
scooby_state_4005f2|18|-23 1,0,0,0,0,0,0,0,0,0,0,0,0,0,0,1,
scooby_state_4005e1|2|-47 0,0,0,0,0,0,0,1,0,0,0,0,0,0,0,1,
scooby_state_4005f2|51|18 0,0,0,0,0,0,0,0,1,0,0,0,0,0,0,1,
scooby_state_4005cf|47|5 1,0,0,0,0,0,0,0,0,0,0,0,0,0,0,1,
scooby_state_40061c|57|15 0,0,0,0,0,0,0,0,0,0,0,1,0,0,0,1,
scooby_state_4005cf|15|-3 1,0,0,0,0,0,0,0,0,0,0,0,0,0,0,1,
scooby_state_401db4|60|56 1,0,0,0,0,0,0,0,0,0,0,0,0,0,0,1,
scooby_state_40061c|26|-2 0,0,0,0,0,0,0,0,0,0,0,1,0,0,0,1,
scooby_state_4005f2|37|-15 1,0,0,0,0,0,0,0,0,0,0,0,0,0,0,1,
scooby_state_40061c|20|-10 0,0,0,0,0,0,0,0,0,0,0,1,0,0,0,1,
scooby_state_4005f2|29|-25 0,0,0,0,0,0,0,1,0,0,0,0,0,0,0,1,
scooby_state_4005f2|42|14 1,0,0,0,0,0,0,0,0,0,0,0,0,0,0,1,
scooby_state_401c5c|20|0 0,0,0,0,0,0,1,0,0,0,0,0,0,0,0,1,
scooby_state_4005f2|24|-36 1,0,0,0,0,0,0,0,0,0,0,0,0,0,0,1,
scooby_state_4005e7|0|-49 0,0,0,0,0,0,0,0,0,0,0,0,1,0,0,1,
scooby_state_4005c4|0|-22 0,0,0,0,0,0,0,0,0,0,0,1,0,0,0,1,
scooby_state_4005c4|0|-1 0,0,0,0,0,0,0,0,0,0,0,0,0,0,1,1,
scooby_state_4005f2|2|-58 0,0,0,0,0,0,1,0,0,0,0,0,0,0,0,1,
scooby_state_4005f2|0|-58 0,0,0,0,0,0,1,0,0,0,0,0,0,0,0,1,
scooby_state_4005f2|21|-22 0,0,0,0,1,0,0,0,0,0,0,0,0,0,0,1,
scooby_state_4005f2|48|48 0,0,0,0,1,0,0,0,0,0,0,0,0,0,0,1,
scooby_state_4005cf|44|-4 1,0,0,0,0,0,0,0,0,0,0,0,0,0,0,1,
scooby_state_4005f2|44|35 0,0,0,0,0,0,0,0,0,0,0,1,0,0,0,1,
scooby_state_4005f2|20|10 1,0,0,0,0,0,0,0,0,0,0,0,0,0,0,1,
scooby_state_4005f2|20|-34 1,0,0,0,0,0,0,0,0,0,0,0,0,0,0,1,
scooby_state_40061c|1|-57 1,0,0,0,0,0,0,0,0,0,0,0,0,0,0,1,
scooby_state_401d7b|8|-48 0,0,0,0,0,0,0,0,0,0,0,1,0,0,0,1,
scooby_state_401d7b|48|33 0,0,0,0,0,0,0,0,0,0,0,1,0,0,0,1,
scooby_state_4005f2|3|-55 1,0,0,0,0,0,0,0,0,0,0,0,0,0,0,1,
scooby_state_4005e1|47|-8 1,0,0,0,0,0,0,0,0,0,0,0,0,0,0,1,
scooby_state_401d77|36|3 0,0,0,0,0,0,0,0,0,0,0,1,0,0,0,1,
scooby_state_40061c|23|16 1,0,0,0,0,0,0,0,0,0,0,0,0,0,0,1,
scooby_state_4005ef|16|14 1,0,0,0,0,0,0,0,0,0,0,0,0,0,0,1,
scooby_state_4005eb|0|-9 0,0,0,0,0,0,0,0,0,1,0,0,0,0,0,1,
scooby_state_4005f2|62|48 0,0,0,0,0,0,0,0,1,0,0,0,0,0,0,1,
scooby_state_40061c|27|-7 1,0,0,0,0,0,0,0,0,0,0,0,0,0,0,1,
scooby_state_40061c|61|3 0,0,0,0,0,1,0,0,0,0,0,0,0,0,0,1,
scooby_state_4005ef|39|-13 0,0,0,0,0,0,0,0,0,0,0,0,0,1,0,1,
scooby_state_40061c|39|-3 1,0,0,0,0,0,0,0,0,0,0,0,0,0,0,1,
scooby_state_4005ef|38|-9 0,0,0,0,0,0,0,0,0,0,0,0,0,1,0,1,
scooby_state_401db4|50|42 1,0,0,0,0,0,0,0,0,0,0,0,0,0,0,1,
scooby_state_40061c|5|-30 0,0,0,0,0,0,0,0,0,0,0,1,0,0,0,1,
scooby_state_4005f2|35|-10 1,0,0,0,0,0,0,0,0,0,0,0,0,0,0,1,
scooby_state_401b78|62|0 0,0,0,1,0,0,0,0,0,0,0,0,0,0,0,1,
scooby_state_4005ef|63|42 0,0,0,0,0,0,0,0,0,0,0,1,0,0,0,1,
scooby_state_4005e1|46|44 1,0,0,0,0,0,0,0,0,0,0,0,0,0,0,1,
scooby_state_40211d|15|10 0,0,0,0,0,0,0,0,0,0,0,0,0,1,0,1,
scooby_state_40061c|5|-3 1,0,0,0,0,0,0,0,0,0,0,0,0,0,0,1,
scooby_state_4005e1|43|28 0,0,0,0,0,1,0,0,0,0,0,0,0,0,0,1,
scooby_state_401c58|33|-8 0,0,0,0,0,0,0,0,0,0,0,1,0,0,0,1,
scooby_state_4005f2|31|-24 1,0,0,0,0,0,0,0,0,0,0,0,0,0,0,1,
scooby_state_4005e1|39|23 1,0,0,0,0,0,0,0,0,0,0,0,0,0,0,1,
scooby_state_40061c|18|-31 1,0,0,0,0,0,0,0,0,0,0,0,0,0,0,1,
scooby_state_4005ef|49|35 0,0,0,0,0,0,0,0,0,1,0,0,0,0,0,1,
scooby_state_40221a|0|-29 1,0,0,0,0,0,0,0,0,0,0,0,0,0,0,1,
scooby_state_40061c|37|7 1,0,0,0,0,0,0,0,0,0,0,0,0,0,0,1,
scooby_state_40061c|6|-4 1,0,0,0,0,0,0,0,0,0,0,0,0,0,0,1,
scooby_state_402146|55|46 0,0,0,0,0,1,0,0,0,0,0,0,0,0,0,1,
scooby_state_401b40|26|18 1,0,0,0,0,0,0,0,0,0,0,0,0,0,0,1,
scooby_state_401b28|4|-24 1,0,0,0,0,0,0,0,0,0,0,0,0,0,0,1,
scooby_state_40061c|43|-3 1,0,0,0,0,0,0,0,0,0,0,0,0,0,0,1,
scooby_state_401c5c|61|54 0,0,1,0,0,0,0,0,0,0,0,0,0,0,0,1,
scooby_state_401b28|22|-31 1,0,0,0,0,0,0,0,0,0,0,0,0,0,0,1,
scooby_state_401d7b|12|-47 0,0,0,0,0,0,0,0,0,0,0,1,0,0,0,1,
scooby_state_4005c4|0|-10 1,0,0,0,0,0,0,0,0,0,0,0,0,0,0,1,
scooby_state_4005cf|18|15 0,0,0,0,0,0,0,1,0,0,0,0,0,0,0,1,
scooby_state_40222b|61|24 1,0,0,0,0,0,0,0,0,0,0,0,0,0,0,1,
scooby_state_4005ef|14|-23 0,0,0,0,0,1,0,0,0,0,0,0,0,0,0,1,
scooby_state_4005ef|28|-4 0,0,0,0,0,0,1,0,0,0,0,0,0,0,0,1,
scooby_state_4005f2|37|5 1,0,0,0,0,0,0,0,0,0,0,0,0,0,0,1,
scooby_state_401d50|35|-14 1,0,0,0,0,0,0,0,0,0,0,0,0,0,0,1,
scooby_state_402146|3|-44 1,0,0,0,0,0,0,0,0,0,0,0,0,0,0,1,
scooby_state_4005ef|43|3 0,0,0,0,0,0,0,0,0,0,0,0,0,1,0,1,
scooby_state_4005e1|27|-6 0,0,0,0,0,0,0,0,0,0,0,0,0,0,1,1,
scooby_state_401db0|31|-1 0,0,0,0,0,0,0,0,0,0,0,0,0,0,1,1,
scooby_state_4005f2|32|31 1,0,0,0,0,0,0,0,0,0,0,0,0,0,0,1,
scooby_state_4005cf|24|-14 1,0,0,0,0,0,0,0,0,0,0,0,0,0,0,1,
scooby_state_4005f2|61|51 1,0,0,0,0,0,0,0,0,0,0,0,0,0,0,1,
scooby_state_4005f2|58|44 1,0,0,0,0,0,0,0,0,0,0,0,0,0,0,1,
scooby_state_401c58|27|5 0,0,0,0,0,0,0,0,0,0,0,1,0,0,0,1,
scooby_state_4005f2|40|12 1,0,0,0,0,0,0,0,0,0,0,0,0,0,0,1,
scooby_state_4005f2|20|-13 1,0,0,0,0,0,0,0,0,0,0,0,0,0,0,1,
scooby_state_402146|20|-8 0,0,0,0,1,0,0,0,0,0,0,0,0,0,0,1,
scooby_state_401c5c|20|-19 0,0,0,0,0,0,1,0,0,0,0,0,0,0,0,1,
scooby_state_4005f2|55|26 1,0,0,0,0,0,0,0,0,0,0,0,0,0,0,1,
scooby_state_4005ef|63|0 1,0,0,0,0,0,0,0,0,0,0,0,0,0,0,1,
scooby_state_40061c|41|41 0,0,0,0,0,0,0,0,0,0,0,1,0,0,0,1,
scooby_state_4005cf|15|4 1,0,0,0,0,0,0,0,0,0,0,0,0,0,0,1,
scooby_state_4005e7|0|-18 1,0,0,0,0,0,0,0,0,0,0,0,0,0,0,1,
scooby_state_4005e1|46|39 1,0,0,0,0,0,0,0,0,0,0,0,0,0,0,1,
scooby_state_4005f2|23|13 1,0,0,0,0,0,0,0,0,0,0,0,0,0,0,1,
scooby_state_4005ef|17|13 1,0,0,0,0,0,0,0,0,0,0,0,0,0,0,1,
scooby_state_4005ef|29|3 1,0,0,0,0,0,0,0,0,0,0,0,0,0,0,1,
scooby_state_4005ef|6|-5 1,0,0,0,0,0,0,0,0,0,0,0,0,0,0,1,
scooby_state_40061c|2|-36 1,0,0,0,0,0,0,0,0,0,0,0,0,0,0,1,
scooby_state_4005f2|49|46 1,0,0,0,0,0,0,0,0,0,0,0,0,0,0,1,
scooby_state_4005ef|43|6 0,0,0,0,0,0,0,0,0,0,0,0,0,1,0,1,

scooby_action_0_deg_dist 0,3754380,0,0,0,0,0,0,0,0,0,0,0,0,0,0,
scooby_action_-6_deg_dist 0,27885,93,0,48,0,4,0,0,0,0,0,0,0,0,0,
scooby_action_4_deg_dist 0,28961,272,0,302,0,94,0,0,0,0,0,0,0,0,0,
scooby_action_1_deg_dist 0,85569388,72333,0,17037,0,7428,0,0,0,0,0,0,0,0,0,
scooby_action_30_deg_dist 0,24428,42,0,11,0,0,0,0,0,0,0,0,0,0,0,
scooby_action_5_deg_dist 0,28194,173,0,93,0,17,0,0,0,0,0,0,0,0,0,
scooby_action_10_deg_dist 0,27249,119,0,76,0,11,0,0,0,0,0,0,0,0,0,
scooby_action_3_deg_dist 0,29916,121,0,62,0,22,0,0,0,0,0,0,0,0,0,
scooby_action_32_deg_dist 0,24143,32,0,7,0,0,0,0,0,0,0,0,0,0,0,
scooby_action_11_deg_dist 0,27416,140,0,76,0,6,0,0,0,0,0,0,0,0,0,
scooby_action_12_deg_dist 0,27040,120,0,51,0,5,0,0,0,0,0,0,0,0,0,
scooby_action_22_deg_dist 0,25713,71,0,37,0,0,0,0,0,0,0,0,0,0,0,
scooby_action_23_deg_dist 0,26041,72,0,28,0,0,0,0,0,0,0,0,0,0,0,
scooby_action_-1_deg_dist 0,68194,1014,0,567,0,216,0,0,0,0,0,0,0,0,0,
scooby_action_-3_deg_dist 0,28324,115,0,63,0,14,0,0,0,0,0,0,0,0,0,

scooby_track_called 89818264
scooby_track_same_address 50984
scooby_track_evict 89767024

scooby_reward_demand_called 89818264
scooby_reward_demand_pt_not_found 89631310
scooby_reward_demand_pt_found 186954
scooby_reward_demand_pt_found_total 186954
scooby_reward_demand_has_reward 2045
scooby_reward_train_called 88167051
scooby_reward_assign_reward_called 89767037
scooby_reward_no_pref 3754378
scooby_reward_incorrect 84412673
scooby_reward_correct_untimely 112025
scooby_reward_correct_timely 72884
scooby_reward_out_of_bounds 1415077
scooby_reward_tracker_hit 0

scooby_reward_none_low_bw 3754378
scooby_reward_none_high_bw 0
scooby_reward_incorrect_low_bw 84412673
scooby_reward_incorrect_high_bw 0
scooby_reward_correct_untimely_low_bw 112025
scooby_reward_correct_untimely_high_bw 0
scooby_reward_correct_timely_low_bw 72884
scooby_reward_correct_timely_high_bw 0
scooby_reward_out_of_bounds_low_bw 1415077
scooby_reward_out_of_bounds_high_bw 0
scooby_reward_tracker_hit_low_bw 0
scooby_reward_tracker_hit_high_bw 0

scooby_reward_1 0,84118862,95033,68789,1343898,0,
scooby_reward_3 0,26392,321,426,1929,0,
scooby_reward_4 0,25876,138,332,2112,0,
scooby_reward_5 0,25148,88,226,2526,0,
scooby_reward_10 0,21890,68,182,4806,0,
scooby_reward_11 0,21259,67,199,5294,0,
scooby_reward_12 0,20621,64,185,5735,0,
scooby_reward_22 0,15306,32,59,9566,0,
scooby_reward_23 0,15081,40,103,10018,0,
scooby_reward_30 0,11865,18,46,12165,0,
scooby_reward_32 0,11033,16,72,12779,0,
scooby_reward_-1 0,48092,16045,2049,971,0,
scooby_reward_-3 0,26344,63,142,1107,0,
scooby_reward_-6 0,24904,32,74,2171,0,
scooby_reward_0 3754378,0,0,0,0,0,

scooby_train_called 89767023
scooby_train_compute_reward 88167051

scooby_register_fill_called 72274926
scooby_register_fill_set 72184457
scooby_register_fill_set_total 72184457

scooby_register_prefetch_hit_called 12390956
scooby_register_prefetch_hit_set 12358357
scooby_register_prefetch_hit_set_total 12358357

scooby_pref_issue_scooby 84753761

learning_engine_featurewise.action.called 89818264
learning_engine_featurewise.action.explore 163864
learning_engine_featurewise.action.exploit 89654400
learning_engine_featurewise.action.fallback 85571777
learning_engine_featurewise.action.dyn_fallback_saved_bw 0
learning_engine_featurewise.action.dyn_fallback_saved_bw_acc 3900239
learning_engine_featurewise.action.index_1_explored 10865
learning_engine_featurewise.action.index_1_exploited 85655321
learning_engine_featurewise.action.index_3_explored 11039
learning_engine_featurewise.action.index_3_exploited 19082
learning_engine_featurewise.action.index_4_explored 11100
learning_engine_featurewise.action.index_4_exploited 18529
learning_engine_featurewise.action.index_5_explored 11134
learning_engine_featurewise.action.index_5_exploited 17343
learning_engine_featurewise.action.index_10_explored 11134
learning_engine_featurewise.action.index_10_exploited 16321
learning_engine_featurewise.action.index_11_explored 11089
learning_engine_featurewise.action.index_11_exploited 16549
learning_engine_featurewise.action.index_12_explored 10974
learning_engine_featurewise.action.index_12_exploited 16242
learning_engine_featurewise.action.index_22_explored 11047
learning_engine_featurewise.action.index_22_exploited 14774
learning_engine_featurewise.action.index_23_explored 11126
learning_engine_featurewise.action.index_23_exploited 15015
learning_engine_featurewise.action.index_30_explored 10908
learning_engine_featurewise.action.index_30_exploited 13573
learning_engine_featurewise.action.index_32_explored 10623
learning_engine_featurewise.action.index_32_exploited 13559
learning_engine_featurewise.action.index_-1_explored 10788
learning_engine_featurewise.action.index_-1_exploited 59203
learning_engine_featurewise.action.index_-3_explored 10694
learning_engine_featurewise.action.index_-3_exploited 17822
learning_engine_featurewise.action.index_-6_explored 10727
learning_engine_featurewise.action.index_-6_exploited 17303
learning_engine_featurewise.action.index_0_explored 10616
learning_engine_featurewise.action.index_0_exploited 3743764
learning_engine_featurewise.learn.called 89767023
learning_engine_featurewise.learn.su_skip_PC 0
learning_engine_featurewise.learn.su_skip_PC_Delta 0

learning_engine_featurewise.q_value_histogram.bucket_0 3887123
learning_engine_featurewise.q_value_histogram.bucket_1 5459
learning_engine_featurewise.q_value_histogram.bucket_2 85619674
learning_engine_featurewise.q_value_histogram.bucket_3 45968
learning_engine_featurewise.q_value_histogram.bucket_4 56258
learning_engine_featurewise.q_value_histogram.bucket_5 25422
learning_engine_featurewise.q_value_histogram.bucket_6 14496
learning_engine_featurewise.q_value_histogram.bucket_7 0

learning_engine_featurewise.consensus.total 89654400
learning_engine_featurewise.consensus.feature_align_PC 85721531
learning_engine_featurewise.consensus.feature_align_PC_ratio 0.96
learning_engine_featurewise.consensus.feature_align_PC_Delta 85701249
learning_engine_featurewise.consensus.feature_align_PC_Delta_ratio 0.96
learning_engine_featurewise.consensus.feature_align_all 85660883
learning_engine_featurewise.consensus.feature_align_all_ratio 0.96

learning_engine_featurewise.feature_PC_min_weight 1000000.00000000
learning_engine_featurewise.feature_PC_max_weight 0.00000000
learning_engine_featurewise.feature_PC_Delta_min_weight 1000000.00000000
learning_engine_featurewise.feature_PC_Delta_max_weight 0.00000000
unique_pcs 115
unique_pages 428295
unique_trigger_pcs 81
total_bitmaps_seen 0
unique_bitmaps_seen 0

scooby_bw_epochs 18735814
scooby_bw_level_0 12531275
scooby_bw_level_1 5513775
scooby_bw_level_2 655890
scooby_bw_level_3 34874

scooby_ipc_epochs 0
scooby_ipc_level_0 0
scooby_ipc_level_1 0
scooby_ipc_level_2 0
scooby_ipc_level_3 0

scooby_cache_acc_epochs 4559994
scooby_cache_acc_level_0 21108
scooby_cache_acc_level_1 255257
scooby_cache_acc_level_2 1000616
scooby_cache_acc_level_3 2117965
scooby_cache_acc_level_4 948983
scooby_cache_acc_level_5 172312
scooby_cache_acc_level_6 31590
scooby_cache_acc_level_7 7957
scooby_cache_acc_level_8 2545
scooby_cache_acc_level_9 1661

Channel_0_RQ_row_buffer_hit 3059402
Channel_0_RQ_row_buffer_miss 38216254
Channel_0_WQ_row_buffer_hit 21095
Channel_0_WQ_row_buffer_miss 30097
Channel_0_WQ_full 0
Channel_0_dbus_congested 5581934

avg_congested_cycle 5

DRAM_bw_pochs 18735814
DRAM_bw_level_0 12531275
DRAM_bw_level_1 5513775
DRAM_bw_level_2 655890
DRAM_bw_level_3 34874
