*************************************************
   ChampSim Multicore Out-of-Order Simulator
   Last compiled: Dec 11 2024 17:59:53
*************************************************
parsing config file: /home/functionmain/桌面/Pythia/config/spp_dev2.ini

trace_0 /home/functionmain/桌面/Pythia/traces/429.mcf-192B.champsimtrace.xz
adding L2C_PREFETCHER: SPP_dev2
Initialize SIGNATURE TABLE
ST_SET: 1
ST_WAY: 256
ST_TAG_BIT: 16
ST_TAG_MASK: ffff

Initialize PATTERN TABLE
PT_SET: 512
PT_WAY: 4
SIG_DELTA_BIT: 7
C_SIG_BIT: 4
C_DELTA_BIT: 4

Initialize PREFETCH FILTER
FILTER_SET: 1024
fill_threshold: 90
pf_threshold: 40

Initialize SHIP state
warmup_instructions 100000000
simulation_instructions 500000000
champsim_seed 222
measure_ipc 0
measure_ipc_epoch 1000
measure_dram_bw 1
measure_dram_bw_epoch 256
measure_cache_acc 1
measure_cache_acc_epoch 1024
l1d_perfect 0
l2c_perfect 0
llc_perfect 0
l1d_semi_perfect 0
l2c_semi_perfect 0
llc_semi_perfect 0
semi_perfect_cache_page_buffer_size 64

num_cpus 1
cpu_freq 4000
dram_io_freq 9600
page_size 4096
block_size 64
max_read_per_cycle 8
max_fill_per_cycle 1
dram_channels 1
log2_dram_channels 0
dram_ranks 1
dram_banks 8
dram_rows 65536
dram_columns 128
dram_row_size 8
dram_size 4096
dram_pages 1048576

fetch_width 6
decode_width 6
exec_width 4
lq_width 2
sq_width 2
retire_width 4
scheduler_size 128
branch_mispredict_penalty 20
rob_size 256
lq_size 72
sq_size 56
num_instr_destinations_sparc 4
num_instr_destinations 2
num_instr_sources 4

itlb_set 16
itlb_way 8
itlb_rq_size 16
itlb_wq_size 16
itlb_pq_size 0
itlb_mshr_size 8
itlb_latency 1

dtlb_set 16
dtlb_way 4
dtlb_rq_size 16
dtlb_wq_size 16
dtlb_pq_size 0
dtlb_mshr_size 8
dtlb_latency 1

stlb_set 128
stlb_way 12
stlb_rq_size 32
stlb_wq_size 32
stlb_pq_size 0
stlb_mshr_size 16
stlb_latency 8

l1i_size 32
l1i_set 64
l1i_way 8
l1i_rq_size 64
l1i_wq_size 64
l1i_pq_size 8
l1i_mshr_size 8
l1i_latency 1

l1d_size 32
l1d_set 64
l1d_way 8
l1d_rq_size 64
l1d_wq_size 64
l1d_pq_size 8
l1d_mshr_size 16
l1d_latency 4

l2c_size 256
l2c_set 512
l2c_way 8
l2c_rq_size 32
l2c_wq_size 32
l2c_pq_size 32
l2c_mshr_size 32
l2c_latency 10

llc_size 2048
llc_set 2048
llc_way 16
llc_rq_size 32
llc_wq_size 32
llc_pq_size 32
llc_mshr_size 64
llc_latency 20

dram_channel_width 8
dram_wq_size 64
dram_rq_size 64
tRP 15
tRCD 15
tCAS 12.5
dram_dbus_turn_around_time 30
dram_write_high_wm 56
dram_write_low_wm 48
min_dram_writes_per_switch 16
dram_mtps 9600
dram_dbus_return_time 3


Heartbeat CPU  0 instructions:    1000002 cycles:    1178218 heartbeat IPC: 0.84874 cumulative IPC: 0.84874 (Simulation time: 0 hr 0 min 1 sec) 
Heartbeat CPU  0 instructions:    2000002 cycles:    2361929 heartbeat IPC: 0.84480 cumulative IPC: 0.84677 (Simulation time: 0 hr 0 min 3 sec) 
Heartbeat CPU  0 instructions:    3000000 cycles:    3526487 heartbeat IPC: 0.85869 cumulative IPC: 0.85070 (Simulation time: 0 hr 0 min 4 sec) 
Heartbeat CPU  0 instructions:    4000000 cycles:    4666901 heartbeat IPC: 0.87687 cumulative IPC: 0.85710 (Simulation time: 0 hr 0 min 5 sec) 
Heartbeat CPU  0 instructions:    5000001 cycles:    5826105 heartbeat IPC: 0.86266 cumulative IPC: 0.85821 (Simulation time: 0 hr 0 min 7 sec) 
Heartbeat CPU  0 instructions:    6000000 cycles:    6980361 heartbeat IPC: 0.86636 cumulative IPC: 0.85955 (Simulation time: 0 hr 0 min 8 sec) 
Heartbeat CPU  0 instructions:    7000000 cycles:    8153329 heartbeat IPC: 0.85254 cumulative IPC: 0.85855 (Simulation time: 0 hr 0 min 10 sec) 
Heartbeat CPU  0 instructions:    8000000 cycles:    9310761 heartbeat IPC: 0.86398 cumulative IPC: 0.85922 (Simulation time: 0 hr 0 min 11 sec) 
Heartbeat CPU  0 instructions:    9000002 cycles:   10477802 heartbeat IPC: 0.85687 cumulative IPC: 0.85896 (Simulation time: 0 hr 0 min 12 sec) 
Heartbeat CPU  0 instructions:   10000000 cycles:   11642047 heartbeat IPC: 0.85892 cumulative IPC: 0.85896 (Simulation time: 0 hr 0 min 14 sec) 
Heartbeat CPU  0 instructions:   11000003 cycles:   12779751 heartbeat IPC: 0.87897 cumulative IPC: 0.86074 (Simulation time: 0 hr 0 min 15 sec) 
Heartbeat CPU  0 instructions:   12000000 cycles:   13892094 heartbeat IPC: 0.89900 cumulative IPC: 0.86380 (Simulation time: 0 hr 0 min 16 sec) 
Heartbeat CPU  0 instructions:   13000001 cycles:   15034697 heartbeat IPC: 0.87520 cumulative IPC: 0.86467 (Simulation time: 0 hr 0 min 18 sec) 
Heartbeat CPU  0 instructions:   14000000 cycles:   16185955 heartbeat IPC: 0.86861 cumulative IPC: 0.86495 (Simulation time: 0 hr 0 min 19 sec) 
Heartbeat CPU  0 instructions:   15000000 cycles:   17351378 heartbeat IPC: 0.85806 cumulative IPC: 0.86448 (Simulation time: 0 hr 0 min 20 sec) 
Heartbeat CPU  0 instructions:   16000000 cycles:   18519289 heartbeat IPC: 0.85623 cumulative IPC: 0.86396 (Simulation time: 0 hr 0 min 22 sec) 
Heartbeat CPU  0 instructions:   17000001 cycles:   19694273 heartbeat IPC: 0.85108 cumulative IPC: 0.86320 (Simulation time: 0 hr 0 min 23 sec) 
Heartbeat CPU  0 instructions:   18000000 cycles:   20865213 heartbeat IPC: 0.85401 cumulative IPC: 0.86268 (Simulation time: 0 hr 0 min 24 sec) 
Heartbeat CPU  0 instructions:   19000003 cycles:   22020705 heartbeat IPC: 0.86543 cumulative IPC: 0.86282 (Simulation time: 0 hr 0 min 26 sec) 
Heartbeat CPU  0 instructions:   20000000 cycles:   23169505 heartbeat IPC: 0.87047 cumulative IPC: 0.86320 (Simulation time: 0 hr 0 min 27 sec) 
Heartbeat CPU  0 instructions:   21000000 cycles:   24325963 heartbeat IPC: 0.86471 cumulative IPC: 0.86328 (Simulation time: 0 hr 0 min 28 sec) 
Heartbeat CPU  0 instructions:   22000003 cycles:   25486887 heartbeat IPC: 0.86139 cumulative IPC: 0.86319 (Simulation time: 0 hr 0 min 30 sec) 
Heartbeat CPU  0 instructions:   23000001 cycles:   26632598 heartbeat IPC: 0.87282 cumulative IPC: 0.86360 (Simulation time: 0 hr 0 min 31 sec) 
Heartbeat CPU  0 instructions:   24000000 cycles:   27778358 heartbeat IPC: 0.87278 cumulative IPC: 0.86398 (Simulation time: 0 hr 0 min 32 sec) 
Heartbeat CPU  0 instructions:   25000001 cycles:   28923659 heartbeat IPC: 0.87313 cumulative IPC: 0.86434 (Simulation time: 0 hr 0 min 34 sec) 
Heartbeat CPU  0 instructions:   26000000 cycles:   30075390 heartbeat IPC: 0.86826 cumulative IPC: 0.86449 (Simulation time: 0 hr 0 min 35 sec) 
Heartbeat CPU  0 instructions:   27000000 cycles:   31227491 heartbeat IPC: 0.86798 cumulative IPC: 0.86462 (Simulation time: 0 hr 0 min 36 sec) 
Heartbeat CPU  0 instructions:   28000000 cycles:   32357233 heartbeat IPC: 0.88516 cumulative IPC: 0.86534 (Simulation time: 0 hr 0 min 38 sec) 
Heartbeat CPU  0 instructions:   29000000 cycles:   33531187 heartbeat IPC: 0.85182 cumulative IPC: 0.86487 (Simulation time: 0 hr 0 min 39 sec) 
Heartbeat CPU  0 instructions:   30000002 cycles:   34704136 heartbeat IPC: 0.85255 cumulative IPC: 0.86445 (Simulation time: 0 hr 0 min 40 sec) 
Heartbeat CPU  0 instructions:   31000002 cycles:   35883701 heartbeat IPC: 0.84777 cumulative IPC: 0.86390 (Simulation time: 0 hr 0 min 42 sec) 
Heartbeat CPU  0 instructions:   32000000 cycles:   37049084 heartbeat IPC: 0.85809 cumulative IPC: 0.86372 (Simulation time: 0 hr 0 min 43 sec) 
Heartbeat CPU  0 instructions:   33000000 cycles:   38211641 heartbeat IPC: 0.86017 cumulative IPC: 0.86361 (Simulation time: 0 hr 0 min 44 sec) 
Heartbeat CPU  0 instructions:   34000002 cycles:   39370713 heartbeat IPC: 0.86276 cumulative IPC: 0.86359 (Simulation time: 0 hr 0 min 46 sec) 
Heartbeat CPU  0 instructions:   35000000 cycles:   40542071 heartbeat IPC: 0.85371 cumulative IPC: 0.86330 (Simulation time: 0 hr 0 min 47 sec) 
Heartbeat CPU  0 instructions:   36000000 cycles:   41724830 heartbeat IPC: 0.84548 cumulative IPC: 0.86280 (Simulation time: 0 hr 0 min 48 sec) 
Heartbeat CPU  0 instructions:   37000001 cycles:   42900879 heartbeat IPC: 0.85031 cumulative IPC: 0.86245 (Simulation time: 0 hr 0 min 50 sec) 
Heartbeat CPU  0 instructions:   38000000 cycles:   44063273 heartbeat IPC: 0.86029 cumulative IPC: 0.86240 (Simulation time: 0 hr 0 min 51 sec) 
Heartbeat CPU  0 instructions:   39000000 cycles:   45224885 heartbeat IPC: 0.86087 cumulative IPC: 0.86236 (Simulation time: 0 hr 0 min 53 sec) 
Heartbeat CPU  0 instructions:   40000000 cycles:   46381250 heartbeat IPC: 0.86478 cumulative IPC: 0.86242 (Simulation time: 0 hr 0 min 54 sec) 
Heartbeat CPU  0 instructions:   41000001 cycles:   47583718 heartbeat IPC: 0.83162 cumulative IPC: 0.86164 (Simulation time: 0 hr 0 min 55 sec) 
Heartbeat CPU  0 instructions:   42000000 cycles:   48770516 heartbeat IPC: 0.84260 cumulative IPC: 0.86118 (Simulation time: 0 hr 0 min 57 sec) 
Heartbeat CPU  0 instructions:   43000000 cycles:   49950624 heartbeat IPC: 0.84738 cumulative IPC: 0.86085 (Simulation time: 0 hr 0 min 58 sec) 
Heartbeat CPU  0 instructions:   44000000 cycles:   51111323 heartbeat IPC: 0.86155 cumulative IPC: 0.86087 (Simulation time: 0 hr 0 min 59 sec) 
Heartbeat CPU  0 instructions:   45000000 cycles:   52270942 heartbeat IPC: 0.86235 cumulative IPC: 0.86090 (Simulation time: 0 hr 1 min 1 sec) 
Heartbeat CPU  0 instructions:   46000002 cycles:   53406490 heartbeat IPC: 0.88063 cumulative IPC: 0.86132 (Simulation time: 0 hr 1 min 2 sec) 
Heartbeat CPU  0 instructions:   47000000 cycles:   54562486 heartbeat IPC: 0.86505 cumulative IPC: 0.86140 (Simulation time: 0 hr 1 min 3 sec) 
Heartbeat CPU  0 instructions:   48000000 cycles:   55716337 heartbeat IPC: 0.86666 cumulative IPC: 0.86151 (Simulation time: 0 hr 1 min 5 sec) 
Heartbeat CPU  0 instructions:   49000001 cycles:   56875086 heartbeat IPC: 0.86300 cumulative IPC: 0.86154 (Simulation time: 0 hr 1 min 6 sec) 
Heartbeat CPU  0 instructions:   50000002 cycles:   58015342 heartbeat IPC: 0.87700 cumulative IPC: 0.86184 (Simulation time: 0 hr 1 min 7 sec) 
Heartbeat CPU  0 instructions:   51000000 cycles:   59150833 heartbeat IPC: 0.88067 cumulative IPC: 0.86220 (Simulation time: 0 hr 1 min 9 sec) 
Heartbeat CPU  0 instructions:   52000000 cycles:   60282532 heartbeat IPC: 0.88363 cumulative IPC: 0.86260 (Simulation time: 0 hr 1 min 10 sec) 
Heartbeat CPU  0 instructions:   53000001 cycles:   61411263 heartbeat IPC: 0.88595 cumulative IPC: 0.86303 (Simulation time: 0 hr 1 min 11 sec) 
Heartbeat CPU  0 instructions:   54000000 cycles:   62539261 heartbeat IPC: 0.88653 cumulative IPC: 0.86346 (Simulation time: 0 hr 1 min 13 sec) 
Heartbeat CPU  0 instructions:   55000001 cycles:   63667824 heartbeat IPC: 0.88608 cumulative IPC: 0.86386 (Simulation time: 0 hr 1 min 14 sec) 
Heartbeat CPU  0 instructions:   56000000 cycles:   64820269 heartbeat IPC: 0.86772 cumulative IPC: 0.86393 (Simulation time: 0 hr 1 min 15 sec) 
Heartbeat CPU  0 instructions:   57000000 cycles:   65962343 heartbeat IPC: 0.87560 cumulative IPC: 0.86413 (Simulation time: 0 hr 1 min 17 sec) 
Heartbeat CPU  0 instructions:   58000003 cycles:   67112866 heartbeat IPC: 0.86917 cumulative IPC: 0.86422 (Simulation time: 0 hr 1 min 18 sec) 
Heartbeat CPU  0 instructions:   59000003 cycles:   68273982 heartbeat IPC: 0.86124 cumulative IPC: 0.86417 (Simulation time: 0 hr 1 min 19 sec) 
Heartbeat CPU  0 instructions:   60000000 cycles:   69442748 heartbeat IPC: 0.85560 cumulative IPC: 0.86402 (Simulation time: 0 hr 1 min 21 sec) 
Heartbeat CPU  0 instructions:   61000002 cycles:   70623152 heartbeat IPC: 0.84717 cumulative IPC: 0.86374 (Simulation time: 0 hr 1 min 22 sec) 
Heartbeat CPU  0 instructions:   62000000 cycles:   71803380 heartbeat IPC: 0.84729 cumulative IPC: 0.86347 (Simulation time: 0 hr 1 min 23 sec) 
Heartbeat CPU  0 instructions:   63000000 cycles:   72995886 heartbeat IPC: 0.83857 cumulative IPC: 0.86306 (Simulation time: 0 hr 1 min 25 sec) 
Heartbeat CPU  0 instructions:   64000000 cycles:   74192096 heartbeat IPC: 0.83597 cumulative IPC: 0.86263 (Simulation time: 0 hr 1 min 26 sec) 
Heartbeat CPU  0 instructions:   65000000 cycles:   75391656 heartbeat IPC: 0.83364 cumulative IPC: 0.86216 (Simulation time: 0 hr 1 min 27 sec) 
Heartbeat CPU  0 instructions:   66000002 cycles:   76588090 heartbeat IPC: 0.83582 cumulative IPC: 0.86175 (Simulation time: 0 hr 1 min 29 sec) 
Heartbeat CPU  0 instructions:   67000001 cycles:   77771342 heartbeat IPC: 0.84513 cumulative IPC: 0.86150 (Simulation time: 0 hr 1 min 30 sec) 
Heartbeat CPU  0 instructions:   68000000 cycles:   78950389 heartbeat IPC: 0.84814 cumulative IPC: 0.86130 (Simulation time: 0 hr 1 min 31 sec) 
Heartbeat CPU  0 instructions:   69000001 cycles:   80128953 heartbeat IPC: 0.84849 cumulative IPC: 0.86111 (Simulation time: 0 hr 1 min 33 sec) 
Heartbeat CPU  0 instructions:   70000001 cycles:   81307057 heartbeat IPC: 0.84882 cumulative IPC: 0.86093 (Simulation time: 0 hr 1 min 34 sec) 
Heartbeat CPU  0 instructions:   71000003 cycles:   82479685 heartbeat IPC: 0.85279 cumulative IPC: 0.86082 (Simulation time: 0 hr 1 min 35 sec) 
Heartbeat CPU  0 instructions:   72000000 cycles:   83644440 heartbeat IPC: 0.85855 cumulative IPC: 0.86079 (Simulation time: 0 hr 1 min 37 sec) 
Heartbeat CPU  0 instructions:   73000000 cycles:   84821754 heartbeat IPC: 0.84939 cumulative IPC: 0.86063 (Simulation time: 0 hr 1 min 38 sec) 
Heartbeat CPU  0 instructions:   74000000 cycles:   86002041 heartbeat IPC: 0.84725 cumulative IPC: 0.86044 (Simulation time: 0 hr 1 min 39 sec) 
Heartbeat CPU  0 instructions:   75000001 cycles:   87154850 heartbeat IPC: 0.86745 cumulative IPC: 0.86054 (Simulation time: 0 hr 1 min 41 sec) 
Heartbeat CPU  0 instructions:   76000000 cycles:   88216234 heartbeat IPC: 0.94217 cumulative IPC: 0.86152 (Simulation time: 0 hr 1 min 42 sec) 
Heartbeat CPU  0 instructions:   77000000 cycles:   89206995 heartbeat IPC: 1.00933 cumulative IPC: 0.86316 (Simulation time: 0 hr 1 min 44 sec) 
Heartbeat CPU  0 instructions:   78000001 cycles:   90394580 heartbeat IPC: 0.84205 cumulative IPC: 0.86288 (Simulation time: 0 hr 1 min 45 sec) 
Heartbeat CPU  0 instructions:   79000003 cycles:   91583173 heartbeat IPC: 0.84133 cumulative IPC: 0.86260 (Simulation time: 0 hr 1 min 47 sec) 
Heartbeat CPU  0 instructions:   80000000 cycles:   92777653 heartbeat IPC: 0.83718 cumulative IPC: 0.86228 (Simulation time: 0 hr 1 min 48 sec) 
Heartbeat CPU  0 instructions:   81000003 cycles:   93952859 heartbeat IPC: 0.85092 cumulative IPC: 0.86213 (Simulation time: 0 hr 1 min 49 sec) 
Heartbeat CPU  0 instructions:   82000003 cycles:   95128215 heartbeat IPC: 0.85081 cumulative IPC: 0.86199 (Simulation time: 0 hr 1 min 51 sec) 
Heartbeat CPU  0 instructions:   83000003 cycles:   96295155 heartbeat IPC: 0.85694 cumulative IPC: 0.86193 (Simulation time: 0 hr 1 min 52 sec) 
Heartbeat CPU  0 instructions:   84000000 cycles:   97453437 heartbeat IPC: 0.86335 cumulative IPC: 0.86195 (Simulation time: 0 hr 1 min 53 sec) 
Heartbeat CPU  0 instructions:   85000001 cycles:   98613844 heartbeat IPC: 0.86177 cumulative IPC: 0.86195 (Simulation time: 0 hr 1 min 55 sec) 
Heartbeat CPU  0 instructions:   86000000 cycles:   99755719 heartbeat IPC: 0.87575 cumulative IPC: 0.86211 (Simulation time: 0 hr 1 min 56 sec) 
Heartbeat CPU  0 instructions:   87000001 cycles:  100917876 heartbeat IPC: 0.86047 cumulative IPC: 0.86209 (Simulation time: 0 hr 1 min 57 sec) 
Heartbeat CPU  0 instructions:   88000000 cycles:  102057180 heartbeat IPC: 0.87773 cumulative IPC: 0.86226 (Simulation time: 0 hr 1 min 59 sec) 
Heartbeat CPU  0 instructions:   89000000 cycles:  103224085 heartbeat IPC: 0.85697 cumulative IPC: 0.86220 (Simulation time: 0 hr 2 min 0 sec) 
Heartbeat CPU  0 instructions:   90000000 cycles:  104351994 heartbeat IPC: 0.88660 cumulative IPC: 0.86247 (Simulation time: 0 hr 2 min 1 sec) 
Heartbeat CPU  0 instructions:   91000003 cycles:  105474745 heartbeat IPC: 0.89067 cumulative IPC: 0.86277 (Simulation time: 0 hr 2 min 3 sec) 
Heartbeat CPU  0 instructions:   92000000 cycles:  106596030 heartbeat IPC: 0.89183 cumulative IPC: 0.86307 (Simulation time: 0 hr 2 min 4 sec) 
Heartbeat CPU  0 instructions:   93000002 cycles:  107716671 heartbeat IPC: 0.89235 cumulative IPC: 0.86338 (Simulation time: 0 hr 2 min 5 sec) 
Heartbeat CPU  0 instructions:   94000001 cycles:  108844040 heartbeat IPC: 0.88702 cumulative IPC: 0.86362 (Simulation time: 0 hr 2 min 7 sec) 
Heartbeat CPU  0 instructions:   95000001 cycles:  109998864 heartbeat IPC: 0.86593 cumulative IPC: 0.86365 (Simulation time: 0 hr 2 min 8 sec) 
Heartbeat CPU  0 instructions:   96000000 cycles:  111156105 heartbeat IPC: 0.86412 cumulative IPC: 0.86365 (Simulation time: 0 hr 2 min 9 sec) 
Heartbeat CPU  0 instructions:   97000000 cycles:  112312568 heartbeat IPC: 0.86471 cumulative IPC: 0.86366 (Simulation time: 0 hr 2 min 11 sec) 
Heartbeat CPU  0 instructions:   98000001 cycles:  113457999 heartbeat IPC: 0.87303 cumulative IPC: 0.86376 (Simulation time: 0 hr 2 min 12 sec) 
Heartbeat CPU  0 instructions:   99000000 cycles:  114620208 heartbeat IPC: 0.86043 cumulative IPC: 0.86372 (Simulation time: 0 hr 2 min 13 sec) 
Heartbeat CPU  0 instructions:  100000000 cycles:  115763602 heartbeat IPC: 0.87459 cumulative IPC: 0.86383 (Simulation time: 0 hr 2 min 15 sec) 

Warmup complete CPU  0 instructions:  100000002 cycles:  115763603 (Simulation time: 0 hr 2 min 15 sec) 

Heartbeat CPU  0 instructions:  101000000 cycles:  130349699 heartbeat IPC: 0.06856 cumulative IPC: 0.06856 (Simulation time: 0 hr 2 min 20 sec) 
Heartbeat CPU  0 instructions:  102000000 cycles:  144991327 heartbeat IPC: 0.06830 cumulative IPC: 0.06843 (Simulation time: 0 hr 2 min 24 sec) 
Heartbeat CPU  0 instructions:  103000000 cycles:  159527835 heartbeat IPC: 0.06879 cumulative IPC: 0.06855 (Simulation time: 0 hr 2 min 29 sec) 
Heartbeat CPU  0 instructions:  104000000 cycles:  174333747 heartbeat IPC: 0.06754 cumulative IPC: 0.06829 (Simulation time: 0 hr 2 min 34 sec) 
Heartbeat CPU  0 instructions:  105000000 cycles:  189219600 heartbeat IPC: 0.06718 cumulative IPC: 0.06807 (Simulation time: 0 hr 2 min 39 sec) 
Heartbeat CPU  0 instructions:  106000000 cycles:  204023479 heartbeat IPC: 0.06755 cumulative IPC: 0.06798 (Simulation time: 0 hr 2 min 43 sec) 
Heartbeat CPU  0 instructions:  107000001 cycles:  218718178 heartbeat IPC: 0.06805 cumulative IPC: 0.06799 (Simulation time: 0 hr 2 min 48 sec) 
Heartbeat CPU  0 instructions:  108000000 cycles:  233504240 heartbeat IPC: 0.06763 cumulative IPC: 0.06795 (Simulation time: 0 hr 2 min 53 sec) 
Heartbeat CPU  0 instructions:  109000000 cycles:  248210003 heartbeat IPC: 0.06800 cumulative IPC: 0.06795 (Simulation time: 0 hr 2 min 58 sec) 
Heartbeat CPU  0 instructions:  110000000 cycles:  263028899 heartbeat IPC: 0.06748 cumulative IPC: 0.06790 (Simulation time: 0 hr 3 min 2 sec) 
Heartbeat CPU  0 instructions:  111000001 cycles:  277730440 heartbeat IPC: 0.06802 cumulative IPC: 0.06792 (Simulation time: 0 hr 3 min 7 sec) 
Heartbeat CPU  0 instructions:  112000000 cycles:  292570444 heartbeat IPC: 0.06739 cumulative IPC: 0.06787 (Simulation time: 0 hr 3 min 12 sec) 
Heartbeat CPU  0 instructions:  113000000 cycles:  307262218 heartbeat IPC: 0.06807 cumulative IPC: 0.06789 (Simulation time: 0 hr 3 min 17 sec) 
Heartbeat CPU  0 instructions:  114000000 cycles:  321971977 heartbeat IPC: 0.06798 cumulative IPC: 0.06789 (Simulation time: 0 hr 3 min 21 sec) 
Heartbeat CPU  0 instructions:  115000001 cycles:  336770453 heartbeat IPC: 0.06757 cumulative IPC: 0.06787 (Simulation time: 0 hr 3 min 26 sec) 
Heartbeat CPU  0 instructions:  116000000 cycles:  351479763 heartbeat IPC: 0.06798 cumulative IPC: 0.06788 (Simulation time: 0 hr 3 min 31 sec) 
Heartbeat CPU  0 instructions:  117000000 cycles:  366123935 heartbeat IPC: 0.06829 cumulative IPC: 0.06790 (Simulation time: 0 hr 3 min 36 sec) 
Heartbeat CPU  0 instructions:  118000000 cycles:  380919871 heartbeat IPC: 0.06759 cumulative IPC: 0.06788 (Simulation time: 0 hr 3 min 40 sec) 
Heartbeat CPU  0 instructions:  119000002 cycles:  395732181 heartbeat IPC: 0.06751 cumulative IPC: 0.06786 (Simulation time: 0 hr 3 min 45 sec) 
Heartbeat CPU  0 instructions:  120000000 cycles:  410452997 heartbeat IPC: 0.06793 cumulative IPC: 0.06787 (Simulation time: 0 hr 3 min 50 sec) 
Heartbeat CPU  0 instructions:  121000000 cycles:  424960092 heartbeat IPC: 0.06893 cumulative IPC: 0.06792 (Simulation time: 0 hr 3 min 55 sec) 
Heartbeat CPU  0 instructions:  122000000 cycles:  439801758 heartbeat IPC: 0.06738 cumulative IPC: 0.06789 (Simulation time: 0 hr 4 min 0 sec) 
Heartbeat CPU  0 instructions:  123000000 cycles:  454445703 heartbeat IPC: 0.06829 cumulative IPC: 0.06791 (Simulation time: 0 hr 4 min 4 sec) 
Heartbeat CPU  0 instructions:  124000000 cycles:  469240948 heartbeat IPC: 0.06759 cumulative IPC: 0.06790 (Simulation time: 0 hr 4 min 9 sec) 
Heartbeat CPU  0 instructions:  125000000 cycles:  483866601 heartbeat IPC: 0.06837 cumulative IPC: 0.06792 (Simulation time: 0 hr 4 min 14 sec) 
Heartbeat CPU  0 instructions:  126000001 cycles:  498359026 heartbeat IPC: 0.06900 cumulative IPC: 0.06796 (Simulation time: 0 hr 4 min 19 sec) 
Heartbeat CPU  0 instructions:  127000001 cycles:  512818393 heartbeat IPC: 0.06916 cumulative IPC: 0.06800 (Simulation time: 0 hr 4 min 24 sec) 
Heartbeat CPU  0 instructions:  128000000 cycles:  527153676 heartbeat IPC: 0.06976 cumulative IPC: 0.06806 (Simulation time: 0 hr 4 min 28 sec) 
Heartbeat CPU  0 instructions:  129000000 cycles:  541454687 heartbeat IPC: 0.06993 cumulative IPC: 0.06812 (Simulation time: 0 hr 4 min 33 sec) 
Heartbeat CPU  0 instructions:  130000001 cycles:  555872148 heartbeat IPC: 0.06936 cumulative IPC: 0.06816 (Simulation time: 0 hr 4 min 38 sec) 
Heartbeat CPU  0 instructions:  131000001 cycles:  570306514 heartbeat IPC: 0.06928 cumulative IPC: 0.06820 (Simulation time: 0 hr 4 min 43 sec) 
Heartbeat CPU  0 instructions:  132000000 cycles:  584818562 heartbeat IPC: 0.06891 cumulative IPC: 0.06822 (Simulation time: 0 hr 4 min 48 sec) 
Heartbeat CPU  0 instructions:  133000000 cycles:  599317559 heartbeat IPC: 0.06897 cumulative IPC: 0.06824 (Simulation time: 0 hr 4 min 52 sec) 
Heartbeat CPU  0 instructions:  134000001 cycles:  613522292 heartbeat IPC: 0.07040 cumulative IPC: 0.06831 (Simulation time: 0 hr 4 min 57 sec) 
Heartbeat CPU  0 instructions:  135000000 cycles:  627812060 heartbeat IPC: 0.06998 cumulative IPC: 0.06835 (Simulation time: 0 hr 5 min 2 sec) 
Heartbeat CPU  0 instructions:  136000000 cycles:  642440753 heartbeat IPC: 0.06836 cumulative IPC: 0.06835 (Simulation time: 0 hr 5 min 7 sec) 
Heartbeat CPU  0 instructions:  137000000 cycles:  657116066 heartbeat IPC: 0.06814 cumulative IPC: 0.06835 (Simulation time: 0 hr 5 min 12 sec) 
Heartbeat CPU  0 instructions:  138000000 cycles:  671474550 heartbeat IPC: 0.06965 cumulative IPC: 0.06838 (Simulation time: 0 hr 5 min 17 sec) 
Heartbeat CPU  0 instructions:  139000000 cycles:  686029013 heartbeat IPC: 0.06871 cumulative IPC: 0.06839 (Simulation time: 0 hr 5 min 21 sec) 
Heartbeat CPU  0 instructions:  140000000 cycles:  700809106 heartbeat IPC: 0.06766 cumulative IPC: 0.06837 (Simulation time: 0 hr 5 min 26 sec) 
Heartbeat CPU  0 instructions:  141000000 cycles:  715391974 heartbeat IPC: 0.06857 cumulative IPC: 0.06838 (Simulation time: 0 hr 5 min 31 sec) 
Heartbeat CPU  0 instructions:  142000001 cycles:  729941171 heartbeat IPC: 0.06873 cumulative IPC: 0.06838 (Simulation time: 0 hr 5 min 36 sec) 
Heartbeat CPU  0 instructions:  143000003 cycles:  744544950 heartbeat IPC: 0.06848 cumulative IPC: 0.06839 (Simulation time: 0 hr 5 min 40 sec) 
Heartbeat CPU  0 instructions:  144000000 cycles:  759094374 heartbeat IPC: 0.06873 cumulative IPC: 0.06839 (Simulation time: 0 hr 5 min 45 sec) 
Heartbeat CPU  0 instructions:  145000000 cycles:  773669218 heartbeat IPC: 0.06861 cumulative IPC: 0.06840 (Simulation time: 0 hr 5 min 50 sec) 
Heartbeat CPU  0 instructions:  146000001 cycles:  788347877 heartbeat IPC: 0.06813 cumulative IPC: 0.06839 (Simulation time: 0 hr 5 min 55 sec) 
Heartbeat CPU  0 instructions:  147000002 cycles:  802906651 heartbeat IPC: 0.06869 cumulative IPC: 0.06840 (Simulation time: 0 hr 6 min 0 sec) 
Heartbeat CPU  0 instructions:  148000000 cycles:  817515998 heartbeat IPC: 0.06845 cumulative IPC: 0.06840 (Simulation time: 0 hr 6 min 4 sec) 
Heartbeat CPU  0 instructions:  149000000 cycles:  832195893 heartbeat IPC: 0.06812 cumulative IPC: 0.06839 (Simulation time: 0 hr 6 min 9 sec) 
Heartbeat CPU  0 instructions:  150000000 cycles:  846882486 heartbeat IPC: 0.06809 cumulative IPC: 0.06839 (Simulation time: 0 hr 6 min 14 sec) 
Heartbeat CPU  0 instructions:  151000000 cycles:  861707653 heartbeat IPC: 0.06745 cumulative IPC: 0.06837 (Simulation time: 0 hr 6 min 19 sec) 
Heartbeat CPU  0 instructions:  152000000 cycles:  876405548 heartbeat IPC: 0.06804 cumulative IPC: 0.06836 (Simulation time: 0 hr 6 min 24 sec) 
Heartbeat CPU  0 instructions:  153000000 cycles:  891736935 heartbeat IPC: 0.06523 cumulative IPC: 0.06830 (Simulation time: 0 hr 6 min 28 sec) 
Heartbeat CPU  0 instructions:  154000000 cycles:  907038524 heartbeat IPC: 0.06535 cumulative IPC: 0.06824 (Simulation time: 0 hr 6 min 33 sec) 
Heartbeat CPU  0 instructions:  155000000 cycles:  922068534 heartbeat IPC: 0.06653 cumulative IPC: 0.06821 (Simulation time: 0 hr 6 min 38 sec) 
Heartbeat CPU  0 instructions:  156000000 cycles:  936998731 heartbeat IPC: 0.06698 cumulative IPC: 0.06819 (Simulation time: 0 hr 6 min 43 sec) 
Heartbeat CPU  0 instructions:  157000000 cycles:  951890890 heartbeat IPC: 0.06715 cumulative IPC: 0.06817 (Simulation time: 0 hr 6 min 48 sec) 
Heartbeat CPU  0 instructions:  158000000 cycles:  966780237 heartbeat IPC: 0.06716 cumulative IPC: 0.06815 (Simulation time: 0 hr 6 min 52 sec) 
Heartbeat CPU  0 instructions:  159000000 cycles:  981643237 heartbeat IPC: 0.06728 cumulative IPC: 0.06814 (Simulation time: 0 hr 6 min 57 sec) 
Heartbeat CPU  0 instructions:  160000000 cycles:  996542870 heartbeat IPC: 0.06712 cumulative IPC: 0.06812 (Simulation time: 0 hr 7 min 2 sec) 
Heartbeat CPU  0 instructions:  161000001 cycles: 1011458269 heartbeat IPC: 0.06704 cumulative IPC: 0.06810 (Simulation time: 0 hr 7 min 7 sec) 
Heartbeat CPU  0 instructions:  162000000 cycles: 1026370003 heartbeat IPC: 0.06706 cumulative IPC: 0.06809 (Simulation time: 0 hr 7 min 11 sec) 
Heartbeat CPU  0 instructions:  163000000 cycles: 1041191956 heartbeat IPC: 0.06747 cumulative IPC: 0.06808 (Simulation time: 0 hr 7 min 16 sec) 
Heartbeat CPU  0 instructions:  164000000 cycles: 1055883665 heartbeat IPC: 0.06807 cumulative IPC: 0.06808 (Simulation time: 0 hr 7 min 21 sec) 
Heartbeat CPU  0 instructions:  165000000 cycles: 1070569219 heartbeat IPC: 0.06809 cumulative IPC: 0.06808 (Simulation time: 0 hr 7 min 26 sec) 
Heartbeat CPU  0 instructions:  166000000 cycles: 1085297229 heartbeat IPC: 0.06790 cumulative IPC: 0.06807 (Simulation time: 0 hr 7 min 31 sec) 
Heartbeat CPU  0 instructions:  167000000 cycles: 1100106580 heartbeat IPC: 0.06752 cumulative IPC: 0.06807 (Simulation time: 0 hr 7 min 35 sec) 
Heartbeat CPU  0 instructions:  168000000 cycles: 1114809236 heartbeat IPC: 0.06801 cumulative IPC: 0.06806 (Simulation time: 0 hr 7 min 40 sec) 
Heartbeat CPU  0 instructions:  169000000 cycles: 1129538631 heartbeat IPC: 0.06789 cumulative IPC: 0.06806 (Simulation time: 0 hr 7 min 45 sec) 
Heartbeat CPU  0 instructions:  170000000 cycles: 1144415460 heartbeat IPC: 0.06722 cumulative IPC: 0.06805 (Simulation time: 0 hr 7 min 50 sec) 
Heartbeat CPU  0 instructions:  171000000 cycles: 1159248736 heartbeat IPC: 0.06742 cumulative IPC: 0.06804 (Simulation time: 0 hr 7 min 55 sec) 
Heartbeat CPU  0 instructions:  172000000 cycles: 1174107673 heartbeat IPC: 0.06730 cumulative IPC: 0.06803 (Simulation time: 0 hr 7 min 59 sec) 
Heartbeat CPU  0 instructions:  173000000 cycles: 1188841965 heartbeat IPC: 0.06787 cumulative IPC: 0.06803 (Simulation time: 0 hr 8 min 4 sec) 
Heartbeat CPU  0 instructions:  174000000 cycles: 1203278313 heartbeat IPC: 0.06927 cumulative IPC: 0.06805 (Simulation time: 0 hr 8 min 9 sec) 
Heartbeat CPU  0 instructions:  175000000 cycles: 1217695073 heartbeat IPC: 0.06936 cumulative IPC: 0.06806 (Simulation time: 0 hr 8 min 14 sec) 
Heartbeat CPU  0 instructions:  176000000 cycles: 1232195116 heartbeat IPC: 0.06897 cumulative IPC: 0.06807 (Simulation time: 0 hr 8 min 19 sec) 
Heartbeat CPU  0 instructions:  177000002 cycles: 1246789808 heartbeat IPC: 0.06852 cumulative IPC: 0.06808 (Simulation time: 0 hr 8 min 23 sec) 
Heartbeat CPU  0 instructions:  178000001 cycles: 1261464137 heartbeat IPC: 0.06815 cumulative IPC: 0.06808 (Simulation time: 0 hr 8 min 28 sec) 
Heartbeat CPU  0 instructions:  179000001 cycles: 1276022104 heartbeat IPC: 0.06869 cumulative IPC: 0.06809 (Simulation time: 0 hr 8 min 33 sec) 
Heartbeat CPU  0 instructions:  180000000 cycles: 1290641182 heartbeat IPC: 0.06840 cumulative IPC: 0.06809 (Simulation time: 0 hr 8 min 38 sec) 
Heartbeat CPU  0 instructions:  181000000 cycles: 1305338037 heartbeat IPC: 0.06804 cumulative IPC: 0.06809 (Simulation time: 0 hr 8 min 43 sec) 
Heartbeat CPU  0 instructions:  182000000 cycles: 1320135888 heartbeat IPC: 0.06758 cumulative IPC: 0.06809 (Simulation time: 0 hr 8 min 47 sec) 
Heartbeat CPU  0 instructions:  183000002 cycles: 1334867974 heartbeat IPC: 0.06788 cumulative IPC: 0.06808 (Simulation time: 0 hr 8 min 52 sec) 
Heartbeat CPU  0 instructions:  184000000 cycles: 1349663247 heartbeat IPC: 0.06759 cumulative IPC: 0.06808 (Simulation time: 0 hr 8 min 57 sec) 
Heartbeat CPU  0 instructions:  185000001 cycles: 1364218138 heartbeat IPC: 0.06871 cumulative IPC: 0.06808 (Simulation time: 0 hr 9 min 2 sec) 
Heartbeat CPU  0 instructions:  186000000 cycles: 1378778415 heartbeat IPC: 0.06868 cumulative IPC: 0.06809 (Simulation time: 0 hr 9 min 6 sec) 
Heartbeat CPU  0 instructions:  187000000 cycles: 1393383775 heartbeat IPC: 0.06847 cumulative IPC: 0.06810 (Simulation time: 0 hr 9 min 11 sec) 
Heartbeat CPU  0 instructions:  188000000 cycles: 1408343023 heartbeat IPC: 0.06685 cumulative IPC: 0.06808 (Simulation time: 0 hr 9 min 16 sec) 
Heartbeat CPU  0 instructions:  189000000 cycles: 1423281586 heartbeat IPC: 0.06694 cumulative IPC: 0.06807 (Simulation time: 0 hr 9 min 21 sec) 
Heartbeat CPU  0 instructions:  190000000 cycles: 1438133835 heartbeat IPC: 0.06733 cumulative IPC: 0.06806 (Simulation time: 0 hr 9 min 25 sec) 
Heartbeat CPU  0 instructions:  191000000 cycles: 1452939451 heartbeat IPC: 0.06754 cumulative IPC: 0.06805 (Simulation time: 0 hr 9 min 30 sec) 
Heartbeat CPU  0 instructions:  192000000 cycles: 1467767807 heartbeat IPC: 0.06744 cumulative IPC: 0.06805 (Simulation time: 0 hr 9 min 35 sec) 
Heartbeat CPU  0 instructions:  193000001 cycles: 1482530293 heartbeat IPC: 0.06774 cumulative IPC: 0.06804 (Simulation time: 0 hr 9 min 40 sec) 
Heartbeat CPU  0 instructions:  194000001 cycles: 1497403377 heartbeat IPC: 0.06724 cumulative IPC: 0.06804 (Simulation time: 0 hr 9 min 44 sec) 
Heartbeat CPU  0 instructions:  195000000 cycles: 1512246439 heartbeat IPC: 0.06737 cumulative IPC: 0.06803 (Simulation time: 0 hr 9 min 49 sec) 
Heartbeat CPU  0 instructions:  196000000 cycles: 1527070190 heartbeat IPC: 0.06746 cumulative IPC: 0.06802 (Simulation time: 0 hr 9 min 54 sec) 
Heartbeat CPU  0 instructions:  197000000 cycles: 1541853134 heartbeat IPC: 0.06765 cumulative IPC: 0.06802 (Simulation time: 0 hr 9 min 59 sec) 
Heartbeat CPU  0 instructions:  198000001 cycles: 1556574599 heartbeat IPC: 0.06793 cumulative IPC: 0.06802 (Simulation time: 0 hr 10 min 4 sec) 
Heartbeat CPU  0 instructions:  199000001 cycles: 1571276251 heartbeat IPC: 0.06802 cumulative IPC: 0.06802 (Simulation time: 0 hr 10 min 8 sec) 
Heartbeat CPU  0 instructions:  200000000 cycles: 1586178063 heartbeat IPC: 0.06711 cumulative IPC: 0.06801 (Simulation time: 0 hr 10 min 13 sec) 
Heartbeat CPU  0 instructions:  201000000 cycles: 1601000115 heartbeat IPC: 0.06747 cumulative IPC: 0.06800 (Simulation time: 0 hr 10 min 18 sec) 
Heartbeat CPU  0 instructions:  202000000 cycles: 1615717830 heartbeat IPC: 0.06795 cumulative IPC: 0.06800 (Simulation time: 0 hr 10 min 23 sec) 
Heartbeat CPU  0 instructions:  203000001 cycles: 1630333602 heartbeat IPC: 0.06842 cumulative IPC: 0.06801 (Simulation time: 0 hr 10 min 27 sec) 
Heartbeat CPU  0 instructions:  204000000 cycles: 1644923671 heartbeat IPC: 0.06854 cumulative IPC: 0.06801 (Simulation time: 0 hr 10 min 32 sec) 
Heartbeat CPU  0 instructions:  205000000 cycles: 1659555578 heartbeat IPC: 0.06834 cumulative IPC: 0.06801 (Simulation time: 0 hr 10 min 37 sec) 
Heartbeat CPU  0 instructions:  206000000 cycles: 1674303986 heartbeat IPC: 0.06780 cumulative IPC: 0.06801 (Simulation time: 0 hr 10 min 42 sec) 
Heartbeat CPU  0 instructions:  207000000 cycles: 1689032035 heartbeat IPC: 0.06790 cumulative IPC: 0.06801 (Simulation time: 0 hr 10 min 46 sec) 
Heartbeat CPU  0 instructions:  208000000 cycles: 1703708978 heartbeat IPC: 0.06813 cumulative IPC: 0.06801 (Simulation time: 0 hr 10 min 51 sec) 
Heartbeat CPU  0 instructions:  209000002 cycles: 1718380244 heartbeat IPC: 0.06816 cumulative IPC: 0.06801 (Simulation time: 0 hr 10 min 56 sec) 
Heartbeat CPU  0 instructions:  210000002 cycles: 1733153325 heartbeat IPC: 0.06769 cumulative IPC: 0.06801 (Simulation time: 0 hr 11 min 1 sec) 
Heartbeat CPU  0 instructions:  211000000 cycles: 1747919715 heartbeat IPC: 0.06772 cumulative IPC: 0.06801 (Simulation time: 0 hr 11 min 6 sec) 
Heartbeat CPU  0 instructions:  212000000 cycles: 1762676518 heartbeat IPC: 0.06777 cumulative IPC: 0.06801 (Simulation time: 0 hr 11 min 10 sec) 
Heartbeat CPU  0 instructions:  213000000 cycles: 1777488313 heartbeat IPC: 0.06751 cumulative IPC: 0.06800 (Simulation time: 0 hr 11 min 15 sec) 
Heartbeat CPU  0 instructions:  214000000 cycles: 1792164962 heartbeat IPC: 0.06814 cumulative IPC: 0.06800 (Simulation time: 0 hr 11 min 20 sec) 
Heartbeat CPU  0 instructions:  215000000 cycles: 1806686652 heartbeat IPC: 0.06886 cumulative IPC: 0.06801 (Simulation time: 0 hr 11 min 25 sec) 
Heartbeat CPU  0 instructions:  216000000 cycles: 1821300851 heartbeat IPC: 0.06843 cumulative IPC: 0.06801 (Simulation time: 0 hr 11 min 29 sec) 
Heartbeat CPU  0 instructions:  217000000 cycles: 1835831861 heartbeat IPC: 0.06882 cumulative IPC: 0.06802 (Simulation time: 0 hr 11 min 34 sec) 
Heartbeat CPU  0 instructions:  218000001 cycles: 1850402993 heartbeat IPC: 0.06863 cumulative IPC: 0.06803 (Simulation time: 0 hr 11 min 40 sec) 
Heartbeat CPU  0 instructions:  219000001 cycles: 1865160189 heartbeat IPC: 0.06776 cumulative IPC: 0.06802 (Simulation time: 0 hr 11 min 44 sec) 
Heartbeat CPU  0 instructions:  220000000 cycles: 1879770194 heartbeat IPC: 0.06845 cumulative IPC: 0.06803 (Simulation time: 0 hr 11 min 49 sec) 
Heartbeat CPU  0 instructions:  221000000 cycles: 1894431813 heartbeat IPC: 0.06821 cumulative IPC: 0.06803 (Simulation time: 0 hr 11 min 54 sec) 
Heartbeat CPU  0 instructions:  222000000 cycles: 1909249315 heartbeat IPC: 0.06749 cumulative IPC: 0.06802 (Simulation time: 0 hr 11 min 59 sec) 
Heartbeat CPU  0 instructions:  223000000 cycles: 1923848932 heartbeat IPC: 0.06849 cumulative IPC: 0.06803 (Simulation time: 0 hr 12 min 3 sec) 
Heartbeat CPU  0 instructions:  224000000 cycles: 1938423884 heartbeat IPC: 0.06861 cumulative IPC: 0.06803 (Simulation time: 0 hr 12 min 8 sec) 
Heartbeat CPU  0 instructions:  225000000 cycles: 1953141663 heartbeat IPC: 0.06795 cumulative IPC: 0.06803 (Simulation time: 0 hr 12 min 13 sec) 
Heartbeat CPU  0 instructions:  226000001 cycles: 1967941172 heartbeat IPC: 0.06757 cumulative IPC: 0.06803 (Simulation time: 0 hr 12 min 18 sec) 
Heartbeat CPU  0 instructions:  227000002 cycles: 1982696036 heartbeat IPC: 0.06777 cumulative IPC: 0.06803 (Simulation time: 0 hr 12 min 22 sec) 
Heartbeat CPU  0 instructions:  228000000 cycles: 1997437007 heartbeat IPC: 0.06784 cumulative IPC: 0.06802 (Simulation time: 0 hr 12 min 27 sec) 
Heartbeat CPU  0 instructions:  229000000 cycles: 2011979113 heartbeat IPC: 0.06877 cumulative IPC: 0.06803 (Simulation time: 0 hr 12 min 32 sec) 
Heartbeat CPU  0 instructions:  230000001 cycles: 2026552051 heartbeat IPC: 0.06862 cumulative IPC: 0.06803 (Simulation time: 0 hr 12 min 37 sec) 
Heartbeat CPU  0 instructions:  231000000 cycles: 2041196283 heartbeat IPC: 0.06829 cumulative IPC: 0.06804 (Simulation time: 0 hr 12 min 41 sec) 
Heartbeat CPU  0 instructions:  232000000 cycles: 2055378778 heartbeat IPC: 0.07051 cumulative IPC: 0.06805 (Simulation time: 0 hr 12 min 46 sec) 
Heartbeat CPU  0 instructions:  233000000 cycles: 2070007883 heartbeat IPC: 0.06836 cumulative IPC: 0.06806 (Simulation time: 0 hr 12 min 51 sec) 
Heartbeat CPU  0 instructions:  234000000 cycles: 2084463742 heartbeat IPC: 0.06918 cumulative IPC: 0.06807 (Simulation time: 0 hr 12 min 56 sec) 
Heartbeat CPU  0 instructions:  235000000 cycles: 2099073053 heartbeat IPC: 0.06845 cumulative IPC: 0.06807 (Simulation time: 0 hr 13 min 0 sec) 
Heartbeat CPU  0 instructions:  236000000 cycles: 2113672028 heartbeat IPC: 0.06850 cumulative IPC: 0.06807 (Simulation time: 0 hr 13 min 5 sec) 
Heartbeat CPU  0 instructions:  237000001 cycles: 2128185886 heartbeat IPC: 0.06890 cumulative IPC: 0.06808 (Simulation time: 0 hr 13 min 10 sec) 
Heartbeat CPU  0 instructions:  238000000 cycles: 2142541199 heartbeat IPC: 0.06966 cumulative IPC: 0.06809 (Simulation time: 0 hr 13 min 15 sec) 
Heartbeat CPU  0 instructions:  239000002 cycles: 2156989389 heartbeat IPC: 0.06921 cumulative IPC: 0.06810 (Simulation time: 0 hr 13 min 20 sec) 
Heartbeat CPU  0 instructions:  240000000 cycles: 2171531360 heartbeat IPC: 0.06877 cumulative IPC: 0.06810 (Simulation time: 0 hr 13 min 24 sec) 
Heartbeat CPU  0 instructions:  241000000 cycles: 2185961054 heartbeat IPC: 0.06930 cumulative IPC: 0.06811 (Simulation time: 0 hr 13 min 29 sec) 
Heartbeat CPU  0 instructions:  242000000 cycles: 2200434916 heartbeat IPC: 0.06909 cumulative IPC: 0.06812 (Simulation time: 0 hr 13 min 34 sec) 
Heartbeat CPU  0 instructions:  243000001 cycles: 2215031859 heartbeat IPC: 0.06851 cumulative IPC: 0.06812 (Simulation time: 0 hr 13 min 39 sec) 
Heartbeat CPU  0 instructions:  244000000 cycles: 2229651357 heartbeat IPC: 0.06840 cumulative IPC: 0.06812 (Simulation time: 0 hr 13 min 43 sec) 
Heartbeat CPU  0 instructions:  245000000 cycles: 2244101201 heartbeat IPC: 0.06920 cumulative IPC: 0.06813 (Simulation time: 0 hr 13 min 48 sec) 
Heartbeat CPU  0 instructions:  246000000 cycles: 2258647347 heartbeat IPC: 0.06875 cumulative IPC: 0.06813 (Simulation time: 0 hr 13 min 53 sec) 
Heartbeat CPU  0 instructions:  247000000 cycles: 2273299154 heartbeat IPC: 0.06825 cumulative IPC: 0.06813 (Simulation time: 0 hr 13 min 58 sec) 
Heartbeat CPU  0 instructions:  248000000 cycles: 2287906690 heartbeat IPC: 0.06846 cumulative IPC: 0.06814 (Simulation time: 0 hr 14 min 3 sec) 
Heartbeat CPU  0 instructions:  249000003 cycles: 2302611384 heartbeat IPC: 0.06801 cumulative IPC: 0.06813 (Simulation time: 0 hr 14 min 8 sec) 
Heartbeat CPU  0 instructions:  250000002 cycles: 2317294103 heartbeat IPC: 0.06811 cumulative IPC: 0.06813 (Simulation time: 0 hr 14 min 13 sec) 
Heartbeat CPU  0 instructions:  251000000 cycles: 2331905010 heartbeat IPC: 0.06844 cumulative IPC: 0.06814 (Simulation time: 0 hr 14 min 17 sec) 
Heartbeat CPU  0 instructions:  252000000 cycles: 2346575157 heartbeat IPC: 0.06817 cumulative IPC: 0.06814 (Simulation time: 0 hr 14 min 22 sec) 
Heartbeat CPU  0 instructions:  253000000 cycles: 2361410581 heartbeat IPC: 0.06741 cumulative IPC: 0.06813 (Simulation time: 0 hr 14 min 27 sec) 
Heartbeat CPU  0 instructions:  254000000 cycles: 2376264922 heartbeat IPC: 0.06732 cumulative IPC: 0.06813 (Simulation time: 0 hr 14 min 32 sec) 
Heartbeat CPU  0 instructions:  255000002 cycles: 2391057261 heartbeat IPC: 0.06760 cumulative IPC: 0.06812 (Simulation time: 0 hr 14 min 36 sec) 
Heartbeat CPU  0 instructions:  256000000 cycles: 2405771887 heartbeat IPC: 0.06796 cumulative IPC: 0.06812 (Simulation time: 0 hr 14 min 41 sec) 
Heartbeat CPU  0 instructions:  257000000 cycles: 2420527264 heartbeat IPC: 0.06777 cumulative IPC: 0.06812 (Simulation time: 0 hr 14 min 46 sec) 
Heartbeat CPU  0 instructions:  258000002 cycles: 2435315765 heartbeat IPC: 0.06762 cumulative IPC: 0.06812 (Simulation time: 0 hr 14 min 51 sec) 
Heartbeat CPU  0 instructions:  259000001 cycles: 2450120399 heartbeat IPC: 0.06755 cumulative IPC: 0.06811 (Simulation time: 0 hr 14 min 55 sec) 
Heartbeat CPU  0 instructions:  260000000 cycles: 2464786504 heartbeat IPC: 0.06818 cumulative IPC: 0.06811 (Simulation time: 0 hr 15 min 0 sec) 
Heartbeat CPU  0 instructions:  261000002 cycles: 2479439605 heartbeat IPC: 0.06825 cumulative IPC: 0.06811 (Simulation time: 0 hr 15 min 5 sec) 
Heartbeat CPU  0 instructions:  262000001 cycles: 2494027665 heartbeat IPC: 0.06855 cumulative IPC: 0.06812 (Simulation time: 0 hr 15 min 10 sec) 
Heartbeat CPU  0 instructions:  263000000 cycles: 2508535396 heartbeat IPC: 0.06893 cumulative IPC: 0.06812 (Simulation time: 0 hr 15 min 15 sec) 
Heartbeat CPU  0 instructions:  264000000 cycles: 2523307449 heartbeat IPC: 0.06770 cumulative IPC: 0.06812 (Simulation time: 0 hr 15 min 19 sec) 
Heartbeat CPU  0 instructions:  265000000 cycles: 2537787895 heartbeat IPC: 0.06906 cumulative IPC: 0.06812 (Simulation time: 0 hr 15 min 24 sec) 
Heartbeat CPU  0 instructions:  266000000 cycles: 2553506823 heartbeat IPC: 0.06362 cumulative IPC: 0.06810 (Simulation time: 0 hr 15 min 29 sec) 
Heartbeat CPU  0 instructions:  267000003 cycles: 2568890154 heartbeat IPC: 0.06501 cumulative IPC: 0.06808 (Simulation time: 0 hr 15 min 34 sec) 
Heartbeat CPU  0 instructions:  268000000 cycles: 2583994825 heartbeat IPC: 0.06620 cumulative IPC: 0.06806 (Simulation time: 0 hr 15 min 39 sec) 
Heartbeat CPU  0 instructions:  269000000 cycles: 2598933539 heartbeat IPC: 0.06694 cumulative IPC: 0.06806 (Simulation time: 0 hr 15 min 43 sec) 
Heartbeat CPU  0 instructions:  270000000 cycles: 2613898284 heartbeat IPC: 0.06682 cumulative IPC: 0.06805 (Simulation time: 0 hr 15 min 48 sec) 
Heartbeat CPU  0 instructions:  271000000 cycles: 2628808415 heartbeat IPC: 0.06707 cumulative IPC: 0.06804 (Simulation time: 0 hr 15 min 53 sec) 
Heartbeat CPU  0 instructions:  272000000 cycles: 2643548301 heartbeat IPC: 0.06784 cumulative IPC: 0.06804 (Simulation time: 0 hr 15 min 58 sec) 
Heartbeat CPU  0 instructions:  273000000 cycles: 2658309011 heartbeat IPC: 0.06775 cumulative IPC: 0.06804 (Simulation time: 0 hr 16 min 2 sec) 
Heartbeat CPU  0 instructions:  274000000 cycles: 2672967008 heartbeat IPC: 0.06822 cumulative IPC: 0.06804 (Simulation time: 0 hr 16 min 7 sec) 
Heartbeat CPU  0 instructions:  275000001 cycles: 2687498736 heartbeat IPC: 0.06882 cumulative IPC: 0.06805 (Simulation time: 0 hr 16 min 12 sec) 
Heartbeat CPU  0 instructions:  276000000 cycles: 2702034271 heartbeat IPC: 0.06880 cumulative IPC: 0.06805 (Simulation time: 0 hr 16 min 17 sec) 
Heartbeat CPU  0 instructions:  277000001 cycles: 2716686388 heartbeat IPC: 0.06825 cumulative IPC: 0.06805 (Simulation time: 0 hr 16 min 22 sec) 
Heartbeat CPU  0 instructions:  278000000 cycles: 2731435857 heartbeat IPC: 0.06780 cumulative IPC: 0.06805 (Simulation time: 0 hr 16 min 26 sec) 
Heartbeat CPU  0 instructions:  279000001 cycles: 2746230267 heartbeat IPC: 0.06759 cumulative IPC: 0.06805 (Simulation time: 0 hr 16 min 31 sec) 
Heartbeat CPU  0 instructions:  280000000 cycles: 2760987997 heartbeat IPC: 0.06776 cumulative IPC: 0.06805 (Simulation time: 0 hr 16 min 36 sec) 
Heartbeat CPU  0 instructions:  281000000 cycles: 2775674948 heartbeat IPC: 0.06809 cumulative IPC: 0.06805 (Simulation time: 0 hr 16 min 41 sec) 
Heartbeat CPU  0 instructions:  282000000 cycles: 2790442183 heartbeat IPC: 0.06772 cumulative IPC: 0.06805 (Simulation time: 0 hr 16 min 45 sec) 
Heartbeat CPU  0 instructions:  283000000 cycles: 2805154546 heartbeat IPC: 0.06797 cumulative IPC: 0.06805 (Simulation time: 0 hr 16 min 50 sec) 
Heartbeat CPU  0 instructions:  284000000 cycles: 2819955262 heartbeat IPC: 0.06756 cumulative IPC: 0.06804 (Simulation time: 0 hr 16 min 55 sec) 
Heartbeat CPU  0 instructions:  285000001 cycles: 2834604831 heartbeat IPC: 0.06826 cumulative IPC: 0.06804 (Simulation time: 0 hr 17 min 0 sec) 
Heartbeat CPU  0 instructions:  286000001 cycles: 2849312845 heartbeat IPC: 0.06799 cumulative IPC: 0.06804 (Simulation time: 0 hr 17 min 4 sec) 
Heartbeat CPU  0 instructions:  287000000 cycles: 2864105689 heartbeat IPC: 0.06760 cumulative IPC: 0.06804 (Simulation time: 0 hr 17 min 9 sec) 
Heartbeat CPU  0 instructions:  288000000 cycles: 2878937951 heartbeat IPC: 0.06742 cumulative IPC: 0.06804 (Simulation time: 0 hr 17 min 14 sec) 
Heartbeat CPU  0 instructions:  289000000 cycles: 2893828474 heartbeat IPC: 0.06716 cumulative IPC: 0.06803 (Simulation time: 0 hr 17 min 19 sec) 
Heartbeat CPU  0 instructions:  290000001 cycles: 2908687292 heartbeat IPC: 0.06730 cumulative IPC: 0.06803 (Simulation time: 0 hr 17 min 23 sec) 
Heartbeat CPU  0 instructions:  291000000 cycles: 2923420839 heartbeat IPC: 0.06787 cumulative IPC: 0.06803 (Simulation time: 0 hr 17 min 28 sec) 
Heartbeat CPU  0 instructions:  292000000 cycles: 2938211171 heartbeat IPC: 0.06761 cumulative IPC: 0.06803 (Simulation time: 0 hr 17 min 33 sec) 
Heartbeat CPU  0 instructions:  293000000 cycles: 2952957747 heartbeat IPC: 0.06781 cumulative IPC: 0.06802 (Simulation time: 0 hr 17 min 38 sec) 
Heartbeat CPU  0 instructions:  294000000 cycles: 2967521182 heartbeat IPC: 0.06867 cumulative IPC: 0.06803 (Simulation time: 0 hr 17 min 43 sec) 
Heartbeat CPU  0 instructions:  295000000 cycles: 2982034845 heartbeat IPC: 0.06890 cumulative IPC: 0.06803 (Simulation time: 0 hr 17 min 47 sec) 
Heartbeat CPU  0 instructions:  296000000 cycles: 2996488896 heartbeat IPC: 0.06918 cumulative IPC: 0.06804 (Simulation time: 0 hr 17 min 52 sec) 
Heartbeat CPU  0 instructions:  297000000 cycles: 3011125731 heartbeat IPC: 0.06832 cumulative IPC: 0.06804 (Simulation time: 0 hr 17 min 57 sec) 
Heartbeat CPU  0 instructions:  298000000 cycles: 3025804066 heartbeat IPC: 0.06813 cumulative IPC: 0.06804 (Simulation time: 0 hr 18 min 2 sec) 
Heartbeat CPU  0 instructions:  299000001 cycles: 3040487475 heartbeat IPC: 0.06810 cumulative IPC: 0.06804 (Simulation time: 0 hr 18 min 7 sec) 
Heartbeat CPU  0 instructions:  300000000 cycles: 3055239316 heartbeat IPC: 0.06779 cumulative IPC: 0.06804 (Simulation time: 0 hr 18 min 11 sec) 
Heartbeat CPU  0 instructions:  301000000 cycles: 3070027094 heartbeat IPC: 0.06762 cumulative IPC: 0.06804 (Simulation time: 0 hr 18 min 16 sec) 
Heartbeat CPU  0 instructions:  302000000 cycles: 3084834452 heartbeat IPC: 0.06753 cumulative IPC: 0.06803 (Simulation time: 0 hr 18 min 21 sec) 
Heartbeat CPU  0 instructions:  303000000 cycles: 3099581212 heartbeat IPC: 0.06781 cumulative IPC: 0.06803 (Simulation time: 0 hr 18 min 26 sec) 
Heartbeat CPU  0 instructions:  304000000 cycles: 3114236026 heartbeat IPC: 0.06824 cumulative IPC: 0.06803 (Simulation time: 0 hr 18 min 30 sec) 
Heartbeat CPU  0 instructions:  305000001 cycles: 3128855685 heartbeat IPC: 0.06840 cumulative IPC: 0.06804 (Simulation time: 0 hr 18 min 35 sec) 
Heartbeat CPU  0 instructions:  306000000 cycles: 3143494439 heartbeat IPC: 0.06831 cumulative IPC: 0.06804 (Simulation time: 0 hr 18 min 40 sec) 
Heartbeat CPU  0 instructions:  307000000 cycles: 3158284891 heartbeat IPC: 0.06761 cumulative IPC: 0.06804 (Simulation time: 0 hr 18 min 45 sec) 
Heartbeat CPU  0 instructions:  308000000 cycles: 3173031376 heartbeat IPC: 0.06781 cumulative IPC: 0.06803 (Simulation time: 0 hr 18 min 50 sec) 
Heartbeat CPU  0 instructions:  309000000 cycles: 3187669602 heartbeat IPC: 0.06831 cumulative IPC: 0.06804 (Simulation time: 0 hr 18 min 54 sec) 
Heartbeat CPU  0 instructions:  310000001 cycles: 3202454214 heartbeat IPC: 0.06764 cumulative IPC: 0.06803 (Simulation time: 0 hr 18 min 59 sec) 
Heartbeat CPU  0 instructions:  311000000 cycles: 3217218457 heartbeat IPC: 0.06773 cumulative IPC: 0.06803 (Simulation time: 0 hr 19 min 4 sec) 
Heartbeat CPU  0 instructions:  312000000 cycles: 3232002592 heartbeat IPC: 0.06764 cumulative IPC: 0.06803 (Simulation time: 0 hr 19 min 9 sec) 
Heartbeat CPU  0 instructions:  313000000 cycles: 3246785307 heartbeat IPC: 0.06765 cumulative IPC: 0.06803 (Simulation time: 0 hr 19 min 13 sec) 
Heartbeat CPU  0 instructions:  314000000 cycles: 3261486334 heartbeat IPC: 0.06802 cumulative IPC: 0.06803 (Simulation time: 0 hr 19 min 18 sec) 
Heartbeat CPU  0 instructions:  315000000 cycles: 3276072447 heartbeat IPC: 0.06856 cumulative IPC: 0.06803 (Simulation time: 0 hr 19 min 23 sec) 
Heartbeat CPU  0 instructions:  316000000 cycles: 3290679764 heartbeat IPC: 0.06846 cumulative IPC: 0.06803 (Simulation time: 0 hr 19 min 28 sec) 
Heartbeat CPU  0 instructions:  317000001 cycles: 3305189155 heartbeat IPC: 0.06892 cumulative IPC: 0.06804 (Simulation time: 0 hr 19 min 33 sec) 
Heartbeat CPU  0 instructions:  318000001 cycles: 3319608804 heartbeat IPC: 0.06935 cumulative IPC: 0.06804 (Simulation time: 0 hr 19 min 37 sec) 
Heartbeat CPU  0 instructions:  319000001 cycles: 3334216652 heartbeat IPC: 0.06846 cumulative IPC: 0.06805 (Simulation time: 0 hr 19 min 42 sec) 
Heartbeat CPU  0 instructions:  320000000 cycles: 3349087746 heartbeat IPC: 0.06724 cumulative IPC: 0.06804 (Simulation time: 0 hr 19 min 47 sec) 
Heartbeat CPU  0 instructions:  321000000 cycles: 3363955077 heartbeat IPC: 0.06726 cumulative IPC: 0.06804 (Simulation time: 0 hr 19 min 52 sec) 
Heartbeat CPU  0 instructions:  322000001 cycles: 3378860572 heartbeat IPC: 0.06709 cumulative IPC: 0.06803 (Simulation time: 0 hr 19 min 57 sec) 
Heartbeat CPU  0 instructions:  323000003 cycles: 3393769326 heartbeat IPC: 0.06707 cumulative IPC: 0.06803 (Simulation time: 0 hr 20 min 1 sec) 
Heartbeat CPU  0 instructions:  324000000 cycles: 3408665612 heartbeat IPC: 0.06713 cumulative IPC: 0.06803 (Simulation time: 0 hr 20 min 6 sec) 
Heartbeat CPU  0 instructions:  325000000 cycles: 3423391155 heartbeat IPC: 0.06791 cumulative IPC: 0.06802 (Simulation time: 0 hr 20 min 11 sec) 
Heartbeat CPU  0 instructions:  326000000 cycles: 3437896644 heartbeat IPC: 0.06894 cumulative IPC: 0.06803 (Simulation time: 0 hr 20 min 16 sec) 
Heartbeat CPU  0 instructions:  327000000 cycles: 3452479319 heartbeat IPC: 0.06857 cumulative IPC: 0.06803 (Simulation time: 0 hr 20 min 21 sec) 
Heartbeat CPU  0 instructions:  328000000 cycles: 3467109768 heartbeat IPC: 0.06835 cumulative IPC: 0.06803 (Simulation time: 0 hr 20 min 26 sec) 
Heartbeat CPU  0 instructions:  329000000 cycles: 3481934991 heartbeat IPC: 0.06745 cumulative IPC: 0.06803 (Simulation time: 0 hr 20 min 30 sec) 
Heartbeat CPU  0 instructions:  330000000 cycles: 3496665092 heartbeat IPC: 0.06789 cumulative IPC: 0.06803 (Simulation time: 0 hr 20 min 35 sec) 
Heartbeat CPU  0 instructions:  331000000 cycles: 3511305212 heartbeat IPC: 0.06831 cumulative IPC: 0.06803 (Simulation time: 0 hr 20 min 40 sec) 
Heartbeat CPU  0 instructions:  332000000 cycles: 3525677628 heartbeat IPC: 0.06958 cumulative IPC: 0.06804 (Simulation time: 0 hr 20 min 45 sec) 
Heartbeat CPU  0 instructions:  333000000 cycles: 3540280743 heartbeat IPC: 0.06848 cumulative IPC: 0.06804 (Simulation time: 0 hr 20 min 50 sec) 
Heartbeat CPU  0 instructions:  334000001 cycles: 3554915614 heartbeat IPC: 0.06833 cumulative IPC: 0.06804 (Simulation time: 0 hr 20 min 54 sec) 
Heartbeat CPU  0 instructions:  335000000 cycles: 3569615255 heartbeat IPC: 0.06803 cumulative IPC: 0.06804 (Simulation time: 0 hr 20 min 59 sec) 
Heartbeat CPU  0 instructions:  336000000 cycles: 3584286536 heartbeat IPC: 0.06816 cumulative IPC: 0.06804 (Simulation time: 0 hr 21 min 4 sec) 
Heartbeat CPU  0 instructions:  337000000 cycles: 3598931289 heartbeat IPC: 0.06828 cumulative IPC: 0.06804 (Simulation time: 0 hr 21 min 9 sec) 
Heartbeat CPU  0 instructions:  338000002 cycles: 3613469524 heartbeat IPC: 0.06878 cumulative IPC: 0.06804 (Simulation time: 0 hr 21 min 14 sec) 
Heartbeat CPU  0 instructions:  339000000 cycles: 3628220186 heartbeat IPC: 0.06779 cumulative IPC: 0.06804 (Simulation time: 0 hr 21 min 18 sec) 
Heartbeat CPU  0 instructions:  340000000 cycles: 3642920662 heartbeat IPC: 0.06803 cumulative IPC: 0.06804 (Simulation time: 0 hr 21 min 23 sec) 
Heartbeat CPU  0 instructions:  341000001 cycles: 3657522857 heartbeat IPC: 0.06848 cumulative IPC: 0.06805 (Simulation time: 0 hr 21 min 28 sec) 
Heartbeat CPU  0 instructions:  342000000 cycles: 3671989479 heartbeat IPC: 0.06912 cumulative IPC: 0.06805 (Simulation time: 0 hr 21 min 33 sec) 
Heartbeat CPU  0 instructions:  343000000 cycles: 3686508166 heartbeat IPC: 0.06888 cumulative IPC: 0.06805 (Simulation time: 0 hr 21 min 38 sec) 
Heartbeat CPU  0 instructions:  344000000 cycles: 3701003731 heartbeat IPC: 0.06899 cumulative IPC: 0.06806 (Simulation time: 0 hr 21 min 42 sec) 
Heartbeat CPU  0 instructions:  345000000 cycles: 3715581029 heartbeat IPC: 0.06860 cumulative IPC: 0.06806 (Simulation time: 0 hr 21 min 47 sec) 
Heartbeat CPU  0 instructions:  346000000 cycles: 3730245933 heartbeat IPC: 0.06819 cumulative IPC: 0.06806 (Simulation time: 0 hr 21 min 52 sec) 
Heartbeat CPU  0 instructions:  347000001 cycles: 3744951169 heartbeat IPC: 0.06800 cumulative IPC: 0.06806 (Simulation time: 0 hr 21 min 57 sec) 
Heartbeat CPU  0 instructions:  348000000 cycles: 3759777313 heartbeat IPC: 0.06745 cumulative IPC: 0.06806 (Simulation time: 0 hr 22 min 2 sec) 
Heartbeat CPU  0 instructions:  349000000 cycles: 3774535330 heartbeat IPC: 0.06776 cumulative IPC: 0.06806 (Simulation time: 0 hr 22 min 6 sec) 
Heartbeat CPU  0 instructions:  350000000 cycles: 3789339729 heartbeat IPC: 0.06755 cumulative IPC: 0.06805 (Simulation time: 0 hr 22 min 11 sec) 
Heartbeat CPU  0 instructions:  351000000 cycles: 3803929636 heartbeat IPC: 0.06854 cumulative IPC: 0.06806 (Simulation time: 0 hr 22 min 16 sec) 
Heartbeat CPU  0 instructions:  352000000 cycles: 3818580050 heartbeat IPC: 0.06826 cumulative IPC: 0.06806 (Simulation time: 0 hr 22 min 21 sec) 
Heartbeat CPU  0 instructions:  353000000 cycles: 3833227407 heartbeat IPC: 0.06827 cumulative IPC: 0.06806 (Simulation time: 0 hr 22 min 25 sec) 
Heartbeat CPU  0 instructions:  354000001 cycles: 3847761124 heartbeat IPC: 0.06881 cumulative IPC: 0.06806 (Simulation time: 0 hr 22 min 30 sec) 
Heartbeat CPU  0 instructions:  355000000 cycles: 3862253660 heartbeat IPC: 0.06900 cumulative IPC: 0.06806 (Simulation time: 0 hr 22 min 35 sec) 
Heartbeat CPU  0 instructions:  356000000 cycles: 3876615377 heartbeat IPC: 0.06963 cumulative IPC: 0.06807 (Simulation time: 0 hr 22 min 40 sec) 
Heartbeat CPU  0 instructions:  357000003 cycles: 3891060579 heartbeat IPC: 0.06923 cumulative IPC: 0.06807 (Simulation time: 0 hr 22 min 45 sec) 
Heartbeat CPU  0 instructions:  358000000 cycles: 3905630435 heartbeat IPC: 0.06863 cumulative IPC: 0.06808 (Simulation time: 0 hr 22 min 49 sec) 
Heartbeat CPU  0 instructions:  359000000 cycles: 3920167439 heartbeat IPC: 0.06879 cumulative IPC: 0.06808 (Simulation time: 0 hr 22 min 54 sec) 
Heartbeat CPU  0 instructions:  360000000 cycles: 3934557775 heartbeat IPC: 0.06949 cumulative IPC: 0.06808 (Simulation time: 0 hr 22 min 59 sec) 
Heartbeat CPU  0 instructions:  361000000 cycles: 3949190361 heartbeat IPC: 0.06834 cumulative IPC: 0.06809 (Simulation time: 0 hr 23 min 4 sec) 
Heartbeat CPU  0 instructions:  362000000 cycles: 3963779882 heartbeat IPC: 0.06854 cumulative IPC: 0.06809 (Simulation time: 0 hr 23 min 9 sec) 
Heartbeat CPU  0 instructions:  363000000 cycles: 3978461101 heartbeat IPC: 0.06811 cumulative IPC: 0.06809 (Simulation time: 0 hr 23 min 13 sec) 
Heartbeat CPU  0 instructions:  364000000 cycles: 3993077267 heartbeat IPC: 0.06842 cumulative IPC: 0.06809 (Simulation time: 0 hr 23 min 18 sec) 
Heartbeat CPU  0 instructions:  365000000 cycles: 4007637572 heartbeat IPC: 0.06868 cumulative IPC: 0.06809 (Simulation time: 0 hr 23 min 23 sec) 
Heartbeat CPU  0 instructions:  366000000 cycles: 4022525322 heartbeat IPC: 0.06717 cumulative IPC: 0.06809 (Simulation time: 0 hr 23 min 28 sec) 
Heartbeat CPU  0 instructions:  367000000 cycles: 4037395622 heartbeat IPC: 0.06725 cumulative IPC: 0.06808 (Simulation time: 0 hr 23 min 33 sec) 
Heartbeat CPU  0 instructions:  368000000 cycles: 4052226635 heartbeat IPC: 0.06743 cumulative IPC: 0.06808 (Simulation time: 0 hr 23 min 37 sec) 
Heartbeat CPU  0 instructions:  369000000 cycles: 4066875158 heartbeat IPC: 0.06827 cumulative IPC: 0.06808 (Simulation time: 0 hr 23 min 42 sec) 
Heartbeat CPU  0 instructions:  370000000 cycles: 4081779325 heartbeat IPC: 0.06710 cumulative IPC: 0.06808 (Simulation time: 0 hr 23 min 47 sec) 
Heartbeat CPU  0 instructions:  371000000 cycles: 4096617174 heartbeat IPC: 0.06740 cumulative IPC: 0.06808 (Simulation time: 0 hr 23 min 52 sec) 
Heartbeat CPU  0 instructions:  372000000 cycles: 4111533858 heartbeat IPC: 0.06704 cumulative IPC: 0.06807 (Simulation time: 0 hr 23 min 56 sec) 
Heartbeat CPU  0 instructions:  373000000 cycles: 4126373448 heartbeat IPC: 0.06739 cumulative IPC: 0.06807 (Simulation time: 0 hr 24 min 1 sec) 
Heartbeat CPU  0 instructions:  374000000 cycles: 4141247523 heartbeat IPC: 0.06723 cumulative IPC: 0.06807 (Simulation time: 0 hr 24 min 6 sec) 
Heartbeat CPU  0 instructions:  375000000 cycles: 4155987078 heartbeat IPC: 0.06784 cumulative IPC: 0.06807 (Simulation time: 0 hr 24 min 11 sec) 
Heartbeat CPU  0 instructions:  376000000 cycles: 4170751760 heartbeat IPC: 0.06773 cumulative IPC: 0.06806 (Simulation time: 0 hr 24 min 16 sec) 
Heartbeat CPU  0 instructions:  377000000 cycles: 4185580816 heartbeat IPC: 0.06744 cumulative IPC: 0.06806 (Simulation time: 0 hr 24 min 20 sec) 
Heartbeat CPU  0 instructions:  378000001 cycles: 4200250957 heartbeat IPC: 0.06817 cumulative IPC: 0.06806 (Simulation time: 0 hr 24 min 25 sec) 
Heartbeat CPU  0 instructions:  379000001 cycles: 4215084878 heartbeat IPC: 0.06741 cumulative IPC: 0.06806 (Simulation time: 0 hr 24 min 30 sec) 
Heartbeat CPU  0 instructions:  380000000 cycles: 4229872953 heartbeat IPC: 0.06762 cumulative IPC: 0.06806 (Simulation time: 0 hr 24 min 35 sec) 
Heartbeat CPU  0 instructions:  381000000 cycles: 4244602933 heartbeat IPC: 0.06789 cumulative IPC: 0.06806 (Simulation time: 0 hr 24 min 39 sec) 
Heartbeat CPU  0 instructions:  382000000 cycles: 4259336904 heartbeat IPC: 0.06787 cumulative IPC: 0.06806 (Simulation time: 0 hr 24 min 44 sec) 
Heartbeat CPU  0 instructions:  383000001 cycles: 4274168942 heartbeat IPC: 0.06742 cumulative IPC: 0.06805 (Simulation time: 0 hr 24 min 49 sec) 
Heartbeat CPU  0 instructions:  384000000 cycles: 4288923899 heartbeat IPC: 0.06777 cumulative IPC: 0.06805 (Simulation time: 0 hr 24 min 54 sec) 
Heartbeat CPU  0 instructions:  385000000 cycles: 4303801206 heartbeat IPC: 0.06722 cumulative IPC: 0.06805 (Simulation time: 0 hr 24 min 58 sec) 
Heartbeat CPU  0 instructions:  386000000 cycles: 4318745377 heartbeat IPC: 0.06692 cumulative IPC: 0.06805 (Simulation time: 0 hr 25 min 3 sec) 
Heartbeat CPU  0 instructions:  387000000 cycles: 4333618343 heartbeat IPC: 0.06724 cumulative IPC: 0.06804 (Simulation time: 0 hr 25 min 8 sec) 
Heartbeat CPU  0 instructions:  388000000 cycles: 4348547078 heartbeat IPC: 0.06698 cumulative IPC: 0.06804 (Simulation time: 0 hr 25 min 13 sec) 
Heartbeat CPU  0 instructions:  389000000 cycles: 4363403581 heartbeat IPC: 0.06731 cumulative IPC: 0.06804 (Simulation time: 0 hr 25 min 18 sec) 
Heartbeat CPU  0 instructions:  390000000 cycles: 4378281189 heartbeat IPC: 0.06722 cumulative IPC: 0.06803 (Simulation time: 0 hr 25 min 22 sec) 
Heartbeat CPU  0 instructions:  391000000 cycles: 4393318210 heartbeat IPC: 0.06650 cumulative IPC: 0.06803 (Simulation time: 0 hr 25 min 27 sec) 
Heartbeat CPU  0 instructions:  392000000 cycles: 4408273477 heartbeat IPC: 0.06687 cumulative IPC: 0.06803 (Simulation time: 0 hr 25 min 32 sec) 
Heartbeat CPU  0 instructions:  393000000 cycles: 4423273166 heartbeat IPC: 0.06667 cumulative IPC: 0.06802 (Simulation time: 0 hr 25 min 36 sec) 
Heartbeat CPU  0 instructions:  394000001 cycles: 4438179708 heartbeat IPC: 0.06708 cumulative IPC: 0.06802 (Simulation time: 0 hr 25 min 41 sec) 
Heartbeat CPU  0 instructions:  395000001 cycles: 4452960893 heartbeat IPC: 0.06765 cumulative IPC: 0.06802 (Simulation time: 0 hr 25 min 46 sec) 
Heartbeat CPU  0 instructions:  396000000 cycles: 4467538381 heartbeat IPC: 0.06860 cumulative IPC: 0.06802 (Simulation time: 0 hr 25 min 51 sec) 
Heartbeat CPU  0 instructions:  397000000 cycles: 4482537238 heartbeat IPC: 0.06667 cumulative IPC: 0.06801 (Simulation time: 0 hr 25 min 55 sec) 
Heartbeat CPU  0 instructions:  398000001 cycles: 4497370585 heartbeat IPC: 0.06742 cumulative IPC: 0.06801 (Simulation time: 0 hr 26 min 0 sec) 
Heartbeat CPU  0 instructions:  399000002 cycles: 4512177720 heartbeat IPC: 0.06754 cumulative IPC: 0.06801 (Simulation time: 0 hr 26 min 5 sec) 
Heartbeat CPU  0 instructions:  400000000 cycles: 4526972786 heartbeat IPC: 0.06759 cumulative IPC: 0.06801 (Simulation time: 0 hr 26 min 10 sec) 
Heartbeat CPU  0 instructions:  401000001 cycles: 4541735368 heartbeat IPC: 0.06774 cumulative IPC: 0.06801 (Simulation time: 0 hr 26 min 15 sec) 
Heartbeat CPU  0 instructions:  402000000 cycles: 4556437865 heartbeat IPC: 0.06802 cumulative IPC: 0.06801 (Simulation time: 0 hr 26 min 19 sec) 
Heartbeat CPU  0 instructions:  403000000 cycles: 4571156322 heartbeat IPC: 0.06794 cumulative IPC: 0.06801 (Simulation time: 0 hr 26 min 24 sec) 
Heartbeat CPU  0 instructions:  404000000 cycles: 4585889125 heartbeat IPC: 0.06788 cumulative IPC: 0.06801 (Simulation time: 0 hr 26 min 29 sec) 
Heartbeat CPU  0 instructions:  405000001 cycles: 4600601048 heartbeat IPC: 0.06797 cumulative IPC: 0.06801 (Simulation time: 0 hr 26 min 34 sec) 
Heartbeat CPU  0 instructions:  406000003 cycles: 4615276692 heartbeat IPC: 0.06814 cumulative IPC: 0.06801 (Simulation time: 0 hr 26 min 38 sec) 
Heartbeat CPU  0 instructions:  407000000 cycles: 4630024238 heartbeat IPC: 0.06781 cumulative IPC: 0.06801 (Simulation time: 0 hr 26 min 43 sec) 
Heartbeat CPU  0 instructions:  408000000 cycles: 4644766830 heartbeat IPC: 0.06783 cumulative IPC: 0.06801 (Simulation time: 0 hr 26 min 48 sec) 
Heartbeat CPU  0 instructions:  409000000 cycles: 4659439968 heartbeat IPC: 0.06815 cumulative IPC: 0.06801 (Simulation time: 0 hr 26 min 53 sec) 
Heartbeat CPU  0 instructions:  410000001 cycles: 4673959833 heartbeat IPC: 0.06887 cumulative IPC: 0.06801 (Simulation time: 0 hr 26 min 57 sec) 
Heartbeat CPU  0 instructions:  411000000 cycles: 4688511111 heartbeat IPC: 0.06872 cumulative IPC: 0.06801 (Simulation time: 0 hr 27 min 2 sec) 
Heartbeat CPU  0 instructions:  412000000 cycles: 4703073051 heartbeat IPC: 0.06867 cumulative IPC: 0.06801 (Simulation time: 0 hr 27 min 7 sec) 
Heartbeat CPU  0 instructions:  413000001 cycles: 4717675705 heartbeat IPC: 0.06848 cumulative IPC: 0.06802 (Simulation time: 0 hr 27 min 12 sec) 
Heartbeat CPU  0 instructions:  414000000 cycles: 4732182461 heartbeat IPC: 0.06893 cumulative IPC: 0.06802 (Simulation time: 0 hr 27 min 17 sec) 
Heartbeat CPU  0 instructions:  415000001 cycles: 4746723144 heartbeat IPC: 0.06877 cumulative IPC: 0.06802 (Simulation time: 0 hr 27 min 21 sec) 
Heartbeat CPU  0 instructions:  416000000 cycles: 4761274333 heartbeat IPC: 0.06872 cumulative IPC: 0.06802 (Simulation time: 0 hr 27 min 26 sec) 
Heartbeat CPU  0 instructions:  417000000 cycles: 4775839501 heartbeat IPC: 0.06866 cumulative IPC: 0.06802 (Simulation time: 0 hr 27 min 31 sec) 
Heartbeat CPU  0 instructions:  418000000 cycles: 4790533991 heartbeat IPC: 0.06805 cumulative IPC: 0.06802 (Simulation time: 0 hr 27 min 36 sec) 
Heartbeat CPU  0 instructions:  419000000 cycles: 4805114359 heartbeat IPC: 0.06859 cumulative IPC: 0.06803 (Simulation time: 0 hr 27 min 41 sec) 
Heartbeat CPU  0 instructions:  420000000 cycles: 4819730386 heartbeat IPC: 0.06842 cumulative IPC: 0.06803 (Simulation time: 0 hr 27 min 45 sec) 
Heartbeat CPU  0 instructions:  421000001 cycles: 4834217831 heartbeat IPC: 0.06903 cumulative IPC: 0.06803 (Simulation time: 0 hr 27 min 50 sec) 
Heartbeat CPU  0 instructions:  422000001 cycles: 4848836886 heartbeat IPC: 0.06840 cumulative IPC: 0.06803 (Simulation time: 0 hr 27 min 55 sec) 
Heartbeat CPU  0 instructions:  423000000 cycles: 4863485594 heartbeat IPC: 0.06827 cumulative IPC: 0.06803 (Simulation time: 0 hr 28 min 0 sec) 
Heartbeat CPU  0 instructions:  424000000 cycles: 4878194716 heartbeat IPC: 0.06799 cumulative IPC: 0.06803 (Simulation time: 0 hr 28 min 4 sec) 
Heartbeat CPU  0 instructions:  425000000 cycles: 4892861989 heartbeat IPC: 0.06818 cumulative IPC: 0.06803 (Simulation time: 0 hr 28 min 9 sec) 
Heartbeat CPU  0 instructions:  426000001 cycles: 4907533170 heartbeat IPC: 0.06816 cumulative IPC: 0.06803 (Simulation time: 0 hr 28 min 14 sec) 
Heartbeat CPU  0 instructions:  427000000 cycles: 4922170327 heartbeat IPC: 0.06832 cumulative IPC: 0.06803 (Simulation time: 0 hr 28 min 19 sec) 
Heartbeat CPU  0 instructions:  428000000 cycles: 4936736776 heartbeat IPC: 0.06865 cumulative IPC: 0.06804 (Simulation time: 0 hr 28 min 24 sec) 
Heartbeat CPU  0 instructions:  429000000 cycles: 4951234801 heartbeat IPC: 0.06897 cumulative IPC: 0.06804 (Simulation time: 0 hr 28 min 28 sec) 
Heartbeat CPU  0 instructions:  430000000 cycles: 4965842268 heartbeat IPC: 0.06846 cumulative IPC: 0.06804 (Simulation time: 0 hr 28 min 33 sec) 
Heartbeat CPU  0 instructions:  431000001 cycles: 4980538445 heartbeat IPC: 0.06804 cumulative IPC: 0.06804 (Simulation time: 0 hr 28 min 38 sec) 
Heartbeat CPU  0 instructions:  432000000 cycles: 4995177111 heartbeat IPC: 0.06831 cumulative IPC: 0.06804 (Simulation time: 0 hr 28 min 43 sec) 
Heartbeat CPU  0 instructions:  433000000 cycles: 5009922097 heartbeat IPC: 0.06782 cumulative IPC: 0.06804 (Simulation time: 0 hr 28 min 47 sec) 
Heartbeat CPU  0 instructions:  434000002 cycles: 5024611989 heartbeat IPC: 0.06807 cumulative IPC: 0.06804 (Simulation time: 0 hr 28 min 52 sec) 
Heartbeat CPU  0 instructions:  435000000 cycles: 5039330232 heartbeat IPC: 0.06794 cumulative IPC: 0.06804 (Simulation time: 0 hr 28 min 57 sec) 
Heartbeat CPU  0 instructions:  436000000 cycles: 5053954754 heartbeat IPC: 0.06838 cumulative IPC: 0.06804 (Simulation time: 0 hr 29 min 2 sec) 
Heartbeat CPU  0 instructions:  437000002 cycles: 5068496911 heartbeat IPC: 0.06877 cumulative IPC: 0.06804 (Simulation time: 0 hr 29 min 7 sec) 
Heartbeat CPU  0 instructions:  438000000 cycles: 5083066131 heartbeat IPC: 0.06864 cumulative IPC: 0.06804 (Simulation time: 0 hr 29 min 11 sec) 
Heartbeat CPU  0 instructions:  439000000 cycles: 5097750017 heartbeat IPC: 0.06810 cumulative IPC: 0.06805 (Simulation time: 0 hr 29 min 16 sec) 
Heartbeat CPU  0 instructions:  440000000 cycles: 5112530636 heartbeat IPC: 0.06766 cumulative IPC: 0.06804 (Simulation time: 0 hr 29 min 21 sec) 
Heartbeat CPU  0 instructions:  441000000 cycles: 5127357537 heartbeat IPC: 0.06744 cumulative IPC: 0.06804 (Simulation time: 0 hr 29 min 26 sec) 
Heartbeat CPU  0 instructions:  442000000 cycles: 5142222618 heartbeat IPC: 0.06727 cumulative IPC: 0.06804 (Simulation time: 0 hr 29 min 30 sec) 
Heartbeat CPU  0 instructions:  443000003 cycles: 5156952550 heartbeat IPC: 0.06789 cumulative IPC: 0.06804 (Simulation time: 0 hr 29 min 35 sec) 
Heartbeat CPU  0 instructions:  444000000 cycles: 5171681165 heartbeat IPC: 0.06789 cumulative IPC: 0.06804 (Simulation time: 0 hr 29 min 40 sec) 
Heartbeat CPU  0 instructions:  445000001 cycles: 5186429601 heartbeat IPC: 0.06780 cumulative IPC: 0.06804 (Simulation time: 0 hr 29 min 45 sec) 
Heartbeat CPU  0 instructions:  446000000 cycles: 5201256953 heartbeat IPC: 0.06744 cumulative IPC: 0.06804 (Simulation time: 0 hr 29 min 49 sec) 
Heartbeat CPU  0 instructions:  447000000 cycles: 5216118786 heartbeat IPC: 0.06729 cumulative IPC: 0.06803 (Simulation time: 0 hr 29 min 54 sec) 
Heartbeat CPU  0 instructions:  448000000 cycles: 5230812022 heartbeat IPC: 0.06806 cumulative IPC: 0.06803 (Simulation time: 0 hr 29 min 59 sec) 
Heartbeat CPU  0 instructions:  449000003 cycles: 5245520995 heartbeat IPC: 0.06799 cumulative IPC: 0.06803 (Simulation time: 0 hr 30 min 4 sec) 
Heartbeat CPU  0 instructions:  450000000 cycles: 5260240960 heartbeat IPC: 0.06793 cumulative IPC: 0.06803 (Simulation time: 0 hr 30 min 9 sec) 
Heartbeat CPU  0 instructions:  451000000 cycles: 5274999898 heartbeat IPC: 0.06776 cumulative IPC: 0.06803 (Simulation time: 0 hr 30 min 13 sec) 
Heartbeat CPU  0 instructions:  452000000 cycles: 5289661503 heartbeat IPC: 0.06821 cumulative IPC: 0.06803 (Simulation time: 0 hr 30 min 18 sec) 
Heartbeat CPU  0 instructions:  453000000 cycles: 5304533133 heartbeat IPC: 0.06724 cumulative IPC: 0.06803 (Simulation time: 0 hr 30 min 23 sec) 
Heartbeat CPU  0 instructions:  454000000 cycles: 5319345841 heartbeat IPC: 0.06751 cumulative IPC: 0.06803 (Simulation time: 0 hr 30 min 28 sec) 
Heartbeat CPU  0 instructions:  455000000 cycles: 5334243347 heartbeat IPC: 0.06713 cumulative IPC: 0.06803 (Simulation time: 0 hr 30 min 32 sec) 
Heartbeat CPU  0 instructions:  456000000 cycles: 5349152762 heartbeat IPC: 0.06707 cumulative IPC: 0.06802 (Simulation time: 0 hr 30 min 37 sec) 
Heartbeat CPU  0 instructions:  457000000 cycles: 5363909851 heartbeat IPC: 0.06776 cumulative IPC: 0.06802 (Simulation time: 0 hr 30 min 42 sec) 
Heartbeat CPU  0 instructions:  458000000 cycles: 5378847744 heartbeat IPC: 0.06694 cumulative IPC: 0.06802 (Simulation time: 0 hr 30 min 47 sec) 
Heartbeat CPU  0 instructions:  459000000 cycles: 5393765784 heartbeat IPC: 0.06703 cumulative IPC: 0.06802 (Simulation time: 0 hr 30 min 51 sec) 
Heartbeat CPU  0 instructions:  460000000 cycles: 5408480081 heartbeat IPC: 0.06796 cumulative IPC: 0.06802 (Simulation time: 0 hr 30 min 56 sec) 
Heartbeat CPU  0 instructions:  461000000 cycles: 5423247309 heartbeat IPC: 0.06772 cumulative IPC: 0.06802 (Simulation time: 0 hr 31 min 1 sec) 
Heartbeat CPU  0 instructions:  462000000 cycles: 5437917950 heartbeat IPC: 0.06816 cumulative IPC: 0.06802 (Simulation time: 0 hr 31 min 6 sec) 
Heartbeat CPU  0 instructions:  463000000 cycles: 5452535128 heartbeat IPC: 0.06841 cumulative IPC: 0.06802 (Simulation time: 0 hr 31 min 11 sec) 
Heartbeat CPU  0 instructions:  464000000 cycles: 5467240454 heartbeat IPC: 0.06800 cumulative IPC: 0.06802 (Simulation time: 0 hr 31 min 15 sec) 
Heartbeat CPU  0 instructions:  465000000 cycles: 5482058758 heartbeat IPC: 0.06748 cumulative IPC: 0.06802 (Simulation time: 0 hr 31 min 20 sec) 
Heartbeat CPU  0 instructions:  466000000 cycles: 5496846031 heartbeat IPC: 0.06763 cumulative IPC: 0.06802 (Simulation time: 0 hr 31 min 25 sec) 
Heartbeat CPU  0 instructions:  467000000 cycles: 5511498276 heartbeat IPC: 0.06825 cumulative IPC: 0.06802 (Simulation time: 0 hr 31 min 30 sec) 
Heartbeat CPU  0 instructions:  468000000 cycles: 5526125170 heartbeat IPC: 0.06837 cumulative IPC: 0.06802 (Simulation time: 0 hr 31 min 35 sec) 
Heartbeat CPU  0 instructions:  469000000 cycles: 5540638863 heartbeat IPC: 0.06890 cumulative IPC: 0.06802 (Simulation time: 0 hr 31 min 39 sec) 
Heartbeat CPU  0 instructions:  470000000 cycles: 5555219061 heartbeat IPC: 0.06859 cumulative IPC: 0.06802 (Simulation time: 0 hr 31 min 44 sec) 
Heartbeat CPU  0 instructions:  471000000 cycles: 5569813778 heartbeat IPC: 0.06852 cumulative IPC: 0.06802 (Simulation time: 0 hr 31 min 49 sec) 
Heartbeat CPU  0 instructions:  472000000 cycles: 5584227259 heartbeat IPC: 0.06938 cumulative IPC: 0.06803 (Simulation time: 0 hr 31 min 54 sec) 
Heartbeat CPU  0 instructions:  473000000 cycles: 5598664063 heartbeat IPC: 0.06927 cumulative IPC: 0.06803 (Simulation time: 0 hr 31 min 59 sec) 
Heartbeat CPU  0 instructions:  474000000 cycles: 5613308592 heartbeat IPC: 0.06828 cumulative IPC: 0.06803 (Simulation time: 0 hr 32 min 3 sec) 
Heartbeat CPU  0 instructions:  475000000 cycles: 5627784164 heartbeat IPC: 0.06908 cumulative IPC: 0.06803 (Simulation time: 0 hr 32 min 8 sec) 
Heartbeat CPU  0 instructions:  476000000 cycles: 5642458955 heartbeat IPC: 0.06814 cumulative IPC: 0.06803 (Simulation time: 0 hr 32 min 13 sec) 
Heartbeat CPU  0 instructions:  477000000 cycles: 5657187821 heartbeat IPC: 0.06789 cumulative IPC: 0.06803 (Simulation time: 0 hr 32 min 18 sec) 
Heartbeat CPU  0 instructions:  478000001 cycles: 5672006159 heartbeat IPC: 0.06748 cumulative IPC: 0.06803 (Simulation time: 0 hr 32 min 23 sec) 
Heartbeat CPU  0 instructions:  479000001 cycles: 5686837114 heartbeat IPC: 0.06743 cumulative IPC: 0.06803 (Simulation time: 0 hr 32 min 27 sec) 
Heartbeat CPU  0 instructions:  480000000 cycles: 5701746881 heartbeat IPC: 0.06707 cumulative IPC: 0.06803 (Simulation time: 0 hr 32 min 32 sec) 
Heartbeat CPU  0 instructions:  481000000 cycles: 5716593197 heartbeat IPC: 0.06736 cumulative IPC: 0.06803 (Simulation time: 0 hr 32 min 37 sec) 
Heartbeat CPU  0 instructions:  482000000 cycles: 5731488487 heartbeat IPC: 0.06714 cumulative IPC: 0.06802 (Simulation time: 0 hr 32 min 42 sec) 
Heartbeat CPU  0 instructions:  483000000 cycles: 5746219209 heartbeat IPC: 0.06789 cumulative IPC: 0.06802 (Simulation time: 0 hr 32 min 46 sec) 
Heartbeat CPU  0 instructions:  484000000 cycles: 5761075770 heartbeat IPC: 0.06731 cumulative IPC: 0.06802 (Simulation time: 0 hr 32 min 51 sec) 
Heartbeat CPU  0 instructions:  485000000 cycles: 5776042806 heartbeat IPC: 0.06681 cumulative IPC: 0.06802 (Simulation time: 0 hr 32 min 56 sec) 
Heartbeat CPU  0 instructions:  486000000 cycles: 5790948692 heartbeat IPC: 0.06709 cumulative IPC: 0.06802 (Simulation time: 0 hr 33 min 1 sec) 
Heartbeat CPU  0 instructions:  487000000 cycles: 5805865429 heartbeat IPC: 0.06704 cumulative IPC: 0.06801 (Simulation time: 0 hr 33 min 5 sec) 
Heartbeat CPU  0 instructions:  488000000 cycles: 5820474135 heartbeat IPC: 0.06845 cumulative IPC: 0.06801 (Simulation time: 0 hr 33 min 10 sec) 
Heartbeat CPU  0 instructions:  489000000 cycles: 5835303774 heartbeat IPC: 0.06743 cumulative IPC: 0.06801 (Simulation time: 0 hr 33 min 15 sec) 
Heartbeat CPU  0 instructions:  490000000 cycles: 5849945421 heartbeat IPC: 0.06830 cumulative IPC: 0.06801 (Simulation time: 0 hr 33 min 20 sec) 
Heartbeat CPU  0 instructions:  491000000 cycles: 5864636750 heartbeat IPC: 0.06807 cumulative IPC: 0.06801 (Simulation time: 0 hr 33 min 24 sec) 
Heartbeat CPU  0 instructions:  492000000 cycles: 5879398365 heartbeat IPC: 0.06774 cumulative IPC: 0.06801 (Simulation time: 0 hr 33 min 29 sec) 
Heartbeat CPU  0 instructions:  493000001 cycles: 5894121963 heartbeat IPC: 0.06792 cumulative IPC: 0.06801 (Simulation time: 0 hr 33 min 34 sec) 
Heartbeat CPU  0 instructions:  494000001 cycles: 5908835753 heartbeat IPC: 0.06796 cumulative IPC: 0.06801 (Simulation time: 0 hr 33 min 39 sec) 
Heartbeat CPU  0 instructions:  495000000 cycles: 5923616122 heartbeat IPC: 0.06766 cumulative IPC: 0.06801 (Simulation time: 0 hr 33 min 44 sec) 
Heartbeat CPU  0 instructions:  496000000 cycles: 5938353953 heartbeat IPC: 0.06785 cumulative IPC: 0.06801 (Simulation time: 0 hr 33 min 48 sec) 
Heartbeat CPU  0 instructions:  497000001 cycles: 5952907294 heartbeat IPC: 0.06871 cumulative IPC: 0.06801 (Simulation time: 0 hr 33 min 53 sec) 
Heartbeat CPU  0 instructions:  498000000 cycles: 5967609533 heartbeat IPC: 0.06802 cumulative IPC: 0.06801 (Simulation time: 0 hr 33 min 58 sec) 
Heartbeat CPU  0 instructions:  499000003 cycles: 5982206207 heartbeat IPC: 0.06851 cumulative IPC: 0.06801 (Simulation time: 0 hr 34 min 3 sec) 
Heartbeat CPU  0 instructions:  500000000 cycles: 5996898986 heartbeat IPC: 0.06806 cumulative IPC: 0.06801 (Simulation time: 0 hr 34 min 8 sec) 
Heartbeat CPU  0 instructions:  501000000 cycles: 6011601018 heartbeat IPC: 0.06802 cumulative IPC: 0.06801 (Simulation time: 0 hr 34 min 12 sec) 
Heartbeat CPU  0 instructions:  502000001 cycles: 6026417125 heartbeat IPC: 0.06749 cumulative IPC: 0.06801 (Simulation time: 0 hr 34 min 17 sec) 
Heartbeat CPU  0 instructions:  503000001 cycles: 6041135039 heartbeat IPC: 0.06794 cumulative IPC: 0.06801 (Simulation time: 0 hr 34 min 22 sec) 
Heartbeat CPU  0 instructions:  504000000 cycles: 6055813274 heartbeat IPC: 0.06813 cumulative IPC: 0.06801 (Simulation time: 0 hr 34 min 27 sec) 
Heartbeat CPU  0 instructions:  505000001 cycles: 6070391667 heartbeat IPC: 0.06859 cumulative IPC: 0.06801 (Simulation time: 0 hr 34 min 31 sec) 
Heartbeat CPU  0 instructions:  506000003 cycles: 6085017204 heartbeat IPC: 0.06837 cumulative IPC: 0.06802 (Simulation time: 0 hr 34 min 36 sec) 
Heartbeat CPU  0 instructions:  507000000 cycles: 6099561040 heartbeat IPC: 0.06876 cumulative IPC: 0.06802 (Simulation time: 0 hr 34 min 41 sec) 
Heartbeat CPU  0 instructions:  508000000 cycles: 6114268839 heartbeat IPC: 0.06799 cumulative IPC: 0.06802 (Simulation time: 0 hr 34 min 46 sec) 
Heartbeat CPU  0 instructions:  509000000 cycles: 6128990241 heartbeat IPC: 0.06793 cumulative IPC: 0.06802 (Simulation time: 0 hr 34 min 51 sec) 
Heartbeat CPU  0 instructions:  510000001 cycles: 6143671570 heartbeat IPC: 0.06811 cumulative IPC: 0.06802 (Simulation time: 0 hr 34 min 55 sec) 
Heartbeat CPU  0 instructions:  511000003 cycles: 6158285528 heartbeat IPC: 0.06843 cumulative IPC: 0.06802 (Simulation time: 0 hr 35 min 0 sec) 
Heartbeat CPU  0 instructions:  512000000 cycles: 6172983790 heartbeat IPC: 0.06804 cumulative IPC: 0.06802 (Simulation time: 0 hr 35 min 5 sec) 
Heartbeat CPU  0 instructions:  513000001 cycles: 6187708427 heartbeat IPC: 0.06791 cumulative IPC: 0.06802 (Simulation time: 0 hr 35 min 10 sec) 
Heartbeat CPU  0 instructions:  514000000 cycles: 6202484359 heartbeat IPC: 0.06768 cumulative IPC: 0.06802 (Simulation time: 0 hr 35 min 15 sec) 
Heartbeat CPU  0 instructions:  515000001 cycles: 6217158077 heartbeat IPC: 0.06815 cumulative IPC: 0.06802 (Simulation time: 0 hr 35 min 19 sec) 
Heartbeat CPU  0 instructions:  516000000 cycles: 6231838016 heartbeat IPC: 0.06812 cumulative IPC: 0.06802 (Simulation time: 0 hr 35 min 24 sec) 
Heartbeat CPU  0 instructions:  517000000 cycles: 6246501676 heartbeat IPC: 0.06820 cumulative IPC: 0.06802 (Simulation time: 0 hr 35 min 29 sec) 
Heartbeat CPU  0 instructions:  518000000 cycles: 6261285827 heartbeat IPC: 0.06764 cumulative IPC: 0.06802 (Simulation time: 0 hr 35 min 34 sec) 
Heartbeat CPU  0 instructions:  519000000 cycles: 6276060893 heartbeat IPC: 0.06768 cumulative IPC: 0.06802 (Simulation time: 0 hr 35 min 39 sec) 
Heartbeat CPU  0 instructions:  520000000 cycles: 6290793332 heartbeat IPC: 0.06788 cumulative IPC: 0.06802 (Simulation time: 0 hr 35 min 43 sec) 
Heartbeat CPU  0 instructions:  521000000 cycles: 6305661344 heartbeat IPC: 0.06726 cumulative IPC: 0.06801 (Simulation time: 0 hr 35 min 48 sec) 
Heartbeat CPU  0 instructions:  522000000 cycles: 6320327079 heartbeat IPC: 0.06819 cumulative IPC: 0.06801 (Simulation time: 0 hr 35 min 53 sec) 
Heartbeat CPU  0 instructions:  523000001 cycles: 6335038777 heartbeat IPC: 0.06797 cumulative IPC: 0.06801 (Simulation time: 0 hr 35 min 58 sec) 
Heartbeat CPU  0 instructions:  524000000 cycles: 6349853215 heartbeat IPC: 0.06750 cumulative IPC: 0.06801 (Simulation time: 0 hr 36 min 3 sec) 
Heartbeat CPU  0 instructions:  525000000 cycles: 6364680367 heartbeat IPC: 0.06744 cumulative IPC: 0.06801 (Simulation time: 0 hr 36 min 7 sec) 
Heartbeat CPU  0 instructions:  526000000 cycles: 6379516607 heartbeat IPC: 0.06740 cumulative IPC: 0.06801 (Simulation time: 0 hr 36 min 12 sec) 
Heartbeat CPU  0 instructions:  527000000 cycles: 6394297591 heartbeat IPC: 0.06765 cumulative IPC: 0.06801 (Simulation time: 0 hr 36 min 17 sec) 
Heartbeat CPU  0 instructions:  528000000 cycles: 6409061648 heartbeat IPC: 0.06773 cumulative IPC: 0.06801 (Simulation time: 0 hr 36 min 22 sec) 
[...]
Heartbeat CPU  0 instructions:  533000000 cycles: 6482006268 heartbeat IPC: 0.06769 cumulative IPC: 0.06802 (Simulation time: 0 hr 36 min 45 sec) 
Heartbeat CPU  0 instructions:  534000003 cycles: 6496649654 heartbeat IPC: 0.06829 cumulative IPC: 0.06802 (Simulation time: 0 hr 36 min 50 sec) 
Heartbeat CPU  0 instructions:  535000000 cycles: 6511191356 heartbeat IPC: 0.06877 cumulative IPC: 0.06802 (Simulation time: 0 hr 36 min 55 sec) 
Heartbeat CPU  0 instructions:  536000000 cycles: 6525808085 heartbeat IPC: 0.06841 cumulative IPC: 0.06802 (Simulation time: 0 hr 37 min 0 sec) 
Heartbeat CPU  0 instructions:  537000001 cycles: 6540646247 heartbeat IPC: 0.06739 cumulative IPC: 0.06802 (Simulation time: 0 hr 37 min 4 sec) 
Heartbeat CPU  0 instructions:  538000000 cycles: 6555364160 heartbeat IPC: 0.06794 cumulative IPC: 0.06802 (Simulation time: 0 hr 37 min 9 sec) 
Heartbeat CPU  0 instructions:  539000000 cycles: 6570141902 heartbeat IPC: 0.06767 cumulative IPC: 0.06802 (Simulation time: 0 hr 37 min 14 sec) 
Heartbeat CPU  0 instructions:  540000000 cycles: 6584874953 heartbeat IPC: 0.06787 cumulative IPC: 0.06802 (Simulation time: 0 hr 37 min 19 sec) 
Heartbeat CPU  0 instructions:  541000000 cycles: 6599462783 heartbeat IPC: 0.06855 cumulative IPC: 0.06802 (Simulation time: 0 hr 37 min 23 sec) 
Heartbeat CPU  0 instructions:  542000001 cycles: 6613979295 heartbeat IPC: 0.06889 cumulative IPC: 0.06802 (Simulation time: 0 hr 37 min 28 sec) 
Heartbeat CPU  0 instructions:  543000000 cycles: 6628595828 heartbeat IPC: 0.06842 cumulative IPC: 0.06802 (Simulation time: 0 hr 37 min 33 sec) 
Heartbeat CPU  0 instructions:  544000000 cycles: 6643164478 heartbeat IPC: 0.06864 cumulative IPC: 0.06802 (Simulation time: 0 hr 37 min 38 sec) 
Heartbeat CPU  0 instructions:  545000000 cycles: 6657905840 heartbeat IPC: 0.06784 cumulative IPC: 0.06802 (Simulation time: 0 hr 37 min 42 sec) 
Heartbeat CPU  0 instructions:  546000001 cycles: 6672636773 heartbeat IPC: 0.06788 cumulative IPC: 0.06802 (Simulation time: 0 hr 37 min 47 sec) 
Heartbeat CPU  0 instructions:  547000001 cycles: 6687355703 heartbeat IPC: 0.06794 cumulative IPC: 0.06802 (Simulation time: 0 hr 37 min 52 sec) 
Heartbeat CPU  0 instructions:  548000000 cycles: 6702157944 heartbeat IPC: 0.06756 cumulative IPC: 0.06802 (Simulation time: 0 hr 37 min 57 sec) 
Heartbeat CPU  0 instructions:  549000000 cycles: 6716909343 heartbeat IPC: 0.06779 cumulative IPC: 0.06802 (Simulation time: 0 hr 38 min 2 sec) 
Heartbeat CPU  0 instructions:  550000001 cycles: 6731535843 heartbeat IPC: 0.06837 cumulative IPC: 0.06802 (Simulation time: 0 hr 38 min 6 sec) 
Heartbeat CPU  0 instructions:  551000000 cycles: 6746154931 heartbeat IPC: 0.06840 cumulative IPC: 0.06802 (Simulation time: 0 hr 38 min 11 sec) 
Heartbeat CPU  0 instructions:  552000000 cycles: 6760856781 heartbeat IPC: 0.06802 cumulative IPC: 0.06802 (Simulation time: 0 hr 38 min 16 sec) 
Heartbeat CPU  0 instructions:  553000000 cycles: 6775480111 heartbeat IPC: 0.06838 cumulative IPC: 0.06802 (Simulation time: 0 hr 38 min 21 sec) 
Heartbeat CPU  0 instructions:  554000001 cycles: 6790054674 heartbeat IPC: 0.06861 cumulative IPC: 0.06802 (Simulation time: 0 hr 38 min 25 sec) 
Heartbeat CPU  0 instructions:  555000000 cycles: 6804683913 heartbeat IPC: 0.06836 cumulative IPC: 0.06802 (Simulation time: 0 hr 38 min 30 sec) 
Heartbeat CPU  0 instructions:  556000000 cycles: 6819351358 heartbeat IPC: 0.06818 cumulative IPC: 0.06802 (Simulation time: 0 hr 38 min 35 sec) 
Heartbeat CPU  0 instructions:  557000000 cycles: 6833966647 heartbeat IPC: 0.06842 cumulative IPC: 0.06802 (Simulation time: 0 hr 38 min 40 sec) 
Heartbeat CPU  0 instructions:  558000000 cycles: 6848342013 heartbeat IPC: 0.06956 cumulative IPC: 0.06803 (Simulation time: 0 hr 38 min 45 sec) 
Heartbeat CPU  0 instructions:  559000001 cycles: 6863047883 heartbeat IPC: 0.06800 cumulative IPC: 0.06803 (Simulation time: 0 hr 38 min 49 sec) 
Heartbeat CPU  0 instructions:  560000000 cycles: 6877971572 heartbeat IPC: 0.06701 cumulative IPC: 0.06803 (Simulation time: 0 hr 38 min 54 sec) 
Heartbeat CPU  0 instructions:  561000001 cycles: 6892776738 heartbeat IPC: 0.06754 cumulative IPC: 0.06802 (Simulation time: 0 hr 38 min 59 sec) 
Heartbeat CPU  0 instructions:  562000000 cycles: 6907499609 heartbeat IPC: 0.06792 cumulative IPC: 0.06802 (Simulation time: 0 hr 39 min 4 sec) 
Heartbeat CPU  0 instructions:  563000000 cycles: 6922196797 heartbeat IPC: 0.06804 cumulative IPC: 0.06802 (Simulation time: 0 hr 39 min 8 sec) 
Heartbeat CPU  0 instructions:  564000000 cycles: 6936903744 heartbeat IPC: 0.06800 cumulative IPC: 0.06802 (Simulation time: 0 hr 39 min 13 sec) 
Heartbeat CPU  0 instructions:  565000003 cycles: 6951664875 heartbeat IPC: 0.06775 cumulative IPC: 0.06802 (Simulation time: 0 hr 39 min 18 sec) 
Heartbeat CPU  0 instructions:  566000001 cycles: 6966512607 heartbeat IPC: 0.06735 cumulative IPC: 0.06802 (Simulation time: 0 hr 39 min 23 sec) 
Heartbeat CPU  0 instructions:  567000000 cycles: 6981297767 heartbeat IPC: 0.06764 cumulative IPC: 0.06802 (Simulation time: 0 hr 39 min 27 sec) 
Heartbeat CPU  0 instructions:  568000000 cycles: 6995958183 heartbeat IPC: 0.06821 cumulative IPC: 0.06802 (Simulation time: 0 hr 39 min 32 sec) 
Heartbeat CPU  0 instructions:  569000002 cycles: 7010656104 heartbeat IPC: 0.06804 cumulative IPC: 0.06802 (Simulation time: 0 hr 39 min 37 sec) 
Heartbeat CPU  0 instructions:  570000001 cycles: 7025278084 heartbeat IPC: 0.06839 cumulative IPC: 0.06802 (Simulation time: 0 hr 39 min 42 sec) 
Heartbeat CPU  0 instructions:  571000001 cycles: 7040246173 heartbeat IPC: 0.06681 cumulative IPC: 0.06802 (Simulation time: 0 hr 39 min 46 sec) 
Heartbeat CPU  0 instructions:  572000000 cycles: 7055026911 heartbeat IPC: 0.06766 cumulative IPC: 0.06802 (Simulation time: 0 hr 39 min 51 sec) 
Heartbeat CPU  0 instructions:  573000000 cycles: 7069882391 heartbeat IPC: 0.06732 cumulative IPC: 0.06802 (Simulation time: 0 hr 39 min 56 sec) 
Heartbeat CPU  0 instructions:  574000000 cycles: 7084678237 heartbeat IPC: 0.06759 cumulative IPC: 0.06802 (Simulation time: 0 hr 40 min 0 sec) 
Heartbeat CPU  0 instructions:  575000000 cycles: 7099392741 heartbeat IPC: 0.06796 cumulative IPC: 0.06802 (Simulation time: 0 hr 40 min 5 sec) 
Heartbeat CPU  0 instructions:  576000000 cycles: 7113903880 heartbeat IPC: 0.06891 cumulative IPC: 0.06802 (Simulation time: 0 hr 40 min 10 sec) 
Heartbeat CPU  0 instructions:  577000000 cycles: 7128455344 heartbeat IPC: 0.06872 cumulative IPC: 0.06802 (Simulation time: 0 hr 40 min 15 sec) 
Heartbeat CPU  0 instructions:  578000000 cycles: 7143015799 heartbeat IPC: 0.06868 cumulative IPC: 0.06802 (Simulation time: 0 hr 40 min 19 sec) 
Heartbeat CPU  0 instructions:  579000001 cycles: 7157528559 heartbeat IPC: 0.06890 cumulative IPC: 0.06802 (Simulation time: 0 hr 40 min 24 sec) 
Heartbeat CPU  0 instructions:  580000000 cycles: 7171907915 heartbeat IPC: 0.06954 cumulative IPC: 0.06803 (Simulation time: 0 hr 40 min 29 sec) 
Heartbeat CPU  0 instructions:  581000000 cycles: 7186271538 heartbeat IPC: 0.06962 cumulative IPC: 0.06803 (Simulation time: 0 hr 40 min 33 sec) 
Heartbeat CPU  0 instructions:  582000001 cycles: 7200617214 heartbeat IPC: 0.06971 cumulative IPC: 0.06803 (Simulation time: 0 hr 40 min 38 sec) 
Heartbeat CPU  0 instructions:  583000000 cycles: 7214958737 heartbeat IPC: 0.06973 cumulative IPC: 0.06804 (Simulation time: 0 hr 40 min 43 sec) 
Heartbeat CPU  0 instructions:  584000000 cycles: 7229336272 heartbeat IPC: 0.06955 cumulative IPC: 0.06804 (Simulation time: 0 hr 40 min 48 sec) 
Heartbeat CPU  0 instructions:  585000000 cycles: 7243702821 heartbeat IPC: 0.06961 cumulative IPC: 0.06804 (Simulation time: 0 hr 40 min 52 sec) 
Heartbeat CPU  0 instructions:  586000001 cycles: 7258212317 heartbeat IPC: 0.06892 cumulative IPC: 0.06804 (Simulation time: 0 hr 40 min 57 sec) 
Heartbeat CPU  0 instructions:  587000000 cycles: 7272685448 heartbeat IPC: 0.06909 cumulative IPC: 0.06805 (Simulation time: 0 hr 41 min 2 sec) 
Heartbeat CPU  0 instructions:  588000000 cycles: 7287228955 heartbeat IPC: 0.06876 cumulative IPC: 0.06805 (Simulation time: 0 hr 41 min 7 sec) 
Heartbeat CPU  0 instructions:  589000002 cycles: 7301844994 heartbeat IPC: 0.06842 cumulative IPC: 0.06805 (Simulation time: 0 hr 41 min 11 sec) 
Heartbeat CPU  0 instructions:  590000000 cycles: 7316489182 heartbeat IPC: 0.06829 cumulative IPC: 0.06805 (Simulation time: 0 hr 41 min 16 sec) 
Heartbeat CPU  0 instructions:  591000000 cycles: 7331272972 heartbeat IPC: 0.06764 cumulative IPC: 0.06805 (Simulation time: 0 hr 41 min 21 sec) 
Heartbeat CPU  0 instructions:  592000000 cycles: 7346034980 heartbeat IPC: 0.06774 cumulative IPC: 0.06805 (Simulation time: 0 hr 41 min 26 sec) 
Heartbeat CPU  0 instructions:  593000000 cycles: 7360867480 heartbeat IPC: 0.06742 cumulative IPC: 0.06805 (Simulation time: 0 hr 41 min 30 sec) 
Heartbeat CPU  0 instructions:  594000000 cycles: 7375762181 heartbeat IPC: 0.06714 cumulative IPC: 0.06804 (Simulation time: 0 hr 41 min 35 sec) 
Heartbeat CPU  0 instructions:  595000002 cycles: 7390654721 heartbeat IPC: 0.06715 cumulative IPC: 0.06804 (Simulation time: 0 hr 41 min 40 sec) 
Heartbeat CPU  0 instructions:  596000000 cycles: 7405503417 heartbeat IPC: 0.06735 cumulative IPC: 0.06804 (Simulation time: 0 hr 41 min 44 sec) 
Heartbeat CPU  0 instructions:  597000000 cycles: 7420329906 heartbeat IPC: 0.06745 cumulative IPC: 0.06804 (Simulation time: 0 hr 41 min 49 sec) 
Heartbeat CPU  0 instructions:  598000000 cycles: 7435111596 heartbeat IPC: 0.06765 cumulative IPC: 0.06804 (Simulation time: 0 hr 41 min 54 sec) 
Heartbeat CPU  0 instructions:  599000000 cycles: 7449841131 heartbeat IPC: 0.06789 cumulative IPC: 0.06804 (Simulation time: 0 hr 41 min 59 sec) 
Heartbeat CPU  0 instructions:  600000000 cycles: 7464572140 heartbeat IPC: 0.06788 cumulative IPC: 0.06804 (Simulation time: 0 hr 42 min 3 sec) 
Finished CPU 0 instructions: 500000003 cycles: 7348808547 cumulative IPC: 0.06804 (Simulation time: 0 hr 42 min 3 sec) 

ChampSim completed all CPUs

[ROI Statistics]
Core_0_instructions 500000003
Core_0_cycles 7348808547
Core_0_IPC 0.06804

Core_0_branch_prediction_accuracy 91.38259
Core_0_branch_MPKI 20.71461
Core_0_average_ROB_occupancy_at_mispredict 46.75685

Core_0_L1D_total_access 104101854
Core_0_L1D_total_hit 29057461
Core_0_L1D_total_miss 75044393
Core_0_L1D_loads 103986898
Core_0_L1D_load_hit 28944999
Core_0_L1D_load_miss 75041899
Core_0_L1D_RFOs 114956
Core_0_L1D_RFO_hit 112462
Core_0_L1D_RFO_miss 2494
Core_0_L1D_prefetches 0
Core_0_L1D_prefetch_hit 0
Core_0_L1D_prefetch_miss 0
Core_0_L1D_writebacks 0
Core_0_L1D_writeback_hit 0
Core_0_L1D_writeback_miss 0
Core_0_L1D_prefetch_requested 0
Core_0_L1D_prefetch_dropped 0
Core_0_L1D_prefetch_issued 0
Core_0_L1D_prefetch_filled 0
Core_0_L1D_prefetch_useful 0
Core_0_L1D_prefetch_useless 0
Core_0_L1D_prefetch_late 0
Core_0_L1D_average_miss_latency 176.70042

Core_0_L1D_rq_access 155342315
Core_0_L1D_rq_forward 0
Core_0_L1D_rq_merged 51320134
Core_0_L1D_rq_to_cache 104022181
Core_0_L1D_rq_full 0

Core_0_L1D_wq_access 123159
Core_0_L1D_wq_forward 0
Core_0_L1D_wq_merged 6866
Core_0_L1D_wq_to_cache 116293
Core_0_L1D_wq_full 0

Core_0_L1D_pq_access 0
Core_0_L1D_pq_forward 0
Core_0_L1D_pq_merged 0
Core_0_L1D_pq_to_cache 0
Core_0_L1D_pq_full 0

Core_0_L1D_acc_epochs 7165664
Core_0_L1D_acc_level_0 7165664
Core_0_L1D_acc_level_1 0
Core_0_L1D_acc_level_2 0
Core_0_L1D_acc_level_3 0
Core_0_L1D_acc_level_4 0
Core_0_L1D_acc_level_5 0
Core_0_L1D_acc_level_6 0
Core_0_L1D_acc_level_7 0
Core_0_L1D_acc_level_8 0
Core_0_L1D_acc_level_9 0

Core_0_L1I_total_access 91193551
Core_0_L1I_total_hit 91193551
Core_0_L1I_total_miss 0
Core_0_L1I_loads 91193551
Core_0_L1I_load_hit 91193551
Core_0_L1I_load_miss 0
Core_0_L1I_RFOs 0
Core_0_L1I_RFO_hit 0
Core_0_L1I_RFO_miss 0
Core_0_L1I_prefetches 0
Core_0_L1I_prefetch_hit 0
Core_0_L1I_prefetch_miss 0
Core_0_L1I_writebacks 0
Core_0_L1I_writeback_hit 0
Core_0_L1I_writeback_miss 0
Core_0_L1I_prefetch_requested 0
Core_0_L1I_prefetch_dropped 0
Core_0_L1I_prefetch_issued 0
Core_0_L1I_prefetch_filled 0
Core_0_L1I_prefetch_useful 0
Core_0_L1I_prefetch_useless 0
Core_0_L1I_prefetch_late 0
Core_0_L1I_average_miss_latency -nan

Core_0_L1I_rq_access 499999982
Core_0_L1I_rq_forward 0
Core_0_L1I_rq_merged 408806431
Core_0_L1I_rq_to_cache 91193551
Core_0_L1I_rq_full 0

Core_0_L1I_wq_access 0
Core_0_L1I_wq_forward 0
Core_0_L1I_wq_merged 0
Core_0_L1I_wq_to_cache 0
Core_0_L1I_wq_full 0

Core_0_L1I_pq_access 0
Core_0_L1I_pq_forward 0
Core_0_L1I_pq_merged 0
Core_0_L1I_pq_to_cache 0
Core_0_L1I_pq_full 0

Core_0_L1I_acc_epochs 7165664
Core_0_L1I_acc_level_0 7165664
Core_0_L1I_acc_level_1 0
Core_0_L1I_acc_level_2 0
Core_0_L1I_acc_level_3 0
Core_0_L1I_acc_level_4 0
Core_0_L1I_acc_level_5 0
Core_0_L1I_acc_level_6 0
Core_0_L1I_acc_level_7 0
Core_0_L1I_acc_level_8 0
Core_0_L1I_acc_level_9 0

Core_0_L2C_total_access 75115998
Core_0_L2C_total_hit 15342428
Core_0_L2C_total_miss 59773570
Core_0_L2C_loads 75041896
Core_0_L2C_load_hit 15270285
Core_0_L2C_load_miss 59771611
Core_0_L2C_RFOs 2494
Core_0_L2C_RFO_hit 590
Core_0_L2C_RFO_miss 1904
Core_0_L2C_prefetches 9054
Core_0_L2C_prefetch_hit 8999
Core_0_L2C_prefetch_miss 55
Core_0_L2C_writebacks 62554
Core_0_L2C_writeback_hit 62554
Core_0_L2C_writeback_miss 0
Core_0_L2C_prefetch_requested 66799
Core_0_L2C_prefetch_dropped 0
Core_0_L2C_prefetch_issued 66799
Core_0_L2C_prefetch_filled 59
Core_0_L2C_prefetch_useful 1
Core_0_L2C_prefetch_useless 58
Core_0_L2C_prefetch_late 0
Core_0_L2C_average_miss_latency 203.79564

Core_0_L2C_rq_access 75044393
Core_0_L2C_rq_forward 0
Core_0_L2C_rq_merged 0
Core_0_L2C_rq_to_cache 75044390
Core_0_L2C_rq_full 0

Core_0_L2C_wq_access 62554
Core_0_L2C_wq_forward 3
Core_0_L2C_wq_merged 0
Core_0_L2C_wq_to_cache 62554
Core_0_L2C_wq_full 0

Core_0_L2C_pq_access 66799
Core_0_L2C_pq_forward 0
Core_0_L2C_pq_merged 13
Core_0_L2C_pq_to_cache 66786
Core_0_L2C_pq_full 0

Core_0_L2C_acc_epochs 7165664
Core_0_L2C_acc_level_0 7165664
Core_0_L2C_acc_level_1 0
Core_0_L2C_acc_level_2 0
Core_0_L2C_acc_level_3 0
Core_0_L2C_acc_level_4 0
Core_0_L2C_acc_level_5 0
Core_0_L2C_acc_level_6 0
Core_0_L2C_acc_level_7 0
Core_0_L2C_acc_level_8 0
Core_0_L2C_acc_level_9 0

Core_0_LLC_total_access 59857674
Core_0_LLC_total_hit 33123773
Core_0_LLC_total_miss 26733901
Core_0_LLC_loads 59771611
Core_0_LLC_load_hit 33054887
Core_0_LLC_load_miss 26716724
Core_0_LLC_RFOs 1904
Core_0_LLC_RFO_hit 1047
Core_0_LLC_RFO_miss 857
Core_0_LLC_prefetches 23285
Core_0_LLC_prefetch_hit 12267
Core_0_LLC_prefetch_miss 11018
Core_0_LLC_writebacks 60874
Core_0_LLC_writeback_hit 55572
Core_0_LLC_writeback_miss 5302
Core_0_LLC_prefetch_requested 0
Core_0_LLC_prefetch_dropped 0
Core_0_LLC_prefetch_issued 0
Core_0_LLC_prefetch_filled 25302
Core_0_LLC_prefetch_useful 3691
Core_0_LLC_prefetch_useless 21558
Core_0_LLC_prefetch_late 40
Core_0_LLC_average_miss_latency 388.47693

Core_0_LLC_rq_access 59773515
Core_0_LLC_rq_forward 0
Core_0_LLC_rq_merged 0
Core_0_LLC_rq_to_cache 59773515
Core_0_LLC_rq_full 0

Core_0_LLC_wq_access 60874
Core_0_LLC_wq_forward 0
Core_0_LLC_wq_merged 0
Core_0_LLC_wq_to_cache 60874
Core_0_LLC_wq_full 0

Core_0_LLC_pq_access 43421
Core_0_LLC_pq_forward 0
Core_0_LLC_pq_merged 0
Core_0_LLC_pq_to_cache 43421
Core_0_LLC_pq_full 0

Core_0_LLC_acc_epochs 7289622
Core_0_LLC_acc_level_0 7287984
Core_0_LLC_acc_level_1 543
Core_0_LLC_acc_level_2 471
Core_0_LLC_acc_level_3 176
Core_0_LLC_acc_level_4 79
Core_0_LLC_acc_level_5 265
Core_0_LLC_acc_level_6 38
Core_0_LLC_acc_level_7 35
Core_0_LLC_acc_level_8 11
Core_0_LLC_acc_level_9 20

Core_0_major_page_fault 0
Core_0_minor_page_fault 428295

spp.pref.total 66799
spp.pref.at_L2 63
spp.pref.at_LLC 66736

spp.depth.max 2
spp.depth.min 0
spp.depth.avg 0

spp.breadth.max 2
spp.breadth.min 0
spp.breadth.avg 0

delta_1 36694
delta_-16 2506
delta_-1 1636
delta_8 1107
delta_-8 1029
delta_-26 982
delta_-2 958
delta_-13 905
delta_-18 826
delta_37 815
delta_-3 744
delta_18 733
delta_7 724
delta_-23 720
delta_21 697
delta_26 684
delta_-5 581
delta_-40 580
delta_-47 575
delta_-10 554
delta_17 545
delta_5 510
delta_13 458
delta_10 455
delta_3 428
delta_-21 355
delta_-42 349
delta_35 341
delta_14 334
delta_9 332
delta_20 323
delta_-7 307
delta_28 300
delta_15 289
delta_11 286
delta_39 285
delta_-4 273
delta_23 263
delta_29 259
delta_49 249
delta_-15 248
delta_-31 248
delta_34 245
delta_31 228
delta_41 227
delta_42 215
delta_-43 203
delta_-39 202
delta_-12 197
delta_36 196
delta_-19 193
delta_12 193
delta_50 181
delta_16 177
delta_32 167
delta_6 165
delta_56 162
delta_-9 159
delta_52 156
delta_-17 150
delta_-44 144
delta_-14 144
delta_33 132
delta_-29 128
delta_47 112
delta_-52 109
delta_19 108
delta_44 104
delta_-46 103
delta_22 102
delta_53 101
delta_-11 95
delta_4 95
delta_40 93
delta_2 88
delta_-25 87
delta_-37 87
delta_-32 85
delta_-41 81
delta_30 78
delta_-28 75
delta_-35 65
delta_25 62
delta_-24 59
delta_-57 55
delta_-45 53
delta_27 53
delta_-30 51
delta_54 51
delta_-6 39
delta_-36 38
delta_-59 35
delta_-50 31
delta_24 25
delta_43 21
delta_61 21
delta_60 19
delta_-34 16
delta_-27 11
delta_-54 10
delta_38 8
delta_-38 8
delta_-63 4
delta_-55 2
delta_59 1
delta_-22 1
delta_-20 1
delta_-53 1

depth_1_delta_1 36664
depth_1_delta_-16 2506
depth_1_delta_-1 1626
depth_1_delta_8 1107
depth_1_delta_-8 1029
depth_1_delta_-26 982
depth_1_delta_-2 958
depth_1_delta_-13 905
depth_1_delta_-18 826
depth_1_delta_37 815
depth_1_delta_-3 744
depth_1_delta_18 733
depth_1_delta_7 724
depth_1_delta_-23 720
depth_1_delta_21 697
depth_1_delta_26 684
depth_1_delta_-5 581
depth_1_delta_-40 580
depth_1_delta_-47 575
depth_1_delta_17 545
depth_1_delta_-10 535
depth_1_delta_5 510
depth_1_delta_13 458
depth_1_delta_10 455
depth_1_delta_3 428
depth_1_delta_-21 355
depth_1_delta_-42 349
depth_1_delta_35 341
depth_1_delta_14 334
depth_1_delta_9 332
depth_1_delta_20 323
depth_1_delta_-7 307
depth_1_delta_28 300
depth_1_delta_15 289
depth_1_delta_11 286
depth_1_delta_39 285
depth_1_delta_-4 273
depth_1_delta_23 263
depth_1_delta_29 259
depth_1_delta_49 249
depth_1_delta_-15 248
depth_1_delta_-31 248
depth_1_delta_34 245
depth_1_delta_31 228
depth_1_delta_41 227
depth_1_delta_42 215
depth_1_delta_-43 203
depth_1_delta_-39 202
depth_1_delta_-12 197
depth_1_delta_36 196
depth_1_delta_-19 193
depth_1_delta_12 193
depth_1_delta_50 181
depth_1_delta_16 177
depth_1_delta_32 167
depth_1_delta_6 165
depth_1_delta_56 162
depth_1_delta_-9 159
depth_1_delta_52 156
depth_1_delta_-17 150
depth_1_delta_-44 144
depth_1_delta_-14 144
depth_1_delta_33 132
depth_1_delta_-29 128
depth_1_delta_47 112
depth_1_delta_-52 109
depth_1_delta_19 108
depth_1_delta_44 104
depth_1_delta_-46 103
depth_1_delta_22 102
depth_1_delta_53 101
depth_1_delta_-11 95
depth_1_delta_4 95
depth_1_delta_40 93
depth_1_delta_2 88
depth_1_delta_-25 87
depth_1_delta_-37 87
depth_1_delta_-32 85
depth_1_delta_-41 81
depth_1_delta_30 78
depth_1_delta_-28 75
depth_1_delta_-35 65
depth_1_delta_25 62
depth_1_delta_-24 59
depth_1_delta_-57 55
depth_1_delta_-45 53
depth_1_delta_27 53
depth_1_delta_-30 51
depth_1_delta_54 51
depth_1_delta_-6 39
depth_1_delta_-36 38
depth_1_delta_-59 35
depth_1_delta_-50 31
depth_1_delta_24 25
depth_1_delta_43 21
depth_1_delta_61 21
depth_1_delta_60 19
depth_1_delta_-34 16
depth_1_delta_-27 11
depth_1_delta_-54 10
depth_1_delta_38 8
depth_1_delta_-38 8
depth_1_delta_-63 4
depth_1_delta_-55 2
depth_1_delta_59 1
depth_1_delta_-22 1
depth_1_delta_-20 1
depth_1_delta_-53 1
depth_2_delta_1 30
depth_2_delta_-10 19
depth_2_delta_-1 10

Channel_0_RQ_row_buffer_hit 21962
Channel_0_RQ_row_buffer_miss 26706636
Channel_0_WQ_row_buffer_hit 3903
Channel_0_WQ_row_buffer_miss 29625
Channel_0_WQ_full 0
Channel_0_dbus_congested 8805

avg_congested_cycle 1

DRAM_bw_pochs 29158485
DRAM_bw_level_0 29158485
DRAM_bw_level_1 0
DRAM_bw_level_2 0
DRAM_bw_level_3 0
