*************************************************
   ChampSim Multicore Out-of-Order Simulator
   Last compiled: Dec 11 2024 17:59:53
*************************************************
parsing config file: /home/functionmain/桌面/Pythia/config/bingo.ini

trace_0 /home/functionmain/桌面/Pythia/traces/429.mcf-51B.champsimtrace.xz
adding L2C_PREFETCHER: Bingo
Initialize SHIP state
warmup_instructions 100000000
simulation_instructions 500000000
champsim_seed 168
measure_ipc 0
measure_ipc_epoch 1000
measure_dram_bw 1
measure_dram_bw_epoch 256
measure_cache_acc 1
measure_cache_acc_epoch 1024
l1d_perfect 0
l2c_perfect 0
llc_perfect 0
l1d_semi_perfect 0
l2c_semi_perfect 0
llc_semi_perfect 0
semi_perfect_cache_page_buffer_size 64

num_cpus 1
cpu_freq 4000
dram_io_freq 300
page_size 4096
block_size 64
max_read_per_cycle 8
max_fill_per_cycle 1
dram_channels 1
log2_dram_channels 0
dram_ranks 1
dram_banks 8
dram_rows 65536
dram_columns 128
dram_row_size 8
dram_size 4096
dram_pages 1048576

fetch_width 6
decode_width 6
exec_width 4
lq_width 2
sq_width 2
retire_width 4
scheduler_size 128
branch_mispredict_penalty 20
rob_size 256
lq_size 72
sq_size 56
num_instr_destinations_sparc 4
num_instr_destinations 2
num_instr_sources 4

itlb_set 16
itlb_way 8
itlb_rq_size 16
itlb_wq_size 16
itlb_pq_size 0
itlb_mshr_size 8
itlb_latency 1

dtlb_set 16
dtlb_way 4
dtlb_rq_size 16
dtlb_wq_size 16
dtlb_pq_size 0
dtlb_mshr_size 8
dtlb_latency 1

stlb_set 128
stlb_way 12
stlb_rq_size 32
stlb_wq_size 32
stlb_pq_size 0
stlb_mshr_size 16
stlb_latency 8

l1i_size 32
l1i_set 64
l1i_way 8
l1i_rq_size 64
l1i_wq_size 64
l1i_pq_size 8
l1i_mshr_size 8
l1i_latency 1

l1d_size 32
l1d_set 64
l1d_way 8
l1d_rq_size 64
l1d_wq_size 64
l1d_pq_size 8
l1d_mshr_size 16
l1d_latency 4

l2c_size 256
l2c_set 512
l2c_way 8
l2c_rq_size 32
l2c_wq_size 32
l2c_pq_size 32
l2c_mshr_size 32
l2c_latency 10

llc_size 2048
llc_set 2048
llc_way 16
llc_rq_size 32
llc_wq_size 32
llc_pq_size 32
llc_mshr_size 64
llc_latency 20

dram_channel_width 8
dram_wq_size 64
dram_rq_size 64
tRP 15
tRCD 15
tCAS 12.5
dram_dbus_turn_around_time 30
dram_write_high_wm 56
dram_write_low_wm 48
min_dram_writes_per_switch 16
dram_mtps 300
dram_dbus_return_time 106

bingo_region_size 2048
bingo_pattern_len 32
bingo_pc_width 16
bingo_min_addr_width 5
bingo_max_addr_width 16
bingo_ft_size 64
bingo_at_size 128
bingo_pht_size 4096
bingo_pht_ways 16
bingo_pf_streamer_size 128
bingo_debug_level 0
bingo_l1d_thresh 1.01
bingo_l2c_thresh 0.8
bingo_llc_thresh 0.05
bingo_pc_address_fill_level L2


Heartbeat CPU  0 instructions:    1000002 cycles:     854827 heartbeat IPC: 1.16983 cumulative IPC: 1.16983 (Simulation time: 0 hr 0 min 2 sec) 
Heartbeat CPU  0 instructions:    2000000 cycles:    1627817 heartbeat IPC: 1.29368 cumulative IPC: 1.22864 (Simulation time: 0 hr 0 min 5 sec) 
Heartbeat CPU  0 instructions:    3000002 cycles:    2418980 heartbeat IPC: 1.26396 cumulative IPC: 1.24019 (Simulation time: 0 hr 0 min 8 sec) 
Heartbeat CPU  0 instructions:    4000000 cycles:    3238640 heartbeat IPC: 1.22002 cumulative IPC: 1.23509 (Simulation time: 0 hr 0 min 10 sec) 
Heartbeat CPU  0 instructions:    5000002 cycles:    4020074 heartbeat IPC: 1.27970 cumulative IPC: 1.24376 (Simulation time: 0 hr 0 min 12 sec) 
Heartbeat CPU  0 instructions:    6000001 cycles:    4787592 heartbeat IPC: 1.30290 cumulative IPC: 1.25324 (Simulation time: 0 hr 0 min 15 sec) 
Heartbeat CPU  0 instructions:    7000000 cycles:    5565417 heartbeat IPC: 1.28563 cumulative IPC: 1.25777 (Simulation time: 0 hr 0 min 17 sec) 
Heartbeat CPU  0 instructions:    8000000 cycles:    6414207 heartbeat IPC: 1.17815 cumulative IPC: 1.24723 (Simulation time: 0 hr 0 min 19 sec) 
Heartbeat CPU  0 instructions:    9000001 cycles:    7205821 heartbeat IPC: 1.26324 cumulative IPC: 1.24899 (Simulation time: 0 hr 0 min 21 sec) 
Heartbeat CPU  0 instructions:   10000000 cycles:    8006913 heartbeat IPC: 1.24829 cumulative IPC: 1.24892 (Simulation time: 0 hr 0 min 24 sec) 
Heartbeat CPU  0 instructions:   11000002 cycles:    8855004 heartbeat IPC: 1.17912 cumulative IPC: 1.24224 (Simulation time: 0 hr 0 min 26 sec) 
Heartbeat CPU  0 instructions:   12000000 cycles:    9706505 heartbeat IPC: 1.17439 cumulative IPC: 1.23628 (Simulation time: 0 hr 0 min 28 sec) 
Heartbeat CPU  0 instructions:   13000000 cycles:   10515738 heartbeat IPC: 1.23574 cumulative IPC: 1.23624 (Simulation time: 0 hr 0 min 31 sec) 
Heartbeat CPU  0 instructions:   14000002 cycles:   11285509 heartbeat IPC: 1.29909 cumulative IPC: 1.24053 (Simulation time: 0 hr 0 min 33 sec) 
Heartbeat CPU  0 instructions:   15000001 cycles:   12060081 heartbeat IPC: 1.29103 cumulative IPC: 1.24377 (Simulation time: 0 hr 0 min 35 sec) 
Heartbeat CPU  0 instructions:   16000000 cycles:   12852306 heartbeat IPC: 1.26227 cumulative IPC: 1.24491 (Simulation time: 0 hr 0 min 37 sec) 
Heartbeat CPU  0 instructions:   17000000 cycles:   13655264 heartbeat IPC: 1.24540 cumulative IPC: 1.24494 (Simulation time: 0 hr 0 min 40 sec) 
Heartbeat CPU  0 instructions:   18000002 cycles:   14430063 heartbeat IPC: 1.29066 cumulative IPC: 1.24740 (Simulation time: 0 hr 0 min 42 sec) 
Heartbeat CPU  0 instructions:   19000000 cycles:   15253761 heartbeat IPC: 1.21403 cumulative IPC: 1.24559 (Simulation time: 0 hr 0 min 44 sec) 
Heartbeat CPU  0 instructions:   20000000 cycles:   16096698 heartbeat IPC: 1.18633 cumulative IPC: 1.24249 (Simulation time: 0 hr 0 min 46 sec) 
Heartbeat CPU  0 instructions:   21000001 cycles:   16891813 heartbeat IPC: 1.25768 cumulative IPC: 1.24321 (Simulation time: 0 hr 0 min 49 sec) 
Heartbeat CPU  0 instructions:   22000000 cycles:   17682121 heartbeat IPC: 1.26533 cumulative IPC: 1.24419 (Simulation time: 0 hr 0 min 51 sec) 
Heartbeat CPU  0 instructions:   23000001 cycles:   18490415 heartbeat IPC: 1.23717 cumulative IPC: 1.24389 (Simulation time: 0 hr 0 min 53 sec) 
Heartbeat CPU  0 instructions:   24000000 cycles:   19285985 heartbeat IPC: 1.25696 cumulative IPC: 1.24443 (Simulation time: 0 hr 0 min 55 sec) 
Heartbeat CPU  0 instructions:   25000003 cycles:   20087679 heartbeat IPC: 1.24736 cumulative IPC: 1.24454 (Simulation time: 0 hr 0 min 58 sec) 
Heartbeat CPU  0 instructions:   26000002 cycles:   20891541 heartbeat IPC: 1.24399 cumulative IPC: 1.24452 (Simulation time: 0 hr 1 min 0 sec) 
Heartbeat CPU  0 instructions:   27000000 cycles:   21705847 heartbeat IPC: 1.22804 cumulative IPC: 1.24390 (Simulation time: 0 hr 1 min 2 sec) 
Heartbeat CPU  0 instructions:   28000000 cycles:   22552298 heartbeat IPC: 1.18140 cumulative IPC: 1.24156 (Simulation time: 0 hr 1 min 4 sec) 
Heartbeat CPU  0 instructions:   29000000 cycles:   23325415 heartbeat IPC: 1.29347 cumulative IPC: 1.24328 (Simulation time: 0 hr 1 min 7 sec) 
Heartbeat CPU  0 instructions:   30000000 cycles:   24146221 heartbeat IPC: 1.21831 cumulative IPC: 1.24243 (Simulation time: 0 hr 1 min 10 sec) 
Heartbeat CPU  0 instructions:   31000002 cycles:   25005916 heartbeat IPC: 1.16321 cumulative IPC: 1.23971 (Simulation time: 0 hr 1 min 12 sec) 
Heartbeat CPU  0 instructions:   32000000 cycles:   25869416 heartbeat IPC: 1.15808 cumulative IPC: 1.23698 (Simulation time: 0 hr 1 min 14 sec) 
Heartbeat CPU  0 instructions:   33000002 cycles:   26625615 heartbeat IPC: 1.32241 cumulative IPC: 1.23941 (Simulation time: 0 hr 1 min 17 sec) 
Heartbeat CPU  0 instructions:   34000003 cycles:   27486984 heartbeat IPC: 1.16094 cumulative IPC: 1.23695 (Simulation time: 0 hr 1 min 19 sec) 
Heartbeat CPU  0 instructions:   35000001 cycles:   28345393 heartbeat IPC: 1.16494 cumulative IPC: 1.23477 (Simulation time: 0 hr 1 min 21 sec) 
Heartbeat CPU  0 instructions:   36000000 cycles:   29169311 heartbeat IPC: 1.21371 cumulative IPC: 1.23417 (Simulation time: 0 hr 1 min 23 sec) 
Heartbeat CPU  0 instructions:   37000003 cycles:   29940473 heartbeat IPC: 1.29675 cumulative IPC: 1.23579 (Simulation time: 0 hr 1 min 26 sec) 
Heartbeat CPU  0 instructions:   38000003 cycles:   30746442 heartbeat IPC: 1.24074 cumulative IPC: 1.23592 (Simulation time: 0 hr 1 min 28 sec) 
Heartbeat CPU  0 instructions:   39000000 cycles:   31467321 heartbeat IPC: 1.38719 cumulative IPC: 1.23938 (Simulation time: 0 hr 1 min 30 sec) 
Heartbeat CPU  0 instructions:   40000000 cycles:   32174319 heartbeat IPC: 1.41443 cumulative IPC: 1.24323 (Simulation time: 0 hr 1 min 32 sec) 
Heartbeat CPU  0 instructions:   41000003 cycles:   32925973 heartbeat IPC: 1.33040 cumulative IPC: 1.24522 (Simulation time: 0 hr 1 min 35 sec) 
Heartbeat CPU  0 instructions:   42000001 cycles:   33607193 heartbeat IPC: 1.46795 cumulative IPC: 1.24973 (Simulation time: 0 hr 1 min 37 sec) 
Heartbeat CPU  0 instructions:   43000000 cycles:   34297904 heartbeat IPC: 1.44778 cumulative IPC: 1.25372 (Simulation time: 0 hr 1 min 39 sec) 
Heartbeat CPU  0 instructions:   44000000 cycles:   35042731 heartbeat IPC: 1.34259 cumulative IPC: 1.25561 (Simulation time: 0 hr 1 min 41 sec) 
Heartbeat CPU  0 instructions:   45000000 cycles:   35893701 heartbeat IPC: 1.17513 cumulative IPC: 1.25370 (Simulation time: 0 hr 1 min 44 sec) 
Heartbeat CPU  0 instructions:   46000000 cycles:   36847636 heartbeat IPC: 1.04829 cumulative IPC: 1.24838 (Simulation time: 0 hr 1 min 46 sec) 
Heartbeat CPU  0 instructions:   47000001 cycles:   37875958 heartbeat IPC: 0.97246 cumulative IPC: 1.24089 (Simulation time: 0 hr 1 min 48 sec) 
Heartbeat CPU  0 instructions:   48000000 cycles:   38874278 heartbeat IPC: 1.00168 cumulative IPC: 1.23475 (Simulation time: 0 hr 1 min 50 sec) 
Heartbeat CPU  0 instructions:   49000001 cycles:   39766885 heartbeat IPC: 1.12031 cumulative IPC: 1.23218 (Simulation time: 0 hr 1 min 53 sec) 
Heartbeat CPU  0 instructions:   50000001 cycles:   40621559 heartbeat IPC: 1.17004 cumulative IPC: 1.23087 (Simulation time: 0 hr 1 min 55 sec) 
Heartbeat CPU  0 instructions:   51000002 cycles:   41612570 heartbeat IPC: 1.00907 cumulative IPC: 1.22559 (Simulation time: 0 hr 1 min 57 sec) 
Heartbeat CPU  0 instructions:   52000000 cycles:   42558808 heartbeat IPC: 1.05681 cumulative IPC: 1.22184 (Simulation time: 0 hr 1 min 59 sec) 
Heartbeat CPU  0 instructions:   53000002 cycles:   43455193 heartbeat IPC: 1.11559 cumulative IPC: 1.21965 (Simulation time: 0 hr 2 min 1 sec) 
Heartbeat CPU  0 instructions:   54000002 cycles:   44247374 heartbeat IPC: 1.26234 cumulative IPC: 1.22041 (Simulation time: 0 hr 2 min 4 sec) 
Heartbeat CPU  0 instructions:   55000001 cycles:   45136108 heartbeat IPC: 1.12519 cumulative IPC: 1.21854 (Simulation time: 0 hr 2 min 6 sec) 
Heartbeat CPU  0 instructions:   56000000 cycles:   46097522 heartbeat IPC: 1.04013 cumulative IPC: 1.21482 (Simulation time: 0 hr 2 min 8 sec) 
Heartbeat CPU  0 instructions:   57000001 cycles:   46944168 heartbeat IPC: 1.18113 cumulative IPC: 1.21421 (Simulation time: 0 hr 2 min 10 sec) 
Heartbeat CPU  0 instructions:   58000000 cycles:   47767201 heartbeat IPC: 1.21502 cumulative IPC: 1.21422 (Simulation time: 0 hr 2 min 12 sec) 
Heartbeat CPU  0 instructions:   59000001 cycles:   48546200 heartbeat IPC: 1.28370 cumulative IPC: 1.21534 (Simulation time: 0 hr 2 min 15 sec) 
Heartbeat CPU  0 instructions:   60000000 cycles:   49368242 heartbeat IPC: 1.21648 cumulative IPC: 1.21536 (Simulation time: 0 hr 2 min 17 sec) 
Heartbeat CPU  0 instructions:   61000002 cycles:   50231769 heartbeat IPC: 1.15804 cumulative IPC: 1.21437 (Simulation time: 0 hr 2 min 19 sec) 
Heartbeat CPU  0 instructions:   62000000 cycles:   51044808 heartbeat IPC: 1.22995 cumulative IPC: 1.21462 (Simulation time: 0 hr 2 min 22 sec) 
Heartbeat CPU  0 instructions:   63000001 cycles:   51804620 heartbeat IPC: 1.31612 cumulative IPC: 1.21611 (Simulation time: 0 hr 2 min 24 sec) 
Heartbeat CPU  0 instructions:   64000000 cycles:   52595736 heartbeat IPC: 1.26404 cumulative IPC: 1.21683 (Simulation time: 0 hr 2 min 26 sec) 
Heartbeat CPU  0 instructions:   65000000 cycles:   53391119 heartbeat IPC: 1.25726 cumulative IPC: 1.21743 (Simulation time: 0 hr 2 min 28 sec) 
Heartbeat CPU  0 instructions:   66000002 cycles:   54180730 heartbeat IPC: 1.26645 cumulative IPC: 1.21815 (Simulation time: 0 hr 2 min 31 sec) 
Heartbeat CPU  0 instructions:   67000003 cycles:   55014070 heartbeat IPC: 1.19999 cumulative IPC: 1.21787 (Simulation time: 0 hr 2 min 34 sec) 
Heartbeat CPU  0 instructions:   68000000 cycles:   55933060 heartbeat IPC: 1.08815 cumulative IPC: 1.21574 (Simulation time: 0 hr 2 min 36 sec) 
Heartbeat CPU  0 instructions:   69000000 cycles:   56825175 heartbeat IPC: 1.12093 cumulative IPC: 1.21425 (Simulation time: 0 hr 2 min 38 sec) 
Heartbeat CPU  0 instructions:   70000001 cycles:   57680948 heartbeat IPC: 1.16854 cumulative IPC: 1.21357 (Simulation time: 0 hr 2 min 40 sec) 
Heartbeat CPU  0 instructions:   71000000 cycles:   58490165 heartbeat IPC: 1.23576 cumulative IPC: 1.21388 (Simulation time: 0 hr 2 min 43 sec) 
Heartbeat CPU  0 instructions:   72000000 cycles:   59420281 heartbeat IPC: 1.07513 cumulative IPC: 1.21171 (Simulation time: 0 hr 2 min 45 sec) 
Heartbeat CPU  0 instructions:   73000000 cycles:   60335527 heartbeat IPC: 1.09260 cumulative IPC: 1.20990 (Simulation time: 0 hr 2 min 47 sec) 
Heartbeat CPU  0 instructions:   74000000 cycles:   61185032 heartbeat IPC: 1.17716 cumulative IPC: 1.20945 (Simulation time: 0 hr 2 min 49 sec) 
Heartbeat CPU  0 instructions:   75000002 cycles:   62011130 heartbeat IPC: 1.21051 cumulative IPC: 1.20946 (Simulation time: 0 hr 2 min 52 sec) 
Heartbeat CPU  0 instructions:   76000000 cycles:   62933366 heartbeat IPC: 1.08432 cumulative IPC: 1.20763 (Simulation time: 0 hr 2 min 54 sec) 
Heartbeat CPU  0 instructions:   77000003 cycles:   63863407 heartbeat IPC: 1.07522 cumulative IPC: 1.20570 (Simulation time: 0 hr 2 min 56 sec) 
Heartbeat CPU  0 instructions:   78000000 cycles:   64703253 heartbeat IPC: 1.19069 cumulative IPC: 1.20550 (Simulation time: 0 hr 2 min 58 sec) 
Heartbeat CPU  0 instructions:   79000002 cycles:   65521117 heartbeat IPC: 1.22270 cumulative IPC: 1.20572 (Simulation time: 0 hr 3 min 1 sec) 
Heartbeat CPU  0 instructions:   80000000 cycles:   66396152 heartbeat IPC: 1.14281 cumulative IPC: 1.20489 (Simulation time: 0 hr 3 min 3 sec) 
Heartbeat CPU  0 instructions:   81000001 cycles:   67236297 heartbeat IPC: 1.19027 cumulative IPC: 1.20471 (Simulation time: 0 hr 3 min 5 sec) 
Heartbeat CPU  0 instructions:   82000000 cycles:   68246400 heartbeat IPC: 0.99000 cumulative IPC: 1.20153 (Simulation time: 0 hr 3 min 7 sec) 
Heartbeat CPU  0 instructions:   83000003 cycles:   69007313 heartbeat IPC: 1.31421 cumulative IPC: 1.20277 (Simulation time: 0 hr 3 min 11 sec) 
Heartbeat CPU  0 instructions:   84000000 cycles:   69794254 heartbeat IPC: 1.27074 cumulative IPC: 1.20354 (Simulation time: 0 hr 3 min 13 sec) 
Heartbeat CPU  0 instructions:   85000001 cycles:   70563946 heartbeat IPC: 1.29922 cumulative IPC: 1.20458 (Simulation time: 0 hr 3 min 14 sec) 
Heartbeat CPU  0 instructions:   86000002 cycles:   71338716 heartbeat IPC: 1.29071 cumulative IPC: 1.20552 (Simulation time: 0 hr 3 min 16 sec) 
Heartbeat CPU  0 instructions:   87000000 cycles:   72098688 heartbeat IPC: 1.31584 cumulative IPC: 1.20668 (Simulation time: 0 hr 3 min 20 sec) 
Heartbeat CPU  0 instructions:   88000000 cycles:   72861999 heartbeat IPC: 1.31008 cumulative IPC: 1.20776 (Simulation time: 0 hr 3 min 22 sec) 
Heartbeat CPU  0 instructions:   89000002 cycles:   73621097 heartbeat IPC: 1.31736 cumulative IPC: 1.20889 (Simulation time: 0 hr 3 min 24 sec) 
Heartbeat CPU  0 instructions:   90000001 cycles:   74389748 heartbeat IPC: 1.30098 cumulative IPC: 1.20984 (Simulation time: 0 hr 3 min 25 sec) 
Heartbeat CPU  0 instructions:   91000001 cycles:   75151390 heartbeat IPC: 1.31295 cumulative IPC: 1.21089 (Simulation time: 0 hr 3 min 29 sec) 
Heartbeat CPU  0 instructions:   92000000 cycles:   75893344 heartbeat IPC: 1.34779 cumulative IPC: 1.21223 (Simulation time: 0 hr 3 min 31 sec) 
Heartbeat CPU  0 instructions:   93000000 cycles:   76680057 heartbeat IPC: 1.27111 cumulative IPC: 1.21283 (Simulation time: 0 hr 3 min 32 sec) 
Heartbeat CPU  0 instructions:   94000001 cycles:   77561614 heartbeat IPC: 1.13436 cumulative IPC: 1.21194 (Simulation time: 0 hr 3 min 35 sec) 
Heartbeat CPU  0 instructions:   95000003 cycles:   78341411 heartbeat IPC: 1.28239 cumulative IPC: 1.21264 (Simulation time: 0 hr 3 min 38 sec) 
Heartbeat CPU  0 instructions:   96000000 cycles:   79174623 heartbeat IPC: 1.20017 cumulative IPC: 1.21251 (Simulation time: 0 hr 3 min 40 sec) 
Heartbeat CPU  0 instructions:   97000001 cycles:   79912001 heartbeat IPC: 1.35616 cumulative IPC: 1.21384 (Simulation time: 0 hr 3 min 42 sec) 
Heartbeat CPU  0 instructions:   98000000 cycles:   80628379 heartbeat IPC: 1.39591 cumulative IPC: 1.21545 (Simulation time: 0 hr 3 min 44 sec) 
Heartbeat CPU  0 instructions:   99000000 cycles:   81353897 heartbeat IPC: 1.37833 cumulative IPC: 1.21691 (Simulation time: 0 hr 3 min 46 sec) 
Heartbeat CPU  0 instructions:  100000000 cycles:   82089111 heartbeat IPC: 1.36015 cumulative IPC: 1.21819 (Simulation time: 0 hr 3 min 49 sec) 

Warmup complete CPU  0 instructions:  100000001 cycles:   82089112 (Simulation time: 0 hr 3 min 49 sec) 

Heartbeat CPU  0 instructions:  101000003 cycles:  123379511 heartbeat IPC: 0.02422 cumulative IPC: 0.02422 (Simulation time: 0 hr 4 min 6 sec) 
Heartbeat CPU  0 instructions:  102000002 cycles:  146647294 heartbeat IPC: 0.04298 cumulative IPC: 0.03098 (Simulation time: 0 hr 4 min 16 sec) 
Heartbeat CPU  0 instructions:  103000002 cycles:  167453671 heartbeat IPC: 0.04806 cumulative IPC: 0.03514 (Simulation time: 0 hr 4 min 25 sec) 
Heartbeat CPU  0 instructions:  104000000 cycles:  252314901 heartbeat IPC: 0.01178 cumulative IPC: 0.02350 (Simulation time: 0 hr 5 min 3 sec) 
Heartbeat CPU  0 instructions:  105000001 cycles:  283796290 heartbeat IPC: 0.03176 cumulative IPC: 0.02479 (Simulation time: 0 hr 5 min 17 sec) 
Heartbeat CPU  0 instructions:  106000002 cycles:  304563108 heartbeat IPC: 0.04815 cumulative IPC: 0.02697 (Simulation time: 0 hr 5 min 26 sec) 
Heartbeat CPU  0 instructions:  107000000 cycles:  323238896 heartbeat IPC: 0.05355 cumulative IPC: 0.02903 (Simulation time: 0 hr 5 min 35 sec) 
Heartbeat CPU  0 instructions:  108000000 cycles:  390316855 heartbeat IPC: 0.01491 cumulative IPC: 0.02595 (Simulation time: 0 hr 6 min 5 sec) 
Heartbeat CPU  0 instructions:  109000000 cycles:  441098698 heartbeat IPC: 0.01969 cumulative IPC: 0.02507 (Simulation time: 0 hr 6 min 27 sec) 
Heartbeat CPU  0 instructions:  110000000 cycles:  458809706 heartbeat IPC: 0.05646 cumulative IPC: 0.02654 (Simulation time: 0 hr 6 min 36 sec) 
Heartbeat CPU  0 instructions:  111000002 cycles:  476915450 heartbeat IPC: 0.05523 cumulative IPC: 0.02786 (Simulation time: 0 hr 6 min 44 sec) 
Heartbeat CPU  0 instructions:  112000000 cycles:  524098830 heartbeat IPC: 0.02119 cumulative IPC: 0.02715 (Simulation time: 0 hr 7 min 6 sec) 
Heartbeat CPU  0 instructions:  113000000 cycles:  593300648 heartbeat IPC: 0.01445 cumulative IPC: 0.02543 (Simulation time: 0 hr 7 min 36 sec) 
Heartbeat CPU  0 instructions:  114000003 cycles:  610699807 heartbeat IPC: 0.05747 cumulative IPC: 0.02648 (Simulation time: 0 hr 7 min 44 sec) 
Heartbeat CPU  0 instructions:  115000003 cycles:  629425356 heartbeat IPC: 0.05340 cumulative IPC: 0.02741 (Simulation time: 0 hr 7 min 53 sec) 
Heartbeat CPU  0 instructions:  116000000 cycles:  656502980 heartbeat IPC: 0.03693 cumulative IPC: 0.02785 (Simulation time: 0 hr 8 min 5 sec) 
Heartbeat CPU  0 instructions:  117000002 cycles:  745660695 heartbeat IPC: 0.01122 cumulative IPC: 0.02562 (Simulation time: 0 hr 8 min 45 sec) 
Heartbeat CPU  0 instructions:  118000001 cycles:  761168472 heartbeat IPC: 0.06448 cumulative IPC: 0.02651 (Simulation time: 0 hr 8 min 52 sec) 
Heartbeat CPU  0 instructions:  119000001 cycles:  791507340 heartbeat IPC: 0.03296 cumulative IPC: 0.02678 (Simulation time: 0 hr 9 min 5 sec) 
Heartbeat CPU  0 instructions:  120000000 cycles:  810539068 heartbeat IPC: 0.05254 cumulative IPC: 0.02746 (Simulation time: 0 hr 9 min 14 sec) 
Heartbeat CPU  0 instructions:  121000002 cycles:  859848463 heartbeat IPC: 0.02028 cumulative IPC: 0.02700 (Simulation time: 0 hr 9 min 36 sec) 
Heartbeat CPU  0 instructions:  122000000 cycles:  934623229 heartbeat IPC: 0.01337 cumulative IPC: 0.02581 (Simulation time: 0 hr 10 min 9 sec) 
Heartbeat CPU  0 instructions:  123000000 cycles:  956369987 heartbeat IPC: 0.04598 cumulative IPC: 0.02631 (Simulation time: 0 hr 10 min 19 sec) 
Heartbeat CPU  0 instructions:  124000000 cycles:  979665142 heartbeat IPC: 0.04293 cumulative IPC: 0.02674 (Simulation time: 0 hr 10 min 29 sec) 
Heartbeat CPU  0 instructions:  125000000 cycles: 1019591642 heartbeat IPC: 0.02505 cumulative IPC: 0.02667 (Simulation time: 0 hr 10 min 47 sec) 
Heartbeat CPU  0 instructions:  126000000 cycles: 1099432257 heartbeat IPC: 0.01252 cumulative IPC: 0.02556 (Simulation time: 0 hr 11 min 22 sec) 
Heartbeat CPU  0 instructions:  127000001 cycles: 1118908695 heartbeat IPC: 0.05134 cumulative IPC: 0.02604 (Simulation time: 0 hr 11 min 31 sec) 
Heartbeat CPU  0 instructions:  128000000 cycles: 1141339334 heartbeat IPC: 0.04458 cumulative IPC: 0.02643 (Simulation time: 0 hr 11 min 40 sec) 
Heartbeat CPU  0 instructions:  129000001 cycles: 1173995631 heartbeat IPC: 0.03062 cumulative IPC: 0.02656 (Simulation time: 0 hr 11 min 55 sec) 
Heartbeat CPU  0 instructions:  130000003 cycles: 1261229086 heartbeat IPC: 0.01146 cumulative IPC: 0.02544 (Simulation time: 0 hr 12 min 34 sec) 
Heartbeat CPU  0 instructions:  131000002 cycles: 1281621929 heartbeat IPC: 0.04904 cumulative IPC: 0.02584 (Simulation time: 0 hr 12 min 42 sec) 
Heartbeat CPU  0 instructions:  132000000 cycles: 1298138169 heartbeat IPC: 0.06055 cumulative IPC: 0.02631 (Simulation time: 0 hr 12 min 50 sec) 
Heartbeat CPU  0 instructions:  133000000 cycles: 1315519208 heartbeat IPC: 0.05753 cumulative IPC: 0.02675 (Simulation time: 0 hr 12 min 58 sec) 
Heartbeat CPU  0 instructions:  134000001 cycles: 1392302753 heartbeat IPC: 0.01302 cumulative IPC: 0.02595 (Simulation time: 0 hr 13 min 33 sec) 
Heartbeat CPU  0 instructions:  135000000 cycles: 1430886286 heartbeat IPC: 0.02592 cumulative IPC: 0.02595 (Simulation time: 0 hr 13 min 50 sec) 
Heartbeat CPU  0 instructions:  136000000 cycles: 1446996138 heartbeat IPC: 0.06207 cumulative IPC: 0.02638 (Simulation time: 0 hr 13 min 57 sec) 
Heartbeat CPU  0 instructions:  137000002 cycles: 1463777446 heartbeat IPC: 0.05959 cumulative IPC: 0.02678 (Simulation time: 0 hr 14 min 5 sec) 
Heartbeat CPU  0 instructions:  138000001 cycles: 1526472011 heartbeat IPC: 0.01595 cumulative IPC: 0.02631 (Simulation time: 0 hr 14 min 34 sec) 
Heartbeat CPU  0 instructions:  139000000 cycles: 1580027926 heartbeat IPC: 0.01867 cumulative IPC: 0.02604 (Simulation time: 0 hr 14 min 58 sec) 
Heartbeat CPU  0 instructions:  140000000 cycles: 1596927737 heartbeat IPC: 0.05917 cumulative IPC: 0.02641 (Simulation time: 0 hr 15 min 6 sec) 
Heartbeat CPU  0 instructions:  141000000 cycles: 1613509072 heartbeat IPC: 0.06031 cumulative IPC: 0.02677 (Simulation time: 0 hr 15 min 14 sec) 
Heartbeat CPU  0 instructions:  142000000 cycles: 1668708799 heartbeat IPC: 0.01812 cumulative IPC: 0.02647 (Simulation time: 0 hr 15 min 39 sec) 
Heartbeat CPU  0 instructions:  143000003 cycles: 1730471122 heartbeat IPC: 0.01619 cumulative IPC: 0.02609 (Simulation time: 0 hr 16 min 7 sec) 
Heartbeat CPU  0 instructions:  144000000 cycles: 1746934160 heartbeat IPC: 0.06074 cumulative IPC: 0.02643 (Simulation time: 0 hr 16 min 14 sec) 
Heartbeat CPU  0 instructions:  145000002 cycles: 1763899614 heartbeat IPC: 0.05894 cumulative IPC: 0.02676 (Simulation time: 0 hr 16 min 23 sec) 
Heartbeat CPU  0 instructions:  146000000 cycles: 1810264683 heartbeat IPC: 0.02157 cumulative IPC: 0.02662 (Simulation time: 0 hr 16 min 44 sec) 
Heartbeat CPU  0 instructions:  147000003 cycles: 1880445292 heartbeat IPC: 0.01425 cumulative IPC: 0.02613 (Simulation time: 0 hr 17 min 15 sec) 
Heartbeat CPU  0 instructions:  148000000 cycles: 1896302160 heartbeat IPC: 0.06306 cumulative IPC: 0.02646 (Simulation time: 0 hr 17 min 23 sec) 
Heartbeat CPU  0 instructions:  149000001 cycles: 1913176968 heartbeat IPC: 0.05926 cumulative IPC: 0.02676 (Simulation time: 0 hr 17 min 31 sec) 
Heartbeat CPU  0 instructions:  150000002 cycles: 1954094944 heartbeat IPC: 0.02444 cumulative IPC: 0.02671 (Simulation time: 0 hr 17 min 50 sec) 
Heartbeat CPU  0 instructions:  151000001 cycles: 2030579566 heartbeat IPC: 0.01307 cumulative IPC: 0.02617 (Simulation time: 0 hr 18 min 24 sec) 
Heartbeat CPU  0 instructions:  152000000 cycles: 2047558074 heartbeat IPC: 0.05890 cumulative IPC: 0.02646 (Simulation time: 0 hr 18 min 32 sec) 
Heartbeat CPU  0 instructions:  153000000 cycles: 2065041136 heartbeat IPC: 0.05720 cumulative IPC: 0.02673 (Simulation time: 0 hr 18 min 40 sec) 
Heartbeat CPU  0 instructions:  154000000 cycles: 2090996041 heartbeat IPC: 0.03853 cumulative IPC: 0.02688 (Simulation time: 0 hr 18 min 52 sec) 
Heartbeat CPU  0 instructions:  155000000 cycles: 2182920831 heartbeat IPC: 0.01088 cumulative IPC: 0.02618 (Simulation time: 0 hr 19 min 33 sec) 
Heartbeat CPU  0 instructions:  156000000 cycles: 2198242272 heartbeat IPC: 0.06527 cumulative IPC: 0.02646 (Simulation time: 0 hr 19 min 40 sec) 
Heartbeat CPU  0 instructions:  157000000 cycles: 2219198783 heartbeat IPC: 0.04772 cumulative IPC: 0.02667 (Simulation time: 0 hr 19 min 49 sec) 
Heartbeat CPU  0 instructions:  158000001 cycles: 2240707428 heartbeat IPC: 0.04649 cumulative IPC: 0.02687 (Simulation time: 0 hr 19 min 58 sec) 
Heartbeat CPU  0 instructions:  159000000 cycles: 2313964214 heartbeat IPC: 0.01365 cumulative IPC: 0.02644 (Simulation time: 0 hr 20 min 31 sec) 
Heartbeat CPU  0 instructions:  160000000 cycles: 2360018374 heartbeat IPC: 0.02171 cumulative IPC: 0.02634 (Simulation time: 0 hr 20 min 50 sec) 
Heartbeat CPU  0 instructions:  161000003 cycles: 2381276614 heartbeat IPC: 0.04704 cumulative IPC: 0.02653 (Simulation time: 0 hr 20 min 58 sec) 
Heartbeat CPU  0 instructions:  162000000 cycles: 2408516094 heartbeat IPC: 0.03671 cumulative IPC: 0.02665 (Simulation time: 0 hr 21 min 11 sec) 
Heartbeat CPU  0 instructions:  163000000 cycles: 2460876811 heartbeat IPC: 0.01910 cumulative IPC: 0.02648 (Simulation time: 0 hr 21 min 35 sec) 
Heartbeat CPU  0 instructions:  164000000 cycles: 2530615492 heartbeat IPC: 0.01434 cumulative IPC: 0.02614 (Simulation time: 0 hr 22 min 6 sec) 
Heartbeat CPU  0 instructions:  165000002 cycles: 2560029283 heartbeat IPC: 0.03400 cumulative IPC: 0.02623 (Simulation time: 0 hr 22 min 19 sec) 
Heartbeat CPU  0 instructions:  166000003 cycles: 2587203545 heartbeat IPC: 0.03680 cumulative IPC: 0.02635 (Simulation time: 0 hr 22 min 31 sec) 
Heartbeat CPU  0 instructions:  167000000 cycles: 2627204752 heartbeat IPC: 0.02500 cumulative IPC: 0.02632 (Simulation time: 0 hr 22 min 49 sec) 
Heartbeat CPU  0 instructions:  168000000 cycles: 2708957862 heartbeat IPC: 0.01223 cumulative IPC: 0.02589 (Simulation time: 0 hr 23 min 25 sec) 
Heartbeat CPU  0 instructions:  169000000 cycles: 2730628721 heartbeat IPC: 0.04614 cumulative IPC: 0.02605 (Simulation time: 0 hr 23 min 35 sec) 
Heartbeat CPU  0 instructions:  170000000 cycles: 2755811022 heartbeat IPC: 0.03971 cumulative IPC: 0.02618 (Simulation time: 0 hr 23 min 46 sec) 
Heartbeat CPU  0 instructions:  171000003 cycles: 2806206524 heartbeat IPC: 0.01984 cumulative IPC: 0.02606 (Simulation time: 0 hr 24 min 9 sec) 
Heartbeat CPU  0 instructions:  172000000 cycles: 2878395100 heartbeat IPC: 0.01385 cumulative IPC: 0.02575 (Simulation time: 0 hr 24 min 41 sec) 
Heartbeat CPU  0 instructions:  173000000 cycles: 2899508362 heartbeat IPC: 0.04736 cumulative IPC: 0.02591 (Simulation time: 0 hr 24 min 51 sec) 
Heartbeat CPU  0 instructions:  174000002 cycles: 2923075855 heartbeat IPC: 0.04243 cumulative IPC: 0.02605 (Simulation time: 0 hr 25 min 1 sec) 
Heartbeat CPU  0 instructions:  175000003 cycles: 2963547854 heartbeat IPC: 0.02471 cumulative IPC: 0.02603 (Simulation time: 0 hr 25 min 20 sec) 
Heartbeat CPU  0 instructions:  176000000 cycles: 3042705935 heartbeat IPC: 0.01263 cumulative IPC: 0.02567 (Simulation time: 0 hr 25 min 55 sec) 
Heartbeat CPU  0 instructions:  177000002 cycles: 3061277939 heartbeat IPC: 0.05384 cumulative IPC: 0.02585 (Simulation time: 0 hr 26 min 4 sec) 
Heartbeat CPU  0 instructions:  178000001 cycles: 3081439261 heartbeat IPC: 0.04960 cumulative IPC: 0.02601 (Simulation time: 0 hr 26 min 13 sec) 
Heartbeat CPU  0 instructions:  179000002 cycles: 3129474514 heartbeat IPC: 0.02082 cumulative IPC: 0.02592 (Simulation time: 0 hr 26 min 36 sec) 
Heartbeat CPU  0 instructions:  180000000 cycles: 3201505078 heartbeat IPC: 0.01388 cumulative IPC: 0.02565 (Simulation time: 0 hr 27 min 7 sec) 
Heartbeat CPU  0 instructions:  181000002 cycles: 3218934421 heartbeat IPC: 0.05737 cumulative IPC: 0.02582 (Simulation time: 0 hr 27 min 15 sec) 
Heartbeat CPU  0 instructions:  182000000 cycles: 3238069421 heartbeat IPC: 0.05226 cumulative IPC: 0.02598 (Simulation time: 0 hr 27 min 24 sec) 
Heartbeat CPU  0 instructions:  183000001 cycles: 3278863623 heartbeat IPC: 0.02451 cumulative IPC: 0.02596 (Simulation time: 0 hr 27 min 43 sec) 
Heartbeat CPU  0 instructions:  184000000 cycles: 3357277529 heartbeat IPC: 0.01275 cumulative IPC: 0.02565 (Simulation time: 0 hr 28 min 17 sec) 
Heartbeat CPU  0 instructions:  185000001 cycles: 3374256841 heartbeat IPC: 0.05890 cumulative IPC: 0.02582 (Simulation time: 0 hr 28 min 25 sec) 
Heartbeat CPU  0 instructions:  186000000 cycles: 3392415236 heartbeat IPC: 0.05507 cumulative IPC: 0.02598 (Simulation time: 0 hr 28 min 33 sec) 
Heartbeat CPU  0 instructions:  187000001 cycles: 3422111102 heartbeat IPC: 0.03367 cumulative IPC: 0.02605 (Simulation time: 0 hr 28 min 47 sec) 
Heartbeat CPU  0 instructions:  188000000 cycles: 3511088955 heartbeat IPC: 0.01124 cumulative IPC: 0.02566 (Simulation time: 0 hr 29 min 26 sec) 
Heartbeat CPU  0 instructions:  189000001 cycles: 3528319890 heartbeat IPC: 0.05804 cumulative IPC: 0.02583 (Simulation time: 0 hr 29 min 34 sec) 
Heartbeat CPU  0 instructions:  190000001 cycles: 3548842060 heartbeat IPC: 0.04873 cumulative IPC: 0.02596 (Simulation time: 0 hr 29 min 43 sec) 
Heartbeat CPU  0 instructions:  191000000 cycles: 3571116846 heartbeat IPC: 0.04489 cumulative IPC: 0.02608 (Simulation time: 0 hr 29 min 53 sec) 
Heartbeat CPU  0 instructions:  192000000 cycles: 3649766958 heartbeat IPC: 0.01271 cumulative IPC: 0.02579 (Simulation time: 0 hr 30 min 29 sec) 
Heartbeat CPU  0 instructions:  193000001 cycles: 3689840096 heartbeat IPC: 0.02495 cumulative IPC: 0.02578 (Simulation time: 0 hr 30 min 46 sec) 
Heartbeat CPU  0 instructions:  194000000 cycles: 3710102938 heartbeat IPC: 0.04935 cumulative IPC: 0.02591 (Simulation time: 0 hr 30 min 55 sec) 
Heartbeat CPU  0 instructions:  195000000 cycles: 3733385103 heartbeat IPC: 0.04295 cumulative IPC: 0.02602 (Simulation time: 0 hr 31 min 5 sec) 
Heartbeat CPU  0 instructions:  196000000 cycles: 3807910243 heartbeat IPC: 0.01342 cumulative IPC: 0.02577 (Simulation time: 0 hr 31 min 39 sec) 
Heartbeat CPU  0 instructions:  197000000 cycles: 3852920201 heartbeat IPC: 0.02222 cumulative IPC: 0.02572 (Simulation time: 0 hr 31 min 59 sec) 
Heartbeat CPU  0 instructions:  198000000 cycles: 3876730627 heartbeat IPC: 0.04200 cumulative IPC: 0.02583 (Simulation time: 0 hr 32 min 10 sec) 
Heartbeat CPU  0 instructions:  199000000 cycles: 3901485686 heartbeat IPC: 0.04040 cumulative IPC: 0.02592 (Simulation time: 0 hr 32 min 21 sec) 
Heartbeat CPU  0 instructions:  200000000 cycles: 3992624024 heartbeat IPC: 0.01097 cumulative IPC: 0.02557 (Simulation time: 0 hr 33 min 2 sec) 
Heartbeat CPU  0 instructions:  201000001 cycles: 4021500330 heartbeat IPC: 0.03463 cumulative IPC: 0.02564 (Simulation time: 0 hr 33 min 15 sec) 
Heartbeat CPU  0 instructions:  202000003 cycles: 4046217048 heartbeat IPC: 0.04046 cumulative IPC: 0.02573 (Simulation time: 0 hr 33 min 26 sec) 
Heartbeat CPU  0 instructions:  203000003 cycles: 4081291867 heartbeat IPC: 0.02851 cumulative IPC: 0.02576 (Simulation time: 0 hr 33 min 42 sec) 
Heartbeat CPU  0 instructions:  204000000 cycles: 4169629228 heartbeat IPC: 0.01132 cumulative IPC: 0.02544 (Simulation time: 0 hr 34 min 22 sec) 
Heartbeat CPU  0 instructions:  205000000 cycles: 4193875687 heartbeat IPC: 0.04124 cumulative IPC: 0.02554 (Simulation time: 0 hr 34 min 33 sec) 
Heartbeat CPU  0 instructions:  206000002 cycles: 4221134189 heartbeat IPC: 0.03669 cumulative IPC: 0.02561 (Simulation time: 0 hr 34 min 45 sec) 
Heartbeat CPU  0 instructions:  207000002 cycles: 4260261405 heartbeat IPC: 0.02556 cumulative IPC: 0.02561 (Simulation time: 0 hr 35 min 4 sec) 
Heartbeat CPU  0 instructions:  208000000 cycles: 4342191084 heartbeat IPC: 0.01221 cumulative IPC: 0.02535 (Simulation time: 0 hr 35 min 40 sec) 
Heartbeat CPU  0 instructions:  209000002 cycles: 4363875969 heartbeat IPC: 0.04612 cumulative IPC: 0.02546 (Simulation time: 0 hr 35 min 50 sec) 
Heartbeat CPU  0 instructions:  210000002 cycles: 4390770426 heartbeat IPC: 0.03718 cumulative IPC: 0.02553 (Simulation time: 0 hr 36 min 2 sec) 
Heartbeat CPU  0 instructions:  211000000 cycles: 4445153592 heartbeat IPC: 0.01839 cumulative IPC: 0.02544 (Simulation time: 0 hr 36 min 27 sec) 
Heartbeat CPU  0 instructions:  212000000 cycles: 4513640771 heartbeat IPC: 0.01460 cumulative IPC: 0.02527 (Simulation time: 0 hr 36 min 57 sec) 
Heartbeat CPU  0 instructions:  213000002 cycles: 4537475819 heartbeat IPC: 0.04196 cumulative IPC: 0.02536 (Simulation time: 0 hr 37 min 8 sec) 
Heartbeat CPU  0 instructions:  214000001 cycles: 4564309577 heartbeat IPC: 0.03727 cumulative IPC: 0.02543 (Simulation time: 0 hr 37 min 20 sec) 
Heartbeat CPU  0 instructions:  215000000 cycles: 4631785659 heartbeat IPC: 0.01482 cumulative IPC: 0.02528 (Simulation time: 0 hr 37 min 51 sec) 
Heartbeat CPU  0 instructions:  216000000 cycles: 4688335427 heartbeat IPC: 0.01768 cumulative IPC: 0.02518 (Simulation time: 0 hr 38 min 16 sec) 
Heartbeat CPU  0 instructions:  217000000 cycles: 4719184579 heartbeat IPC: 0.03242 cumulative IPC: 0.02523 (Simulation time: 0 hr 38 min 30 sec) 
Heartbeat CPU  0 instructions:  218000001 cycles: 4745761510 heartbeat IPC: 0.03763 cumulative IPC: 0.02530 (Simulation time: 0 hr 38 min 42 sec) 
Heartbeat CPU  0 instructions:  219000003 cycles: 4815216406 heartbeat IPC: 0.01440 cumulative IPC: 0.02514 (Simulation time: 0 hr 39 min 14 sec) 
Heartbeat CPU  0 instructions:  220000000 cycles: 4867594545 heartbeat IPC: 0.01909 cumulative IPC: 0.02508 (Simulation time: 0 hr 39 min 37 sec) 
Heartbeat CPU  0 instructions:  221000003 cycles: 4894107593 heartbeat IPC: 0.03772 cumulative IPC: 0.02515 (Simulation time: 0 hr 39 min 49 sec) 
Heartbeat CPU  0 instructions:  222000002 cycles: 4919797808 heartbeat IPC: 0.03893 cumulative IPC: 0.02522 (Simulation time: 0 hr 40 min 1 sec) 
Heartbeat CPU  0 instructions:  223000001 cycles: 5014403478 heartbeat IPC: 0.01057 cumulative IPC: 0.02494 (Simulation time: 0 hr 40 min 44 sec) 
Heartbeat CPU  0 instructions:  224000000 cycles: 5041766061 heartbeat IPC: 0.03655 cumulative IPC: 0.02500 (Simulation time: 0 hr 40 min 57 sec) 
Heartbeat CPU  0 instructions:  225000000 cycles: 5067304824 heartbeat IPC: 0.03916 cumulative IPC: 0.02507 (Simulation time: 0 hr 41 min 9 sec) 
Heartbeat CPU  0 instructions:  226000003 cycles: 5112765520 heartbeat IPC: 0.02200 cumulative IPC: 0.02505 (Simulation time: 0 hr 41 min 31 sec) 
Heartbeat CPU  0 instructions:  227000001 cycles: 5190622275 heartbeat IPC: 0.01284 cumulative IPC: 0.02486 (Simulation time: 0 hr 42 min 5 sec) 
Heartbeat CPU  0 instructions:  228000000 cycles: 5214439633 heartbeat IPC: 0.04199 cumulative IPC: 0.02494 (Simulation time: 0 hr 42 min 16 sec) 
Heartbeat CPU  0 instructions:  229000000 cycles: 5240249054 heartbeat IPC: 0.03875 cumulative IPC: 0.02501 (Simulation time: 0 hr 42 min 29 sec) 
Heartbeat CPU  0 instructions:  230000002 cycles: 5312665171 heartbeat IPC: 0.01381 cumulative IPC: 0.02485 (Simulation time: 0 hr 43 min 2 sec) 
Heartbeat CPU  0 instructions:  231000001 cycles: 5363230587 heartbeat IPC: 0.01978 cumulative IPC: 0.02481 (Simulation time: 0 hr 43 min 24 sec) 
Heartbeat CPU  0 instructions:  232000000 cycles: 5389165248 heartbeat IPC: 0.03856 cumulative IPC: 0.02487 (Simulation time: 0 hr 43 min 37 sec) 
Heartbeat CPU  0 instructions:  233000002 cycles: 5416625798 heartbeat IPC: 0.03642 cumulative IPC: 0.02493 (Simulation time: 0 hr 43 min 50 sec) 
Heartbeat CPU  0 instructions:  234000000 cycles: 5513444306 heartbeat IPC: 0.01033 cumulative IPC: 0.02467 (Simulation time: 0 hr 44 min 33 sec) 
Heartbeat CPU  0 instructions:  235000000 cycles: 5538636454 heartbeat IPC: 0.03969 cumulative IPC: 0.02474 (Simulation time: 0 hr 44 min 45 sec) 
Heartbeat CPU  0 instructions:  236000000 cycles: 5567417117 heartbeat IPC: 0.03475 cumulative IPC: 0.02479 (Simulation time: 0 hr 44 min 58 sec) 
Heartbeat CPU  0 instructions:  237000003 cycles: 5612778362 heartbeat IPC: 0.02205 cumulative IPC: 0.02477 (Simulation time: 0 hr 45 min 19 sec) 
Heartbeat CPU  0 instructions:  238000003 cycles: 5691313568 heartbeat IPC: 0.01273 cumulative IPC: 0.02460 (Simulation time: 0 hr 45 min 54 sec) 
Heartbeat CPU  0 instructions:  239000000 cycles: 5714555053 heartbeat IPC: 0.04303 cumulative IPC: 0.02468 (Simulation time: 0 hr 46 min 5 sec) 
Heartbeat CPU  0 instructions:  240000000 cycles: 5739005526 heartbeat IPC: 0.04090 cumulative IPC: 0.02475 (Simulation time: 0 hr 46 min 17 sec) 
Heartbeat CPU  0 instructions:  241000000 cycles: 5806833445 heartbeat IPC: 0.01474 cumulative IPC: 0.02463 (Simulation time: 0 hr 46 min 48 sec) 
Heartbeat CPU  0 instructions:  242000000 cycles: 5863851885 heartbeat IPC: 0.01754 cumulative IPC: 0.02456 (Simulation time: 0 hr 47 min 13 sec) 
Heartbeat CPU  0 instructions:  243000003 cycles: 5898705945 heartbeat IPC: 0.02869 cumulative IPC: 0.02458 (Simulation time: 0 hr 47 min 28 sec) 
Heartbeat CPU  0 instructions:  244000000 cycles: 5923547364 heartbeat IPC: 0.04026 cumulative IPC: 0.02465 (Simulation time: 0 hr 47 min 40 sec) 
Heartbeat CPU  0 instructions:  245000003 cycles: 5971618298 heartbeat IPC: 0.02080 cumulative IPC: 0.02462 (Simulation time: 0 hr 48 min 2 sec) 
Heartbeat CPU  0 instructions:  246000001 cycles: 6042927928 heartbeat IPC: 0.01402 cumulative IPC: 0.02449 (Simulation time: 0 hr 48 min 34 sec) 
Heartbeat CPU  0 instructions:  247000000 cycles: 6065189424 heartbeat IPC: 0.04492 cumulative IPC: 0.02457 (Simulation time: 0 hr 48 min 44 sec) 
Heartbeat CPU  0 instructions:  248000000 cycles: 6088751942 heartbeat IPC: 0.04244 cumulative IPC: 0.02464 (Simulation time: 0 hr 48 min 55 sec) 
Heartbeat CPU  0 instructions:  249000000 cycles: 6156577235 heartbeat IPC: 0.01474 cumulative IPC: 0.02453 (Simulation time: 0 hr 49 min 26 sec) 
Heartbeat CPU  0 instructions:  250000003 cycles: 6208788458 heartbeat IPC: 0.01915 cumulative IPC: 0.02448 (Simulation time: 0 hr 49 min 50 sec) 
Heartbeat CPU  0 instructions:  251000002 cycles: 6233150871 heartbeat IPC: 0.04105 cumulative IPC: 0.02455 (Simulation time: 0 hr 50 min 1 sec) 
Heartbeat CPU  0 instructions:  252000000 cycles: 6258763233 heartbeat IPC: 0.03904 cumulative IPC: 0.02461 (Simulation time: 0 hr 50 min 13 sec) 
Heartbeat CPU  0 instructions:  253000002 cycles: 6350673579 heartbeat IPC: 0.01088 cumulative IPC: 0.02441 (Simulation time: 0 hr 50 min 55 sec) 
Heartbeat CPU  0 instructions:  254000000 cycles: 6377742175 heartbeat IPC: 0.03694 cumulative IPC: 0.02446 (Simulation time: 0 hr 51 min 7 sec) 
Heartbeat CPU  0 instructions:  255000000 cycles: 6407945002 heartbeat IPC: 0.03311 cumulative IPC: 0.02450 (Simulation time: 0 hr 51 min 21 sec) 
Heartbeat CPU  0 instructions:  256000000 cycles: 6446161078 heartbeat IPC: 0.02617 cumulative IPC: 0.02451 (Simulation time: 0 hr 51 min 37 sec) 
Heartbeat CPU  0 instructions:  257000000 cycles: 6494507949 heartbeat IPC: 0.02068 cumulative IPC: 0.02448 (Simulation time: 0 hr 51 min 59 sec) 
Heartbeat CPU  0 instructions:  258000002 cycles: 6576115157 heartbeat IPC: 0.01225 cumulative IPC: 0.02433 (Simulation time: 0 hr 52 min 35 sec) 
Heartbeat CPU  0 instructions:  259000002 cycles: 6604142470 heartbeat IPC: 0.03568 cumulative IPC: 0.02438 (Simulation time: 0 hr 52 min 48 sec) 
Heartbeat CPU  0 instructions:  260000000 cycles: 6632559688 heartbeat IPC: 0.03519 cumulative IPC: 0.02443 (Simulation time: 0 hr 53 min 1 sec) 
Heartbeat CPU  0 instructions:  261000002 cycles: 6690129405 heartbeat IPC: 0.01737 cumulative IPC: 0.02436 (Simulation time: 0 hr 53 min 28 sec) 
Heartbeat CPU  0 instructions:  262000002 cycles: 6760168483 heartbeat IPC: 0.01428 cumulative IPC: 0.02426 (Simulation time: 0 hr 53 min 58 sec) 
Heartbeat CPU  0 instructions:  263000002 cycles: 6782925414 heartbeat IPC: 0.04394 cumulative IPC: 0.02433 (Simulation time: 0 hr 54 min 9 sec) 
Heartbeat CPU  0 instructions:  264000000 cycles: 6805985212 heartbeat IPC: 0.04337 cumulative IPC: 0.02439 (Simulation time: 0 hr 54 min 20 sec) 
Heartbeat CPU  0 instructions:  265000003 cycles: 6881535199 heartbeat IPC: 0.01324 cumulative IPC: 0.02427 (Simulation time: 0 hr 54 min 54 sec) 
Heartbeat CPU  0 instructions:  266000003 cycles: 6936526196 heartbeat IPC: 0.01818 cumulative IPC: 0.02422 (Simulation time: 0 hr 55 min 18 sec) 
Heartbeat CPU  0 instructions:  267000001 cycles: 6971344028 heartbeat IPC: 0.02872 cumulative IPC: 0.02424 (Simulation time: 0 hr 55 min 33 sec) 
Heartbeat CPU  0 instructions:  268000000 cycles: 6994916000 heartbeat IPC: 0.04242 cumulative IPC: 0.02430 (Simulation time: 0 hr 55 min 44 sec) 
Heartbeat CPU  0 instructions:  269000002 cycles: 7043582278 heartbeat IPC: 0.02055 cumulative IPC: 0.02428 (Simulation time: 0 hr 56 min 7 sec) 
Heartbeat CPU  0 instructions:  270000001 cycles: 7118370275 heartbeat IPC: 0.01337 cumulative IPC: 0.02416 (Simulation time: 0 hr 56 min 40 sec) 
Heartbeat CPU  0 instructions:  271000003 cycles: 7143673428 heartbeat IPC: 0.03952 cumulative IPC: 0.02422 (Simulation time: 0 hr 56 min 51 sec) 
Heartbeat CPU  0 instructions:  272000000 cycles: 7177844662 heartbeat IPC: 0.02926 cumulative IPC: 0.02424 (Simulation time: 0 hr 57 min 6 sec) 
Heartbeat CPU  0 instructions:  273000003 cycles: 7209979300 heartbeat IPC: 0.03112 cumulative IPC: 0.02427 (Simulation time: 0 hr 57 min 22 sec) 
Heartbeat CPU  0 instructions:  274000002 cycles: 7299538566 heartbeat IPC: 0.01117 cumulative IPC: 0.02411 (Simulation time: 0 hr 58 min 1 sec) 
Heartbeat CPU  0 instructions:  275000001 cycles: 7321002145 heartbeat IPC: 0.04659 cumulative IPC: 0.02417 (Simulation time: 0 hr 58 min 12 sec) 
Heartbeat CPU  0 instructions:  276000000 cycles: 7344299509 heartbeat IPC: 0.04292 cumulative IPC: 0.02424 (Simulation time: 0 hr 58 min 23 sec) 
Heartbeat CPU  0 instructions:  277000002 cycles: 7385791438 heartbeat IPC: 0.02410 cumulative IPC: 0.02423 (Simulation time: 0 hr 58 min 43 sec) 
Heartbeat CPU  0 instructions:  278000001 cycles: 7466489403 heartbeat IPC: 0.01239 cumulative IPC: 0.02410 (Simulation time: 0 hr 59 min 18 sec) 
Heartbeat CPU  0 instructions:  279000000 cycles: 7487401838 heartbeat IPC: 0.04782 cumulative IPC: 0.02417 (Simulation time: 0 hr 59 min 29 sec) 
Heartbeat CPU  0 instructions:  280000000 cycles: 7510497019 heartbeat IPC: 0.04330 cumulative IPC: 0.02423 (Simulation time: 0 hr 59 min 40 sec) 
Heartbeat CPU  0 instructions:  281000003 cycles: 7571695670 heartbeat IPC: 0.01634 cumulative IPC: 0.02417 (Simulation time: 1 hr 0 min 9 sec) 
Heartbeat CPU  0 instructions:  282000000 cycles: 7631678156 heartbeat IPC: 0.01667 cumulative IPC: 0.02411 (Simulation time: 1 hr 0 min 36 sec) 
Heartbeat CPU  0 instructions:  283000003 cycles: 7652343316 heartbeat IPC: 0.04839 cumulative IPC: 0.02417 (Simulation time: 1 hr 0 min 46 sec) 
Heartbeat CPU  0 instructions:  284000000 cycles: 7673806515 heartbeat IPC: 0.04659 cumulative IPC: 0.02424 (Simulation time: 1 hr 0 min 56 sec) 
Heartbeat CPU  0 instructions:  285000003 cycles: 7752244247 heartbeat IPC: 0.01275 cumulative IPC: 0.02412 (Simulation time: 1 hr 1 min 31 sec) 
Heartbeat CPU  0 instructions:  286000001 cycles: 7795429336 heartbeat IPC: 0.02316 cumulative IPC: 0.02411 (Simulation time: 1 hr 1 min 51 sec) 
Heartbeat CPU  0 instructions:  287000003 cycles: 7817706723 heartbeat IPC: 0.04489 cumulative IPC: 0.02417 (Simulation time: 1 hr 2 min 2 sec) 
Heartbeat CPU  0 instructions:  288000000 cycles: 7841494624 heartbeat IPC: 0.04204 cumulative IPC: 0.02423 (Simulation time: 1 hr 2 min 13 sec) 
Heartbeat CPU  0 instructions:  289000001 cycles: 7941289632 heartbeat IPC: 0.01002 cumulative IPC: 0.02405 (Simulation time: 1 hr 2 min 59 sec) 
Heartbeat CPU  0 instructions:  290000002 cycles: 7964246378 heartbeat IPC: 0.04356 cumulative IPC: 0.02411 (Simulation time: 1 hr 3 min 10 sec) 
Heartbeat CPU  0 instructions:  291000000 cycles: 7986396680 heartbeat IPC: 0.04515 cumulative IPC: 0.02416 (Simulation time: 1 hr 3 min 21 sec) 
Heartbeat CPU  0 instructions:  292000000 cycles: 8022761270 heartbeat IPC: 0.02750 cumulative IPC: 0.02418 (Simulation time: 1 hr 3 min 39 sec) 
Heartbeat CPU  0 instructions:  293000000 cycles: 8111314826 heartbeat IPC: 0.01129 cumulative IPC: 0.02404 (Simulation time: 1 hr 4 min 17 sec) 
Heartbeat CPU  0 instructions:  294000000 cycles: 8130720459 heartbeat IPC: 0.05153 cumulative IPC: 0.02410 (Simulation time: 1 hr 4 min 27 sec) 
Heartbeat CPU  0 instructions:  295000001 cycles: 8152278053 heartbeat IPC: 0.04639 cumulative IPC: 0.02416 (Simulation time: 1 hr 4 min 37 sec) 
Heartbeat CPU  0 instructions:  296000000 cycles: 8203885138 heartbeat IPC: 0.01938 cumulative IPC: 0.02413 (Simulation time: 1 hr 5 min 1 sec) 
Heartbeat CPU  0 instructions:  297000000 cycles: 8276486107 heartbeat IPC: 0.01377 cumulative IPC: 0.02404 (Simulation time: 1 hr 5 min 33 sec) 
Heartbeat CPU  0 instructions:  298000000 cycles: 8297121951 heartbeat IPC: 0.04846 cumulative IPC: 0.02410 (Simulation time: 1 hr 5 min 43 sec) 
Heartbeat CPU  0 instructions:  299000002 cycles: 8319831559 heartbeat IPC: 0.04403 cumulative IPC: 0.02416 (Simulation time: 1 hr 5 min 53 sec) 
Heartbeat CPU  0 instructions:  300000000 cycles: 8379850200 heartbeat IPC: 0.01666 cumulative IPC: 0.02410 (Simulation time: 1 hr 6 min 20 sec) 
Heartbeat CPU  0 instructions:  301000001 cycles: 8442598513 heartbeat IPC: 0.01594 cumulative IPC: 0.02404 (Simulation time: 1 hr 6 min 49 sec) 
Heartbeat CPU  0 instructions:  302000003 cycles: 8462028907 heartbeat IPC: 0.05147 cumulative IPC: 0.02411 (Simulation time: 1 hr 6 min 58 sec) 
Heartbeat CPU  0 instructions:  303000000 cycles: 8481865737 heartbeat IPC: 0.05041 cumulative IPC: 0.02417 (Simulation time: 1 hr 7 min 7 sec) 
Heartbeat CPU  0 instructions:  304000000 cycles: 8545996022 heartbeat IPC: 0.01559 cumulative IPC: 0.02410 (Simulation time: 1 hr 7 min 36 sec) 
Heartbeat CPU  0 instructions:  305000002 cycles: 8602231601 heartbeat IPC: 0.01778 cumulative IPC: 0.02406 (Simulation time: 1 hr 8 min 1 sec) 
Heartbeat CPU  0 instructions:  306000000 cycles: 8620398945 heartbeat IPC: 0.05504 cumulative IPC: 0.02413 (Simulation time: 1 hr 8 min 10 sec) 
Heartbeat CPU  0 instructions:  307000001 cycles: 8641300052 heartbeat IPC: 0.04784 cumulative IPC: 0.02418 (Simulation time: 1 hr 8 min 20 sec) 
Heartbeat CPU  0 instructions:  308000000 cycles: 8708723110 heartbeat IPC: 0.01483 cumulative IPC: 0.02411 (Simulation time: 1 hr 8 min 50 sec) 
Heartbeat CPU  0 instructions:  309000000 cycles: 8775073024 heartbeat IPC: 0.01507 cumulative IPC: 0.02404 (Simulation time: 1 hr 9 min 19 sec) 
Heartbeat CPU  0 instructions:  310000000 cycles: 8799603906 heartbeat IPC: 0.04076 cumulative IPC: 0.02409 (Simulation time: 1 hr 9 min 30 sec) 
Heartbeat CPU  0 instructions:  311000000 cycles: 8820377052 heartbeat IPC: 0.04814 cumulative IPC: 0.02415 (Simulation time: 1 hr 9 min 41 sec) 
Heartbeat CPU  0 instructions:  312000000 cycles: 8855635391 heartbeat IPC: 0.02836 cumulative IPC: 0.02416 (Simulation time: 1 hr 9 min 57 sec) 
Heartbeat CPU  0 instructions:  313000002 cycles: 8948153356 heartbeat IPC: 0.01081 cumulative IPC: 0.02402 (Simulation time: 1 hr 10 min 39 sec) 
Heartbeat CPU  0 instructions:  314000001 cycles: 8968700085 heartbeat IPC: 0.04867 cumulative IPC: 0.02408 (Simulation time: 1 hr 10 min 49 sec) 
Heartbeat CPU  0 instructions:  315000001 cycles: 8990886317 heartbeat IPC: 0.04507 cumulative IPC: 0.02413 (Simulation time: 1 hr 11 min 0 sec) 
Heartbeat CPU  0 instructions:  316000000 cycles: 9017659868 heartbeat IPC: 0.03735 cumulative IPC: 0.02417 (Simulation time: 1 hr 11 min 12 sec) 
Heartbeat CPU  0 instructions:  317000002 cycles: 9112575047 heartbeat IPC: 0.01054 cumulative IPC: 0.02403 (Simulation time: 1 hr 11 min 54 sec) 
Heartbeat CPU  0 instructions:  318000003 cycles: 9139265068 heartbeat IPC: 0.03747 cumulative IPC: 0.02407 (Simulation time: 1 hr 12 min 6 sec) 
Heartbeat CPU  0 instructions:  319000000 cycles: 9160304384 heartbeat IPC: 0.04753 cumulative IPC: 0.02412 (Simulation time: 1 hr 12 min 16 sec) 
Heartbeat CPU  0 instructions:  320000000 cycles: 9191715117 heartbeat IPC: 0.03184 cumulative IPC: 0.02415 (Simulation time: 1 hr 12 min 29 sec) 
Heartbeat CPU  0 instructions:  321000001 cycles: 9229505796 heartbeat IPC: 0.02646 cumulative IPC: 0.02416 (Simulation time: 1 hr 12 min 46 sec) 
Heartbeat CPU  0 instructions:  322000000 cycles: 9324071530 heartbeat IPC: 0.01057 cumulative IPC: 0.02402 (Simulation time: 1 hr 13 min 28 sec) 
Heartbeat CPU  0 instructions:  323000000 cycles: 9342675179 heartbeat IPC: 0.05375 cumulative IPC: 0.02408 (Simulation time: 1 hr 13 min 36 sec) 
Heartbeat CPU  0 instructions:  324000000 cycles: 9362013471 heartbeat IPC: 0.05171 cumulative IPC: 0.02414 (Simulation time: 1 hr 13 min 44 sec) 
Heartbeat CPU  0 instructions:  325000002 cycles: 9380262199 heartbeat IPC: 0.05480 cumulative IPC: 0.02420 (Simulation time: 1 hr 13 min 52 sec) 
Heartbeat CPU  0 instructions:  326000002 cycles: 9457405511 heartbeat IPC: 0.01296 cumulative IPC: 0.02411 (Simulation time: 1 hr 14 min 28 sec) 
Heartbeat CPU  0 instructions:  327000000 cycles: 9492907495 heartbeat IPC: 0.02817 cumulative IPC: 0.02412 (Simulation time: 1 hr 14 min 43 sec) 
Heartbeat CPU  0 instructions:  328000000 cycles: 9511072766 heartbeat IPC: 0.05505 cumulative IPC: 0.02418 (Simulation time: 1 hr 14 min 51 sec) 
Heartbeat CPU  0 instructions:  329000000 cycles: 9529726471 heartbeat IPC: 0.05361 cumulative IPC: 0.02424 (Simulation time: 1 hr 14 min 59 sec) 
Heartbeat CPU  0 instructions:  330000001 cycles: 9587556183 heartbeat IPC: 0.01729 cumulative IPC: 0.02420 (Simulation time: 1 hr 15 min 26 sec) 
Heartbeat CPU  0 instructions:  331000001 cycles: 9644705796 heartbeat IPC: 0.01750 cumulative IPC: 0.02416 (Simulation time: 1 hr 15 min 51 sec) 
Heartbeat CPU  0 instructions:  332000000 cycles: 9665213911 heartbeat IPC: 0.04876 cumulative IPC: 0.02421 (Simulation time: 1 hr 16 min 0 sec) 
Heartbeat CPU  0 instructions:  333000000 cycles: 9686049363 heartbeat IPC: 0.04800 cumulative IPC: 0.02426 (Simulation time: 1 hr 16 min 9 sec) 
Heartbeat CPU  0 instructions:  334000001 cycles: 9736356097 heartbeat IPC: 0.01988 cumulative IPC: 0.02424 (Simulation time: 1 hr 16 min 33 sec) 
Heartbeat CPU  0 instructions:  335000000 cycles: 9803411085 heartbeat IPC: 0.01491 cumulative IPC: 0.02417 (Simulation time: 1 hr 17 min 2 sec) 
Heartbeat CPU  0 instructions:  336000000 cycles: 9830549448 heartbeat IPC: 0.03685 cumulative IPC: 0.02421 (Simulation time: 1 hr 17 min 14 sec) 
Heartbeat CPU  0 instructions:  337000000 cycles: 9851020498 heartbeat IPC: 0.04885 cumulative IPC: 0.02426 (Simulation time: 1 hr 17 min 23 sec) 
Heartbeat CPU  0 instructions:  338000000 cycles: 9884485403 heartbeat IPC: 0.02988 cumulative IPC: 0.02428 (Simulation time: 1 hr 17 min 39 sec) 
Heartbeat CPU  0 instructions:  339000002 cycles: 9969781286 heartbeat IPC: 0.01172 cumulative IPC: 0.02417 (Simulation time: 1 hr 18 min 17 sec) 
Heartbeat CPU  0 instructions:  340000000 cycles: 9991181553 heartbeat IPC: 0.04673 cumulative IPC: 0.02422 (Simulation time: 1 hr 18 min 27 sec) 
Heartbeat CPU  0 instructions:  341000001 cycles: 10014041120 heartbeat IPC: 0.04375 cumulative IPC: 0.02427 (Simulation time: 1 hr 18 min 38 sec) 
Heartbeat CPU  0 instructions:  342000000 cycles: 10056594985 heartbeat IPC: 0.02350 cumulative IPC: 0.02426 (Simulation time: 1 hr 18 min 58 sec) 
Heartbeat CPU  0 instructions:  343000003 cycles: 10134124084 heartbeat IPC: 0.01290 cumulative IPC: 0.02417 (Simulation time: 1 hr 19 min 32 sec) 
Heartbeat CPU  0 instructions:  344000000 cycles: 10153521266 heartbeat IPC: 0.05155 cumulative IPC: 0.02423 (Simulation time: 1 hr 19 min 41 sec) 
Heartbeat CPU  0 instructions:  345000000 cycles: 10174737544 heartbeat IPC: 0.04713 cumulative IPC: 0.02428 (Simulation time: 1 hr 19 min 51 sec) 
Heartbeat CPU  0 instructions:  346000003 cycles: 10224713790 heartbeat IPC: 0.02001 cumulative IPC: 0.02425 (Simulation time: 1 hr 20 min 15 sec) 
Heartbeat CPU  0 instructions:  347000001 cycles: 10292951509 heartbeat IPC: 0.01465 cumulative IPC: 0.02419 (Simulation time: 1 hr 20 min 45 sec) 
Heartbeat CPU  0 instructions:  348000000 cycles: 10312485825 heartbeat IPC: 0.05119 cumulative IPC: 0.02424 (Simulation time: 1 hr 20 min 54 sec) 
Heartbeat CPU  0 instructions:  349000001 cycles: 10334104337 heartbeat IPC: 0.04626 cumulative IPC: 0.02429 (Simulation time: 1 hr 21 min 4 sec) 
Heartbeat CPU  0 instructions:  350000000 cycles: 10391430223 heartbeat IPC: 0.01744 cumulative IPC: 0.02425 (Simulation time: 1 hr 21 min 31 sec) 
Heartbeat CPU  0 instructions:  351000003 cycles: 10452194706 heartbeat IPC: 0.01646 cumulative IPC: 0.02420 (Simulation time: 1 hr 21 min 58 sec) 
Heartbeat CPU  0 instructions:  352000000 cycles: 10471112925 heartbeat IPC: 0.05286 cumulative IPC: 0.02426 (Simulation time: 1 hr 22 min 7 sec) 
Heartbeat CPU  0 instructions:  353000001 cycles: 10490308213 heartbeat IPC: 0.05210 cumulative IPC: 0.02431 (Simulation time: 1 hr 22 min 16 sec) 
Heartbeat CPU  0 instructions:  354000003 cycles: 10557137117 heartbeat IPC: 0.01496 cumulative IPC: 0.02425 (Simulation time: 1 hr 22 min 47 sec) 
Heartbeat CPU  0 instructions:  355000002 cycles: 10608406248 heartbeat IPC: 0.01950 cumulative IPC: 0.02422 (Simulation time: 1 hr 23 min 10 sec) 
Heartbeat CPU  0 instructions:  356000000 cycles: 10629933665 heartbeat IPC: 0.04645 cumulative IPC: 0.02427 (Simulation time: 1 hr 23 min 20 sec) 
Heartbeat CPU  0 instructions:  357000001 cycles: 10650967043 heartbeat IPC: 0.04754 cumulative IPC: 0.02432 (Simulation time: 1 hr 23 min 31 sec) 
Heartbeat CPU  0 instructions:  358000002 cycles: 10734249406 heartbeat IPC: 0.01201 cumulative IPC: 0.02422 (Simulation time: 1 hr 24 min 9 sec) 
Heartbeat CPU  0 instructions:  359000002 cycles: 10769653581 heartbeat IPC: 0.02825 cumulative IPC: 0.02423 (Simulation time: 1 hr 24 min 25 sec) 
Heartbeat CPU  0 instructions:  360000000 cycles: 10790354240 heartbeat IPC: 0.04831 cumulative IPC: 0.02428 (Simulation time: 1 hr 24 min 35 sec) 
Heartbeat CPU  0 instructions:  361000003 cycles: 10810954807 heartbeat IPC: 0.04854 cumulative IPC: 0.02433 (Simulation time: 1 hr 24 min 45 sec) 
Heartbeat CPU  0 instructions:  362000001 cycles: 10907575623 heartbeat IPC: 0.01035 cumulative IPC: 0.02420 (Simulation time: 1 hr 25 min 29 sec) 
Heartbeat CPU  0 instructions:  363000000 cycles: 10929394827 heartbeat IPC: 0.04583 cumulative IPC: 0.02425 (Simulation time: 1 hr 25 min 39 sec) 
Heartbeat CPU  0 instructions:  364000000 cycles: 10952137570 heartbeat IPC: 0.04397 cumulative IPC: 0.02429 (Simulation time: 1 hr 25 min 51 sec) 
Heartbeat CPU  0 instructions:  365000000 cycles: 10986332845 heartbeat IPC: 0.02924 cumulative IPC: 0.02430 (Simulation time: 1 hr 26 min 7 sec) 
Heartbeat CPU  0 instructions:  366000000 cycles: 11071695479 heartbeat IPC: 0.01171 cumulative IPC: 0.02420 (Simulation time: 1 hr 26 min 45 sec) 
Heartbeat CPU  0 instructions:  367000003 cycles: 11091008148 heartbeat IPC: 0.05178 cumulative IPC: 0.02425 (Simulation time: 1 hr 26 min 55 sec) 
Heartbeat CPU  0 instructions:  368000000 cycles: 11112856859 heartbeat IPC: 0.04577 cumulative IPC: 0.02430 (Simulation time: 1 hr 27 min 5 sec) 
Heartbeat CPU  0 instructions:  369000003 cycles: 11163270016 heartbeat IPC: 0.01984 cumulative IPC: 0.02428 (Simulation time: 1 hr 27 min 29 sec) 
Heartbeat CPU  0 instructions:  370000003 cycles: 11231865708 heartbeat IPC: 0.01458 cumulative IPC: 0.02422 (Simulation time: 1 hr 27 min 59 sec) 
Heartbeat CPU  0 instructions:  371000003 cycles: 11252911296 heartbeat IPC: 0.04752 cumulative IPC: 0.02426 (Simulation time: 1 hr 28 min 10 sec) 
Heartbeat CPU  0 instructions:  372000000 cycles: 11276276018 heartbeat IPC: 0.04280 cumulative IPC: 0.02430 (Simulation time: 1 hr 28 min 22 sec) 
Heartbeat CPU  0 instructions:  373000002 cycles: 11353240765 heartbeat IPC: 0.01299 cumulative IPC: 0.02422 (Simulation time: 1 hr 28 min 57 sec) 
Heartbeat CPU  0 instructions:  374000001 cycles: 11395160794 heartbeat IPC: 0.02385 cumulative IPC: 0.02422 (Simulation time: 1 hr 29 min 16 sec) 
Heartbeat CPU  0 instructions:  375000002 cycles: 11419984846 heartbeat IPC: 0.04028 cumulative IPC: 0.02425 (Simulation time: 1 hr 29 min 28 sec) 
Heartbeat CPU  0 instructions:  376000000 cycles: 11452132894 heartbeat IPC: 0.03111 cumulative IPC: 0.02427 (Simulation time: 1 hr 29 min 44 sec) 
Heartbeat CPU  0 instructions:  377000000 cycles: 11542043007 heartbeat IPC: 0.01112 cumulative IPC: 0.02417 (Simulation time: 1 hr 30 min 24 sec) 
Heartbeat CPU  0 instructions:  378000003 cycles: 11565153099 heartbeat IPC: 0.04327 cumulative IPC: 0.02421 (Simulation time: 1 hr 30 min 36 sec) 
Heartbeat CPU  0 instructions:  379000002 cycles: 11589399172 heartbeat IPC: 0.04124 cumulative IPC: 0.02425 (Simulation time: 1 hr 30 min 48 sec) 
Heartbeat CPU  0 instructions:  380000000 cycles: 11649006588 heartbeat IPC: 0.01678 cumulative IPC: 0.02421 (Simulation time: 1 hr 31 min 16 sec) 
Heartbeat CPU  0 instructions:  381000000 cycles: 11710273152 heartbeat IPC: 0.01632 cumulative IPC: 0.02417 (Simulation time: 1 hr 31 min 43 sec) 
Heartbeat CPU  0 instructions:  382000002 cycles: 11733965545 heartbeat IPC: 0.04221 cumulative IPC: 0.02420 (Simulation time: 1 hr 31 min 55 sec) 
Heartbeat CPU  0 instructions:  383000000 cycles: 11759617518 heartbeat IPC: 0.03898 cumulative IPC: 0.02423 (Simulation time: 1 hr 32 min 8 sec) 
Heartbeat CPU  0 instructions:  384000000 cycles: 11845251731 heartbeat IPC: 0.01168 cumulative IPC: 0.02414 (Simulation time: 1 hr 32 min 47 sec) 
Heartbeat CPU  0 instructions:  385000001 cycles: 11880052020 heartbeat IPC: 0.02874 cumulative IPC: 0.02416 (Simulation time: 1 hr 33 min 3 sec) 
Heartbeat CPU  0 instructions:  386000002 cycles: 11904594970 heartbeat IPC: 0.04074 cumulative IPC: 0.02419 (Simulation time: 1 hr 33 min 15 sec) 
Heartbeat CPU  0 instructions:  387000003 cycles: 11940701010 heartbeat IPC: 0.02770 cumulative IPC: 0.02420 (Simulation time: 1 hr 33 min 32 sec) 
Heartbeat CPU  0 instructions:  388000000 cycles: 12025511010 heartbeat IPC: 0.01179 cumulative IPC: 0.02411 (Simulation time: 1 hr 34 min 10 sec) 
Heartbeat CPU  0 instructions:  389000001 cycles: 12048351488 heartbeat IPC: 0.04378 cumulative IPC: 0.02415 (Simulation time: 1 hr 34 min 21 sec) 
Heartbeat CPU  0 instructions:  390000000 cycles: 12072931088 heartbeat IPC: 0.04068 cumulative IPC: 0.02419 (Simulation time: 1 hr 34 min 33 sec) 
Heartbeat CPU  0 instructions:  391000002 cycles: 12131104515 heartbeat IPC: 0.01719 cumulative IPC: 0.02415 (Simulation time: 1 hr 35 min 1 sec) 
Heartbeat CPU  0 instructions:  392000000 cycles: 12192529186 heartbeat IPC: 0.01628 cumulative IPC: 0.02411 (Simulation time: 1 hr 35 min 29 sec) 
Heartbeat CPU  0 instructions:  393000000 cycles: 12217060535 heartbeat IPC: 0.04076 cumulative IPC: 0.02415 (Simulation time: 1 hr 35 min 41 sec) 
Heartbeat CPU  0 instructions:  394000001 cycles: 12243439153 heartbeat IPC: 0.03791 cumulative IPC: 0.02417 (Simulation time: 1 hr 35 min 54 sec) 
Heartbeat CPU  0 instructions:  395000000 cycles: 12324580146 heartbeat IPC: 0.01232 cumulative IPC: 0.02410 (Simulation time: 1 hr 36 min 31 sec) 
Heartbeat CPU  0 instructions:  396000000 cycles: 12362171375 heartbeat IPC: 0.02660 cumulative IPC: 0.02410 (Simulation time: 1 hr 36 min 48 sec) 
Heartbeat CPU  0 instructions:  397000000 cycles: 12389718327 heartbeat IPC: 0.03630 cumulative IPC: 0.02413 (Simulation time: 1 hr 37 min 1 sec) 
Heartbeat CPU  0 instructions:  398000000 cycles: 12422645120 heartbeat IPC: 0.03037 cumulative IPC: 0.02415 (Simulation time: 1 hr 37 min 17 sec) 
Heartbeat CPU  0 instructions:  399000001 cycles: 12512802561 heartbeat IPC: 0.01109 cumulative IPC: 0.02405 (Simulation time: 1 hr 37 min 57 sec) 
Heartbeat CPU  0 instructions:  400000000 cycles: 12537357355 heartbeat IPC: 0.04073 cumulative IPC: 0.02409 (Simulation time: 1 hr 38 min 9 sec) 
Heartbeat CPU  0 instructions:  401000002 cycles: 12564093247 heartbeat IPC: 0.03740 cumulative IPC: 0.02411 (Simulation time: 1 hr 38 min 22 sec) 
Heartbeat CPU  0 instructions:  402000000 cycles: 12620181798 heartbeat IPC: 0.01783 cumulative IPC: 0.02409 (Simulation time: 1 hr 38 min 49 sec) 
Heartbeat CPU  0 instructions:  403000000 cycles: 12684418707 heartbeat IPC: 0.01557 cumulative IPC: 0.02404 (Simulation time: 1 hr 39 min 17 sec) 
Heartbeat CPU  0 instructions:  404000000 cycles: 12710336440 heartbeat IPC: 0.03858 cumulative IPC: 0.02407 (Simulation time: 1 hr 39 min 30 sec) 
Heartbeat CPU  0 instructions:  405000001 cycles: 12737567994 heartbeat IPC: 0.03672 cumulative IPC: 0.02410 (Simulation time: 1 hr 39 min 43 sec) 
Heartbeat CPU  0 instructions:  406000003 cycles: 12802835817 heartbeat IPC: 0.01532 cumulative IPC: 0.02406 (Simulation time: 1 hr 40 min 14 sec) 
Heartbeat CPU  0 instructions:  407000001 cycles: 12857083193 heartbeat IPC: 0.01843 cumulative IPC: 0.02403 (Simulation time: 1 hr 40 min 38 sec) 
Heartbeat CPU  0 instructions:  408000000 cycles: 12882285992 heartbeat IPC: 0.03968 cumulative IPC: 0.02406 (Simulation time: 1 hr 40 min 50 sec) 
Heartbeat CPU  0 instructions:  409000000 cycles: 12911274922 heartbeat IPC: 0.03450 cumulative IPC: 0.02409 (Simulation time: 1 hr 41 min 4 sec) 
Heartbeat CPU  0 instructions:  410000003 cycles: 12993583210 heartbeat IPC: 0.01215 cumulative IPC: 0.02401 (Simulation time: 1 hr 41 min 42 sec) 
Heartbeat CPU  0 instructions:  411000000 cycles: 13030178245 heartbeat IPC: 0.02733 cumulative IPC: 0.02402 (Simulation time: 1 hr 41 min 59 sec) 
Heartbeat CPU  0 instructions:  412000000 cycles: 13055936861 heartbeat IPC: 0.03882 cumulative IPC: 0.02405 (Simulation time: 1 hr 42 min 12 sec) 
Heartbeat CPU  0 instructions:  413000003 cycles: 13095864227 heartbeat IPC: 0.02505 cumulative IPC: 0.02405 (Simulation time: 1 hr 42 min 32 sec) 
Heartbeat CPU  0 instructions:  414000003 cycles: 13176993168 heartbeat IPC: 0.01233 cumulative IPC: 0.02398 (Simulation time: 1 hr 43 min 8 sec) 
Heartbeat CPU  0 instructions:  415000000 cycles: 13200836341 heartbeat IPC: 0.04194 cumulative IPC: 0.02401 (Simulation time: 1 hr 43 min 20 sec) 
Heartbeat CPU  0 instructions:  416000000 cycles: 13225738836 heartbeat IPC: 0.04016 cumulative IPC: 0.02404 (Simulation time: 1 hr 43 min 33 sec) 
Heartbeat CPU  0 instructions:  417000000 cycles: 13296662826 heartbeat IPC: 0.01410 cumulative IPC: 0.02399 (Simulation time: 1 hr 44 min 6 sec) 
Heartbeat CPU  0 instructions:  418000001 cycles: 13346215724 heartbeat IPC: 0.02018 cumulative IPC: 0.02397 (Simulation time: 1 hr 44 min 28 sec) 
Heartbeat CPU  0 instructions:  419000000 cycles: 13378707915 heartbeat IPC: 0.03078 cumulative IPC: 0.02399 (Simulation time: 1 hr 44 min 44 sec) 
Heartbeat CPU  0 instructions:  420000000 cycles: 13410276966 heartbeat IPC: 0.03168 cumulative IPC: 0.02401 (Simulation time: 1 hr 44 min 58 sec) 
Heartbeat CPU  0 instructions:  421000003 cycles: 13450604461 heartbeat IPC: 0.02480 cumulative IPC: 0.02401 (Simulation time: 1 hr 45 min 18 sec) 
Heartbeat CPU  0 instructions:  422000002 cycles: 13537496895 heartbeat IPC: 0.01151 cumulative IPC: 0.02393 (Simulation time: 1 hr 45 min 57 sec) 
Heartbeat CPU  0 instructions:  423000002 cycles: 13560398953 heartbeat IPC: 0.04366 cumulative IPC: 0.02396 (Simulation time: 1 hr 46 min 8 sec) 
Heartbeat CPU  0 instructions:  424000000 cycles: 13596697466 heartbeat IPC: 0.02755 cumulative IPC: 0.02397 (Simulation time: 1 hr 46 min 24 sec) 
Heartbeat CPU  0 instructions:  425000002 cycles: 13618499697 heartbeat IPC: 0.04587 cumulative IPC: 0.02401 (Simulation time: 1 hr 46 min 35 sec) 
Heartbeat CPU  0 instructions:  426000000 cycles: 13705658159 heartbeat IPC: 0.01147 cumulative IPC: 0.02393 (Simulation time: 1 hr 47 min 14 sec) 
Heartbeat CPU  0 instructions:  427000002 cycles: 13737620176 heartbeat IPC: 0.03129 cumulative IPC: 0.02395 (Simulation time: 1 hr 47 min 30 sec) 
Heartbeat CPU  0 instructions:  428000000 cycles: 13757470615 heartbeat IPC: 0.05038 cumulative IPC: 0.02398 (Simulation time: 1 hr 47 min 39 sec) 
Heartbeat CPU  0 instructions:  429000001 cycles: 13785215911 heartbeat IPC: 0.03604 cumulative IPC: 0.02401 (Simulation time: 1 hr 47 min 52 sec) 
Heartbeat CPU  0 instructions:  430000002 cycles: 13852529121 heartbeat IPC: 0.01486 cumulative IPC: 0.02396 (Simulation time: 1 hr 48 min 23 sec) 
Heartbeat CPU  0 instructions:  431000003 cycles: 13902729110 heartbeat IPC: 0.01992 cumulative IPC: 0.02395 (Simulation time: 1 hr 48 min 45 sec) 
Heartbeat CPU  0 instructions:  432000000 cycles: 13918963147 heartbeat IPC: 0.06160 cumulative IPC: 0.02399 (Simulation time: 1 hr 48 min 52 sec) 
Heartbeat CPU  0 instructions:  433000001 cycles: 13936729294 heartbeat IPC: 0.05629 cumulative IPC: 0.02404 (Simulation time: 1 hr 49 min 1 sec) 
Heartbeat CPU  0 instructions:  434000000 cycles: 13991670759 heartbeat IPC: 0.01820 cumulative IPC: 0.02401 (Simulation time: 1 hr 49 min 27 sec) 
Heartbeat CPU  0 instructions:  435000003 cycles: 14052663374 heartbeat IPC: 0.01640 cumulative IPC: 0.02398 (Simulation time: 1 hr 49 min 53 sec) 
Heartbeat CPU  0 instructions:  436000000 cycles: 14068875373 heartbeat IPC: 0.06168 cumulative IPC: 0.02402 (Simulation time: 1 hr 50 min 1 sec) 
Heartbeat CPU  0 instructions:  437000001 cycles: 14086176267 heartbeat IPC: 0.05780 cumulative IPC: 0.02406 (Simulation time: 1 hr 50 min 9 sec) 
Heartbeat CPU  0 instructions:  438000001 cycles: 14137088499 heartbeat IPC: 0.01964 cumulative IPC: 0.02405 (Simulation time: 1 hr 50 min 33 sec) 
Heartbeat CPU  0 instructions:  439000000 cycles: 14203500443 heartbeat IPC: 0.01506 cumulative IPC: 0.02401 (Simulation time: 1 hr 51 min 2 sec) 
Heartbeat CPU  0 instructions:  440000000 cycles: 14220586911 heartbeat IPC: 0.05853 cumulative IPC: 0.02405 (Simulation time: 1 hr 51 min 11 sec) 
Heartbeat CPU  0 instructions:  441000002 cycles: 14237318374 heartbeat IPC: 0.05977 cumulative IPC: 0.02409 (Simulation time: 1 hr 51 min 19 sec) 
Heartbeat CPU  0 instructions:  442000000 cycles: 14280773821 heartbeat IPC: 0.02301 cumulative IPC: 0.02409 (Simulation time: 1 hr 51 min 39 sec) 
Heartbeat CPU  0 instructions:  443000001 cycles: 14354471665 heartbeat IPC: 0.01357 cumulative IPC: 0.02403 (Simulation time: 1 hr 52 min 12 sec) 
Heartbeat CPU  0 instructions:  444000000 cycles: 14370056093 heartbeat IPC: 0.06417 cumulative IPC: 0.02408 (Simulation time: 1 hr 52 min 19 sec) 
Heartbeat CPU  0 instructions:  445000003 cycles: 14387404035 heartbeat IPC: 0.05764 cumulative IPC: 0.02412 (Simulation time: 1 hr 52 min 28 sec) 
Heartbeat CPU  0 instructions:  446000003 cycles: 14426775447 heartbeat IPC: 0.02540 cumulative IPC: 0.02412 (Simulation time: 1 hr 52 min 46 sec) 
Heartbeat CPU  0 instructions:  447000000 cycles: 14505655393 heartbeat IPC: 0.01268 cumulative IPC: 0.02406 (Simulation time: 1 hr 53 min 21 sec) 
Heartbeat CPU  0 instructions:  448000000 cycles: 14521520513 heartbeat IPC: 0.06303 cumulative IPC: 0.02410 (Simulation time: 1 hr 53 min 29 sec) 
Heartbeat CPU  0 instructions:  449000001 cycles: 14538610097 heartbeat IPC: 0.05852 cumulative IPC: 0.02414 (Simulation time: 1 hr 53 min 38 sec) 
Heartbeat CPU  0 instructions:  450000000 cycles: 14579136913 heartbeat IPC: 0.02467 cumulative IPC: 0.02414 (Simulation time: 1 hr 53 min 57 sec) 
Heartbeat CPU  0 instructions:  451000001 cycles: 14656082477 heartbeat IPC: 0.01300 cumulative IPC: 0.02408 (Simulation time: 1 hr 54 min 33 sec) 
Heartbeat CPU  0 instructions:  452000000 cycles: 14672785253 heartbeat IPC: 0.05987 cumulative IPC: 0.02412 (Simulation time: 1 hr 54 min 41 sec) 
Heartbeat CPU  0 instructions:  453000000 cycles: 14690470154 heartbeat IPC: 0.05655 cumulative IPC: 0.02416 (Simulation time: 1 hr 54 min 50 sec) 
Heartbeat CPU  0 instructions:  454000000 cycles: 14735586971 heartbeat IPC: 0.02216 cumulative IPC: 0.02416 (Simulation time: 1 hr 55 min 12 sec) 
Heartbeat CPU  0 instructions:  455000003 cycles: 14808668796 heartbeat IPC: 0.01368 cumulative IPC: 0.02411 (Simulation time: 1 hr 55 min 44 sec) 
Heartbeat CPU  0 instructions:  456000000 cycles: 14824676083 heartbeat IPC: 0.06247 cumulative IPC: 0.02415 (Simulation time: 1 hr 55 min 52 sec) 
Heartbeat CPU  0 instructions:  457000000 cycles: 14842538986 heartbeat IPC: 0.05598 cumulative IPC: 0.02419 (Simulation time: 1 hr 56 min 1 sec) 
Heartbeat CPU  0 instructions:  458000001 cycles: 14894467869 heartbeat IPC: 0.01926 cumulative IPC: 0.02417 (Simulation time: 1 hr 56 min 25 sec) 
Heartbeat CPU  0 instructions:  459000003 cycles: 14960760566 heartbeat IPC: 0.01508 cumulative IPC: 0.02413 (Simulation time: 1 hr 56 min 55 sec) 
Heartbeat CPU  0 instructions:  460000000 cycles: 14977217805 heartbeat IPC: 0.06076 cumulative IPC: 0.02417 (Simulation time: 1 hr 57 min 3 sec) 
Heartbeat CPU  0 instructions:  461000001 cycles: 14996003779 heartbeat IPC: 0.05323 cumulative IPC: 0.02421 (Simulation time: 1 hr 57 min 13 sec) 
Heartbeat CPU  0 instructions:  462000000 cycles: 15057749230 heartbeat IPC: 0.01620 cumulative IPC: 0.02417 (Simulation time: 1 hr 57 min 42 sec) 
Heartbeat CPU  0 instructions:  463000002 cycles: 15116614980 heartbeat IPC: 0.01699 cumulative IPC: 0.02414 (Simulation time: 1 hr 58 min 8 sec) 
Heartbeat CPU  0 instructions:  464000000 cycles: 15139832406 heartbeat IPC: 0.04307 cumulative IPC: 0.02417 (Simulation time: 1 hr 58 min 19 sec) 
Heartbeat CPU  0 instructions:  465000000 cycles: 15175179695 heartbeat IPC: 0.02829 cumulative IPC: 0.02418 (Simulation time: 1 hr 58 min 34 sec) 
Heartbeat CPU  0 instructions:  466000003 cycles: 15222713801 heartbeat IPC: 0.02104 cumulative IPC: 0.02417 (Simulation time: 1 hr 58 min 57 sec) 
Heartbeat CPU  0 instructions:  467000002 cycles: 15300002964 heartbeat IPC: 0.01294 cumulative IPC: 0.02412 (Simulation time: 1 hr 59 min 31 sec) 
Heartbeat CPU  0 instructions:  468000000 cycles: 15325650220 heartbeat IPC: 0.03899 cumulative IPC: 0.02414 (Simulation time: 1 hr 59 min 44 sec) 
Heartbeat CPU  0 instructions:  469000000 cycles: 15363347762 heartbeat IPC: 0.02653 cumulative IPC: 0.02415 (Simulation time: 2 hr 0 min 0 sec) 
Heartbeat CPU  0 instructions:  470000000 cycles: 15391720782 heartbeat IPC: 0.03524 cumulative IPC: 0.02417 (Simulation time: 2 hr 0 min 14 sec) 
Heartbeat CPU  0 instructions:  471000000 cycles: 15485855376 heartbeat IPC: 0.01062 cumulative IPC: 0.02409 (Simulation time: 2 hr 0 min 56 sec) 
Heartbeat CPU  0 instructions:  472000000 cycles: 15512615970 heartbeat IPC: 0.03737 cumulative IPC: 0.02411 (Simulation time: 2 hr 1 min 8 sec) 
Heartbeat CPU  0 instructions:  473000001 cycles: 15544328951 heartbeat IPC: 0.03153 cumulative IPC: 0.02412 (Simulation time: 2 hr 1 min 22 sec) 
Heartbeat CPU  0 instructions:  474000001 cycles: 15567388258 heartbeat IPC: 0.04337 cumulative IPC: 0.02415 (Simulation time: 2 hr 1 min 33 sec) 
Heartbeat CPU  0 instructions:  475000003 cycles: 15644450567 heartbeat IPC: 0.01298 cumulative IPC: 0.02410 (Simulation time: 2 hr 2 min 9 sec) 
Heartbeat CPU  0 instructions:  476000000 cycles: 15698703425 heartbeat IPC: 0.01843 cumulative IPC: 0.02408 (Simulation time: 2 hr 2 min 32 sec) 
Heartbeat CPU  0 instructions:  477000003 cycles: 15731200862 heartbeat IPC: 0.03077 cumulative IPC: 0.02409 (Simulation time: 2 hr 2 min 46 sec) 
Heartbeat CPU  0 instructions:  478000000 cycles: 15763893283 heartbeat IPC: 0.03059 cumulative IPC: 0.02410 (Simulation time: 2 hr 3 min 0 sec) 
Heartbeat CPU  0 instructions:  479000000 cycles: 15789165471 heartbeat IPC: 0.03957 cumulative IPC: 0.02413 (Simulation time: 2 hr 3 min 12 sec) 
Heartbeat CPU  0 instructions:  480000000 cycles: 15876929434 heartbeat IPC: 0.01139 cumulative IPC: 0.02406 (Simulation time: 2 hr 3 min 52 sec) 
Heartbeat CPU  0 instructions:  481000000 cycles: 15908879182 heartbeat IPC: 0.03130 cumulative IPC: 0.02407 (Simulation time: 2 hr 4 min 7 sec) 
Heartbeat CPU  0 instructions:  482000000 cycles: 15934937068 heartbeat IPC: 0.03838 cumulative IPC: 0.02410 (Simulation time: 2 hr 4 min 18 sec) 
Heartbeat CPU  0 instructions:  483000002 cycles: 15960652388 heartbeat IPC: 0.03889 cumulative IPC: 0.02412 (Simulation time: 2 hr 4 min 30 sec) 
Heartbeat CPU  0 instructions:  484000000 cycles: 16054237672 heartbeat IPC: 0.01069 cumulative IPC: 0.02404 (Simulation time: 2 hr 5 min 12 sec) 
Heartbeat CPU  0 instructions:  485000000 cycles: 16078657375 heartbeat IPC: 0.04095 cumulative IPC: 0.02407 (Simulation time: 2 hr 5 min 23 sec) 
Heartbeat CPU  0 instructions:  486000000 cycles: 16106003643 heartbeat IPC: 0.03657 cumulative IPC: 0.02409 (Simulation time: 2 hr 5 min 35 sec) 
Heartbeat CPU  0 instructions:  487000002 cycles: 16132694108 heartbeat IPC: 0.03747 cumulative IPC: 0.02411 (Simulation time: 2 hr 5 min 48 sec) 
Heartbeat CPU  0 instructions:  488000000 cycles: 16225483050 heartbeat IPC: 0.01078 cumulative IPC: 0.02403 (Simulation time: 2 hr 6 min 30 sec) 
Heartbeat CPU  0 instructions:  489000001 cycles: 16247351156 heartbeat IPC: 0.04573 cumulative IPC: 0.02406 (Simulation time: 2 hr 6 min 40 sec) 
Heartbeat CPU  0 instructions:  490000002 cycles: 16270419562 heartbeat IPC: 0.04335 cumulative IPC: 0.02409 (Simulation time: 2 hr 6 min 51 sec) 
Heartbeat CPU  0 instructions:  491000003 cycles: 16304407678 heartbeat IPC: 0.02942 cumulative IPC: 0.02410 (Simulation time: 2 hr 7 min 7 sec) 
Heartbeat CPU  0 instructions:  492000000 cycles: 16387675294 heartbeat IPC: 0.01201 cumulative IPC: 0.02404 (Simulation time: 2 hr 7 min 44 sec) 
Heartbeat CPU  0 instructions:  493000001 cycles: 16409142084 heartbeat IPC: 0.04658 cumulative IPC: 0.02407 (Simulation time: 2 hr 7 min 54 sec) 
Heartbeat CPU  0 instructions:  494000002 cycles: 16435309734 heartbeat IPC: 0.03822 cumulative IPC: 0.02409 (Simulation time: 2 hr 8 min 6 sec) 
Heartbeat CPU  0 instructions:  495000002 cycles: 16466018261 heartbeat IPC: 0.03256 cumulative IPC: 0.02411 (Simulation time: 2 hr 8 min 21 sec) 
Heartbeat CPU  0 instructions:  496000000 cycles: 16551643317 heartbeat IPC: 0.01168 cumulative IPC: 0.02404 (Simulation time: 2 hr 8 min 59 sec) 
Heartbeat CPU  0 instructions:  497000002 cycles: 16572675661 heartbeat IPC: 0.04755 cumulative IPC: 0.02407 (Simulation time: 2 hr 9 min 9 sec) 
Heartbeat CPU  0 instructions:  498000001 cycles: 16595827672 heartbeat IPC: 0.04319 cumulative IPC: 0.02410 (Simulation time: 2 hr 9 min 19 sec) 
Heartbeat CPU  0 instructions:  499000002 cycles: 16634483702 heartbeat IPC: 0.02587 cumulative IPC: 0.02411 (Simulation time: 2 hr 9 min 38 sec) 
Heartbeat CPU  0 instructions:  500000000 cycles: 16712312361 heartbeat IPC: 0.01285 cumulative IPC: 0.02405 (Simulation time: 2 hr 10 min 13 sec) 
Heartbeat CPU  0 instructions:  501000002 cycles: 16733428116 heartbeat IPC: 0.04736 cumulative IPC: 0.02408 (Simulation time: 2 hr 10 min 22 sec) 
Heartbeat CPU  0 instructions:  502000001 cycles: 16757764617 heartbeat IPC: 0.04109 cumulative IPC: 0.02411 (Simulation time: 2 hr 10 min 34 sec) 
Heartbeat CPU  0 instructions:  503000003 cycles: 16810123013 heartbeat IPC: 0.01910 cumulative IPC: 0.02409 (Simulation time: 2 hr 10 min 58 sec) 
Heartbeat CPU  0 instructions:  504000000 cycles: 16874019592 heartbeat IPC: 0.01565 cumulative IPC: 0.02406 (Simulation time: 2 hr 11 min 26 sec) 
Heartbeat CPU  0 instructions:  505000002 cycles: 16896154214 heartbeat IPC: 0.04518 cumulative IPC: 0.02409 (Simulation time: 2 hr 11 min 36 sec) 
Heartbeat CPU  0 instructions:  506000001 cycles: 16920768546 heartbeat IPC: 0.04063 cumulative IPC: 0.02411 (Simulation time: 2 hr 11 min 47 sec) 
Heartbeat CPU  0 instructions:  507000001 cycles: 16985097577 heartbeat IPC: 0.01555 cumulative IPC: 0.02408 (Simulation time: 2 hr 12 min 17 sec) 
Heartbeat CPU  0 instructions:  508000000 cycles: 17041774835 heartbeat IPC: 0.01764 cumulative IPC: 0.02406 (Simulation time: 2 hr 12 min 41 sec) 
Heartbeat CPU  0 instructions:  509000000 cycles: 17064490011 heartbeat IPC: 0.04402 cumulative IPC: 0.02408 (Simulation time: 2 hr 12 min 52 sec) 
Heartbeat CPU  0 instructions:  510000000 cycles: 17086776193 heartbeat IPC: 0.04487 cumulative IPC: 0.02411 (Simulation time: 2 hr 13 min 2 sec) 
Heartbeat CPU  0 instructions:  511000001 cycles: 17161788951 heartbeat IPC: 0.01333 cumulative IPC: 0.02406 (Simulation time: 2 hr 13 min 37 sec) 
Heartbeat CPU  0 instructions:  512000000 cycles: 17202781920 heartbeat IPC: 0.02439 cumulative IPC: 0.02406 (Simulation time: 2 hr 13 min 55 sec) 
Heartbeat CPU  0 instructions:  513000000 cycles: 17225492471 heartbeat IPC: 0.04403 cumulative IPC: 0.02409 (Simulation time: 2 hr 14 min 6 sec) 
Heartbeat CPU  0 instructions:  514000000 cycles: 17246961675 heartbeat IPC: 0.04658 cumulative IPC: 0.02412 (Simulation time: 2 hr 14 min 16 sec) 
Heartbeat CPU  0 instructions:  515000000 cycles: 17331326039 heartbeat IPC: 0.01185 cumulative IPC: 0.02406 (Simulation time: 2 hr 14 min 55 sec) 
Heartbeat CPU  0 instructions:  516000000 cycles: 17364640981 heartbeat IPC: 0.03002 cumulative IPC: 0.02407 (Simulation time: 2 hr 15 min 9 sec) 
Heartbeat CPU  0 instructions:  517000000 cycles: 17386548079 heartbeat IPC: 0.04565 cumulative IPC: 0.02410 (Simulation time: 2 hr 15 min 20 sec) 
Heartbeat CPU  0 instructions:  518000001 cycles: 17408770522 heartbeat IPC: 0.04500 cumulative IPC: 0.02412 (Simulation time: 2 hr 15 min 31 sec) 
Heartbeat CPU  0 instructions:  519000000 cycles: 17505061791 heartbeat IPC: 0.01039 cumulative IPC: 0.02405 (Simulation time: 2 hr 16 min 14 sec) 
Heartbeat CPU  0 instructions:  520000000 cycles: 17526158405 heartbeat IPC: 0.04740 cumulative IPC: 0.02408 (Simulation time: 2 hr 16 min 24 sec) 
Heartbeat CPU  0 instructions:  521000002 cycles: 17548584914 heartbeat IPC: 0.04459 cumulative IPC: 0.02410 (Simulation time: 2 hr 16 min 35 sec) 
Heartbeat CPU  0 instructions:  522000002 cycles: 17575672304 heartbeat IPC: 0.03692 cumulative IPC: 0.02412 (Simulation time: 2 hr 16 min 47 sec) 
Heartbeat CPU  0 instructions:  523000002 cycles: 17669781746 heartbeat IPC: 0.01063 cumulative IPC: 0.02405 (Simulation time: 2 hr 17 min 29 sec) 
Heartbeat CPU  0 instructions:  524000000 cycles: 17689293125 heartbeat IPC: 0.05125 cumulative IPC: 0.02408 (Simulation time: 2 hr 17 min 39 sec) 
Heartbeat CPU  0 instructions:  525000002 cycles: 17709886867 heartbeat IPC: 0.04856 cumulative IPC: 0.02411 (Simulation time: 2 hr 17 min 49 sec) 
Heartbeat CPU  0 instructions:  526000000 cycles: 17737822830 heartbeat IPC: 0.03580 cumulative IPC: 0.02413 (Simulation time: 2 hr 18 min 2 sec) 
Heartbeat CPU  0 instructions:  527000000 cycles: 17830550655 heartbeat IPC: 0.01078 cumulative IPC: 0.02406 (Simulation time: 2 hr 18 min 44 sec) 
Heartbeat CPU  0 instructions:  528000000 cycles: 17848391466 heartbeat IPC: 0.05605 cumulative IPC: 0.02409 (Simulation time: 2 hr 18 min 52 sec) 
Heartbeat CPU  0 instructions:  529000001 cycles: 17868420064 heartbeat IPC: 0.04993 cumulative IPC: 0.02412 (Simulation time: 2 hr 19 min 2 sec) 
Heartbeat CPU  0 instructions:  530000002 cycles: 17899871851 heartbeat IPC: 0.03179 cumulative IPC: 0.02413 (Simulation time: 2 hr 19 min 17 sec) 
Heartbeat CPU  0 instructions:  531000000 cycles: 17989354660 heartbeat IPC: 0.01118 cumulative IPC: 0.02407 (Simulation time: 2 hr 19 min 57 sec) 
Heartbeat CPU  0 instructions:  532000000 cycles: 18020413443 heartbeat IPC: 0.03220 cumulative IPC: 0.02408 (Simulation time: 2 hr 20 min 11 sec) 
Heartbeat CPU  0 instructions:  533000000 cycles: 18038639064 heartbeat IPC: 0.05487 cumulative IPC: 0.02411 (Simulation time: 2 hr 20 min 19 sec) 
Heartbeat CPU  0 instructions:  534000000 cycles: 18057296792 heartbeat IPC: 0.05360 cumulative IPC: 0.02414 (Simulation time: 2 hr 20 min 27 sec) 
Heartbeat CPU  0 instructions:  535000000 cycles: 18120298389 heartbeat IPC: 0.01587 cumulative IPC: 0.02412 (Simulation time: 2 hr 20 min 57 sec) 
Heartbeat CPU  0 instructions:  536000000 cycles: 18168657466 heartbeat IPC: 0.02068 cumulative IPC: 0.02411 (Simulation time: 2 hr 21 min 18 sec) 
Heartbeat CPU  0 instructions:  537000001 cycles: 18186620051 heartbeat IPC: 0.05567 cumulative IPC: 0.02414 (Simulation time: 2 hr 21 min 26 sec) 
Heartbeat CPU  0 instructions:  538000000 cycles: 18205562210 heartbeat IPC: 0.05279 cumulative IPC: 0.02417 (Simulation time: 2 hr 21 min 35 sec) 
Heartbeat CPU  0 instructions:  539000003 cycles: 18264128824 heartbeat IPC: 0.01707 cumulative IPC: 0.02414 (Simulation time: 2 hr 22 min 2 sec) 
Heartbeat CPU  0 instructions:  540000000 cycles: 18317464602 heartbeat IPC: 0.01875 cumulative IPC: 0.02413 (Simulation time: 2 hr 22 min 26 sec) 
Heartbeat CPU  0 instructions:  541000001 cycles: 18336405573 heartbeat IPC: 0.05280 cumulative IPC: 0.02416 (Simulation time: 2 hr 22 min 35 sec) 
Heartbeat CPU  0 instructions:  542000003 cycles: 18355313870 heartbeat IPC: 0.05289 cumulative IPC: 0.02419 (Simulation time: 2 hr 22 min 44 sec) 
Heartbeat CPU  0 instructions:  543000001 cycles: 18404660093 heartbeat IPC: 0.02026 cumulative IPC: 0.02418 (Simulation time: 2 hr 23 min 7 sec) 
Heartbeat CPU  0 instructions:  544000000 cycles: 18469211472 heartbeat IPC: 0.01549 cumulative IPC: 0.02415 (Simulation time: 2 hr 23 min 36 sec) 
Heartbeat CPU  0 instructions:  545000003 cycles: 18486263652 heartbeat IPC: 0.05864 cumulative IPC: 0.02418 (Simulation time: 2 hr 23 min 44 sec) 
Heartbeat CPU  0 instructions:  546000000 cycles: 18505984055 heartbeat IPC: 0.05071 cumulative IPC: 0.02421 (Simulation time: 2 hr 23 min 53 sec) 
Heartbeat CPU  0 instructions:  547000000 cycles: 18551247656 heartbeat IPC: 0.02209 cumulative IPC: 0.02420 (Simulation time: 2 hr 24 min 15 sec) 
Heartbeat CPU  0 instructions:  548000000 cycles: 18620531930 heartbeat IPC: 0.01443 cumulative IPC: 0.02417 (Simulation time: 2 hr 24 min 46 sec) 
Heartbeat CPU  0 instructions:  549000000 cycles: 18637409893 heartbeat IPC: 0.05925 cumulative IPC: 0.02420 (Simulation time: 2 hr 24 min 54 sec) 
Heartbeat CPU  0 instructions:  550000000 cycles: 18655760717 heartbeat IPC: 0.05449 cumulative IPC: 0.02423 (Simulation time: 2 hr 25 min 3 sec) 
Heartbeat CPU  0 instructions:  551000002 cycles: 18698210949 heartbeat IPC: 0.02356 cumulative IPC: 0.02423 (Simulation time: 2 hr 25 min 23 sec) 
Heartbeat CPU  0 instructions:  552000000 cycles: 18770207025 heartbeat IPC: 0.01389 cumulative IPC: 0.02419 (Simulation time: 2 hr 25 min 56 sec) 
Heartbeat CPU  0 instructions:  553000001 cycles: 18786718034 heartbeat IPC: 0.06057 cumulative IPC: 0.02422 (Simulation time: 2 hr 26 min 4 sec) 
Heartbeat CPU  0 instructions:  554000000 cycles: 18805321142 heartbeat IPC: 0.05375 cumulative IPC: 0.02425 (Simulation time: 2 hr 26 min 12 sec) 
Heartbeat CPU  0 instructions:  555000003 cycles: 18834795746 heartbeat IPC: 0.03393 cumulative IPC: 0.02426 (Simulation time: 2 hr 26 min 26 sec) 
Heartbeat CPU  0 instructions:  556000000 cycles: 18918440431 heartbeat IPC: 0.01196 cumulative IPC: 0.02421 (Simulation time: 2 hr 27 min 4 sec) 
Heartbeat CPU  0 instructions:  557000002 cycles: 18933092949 heartbeat IPC: 0.06825 cumulative IPC: 0.02424 (Simulation time: 2 hr 27 min 11 sec) 
Heartbeat CPU  0 instructions:  558000000 cycles: 18947811203 heartbeat IPC: 0.06794 cumulative IPC: 0.02428 (Simulation time: 2 hr 27 min 17 sec) 
Heartbeat CPU  0 instructions:  559000000 cycles: 18962735814 heartbeat IPC: 0.06700 cumulative IPC: 0.02431 (Simulation time: 2 hr 27 min 25 sec) 
Heartbeat CPU  0 instructions:  560000000 cycles: 19049034719 heartbeat IPC: 0.01159 cumulative IPC: 0.02425 (Simulation time: 2 hr 28 min 4 sec) 
Heartbeat CPU  0 instructions:  561000001 cycles: 19074550708 heartbeat IPC: 0.03919 cumulative IPC: 0.02427 (Simulation time: 2 hr 28 min 16 sec) 
Heartbeat CPU  0 instructions:  562000002 cycles: 19089008478 heartbeat IPC: 0.06917 cumulative IPC: 0.02431 (Simulation time: 2 hr 28 min 23 sec) 
Heartbeat CPU  0 instructions:  563000002 cycles: 19103765451 heartbeat IPC: 0.06776 cumulative IPC: 0.02434 (Simulation time: 2 hr 28 min 30 sec) 
Heartbeat CPU  0 instructions:  564000000 cycles: 19160566594 heartbeat IPC: 0.01761 cumulative IPC: 0.02432 (Simulation time: 2 hr 28 min 57 sec) 
Heartbeat CPU  0 instructions:  565000000 cycles: 19215985862 heartbeat IPC: 0.01804 cumulative IPC: 0.02430 (Simulation time: 2 hr 29 min 21 sec) 
Heartbeat CPU  0 instructions:  566000001 cycles: 19229986534 heartbeat IPC: 0.07143 cumulative IPC: 0.02434 (Simulation time: 2 hr 29 min 28 sec) 
Heartbeat CPU  0 instructions:  567000001 cycles: 19244894694 heartbeat IPC: 0.06708 cumulative IPC: 0.02437 (Simulation time: 2 hr 29 min 35 sec) 
Heartbeat CPU  0 instructions:  568000000 cycles: 19279223171 heartbeat IPC: 0.02913 cumulative IPC: 0.02438 (Simulation time: 2 hr 29 min 52 sec) 
Heartbeat CPU  0 instructions:  569000000 cycles: 19358650967 heartbeat IPC: 0.01259 cumulative IPC: 0.02433 (Simulation time: 2 hr 30 min 27 sec) 
Heartbeat CPU  0 instructions:  570000000 cycles: 19377249221 heartbeat IPC: 0.05377 cumulative IPC: 0.02436 (Simulation time: 2 hr 30 min 36 sec) 
Heartbeat CPU  0 instructions:  571000000 cycles: 19393392327 heartbeat IPC: 0.06195 cumulative IPC: 0.02439 (Simulation time: 2 hr 30 min 44 sec) 
Heartbeat CPU  0 instructions:  572000000 cycles: 19410252879 heartbeat IPC: 0.05931 cumulative IPC: 0.02442 (Simulation time: 2 hr 30 min 52 sec) 
Heartbeat CPU  0 instructions:  573000003 cycles: 19506299634 heartbeat IPC: 0.01041 cumulative IPC: 0.02435 (Simulation time: 2 hr 31 min 35 sec) 
Heartbeat CPU  0 instructions:  574000001 cycles: 19522061079 heartbeat IPC: 0.06345 cumulative IPC: 0.02438 (Simulation time: 2 hr 31 min 43 sec) 
Heartbeat CPU  0 instructions:  575000002 cycles: 19536779843 heartbeat IPC: 0.06794 cumulative IPC: 0.02442 (Simulation time: 2 hr 31 min 50 sec) 
Heartbeat CPU  0 instructions:  576000000 cycles: 19556396116 heartbeat IPC: 0.05098 cumulative IPC: 0.02444 (Simulation time: 2 hr 31 min 59 sec) 
Heartbeat CPU  0 instructions:  577000001 cycles: 19623516785 heartbeat IPC: 0.01490 cumulative IPC: 0.02441 (Simulation time: 2 hr 32 min 29 sec) 
Heartbeat CPU  0 instructions:  578000000 cycles: 19674200160 heartbeat IPC: 0.01973 cumulative IPC: 0.02440 (Simulation time: 2 hr 32 min 52 sec) 
Heartbeat CPU  0 instructions:  579000000 cycles: 19688895773 heartbeat IPC: 0.06805 cumulative IPC: 0.02443 (Simulation time: 2 hr 32 min 59 sec) 
Heartbeat CPU  0 instructions:  580000000 cycles: 19705489943 heartbeat IPC: 0.06026 cumulative IPC: 0.02446 (Simulation time: 2 hr 33 min 7 sec) 
Heartbeat CPU  0 instructions:  581000001 cycles: 19743435196 heartbeat IPC: 0.02635 cumulative IPC: 0.02446 (Simulation time: 2 hr 33 min 24 sec) 
Heartbeat CPU  0 instructions:  582000003 cycles: 19825231476 heartbeat IPC: 0.01223 cumulative IPC: 0.02441 (Simulation time: 2 hr 34 min 1 sec) 
Heartbeat CPU  0 instructions:  583000000 cycles: 19840032523 heartbeat IPC: 0.06756 cumulative IPC: 0.02445 (Simulation time: 2 hr 34 min 8 sec) 
Heartbeat CPU  0 instructions:  584000000 cycles: 19855718750 heartbeat IPC: 0.06375 cumulative IPC: 0.02448 (Simulation time: 2 hr 34 min 16 sec) 
Heartbeat CPU  0 instructions:  585000002 cycles: 19873034482 heartbeat IPC: 0.05775 cumulative IPC: 0.02451 (Simulation time: 2 hr 34 min 24 sec) 
Heartbeat CPU  0 instructions:  586000001 cycles: 19974434306 heartbeat IPC: 0.00986 cumulative IPC: 0.02443 (Simulation time: 2 hr 35 min 10 sec) 
Heartbeat CPU  0 instructions:  587000001 cycles: 19991489285 heartbeat IPC: 0.05863 cumulative IPC: 0.02446 (Simulation time: 2 hr 35 min 18 sec) 
Heartbeat CPU  0 instructions:  588000000 cycles: 20007543247 heartbeat IPC: 0.06229 cumulative IPC: 0.02449 (Simulation time: 2 hr 35 min 26 sec) 
Heartbeat CPU  0 instructions:  589000003 cycles: 20036905588 heartbeat IPC: 0.03406 cumulative IPC: 0.02451 (Simulation time: 2 hr 35 min 38 sec) 
Heartbeat CPU  0 instructions:  590000000 cycles: 20067922759 heartbeat IPC: 0.03224 cumulative IPC: 0.02452 (Simulation time: 2 hr 35 min 52 sec) 
Heartbeat CPU  0 instructions:  591000001 cycles: 20161872523 heartbeat IPC: 0.01064 cumulative IPC: 0.02445 (Simulation time: 2 hr 36 min 35 sec) 
Heartbeat CPU  0 instructions:  592000000 cycles: 20177250888 heartbeat IPC: 0.06503 cumulative IPC: 0.02448 (Simulation time: 2 hr 36 min 42 sec) 
Heartbeat CPU  0 instructions:  593000001 cycles: 20192483603 heartbeat IPC: 0.06565 cumulative IPC: 0.02451 (Simulation time: 2 hr 36 min 49 sec) 
Heartbeat CPU  0 instructions:  594000000 cycles: 20208223538 heartbeat IPC: 0.06353 cumulative IPC: 0.02455 (Simulation time: 2 hr 36 min 57 sec) 
Heartbeat CPU  0 instructions:  595000000 cycles: 20293179312 heartbeat IPC: 0.01177 cumulative IPC: 0.02449 (Simulation time: 2 hr 37 min 35 sec) 
Heartbeat CPU  0 instructions:  596000000 cycles: 20326025089 heartbeat IPC: 0.03045 cumulative IPC: 0.02450 (Simulation time: 2 hr 37 min 51 sec) 
Heartbeat CPU  0 instructions:  597000001 cycles: 20344809292 heartbeat IPC: 0.05324 cumulative IPC: 0.02453 (Simulation time: 2 hr 38 min 0 sec) 
Heartbeat CPU  0 instructions:  598000001 cycles: 20362946848 heartbeat IPC: 0.05513 cumulative IPC: 0.02456 (Simulation time: 2 hr 38 min 8 sec) 
Heartbeat CPU  0 instructions:  599000002 cycles: 20442292422 heartbeat IPC: 0.01260 cumulative IPC: 0.02451 (Simulation time: 2 hr 38 min 44 sec) 
Heartbeat CPU  0 instructions:  600000000 cycles: 20482999499 heartbeat IPC: 0.02457 cumulative IPC: 0.02451 (Simulation time: 2 hr 39 min 3 sec) 
Finished CPU 0 instructions: 500000000 cycles: 20400910395 cumulative IPC: 0.02451 (Simulation time: 2 hr 39 min 3 sec) 

ChampSim completed all CPUs

[ROI Statistics]
Core_0_instructions 500000000
Core_0_cycles 20400910395
Core_0_IPC 0.02451

Core_0_branch_prediction_accuracy 93.75037
Core_0_branch_MPKI 14.79093
Core_0_average_ROB_occupancy_at_mispredict 57.60830

Core_0_L1D_total_access 126669223
Core_0_L1D_total_hit 74449754
Core_0_L1D_total_miss 52219469
Core_0_L1D_loads 104051976
Core_0_L1D_load_hit 53725776
Core_0_L1D_load_miss 50326200
Core_0_L1D_RFOs 22617247
Core_0_L1D_RFO_hit 20723978
Core_0_L1D_RFO_miss 1893269
Core_0_L1D_prefetches 0
Core_0_L1D_prefetch_hit 0
Core_0_L1D_prefetch_miss 0
Core_0_L1D_writebacks 0
Core_0_L1D_writeback_hit 0
Core_0_L1D_writeback_miss 0
Core_0_L1D_prefetch_requested 0
Core_0_L1D_prefetch_dropped 0
Core_0_L1D_prefetch_issued 0
Core_0_L1D_prefetch_filled 0
Core_0_L1D_prefetch_useful 0
Core_0_L1D_prefetch_useless 0
Core_0_L1D_prefetch_late 0
Core_0_L1D_average_miss_latency 902.41713

Core_0_L1D_rq_access 159068263
Core_0_L1D_rq_forward 0
Core_0_L1D_rq_merged 54381424
Core_0_L1D_rq_to_cache 104686837
Core_0_L1D_rq_full 0

Core_0_L1D_wq_access 26393734
Core_0_L1D_wq_forward 2
Core_0_L1D_wq_merged 2415041
Core_0_L1D_wq_to_cache 23978693
Core_0_L1D_wq_full 0

Core_0_L1D_pq_access 0
Core_0_L1D_pq_forward 0
Core_0_L1D_pq_merged 0
Core_0_L1D_pq_to_cache 0
Core_0_L1D_pq_full 0

Core_0_L1D_acc_epochs 19474300
Core_0_L1D_acc_level_0 19474300
Core_0_L1D_acc_level_1 0
Core_0_L1D_acc_level_2 0
Core_0_L1D_acc_level_3 0
Core_0_L1D_acc_level_4 0
Core_0_L1D_acc_level_5 0
Core_0_L1D_acc_level_6 0
Core_0_L1D_acc_level_7 0
Core_0_L1D_acc_level_8 0
Core_0_L1D_acc_level_9 0

Core_0_L1I_total_access 107605286
Core_0_L1I_total_hit 107605286
Core_0_L1I_total_miss 0
Core_0_L1I_loads 107605286
Core_0_L1I_load_hit 107605286
Core_0_L1I_load_miss 0
Core_0_L1I_RFOs 0
Core_0_L1I_RFO_hit 0
Core_0_L1I_RFO_miss 0
Core_0_L1I_prefetches 0
Core_0_L1I_prefetch_hit 0
Core_0_L1I_prefetch_miss 0
Core_0_L1I_writebacks 0
Core_0_L1I_writeback_hit 0
Core_0_L1I_writeback_miss 0
Core_0_L1I_prefetch_requested 0
Core_0_L1I_prefetch_dropped 0
Core_0_L1I_prefetch_issued 0
Core_0_L1I_prefetch_filled 0
Core_0_L1I_prefetch_useful 0
Core_0_L1I_prefetch_useless 0
Core_0_L1I_prefetch_late 0
Core_0_L1I_average_miss_latency -nan

Core_0_L1I_rq_access 499999764
Core_0_L1I_rq_forward 0
Core_0_L1I_rq_merged 392394478
Core_0_L1I_rq_to_cache 107605286
Core_0_L1I_rq_full 0

Core_0_L1I_wq_access 0
Core_0_L1I_wq_forward 0
Core_0_L1I_wq_merged 0
Core_0_L1I_wq_to_cache 0
Core_0_L1I_wq_full 0

Core_0_L1I_pq_access 0
Core_0_L1I_pq_forward 0
Core_0_L1I_pq_merged 0
Core_0_L1I_pq_to_cache 0
Core_0_L1I_pq_full 0

Core_0_L1I_acc_epochs 19474300
Core_0_L1I_acc_level_0 19474300
Core_0_L1I_acc_level_1 0
Core_0_L1I_acc_level_2 0
Core_0_L1I_acc_level_3 0
Core_0_L1I_acc_level_4 0
Core_0_L1I_acc_level_5 0
Core_0_L1I_acc_level_6 0
Core_0_L1I_acc_level_7 0
Core_0_L1I_acc_level_8 0
Core_0_L1I_acc_level_9 0

Core_0_L2C_total_access 94826102
Core_0_L2C_total_hit 49881569
Core_0_L2C_total_miss 44944533
Core_0_L2C_loads 50325229
Core_0_L2C_load_hit 13703887
Core_0_L2C_load_miss 36621342
Core_0_L2C_RFOs 1893236
Core_0_L2C_RFO_hit 1034380
Core_0_L2C_RFO_miss 858856
Core_0_L2C_prefetches 30224122
Core_0_L2C_prefetch_hit 22792309
Core_0_L2C_prefetch_miss 7431813
Core_0_L2C_writebacks 12383515
Core_0_L2C_writeback_hit 12350993
Core_0_L2C_writeback_miss 32522
Core_0_L2C_prefetch_requested 359282340
Core_0_L2C_prefetch_dropped 0
Core_0_L2C_prefetch_issued 359282340
Core_0_L2C_prefetch_filled 8526508
Core_0_L2C_prefetch_useful 2119228
Core_0_L2C_prefetch_useless 6406915
Core_0_L2C_prefetch_late 49973
Core_0_L2C_average_miss_latency 1219.65959

Core_0_L2C_rq_access 52219469
Core_0_L2C_rq_forward 0
Core_0_L2C_rq_merged 0
Core_0_L2C_rq_to_cache 52218465
Core_0_L2C_rq_full 0

Core_0_L2C_wq_access 12383515
Core_0_L2C_wq_forward 1396
Core_0_L2C_wq_merged 0
Core_0_L2C_wq_to_cache 12383515
Core_0_L2C_wq_full 0

Core_0_L2C_pq_access 359282340
Core_0_L2C_pq_forward 0
Core_0_L2C_pq_merged 2
Core_0_L2C_pq_to_cache 359281946
Core_0_L2C_pq_full 0

Core_0_L2C_acc_epochs 19474300
Core_0_L2C_acc_level_0 17958084
Core_0_L2C_acc_level_1 528420
Core_0_L2C_acc_level_2 381530
Core_0_L2C_acc_level_3 113688
Core_0_L2C_acc_level_4 31663
Core_0_L2C_acc_level_5 267944
Core_0_L2C_acc_level_6 33168
Core_0_L2C_acc_level_7 37635
Core_0_L2C_acc_level_8 12206
Core_0_L2C_acc_level_9 109962

Core_0_LLC_total_access 348149836
Core_0_LLC_total_hit 167673028
Core_0_LLC_total_miss 180476808
Core_0_LLC_loads 36574327
Core_0_LLC_load_hit 14568149
Core_0_LLC_load_miss 22006178
Core_0_LLC_RFOs 858366
Core_0_LLC_RFO_hit 478779
Core_0_LLC_RFO_miss 379587
Core_0_LLC_prefetches 301903598
Core_0_LLC_prefetch_hit 147525754
Core_0_LLC_prefetch_miss 154377844
Core_0_LLC_writebacks 8813545
Core_0_LLC_writeback_hit 5100346
Core_0_LLC_writeback_miss 3713199
Core_0_LLC_prefetch_requested 0
Core_0_LLC_prefetch_dropped 0
Core_0_LLC_prefetch_issued 0
Core_0_LLC_prefetch_filled 169537167
Core_0_LLC_prefetch_useful 11232079
Core_0_LLC_prefetch_useless 158280531
Core_0_LLC_prefetch_late 155493
Core_0_LLC_average_miss_latency 2551.41014

Core_0_LLC_rq_access 37432865
Core_0_LLC_rq_forward 0
Core_0_LLC_rq_merged 0
Core_0_LLC_rq_to_cache 37432693
Core_0_LLC_rq_full 0

Core_0_LLC_wq_access 8813545
Core_0_LLC_wq_forward 236
Core_0_LLC_wq_merged 0
Core_0_LLC_wq_to_cache 8813545
Core_0_LLC_wq_full 0

Core_0_LLC_pq_access 329453538
Core_0_LLC_pq_forward 0
Core_0_LLC_pq_merged 0
Core_0_LLC_pq_to_cache 329453456
Core_0_LLC_pq_full 0

Core_0_LLC_acc_epochs 20002930
Core_0_LLC_acc_level_0 15164319
Core_0_LLC_acc_level_1 2821688
Core_0_LLC_acc_level_2 990277
Core_0_LLC_acc_level_3 411393
Core_0_LLC_acc_level_4 160294
Core_0_LLC_acc_level_5 172685
Core_0_LLC_acc_level_6 62359
Core_0_LLC_acc_level_7 45863
Core_0_LLC_acc_level_8 27782
Core_0_LLC_acc_level_9 146270

Core_0_major_page_fault 0
Core_0_minor_page_fault 158560

[Bingo] PHT Access: 42446570
[Bingo] PHT Hit PC+Addr: 4447091
[Bingo] PHT Hit PC+Offs: 29747734
[Bingo] PHT Miss: 8251745
[Bingo] Prefetch PC+Addr: 0
[Bingo] Prefetch PC+Offs: 0
[Bingo] Useful PC+Addr: 0
[Bingo] Useful PC+Offs: 0
[Bingo] Useless PC+Addr: 0
[Bingo] Useless PC+Offs: 0
[Bingo] L1 Prefetch per Region: 0.00000
[Bingo] L2 Prefetch per Region: 1.60938
[Bingo] L3 Prefetch per Region: 11.19039
[Bingo] No Prefetch per Region: 19.20023
[Bingo] Number of Voters Mean: 12.12263
[Bingo] Number of Voters SD: 5.15314

Channel_0_RQ_row_buffer_hit 74961892
Channel_0_RQ_row_buffer_miss 101717711
Channel_0_WQ_row_buffer_hit 599493
Channel_0_WQ_row_buffer_miss 7667666
Channel_0_WQ_full 0
Channel_0_dbus_congested 179939413

avg_congested_cycle 103

DRAM_bw_pochs 80011717
DRAM_bw_level_0 35048003
DRAM_bw_level_1 9009819
DRAM_bw_level_2 0
DRAM_bw_level_3 35953895
