*************************************************
   ChampSim Multicore Out-of-Order Simulator
   Last compiled: Dec 11 2024 17:59:53
*************************************************
parsing config file: /home/functionmain/桌面/Pythia/config/mlop.ini

trace_0 /home/functionmain/桌面/Pythia/traces/429.mcf-184B.champsimtrace.xz
adding L2C_PREFETCHER: MLOP
Initialize SHIP state
warmup_instructions 100000000
simulation_instructions 500000000
champsim_seed 223
measure_ipc 0
measure_ipc_epoch 1000
measure_dram_bw 1
measure_dram_bw_epoch 256
measure_cache_acc 1
measure_cache_acc_epoch 1024
l1d_perfect 0
l2c_perfect 0
llc_perfect 0
l1d_semi_perfect 0
l2c_semi_perfect 0
llc_semi_perfect 0
semi_perfect_cache_page_buffer_size 64

num_cpus 1
cpu_freq 4000
dram_io_freq 150
page_size 4096
block_size 64
max_read_per_cycle 8
max_fill_per_cycle 1
dram_channels 1
log2_dram_channels 0
dram_ranks 1
dram_banks 8
dram_rows 65536
dram_columns 128
dram_row_size 8
dram_size 4096
dram_pages 1048576

fetch_width 6
decode_width 6
exec_width 4
lq_width 2
sq_width 2
retire_width 4
scheduler_size 128
branch_mispredict_penalty 20
rob_size 256
lq_size 72
sq_size 56
num_instr_destinations_sparc 4
num_instr_destinations 2
num_instr_sources 4

itlb_set 16
itlb_way 8
itlb_rq_size 16
itlb_wq_size 16
itlb_pq_size 0
itlb_mshr_size 8
itlb_latency 1

dtlb_set 16
dtlb_way 4
dtlb_rq_size 16
dtlb_wq_size 16
dtlb_pq_size 0
dtlb_mshr_size 8
dtlb_latency 1

stlb_set 128
stlb_way 12
stlb_rq_size 32
stlb_wq_size 32
stlb_pq_size 0
stlb_mshr_size 16
stlb_latency 8

l1i_size 32
l1i_set 64
l1i_way 8
l1i_rq_size 64
l1i_wq_size 64
l1i_pq_size 8
l1i_mshr_size 8
l1i_latency 1

l1d_size 32
l1d_set 64
l1d_way 8
l1d_rq_size 64
l1d_wq_size 64
l1d_pq_size 8
l1d_mshr_size 16
l1d_latency 4

l2c_size 256
l2c_set 512
l2c_way 8
l2c_rq_size 32
l2c_wq_size 32
l2c_pq_size 32
l2c_mshr_size 32
l2c_latency 10

llc_size 2048
llc_set 2048
llc_way 16
llc_rq_size 32
llc_wq_size 32
llc_pq_size 32
llc_mshr_size 64
llc_latency 20

dram_channel_width 8
dram_wq_size 64
dram_rq_size 64
tRP 15
tRCD 15
tCAS 12.5
dram_dbus_turn_around_time 30
dram_write_high_wm 56
dram_write_low_wm 48
min_dram_writes_per_switch 16
dram_mtps 150
dram_dbus_return_time 213

mlop_pref_degree 16
mlop_num_updates 500
mlop_l1d_thresh 2
mlop_l2c_thresh 0.75
mlop_llc_thresh 0.3
mlop_debug_level 0
mlop_blocks_in_cache 4096
mlop_blocks_in_zone 64
mlop_amt_size 2048
mlop_PF_DEGREE 16
mlop_NUM_UPDATES 500
mlop_L1D_THRESH 1000
mlop_L2C_THRESH 375
mlop_LLC_THRESH 150
mlop_ORIGIN 63
mlop_MAX_OFFSET 63
mlop_MIN_OFFSET -63
mlop_ORIGIN 63
mlop_NUM_OFFSETS 127


Heartbeat CPU  0 instructions:    1000002 cycles:    1107388 heartbeat IPC: 0.90303 cumulative IPC: 0.90303 (Simulation time: 0 hr 0 min 2 sec) 
Heartbeat CPU  0 instructions:    2000002 cycles:    2206571 heartbeat IPC: 0.90977 cumulative IPC: 0.90638 (Simulation time: 0 hr 0 min 4 sec) 
Heartbeat CPU  0 instructions:    3000000 cycles:    3271985 heartbeat IPC: 0.93860 cumulative IPC: 0.91687 (Simulation time: 0 hr 0 min 6 sec) 
Heartbeat CPU  0 instructions:    4000000 cycles:    4285412 heartbeat IPC: 0.98675 cumulative IPC: 0.93340 (Simulation time: 0 hr 0 min 8 sec) 
Heartbeat CPU  0 instructions:    5000003 cycles:    5244881 heartbeat IPC: 1.04225 cumulative IPC: 0.95331 (Simulation time: 0 hr 0 min 11 sec) 
Heartbeat CPU  0 instructions:    6000003 cycles:    6403437 heartbeat IPC: 0.86314 cumulative IPC: 0.93700 (Simulation time: 0 hr 0 min 13 sec) 
Heartbeat CPU  0 instructions:    7000001 cycles:    7550324 heartbeat IPC: 0.87192 cumulative IPC: 0.92711 (Simulation time: 0 hr 0 min 15 sec) 
Heartbeat CPU  0 instructions:    8000000 cycles:    8674933 heartbeat IPC: 0.88920 cumulative IPC: 0.92220 (Simulation time: 0 hr 0 min 17 sec) 
Heartbeat CPU  0 instructions:    9000001 cycles:    9812142 heartbeat IPC: 0.87935 cumulative IPC: 0.91723 (Simulation time: 0 hr 0 min 20 sec) 
Heartbeat CPU  0 instructions:   10000001 cycles:   10915986 heartbeat IPC: 0.90593 cumulative IPC: 0.91609 (Simulation time: 0 hr 0 min 22 sec) 
Heartbeat CPU  0 instructions:   11000000 cycles:   12021534 heartbeat IPC: 0.90453 cumulative IPC: 0.91502 (Simulation time: 0 hr 0 min 24 sec) 
Heartbeat CPU  0 instructions:   12000000 cycles:   13164813 heartbeat IPC: 0.87468 cumulative IPC: 0.91152 (Simulation time: 0 hr 0 min 26 sec) 
Heartbeat CPU  0 instructions:   13000000 cycles:   14300259 heartbeat IPC: 0.88071 cumulative IPC: 0.90907 (Simulation time: 0 hr 0 min 28 sec) 
Heartbeat CPU  0 instructions:   14000001 cycles:   15464883 heartbeat IPC: 0.85865 cumulative IPC: 0.90528 (Simulation time: 0 hr 0 min 30 sec) 
Heartbeat CPU  0 instructions:   15000003 cycles:   16631274 heartbeat IPC: 0.85735 cumulative IPC: 0.90192 (Simulation time: 0 hr 0 min 33 sec) 
Heartbeat CPU  0 instructions:   16000000 cycles:   17793105 heartbeat IPC: 0.86071 cumulative IPC: 0.89922 (Simulation time: 0 hr 0 min 35 sec) 
Heartbeat CPU  0 instructions:   17000000 cycles:   18966421 heartbeat IPC: 0.85229 cumulative IPC: 0.89632 (Simulation time: 0 hr 0 min 37 sec) 
Heartbeat CPU  0 instructions:   18000000 cycles:   20160074 heartbeat IPC: 0.83776 cumulative IPC: 0.89285 (Simulation time: 0 hr 0 min 39 sec) 
Heartbeat CPU  0 instructions:   19000000 cycles:   21108475 heartbeat IPC: 1.05441 cumulative IPC: 0.90011 (Simulation time: 0 hr 0 min 42 sec) 
Heartbeat CPU  0 instructions:   20000000 cycles:   22223478 heartbeat IPC: 0.89686 cumulative IPC: 0.89995 (Simulation time: 0 hr 0 min 44 sec) 
Heartbeat CPU  0 instructions:   21000000 cycles:   23417257 heartbeat IPC: 0.83768 cumulative IPC: 0.89677 (Simulation time: 0 hr 0 min 46 sec) 
Heartbeat CPU  0 instructions:   22000001 cycles:   24540127 heartbeat IPC: 0.89058 cumulative IPC: 0.89649 (Simulation time: 0 hr 0 min 48 sec) 
Heartbeat CPU  0 instructions:   23000001 cycles:   25682224 heartbeat IPC: 0.87558 cumulative IPC: 0.89556 (Simulation time: 0 hr 0 min 50 sec) 
Heartbeat CPU  0 instructions:   24000000 cycles:   26841614 heartbeat IPC: 0.86252 cumulative IPC: 0.89413 (Simulation time: 0 hr 0 min 53 sec) 
Heartbeat CPU  0 instructions:   25000001 cycles:   27999096 heartbeat IPC: 0.86395 cumulative IPC: 0.89289 (Simulation time: 0 hr 0 min 55 sec) 
Heartbeat CPU  0 instructions:   26000000 cycles:   29119247 heartbeat IPC: 0.89274 cumulative IPC: 0.89288 (Simulation time: 0 hr 0 min 57 sec) 
Heartbeat CPU  0 instructions:   27000000 cycles:   30302613 heartbeat IPC: 0.84505 cumulative IPC: 0.89101 (Simulation time: 0 hr 0 min 59 sec) 
Heartbeat CPU  0 instructions:   28000000 cycles:   31478411 heartbeat IPC: 0.85049 cumulative IPC: 0.88950 (Simulation time: 0 hr 1 min 1 sec) 
Heartbeat CPU  0 instructions:   29000000 cycles:   32622424 heartbeat IPC: 0.87412 cumulative IPC: 0.88896 (Simulation time: 0 hr 1 min 4 sec) 
Heartbeat CPU  0 instructions:   30000000 cycles:   33792141 heartbeat IPC: 0.85491 cumulative IPC: 0.88778 (Simulation time: 0 hr 1 min 6 sec) 
Heartbeat CPU  0 instructions:   31000002 cycles:   34925239 heartbeat IPC: 0.88254 cumulative IPC: 0.88761 (Simulation time: 0 hr 1 min 8 sec) 
Heartbeat CPU  0 instructions:   32000000 cycles:   36055591 heartbeat IPC: 0.88468 cumulative IPC: 0.88752 (Simulation time: 0 hr 1 min 10 sec) 
Heartbeat CPU  0 instructions:   33000000 cycles:   37204089 heartbeat IPC: 0.87070 cumulative IPC: 0.88700 (Simulation time: 0 hr 1 min 12 sec) 
Heartbeat CPU  0 instructions:   34000002 cycles:   38158305 heartbeat IPC: 1.04798 cumulative IPC: 0.89102 (Simulation time: 0 hr 1 min 15 sec) 
Heartbeat CPU  0 instructions:   35000003 cycles:   39223049 heartbeat IPC: 0.93919 cumulative IPC: 0.89233 (Simulation time: 0 hr 1 min 17 sec) 
Heartbeat CPU  0 instructions:   36000000 cycles:   40382549 heartbeat IPC: 0.86244 cumulative IPC: 0.89147 (Simulation time: 0 hr 1 min 19 sec) 
Heartbeat CPU  0 instructions:   37000002 cycles:   41566815 heartbeat IPC: 0.84441 cumulative IPC: 0.89013 (Simulation time: 0 hr 1 min 21 sec) 
Heartbeat CPU  0 instructions:   38000003 cycles:   42718001 heartbeat IPC: 0.86867 cumulative IPC: 0.88955 (Simulation time: 0 hr 1 min 24 sec) 
Heartbeat CPU  0 instructions:   39000001 cycles:   43829575 heartbeat IPC: 0.89962 cumulative IPC: 0.88981 (Simulation time: 0 hr 1 min 26 sec) 
Heartbeat CPU  0 instructions:   40000000 cycles:   44931502 heartbeat IPC: 0.90750 cumulative IPC: 0.89024 (Simulation time: 0 hr 1 min 28 sec) 
Heartbeat CPU  0 instructions:   41000000 cycles:   46077505 heartbeat IPC: 0.87260 cumulative IPC: 0.88981 (Simulation time: 0 hr 1 min 30 sec) 
Heartbeat CPU  0 instructions:   42000000 cycles:   47232117 heartbeat IPC: 0.86609 cumulative IPC: 0.88923 (Simulation time: 0 hr 1 min 32 sec) 
Heartbeat CPU  0 instructions:   43000000 cycles:   48359096 heartbeat IPC: 0.88733 cumulative IPC: 0.88918 (Simulation time: 0 hr 1 min 35 sec) 
Heartbeat CPU  0 instructions:   44000000 cycles:   49481699 heartbeat IPC: 0.89079 cumulative IPC: 0.88922 (Simulation time: 0 hr 1 min 37 sec) 
Heartbeat CPU  0 instructions:   45000003 cycles:   50613455 heartbeat IPC: 0.88359 cumulative IPC: 0.88909 (Simulation time: 0 hr 1 min 39 sec) 
Heartbeat CPU  0 instructions:   46000002 cycles:   51699873 heartbeat IPC: 0.92046 cumulative IPC: 0.88975 (Simulation time: 0 hr 1 min 41 sec) 
Heartbeat CPU  0 instructions:   47000000 cycles:   52756342 heartbeat IPC: 0.94655 cumulative IPC: 0.89089 (Simulation time: 0 hr 1 min 43 sec) 
Heartbeat CPU  0 instructions:   48000000 cycles:   53641409 heartbeat IPC: 1.12986 cumulative IPC: 0.89483 (Simulation time: 0 hr 1 min 46 sec) 
Heartbeat CPU  0 instructions:   49000002 cycles:   54787221 heartbeat IPC: 0.87275 cumulative IPC: 0.89437 (Simulation time: 0 hr 1 min 48 sec) 
Heartbeat CPU  0 instructions:   50000003 cycles:   55937637 heartbeat IPC: 0.86925 cumulative IPC: 0.89385 (Simulation time: 0 hr 1 min 50 sec) 
Heartbeat CPU  0 instructions:   51000001 cycles:   57067421 heartbeat IPC: 0.88512 cumulative IPC: 0.89368 (Simulation time: 0 hr 1 min 52 sec) 
Heartbeat CPU  0 instructions:   52000000 cycles:   58198937 heartbeat IPC: 0.88377 cumulative IPC: 0.89349 (Simulation time: 0 hr 1 min 55 sec) 
Heartbeat CPU  0 instructions:   53000001 cycles:   59357637 heartbeat IPC: 0.86304 cumulative IPC: 0.89289 (Simulation time: 0 hr 1 min 57 sec) 
Heartbeat CPU  0 instructions:   54000001 cycles:   60510998 heartbeat IPC: 0.86703 cumulative IPC: 0.89240 (Simulation time: 0 hr 1 min 59 sec) 
Heartbeat CPU  0 instructions:   55000002 cycles:   61652619 heartbeat IPC: 0.87595 cumulative IPC: 0.89210 (Simulation time: 0 hr 2 min 1 sec) 
Heartbeat CPU  0 instructions:   56000000 cycles:   62739355 heartbeat IPC: 0.92018 cumulative IPC: 0.89258 (Simulation time: 0 hr 2 min 3 sec) 
Heartbeat CPU  0 instructions:   57000002 cycles:   63863510 heartbeat IPC: 0.88956 cumulative IPC: 0.89253 (Simulation time: 0 hr 2 min 6 sec) 
Heartbeat CPU  0 instructions:   58000002 cycles:   64984052 heartbeat IPC: 0.89243 cumulative IPC: 0.89253 (Simulation time: 0 hr 2 min 8 sec) 
Heartbeat CPU  0 instructions:   59000001 cycles:   66096160 heartbeat IPC: 0.89919 cumulative IPC: 0.89264 (Simulation time: 0 hr 2 min 10 sec) 
Heartbeat CPU  0 instructions:   60000000 cycles:   67226530 heartbeat IPC: 0.88467 cumulative IPC: 0.89250 (Simulation time: 0 hr 2 min 12 sec) 
Heartbeat CPU  0 instructions:   61000002 cycles:   68252320 heartbeat IPC: 0.97486 cumulative IPC: 0.89374 (Simulation time: 0 hr 2 min 14 sec) 
Heartbeat CPU  0 instructions:   62000000 cycles:   69194192 heartbeat IPC: 1.06171 cumulative IPC: 0.89603 (Simulation time: 0 hr 2 min 17 sec) 
Heartbeat CPU  0 instructions:   63000000 cycles:   70319097 heartbeat IPC: 0.88896 cumulative IPC: 0.89592 (Simulation time: 0 hr 2 min 19 sec) 
Heartbeat CPU  0 instructions:   64000000 cycles:   71413340 heartbeat IPC: 0.91387 cumulative IPC: 0.89619 (Simulation time: 0 hr 2 min 21 sec) 
Heartbeat CPU  0 instructions:   65000002 cycles:   72501289 heartbeat IPC: 0.91916 cumulative IPC: 0.89654 (Simulation time: 0 hr 2 min 23 sec) 
Heartbeat CPU  0 instructions:   66000000 cycles:   73609514 heartbeat IPC: 0.90234 cumulative IPC: 0.89662 (Simulation time: 0 hr 2 min 25 sec) 
Heartbeat CPU  0 instructions:   67000000 cycles:   74669515 heartbeat IPC: 0.94340 cumulative IPC: 0.89729 (Simulation time: 0 hr 2 min 27 sec) 
Heartbeat CPU  0 instructions:   68000000 cycles:   75773793 heartbeat IPC: 0.90557 cumulative IPC: 0.89741 (Simulation time: 0 hr 2 min 30 sec) 
Heartbeat CPU  0 instructions:   69000002 cycles:   76733398 heartbeat IPC: 1.04210 cumulative IPC: 0.89922 (Simulation time: 0 hr 2 min 32 sec) 
Heartbeat CPU  0 instructions:   70000001 cycles:   77765435 heartbeat IPC: 0.96896 cumulative IPC: 0.90014 (Simulation time: 0 hr 2 min 34 sec) 
Heartbeat CPU  0 instructions:   71000002 cycles:   78876450 heartbeat IPC: 0.90008 cumulative IPC: 0.90014 (Simulation time: 0 hr 2 min 36 sec) 
Heartbeat CPU  0 instructions:   72000000 cycles:   79959263 heartbeat IPC: 0.92352 cumulative IPC: 0.90046 (Simulation time: 0 hr 2 min 39 sec) 
Heartbeat CPU  0 instructions:   73000001 cycles:   81119186 heartbeat IPC: 0.86213 cumulative IPC: 0.89991 (Simulation time: 0 hr 2 min 41 sec) 
Heartbeat CPU  0 instructions:   74000000 cycles:   82230973 heartbeat IPC: 0.89945 cumulative IPC: 0.89990 (Simulation time: 0 hr 2 min 43 sec) 
Heartbeat CPU  0 instructions:   75000000 cycles:   83357240 heartbeat IPC: 0.88789 cumulative IPC: 0.89974 (Simulation time: 0 hr 2 min 45 sec) 
Heartbeat CPU  0 instructions:   76000000 cycles:   84497204 heartbeat IPC: 0.87722 cumulative IPC: 0.89944 (Simulation time: 0 hr 2 min 47 sec) 
Heartbeat CPU  0 instructions:   77000000 cycles:   85617240 heartbeat IPC: 0.89283 cumulative IPC: 0.89935 (Simulation time: 0 hr 2 min 49 sec) 
Heartbeat CPU  0 instructions:   78000002 cycles:   86691990 heartbeat IPC: 0.93045 cumulative IPC: 0.89974 (Simulation time: 0 hr 2 min 52 sec) 
Heartbeat CPU  0 instructions:   79000000 cycles:   87616967 heartbeat IPC: 1.08111 cumulative IPC: 0.90165 (Simulation time: 0 hr 2 min 54 sec) 
Heartbeat CPU  0 instructions:   80000000 cycles:   88710755 heartbeat IPC: 0.91425 cumulative IPC: 0.90181 (Simulation time: 0 hr 2 min 56 sec) 
Heartbeat CPU  0 instructions:   81000003 cycles:   89743647 heartbeat IPC: 0.96816 cumulative IPC: 0.90257 (Simulation time: 0 hr 2 min 58 sec) 
Heartbeat CPU  0 instructions:   82000003 cycles:   90741753 heartbeat IPC: 1.00190 cumulative IPC: 0.90366 (Simulation time: 0 hr 3 min 0 sec) 
Heartbeat CPU  0 instructions:   83000003 cycles:   91729250 heartbeat IPC: 1.01266 cumulative IPC: 0.90484 (Simulation time: 0 hr 3 min 3 sec) 
Heartbeat CPU  0 instructions:   84000000 cycles:   92620905 heartbeat IPC: 1.12151 cumulative IPC: 0.90692 (Simulation time: 0 hr 3 min 5 sec) 
Heartbeat CPU  0 instructions:   85000000 cycles:   93599934 heartbeat IPC: 1.02142 cumulative IPC: 0.90812 (Simulation time: 0 hr 3 min 7 sec) 
Heartbeat CPU  0 instructions:   86000000 cycles:   94531617 heartbeat IPC: 1.07333 cumulative IPC: 0.90975 (Simulation time: 0 hr 3 min 9 sec) 
Heartbeat CPU  0 instructions:   87000002 cycles:   95446980 heartbeat IPC: 1.09246 cumulative IPC: 0.91150 (Simulation time: 0 hr 3 min 11 sec) 
Heartbeat CPU  0 instructions:   88000000 cycles:   96332720 heartbeat IPC: 1.12900 cumulative IPC: 0.91350 (Simulation time: 0 hr 3 min 14 sec) 
Heartbeat CPU  0 instructions:   89000001 cycles:   97244360 heartbeat IPC: 1.09693 cumulative IPC: 0.91522 (Simulation time: 0 hr 3 min 16 sec) 
Heartbeat CPU  0 instructions:   90000000 cycles:   98208591 heartbeat IPC: 1.03709 cumulative IPC: 0.91642 (Simulation time: 0 hr 3 min 18 sec) 
Heartbeat CPU  0 instructions:   91000002 cycles:   99223444 heartbeat IPC: 0.98537 cumulative IPC: 0.91712 (Simulation time: 0 hr 3 min 20 sec) 
Heartbeat CPU  0 instructions:   92000000 cycles:  100198807 heartbeat IPC: 1.02526 cumulative IPC: 0.91817 (Simulation time: 0 hr 3 min 22 sec) 
Heartbeat CPU  0 instructions:   93000001 cycles:  101097237 heartbeat IPC: 1.11305 cumulative IPC: 0.91991 (Simulation time: 0 hr 3 min 24 sec) 
Heartbeat CPU  0 instructions:   94000003 cycles:  102124002 heartbeat IPC: 0.97393 cumulative IPC: 0.92045 (Simulation time: 0 hr 3 min 26 sec) 
Heartbeat CPU  0 instructions:   95000002 cycles:  103153254 heartbeat IPC: 0.97158 cumulative IPC: 0.92096 (Simulation time: 0 hr 3 min 29 sec) 
Heartbeat CPU  0 instructions:   96000000 cycles:  104120973 heartbeat IPC: 1.03336 cumulative IPC: 0.92200 (Simulation time: 0 hr 3 min 31 sec) 
Heartbeat CPU  0 instructions:   97000001 cycles:  105056743 heartbeat IPC: 1.06864 cumulative IPC: 0.92331 (Simulation time: 0 hr 3 min 33 sec) 
Heartbeat CPU  0 instructions:   98000001 cycles:  105934031 heartbeat IPC: 1.13988 cumulative IPC: 0.92510 (Simulation time: 0 hr 3 min 35 sec) 
Heartbeat CPU  0 instructions:   99000001 cycles:  106852157 heartbeat IPC: 1.08918 cumulative IPC: 0.92651 (Simulation time: 0 hr 3 min 37 sec) 
Heartbeat CPU  0 instructions:  100000000 cycles:  107767968 heartbeat IPC: 1.09193 cumulative IPC: 0.92792 (Simulation time: 0 hr 3 min 39 sec) 

Warmup complete CPU  0 instructions:  100000002 cycles:  107767969 (Simulation time: 0 hr 3 min 39 sec) 

Heartbeat CPU  0 instructions:  101000000 cycles:  140634625 heartbeat IPC: 0.03043 cumulative IPC: 0.03043 (Simulation time: 0 hr 3 min 55 sec) 
Heartbeat CPU  0 instructions:  102000000 cycles:  191350485 heartbeat IPC: 0.01972 cumulative IPC: 0.02393 (Simulation time: 0 hr 4 min 18 sec) 
Heartbeat CPU  0 instructions:  103000001 cycles:  208875397 heartbeat IPC: 0.05706 cumulative IPC: 0.02967 (Simulation time: 0 hr 4 min 26 sec) 
Heartbeat CPU  0 instructions:  104000000 cycles:  223689786 heartbeat IPC: 0.06750 cumulative IPC: 0.03451 (Simulation time: 0 hr 4 min 34 sec) 
Heartbeat CPU  0 instructions:  105000003 cycles:  282399215 heartbeat IPC: 0.01703 cumulative IPC: 0.02863 (Simulation time: 0 hr 5 min 0 sec) 
Heartbeat CPU  0 instructions:  106000000 cycles:  306885494 heartbeat IPC: 0.04084 cumulative IPC: 0.03013 (Simulation time: 0 hr 5 min 12 sec) 
Heartbeat CPU  0 instructions:  107000000 cycles:  322303474 heartbeat IPC: 0.06486 cumulative IPC: 0.03263 (Simulation time: 0 hr 5 min 19 sec) 
Heartbeat CPU  0 instructions:  108000000 cycles:  363538871 heartbeat IPC: 0.02425 cumulative IPC: 0.03128 (Simulation time: 0 hr 5 min 38 sec) 
Heartbeat CPU  0 instructions:  109000002 cycles:  405629409 heartbeat IPC: 0.02376 cumulative IPC: 0.03022 (Simulation time: 0 hr 5 min 57 sec) 
Heartbeat CPU  0 instructions:  110000001 cycles:  421572800 heartbeat IPC: 0.06272 cumulative IPC: 0.03187 (Simulation time: 0 hr 6 min 5 sec) 
Heartbeat CPU  0 instructions:  111000000 cycles:  444728197 heartbeat IPC: 0.04319 cumulative IPC: 0.03264 (Simulation time: 0 hr 6 min 16 sec) 
Heartbeat CPU  0 instructions:  112000000 cycles:  501649448 heartbeat IPC: 0.01757 cumulative IPC: 0.03047 (Simulation time: 0 hr 6 min 42 sec) 
Heartbeat CPU  0 instructions:  113000001 cycles:  522898602 heartbeat IPC: 0.04706 cumulative IPC: 0.03132 (Simulation time: 0 hr 6 min 52 sec) 
Heartbeat CPU  0 instructions:  114000002 cycles:  537398978 heartbeat IPC: 0.06896 cumulative IPC: 0.03259 (Simulation time: 0 hr 6 min 59 sec) 
Heartbeat CPU  0 instructions:  115000000 cycles:  581022010 heartbeat IPC: 0.02292 cumulative IPC: 0.03170 (Simulation time: 0 hr 7 min 19 sec) 
Heartbeat CPU  0 instructions:  116000000 cycles:  620394396 heartbeat IPC: 0.02540 cumulative IPC: 0.03121 (Simulation time: 0 hr 7 min 37 sec) 
Heartbeat CPU  0 instructions:  117000000 cycles:  636388434 heartbeat IPC: 0.06252 cumulative IPC: 0.03216 (Simulation time: 0 hr 7 min 45 sec) 
Heartbeat CPU  0 instructions:  118000001 cycles:  655517114 heartbeat IPC: 0.05228 cumulative IPC: 0.03286 (Simulation time: 0 hr 7 min 55 sec) 
Heartbeat CPU  0 instructions:  119000000 cycles:  713675657 heartbeat IPC: 0.01719 cumulative IPC: 0.03136 (Simulation time: 0 hr 8 min 21 sec) 
Heartbeat CPU  0 instructions:  120000000 cycles:  735835526 heartbeat IPC: 0.04513 cumulative IPC: 0.03184 (Simulation time: 0 hr 8 min 32 sec) 
Heartbeat CPU  0 instructions:  121000000 cycles:  752423830 heartbeat IPC: 0.06028 cumulative IPC: 0.03258 (Simulation time: 0 hr 8 min 40 sec) 
Heartbeat CPU  0 instructions:  122000001 cycles:  782598643 heartbeat IPC: 0.03314 cumulative IPC: 0.03260 (Simulation time: 0 hr 8 min 54 sec) 
Heartbeat CPU  0 instructions:  123000000 cycles:  835746715 heartbeat IPC: 0.01882 cumulative IPC: 0.03159 (Simulation time: 0 hr 9 min 18 sec) 
Heartbeat CPU  0 instructions:  124000000 cycles:  852140783 heartbeat IPC: 0.06100 cumulative IPC: 0.03224 (Simulation time: 0 hr 9 min 26 sec) 
Heartbeat CPU  0 instructions:  125000000 cycles:  865375747 heartbeat IPC: 0.07556 cumulative IPC: 0.03300 (Simulation time: 0 hr 9 min 33 sec) 
Heartbeat CPU  0 instructions:  126000003 cycles:  899393564 heartbeat IPC: 0.02940 cumulative IPC: 0.03284 (Simulation time: 0 hr 9 min 49 sec) 
Heartbeat CPU  0 instructions:  127000000 cycles:  948557282 heartbeat IPC: 0.02034 cumulative IPC: 0.03211 (Simulation time: 0 hr 10 min 11 sec) 
Heartbeat CPU  0 instructions:  128000000 cycles:  964471115 heartbeat IPC: 0.06284 cumulative IPC: 0.03268 (Simulation time: 0 hr 10 min 19 sec) 
Heartbeat CPU  0 instructions:  129000002 cycles:  977994904 heartbeat IPC: 0.07394 cumulative IPC: 0.03332 (Simulation time: 0 hr 10 min 26 sec) 
Heartbeat CPU  0 instructions:  130000003 cycles: 1019166399 heartbeat IPC: 0.02429 cumulative IPC: 0.03292 (Simulation time: 0 hr 10 min 46 sec) 
Heartbeat CPU  0 instructions:  131000001 cycles: 1061223666 heartbeat IPC: 0.02378 cumulative IPC: 0.03251 (Simulation time: 0 hr 11 min 5 sec) 
Heartbeat CPU  0 instructions:  132000000 cycles: 1076619002 heartbeat IPC: 0.06495 cumulative IPC: 0.03303 (Simulation time: 0 hr 11 min 13 sec) 
Heartbeat CPU  0 instructions:  133000000 cycles: 1089995914 heartbeat IPC: 0.07476 cumulative IPC: 0.03360 (Simulation time: 0 hr 11 min 20 sec) 
Heartbeat CPU  0 instructions:  134000002 cycles: 1133184392 heartbeat IPC: 0.02315 cumulative IPC: 0.03316 (Simulation time: 0 hr 11 min 40 sec) 
Heartbeat CPU  0 instructions:  135000000 cycles: 1172909670 heartbeat IPC: 0.02517 cumulative IPC: 0.03286 (Simulation time: 0 hr 11 min 58 sec) 
Heartbeat CPU  0 instructions:  136000000 cycles: 1189273729 heartbeat IPC: 0.06111 cumulative IPC: 0.03329 (Simulation time: 0 hr 12 min 6 sec) 
Heartbeat CPU  0 instructions:  137000002 cycles: 1203058212 heartbeat IPC: 0.07255 cumulative IPC: 0.03378 (Simulation time: 0 hr 12 min 13 sec) 
Heartbeat CPU  0 instructions:  138000002 cycles: 1244306289 heartbeat IPC: 0.02424 cumulative IPC: 0.03343 (Simulation time: 0 hr 12 min 33 sec) 
Heartbeat CPU  0 instructions:  139000001 cycles: 1289272419 heartbeat IPC: 0.02224 cumulative IPC: 0.03301 (Simulation time: 0 hr 12 min 53 sec) 
Heartbeat CPU  0 instructions:  140000000 cycles: 1307318972 heartbeat IPC: 0.05541 cumulative IPC: 0.03335 (Simulation time: 0 hr 13 min 2 sec) 
Heartbeat CPU  0 instructions:  141000002 cycles: 1322174390 heartbeat IPC: 0.06732 cumulative IPC: 0.03376 (Simulation time: 0 hr 13 min 9 sec) 
Heartbeat CPU  0 instructions:  142000003 cycles: 1362917255 heartbeat IPC: 0.02454 cumulative IPC: 0.03346 (Simulation time: 0 hr 13 min 28 sec) 
Heartbeat CPU  0 instructions:  143000000 cycles: 1410077148 heartbeat IPC: 0.02120 cumulative IPC: 0.03302 (Simulation time: 0 hr 13 min 50 sec) 
Heartbeat CPU  0 instructions:  144000000 cycles: 1428422399 heartbeat IPC: 0.05451 cumulative IPC: 0.03332 (Simulation time: 0 hr 13 min 58 sec) 
Heartbeat CPU  0 instructions:  145000002 cycles: 1444891001 heartbeat IPC: 0.06072 cumulative IPC: 0.03365 (Simulation time: 0 hr 14 min 6 sec) 
Heartbeat CPU  0 instructions:  146000001 cycles: 1487461327 heartbeat IPC: 0.02349 cumulative IPC: 0.03334 (Simulation time: 0 hr 14 min 26 sec) 
Heartbeat CPU  0 instructions:  147000001 cycles: 1535961221 heartbeat IPC: 0.02062 cumulative IPC: 0.03291 (Simulation time: 0 hr 14 min 48 sec) 
Heartbeat CPU  0 instructions:  148000000 cycles: 1552476212 heartbeat IPC: 0.06055 cumulative IPC: 0.03322 (Simulation time: 0 hr 14 min 56 sec) 
Heartbeat CPU  0 instructions:  149000000 cycles: 1566391391 heartbeat IPC: 0.07186 cumulative IPC: 0.03359 (Simulation time: 0 hr 15 min 4 sec) 
Heartbeat CPU  0 instructions:  150000001 cycles: 1610722137 heartbeat IPC: 0.02256 cumulative IPC: 0.03327 (Simulation time: 0 hr 15 min 24 sec) 
Heartbeat CPU  0 instructions:  151000000 cycles: 1652544920 heartbeat IPC: 0.02391 cumulative IPC: 0.03301 (Simulation time: 0 hr 15 min 43 sec) 
Heartbeat CPU  0 instructions:  152000000 cycles: 1669589423 heartbeat IPC: 0.05867 cumulative IPC: 0.03329 (Simulation time: 0 hr 15 min 52 sec) 
Heartbeat CPU  0 instructions:  153000000 cycles: 1686533975 heartbeat IPC: 0.05902 cumulative IPC: 0.03357 (Simulation time: 0 hr 16 min 0 sec) 
Heartbeat CPU  0 instructions:  154000000 cycles: 1737868742 heartbeat IPC: 0.01948 cumulative IPC: 0.03313 (Simulation time: 0 hr 16 min 23 sec) 
Heartbeat CPU  0 instructions:  155000002 cycles: 1771922794 heartbeat IPC: 0.02937 cumulative IPC: 0.03305 (Simulation time: 0 hr 16 min 39 sec) 
Heartbeat CPU  0 instructions:  156000000 cycles: 1789184378 heartbeat IPC: 0.05793 cumulative IPC: 0.03331 (Simulation time: 0 hr 16 min 47 sec) 
Heartbeat CPU  0 instructions:  157000002 cycles: 1809670247 heartbeat IPC: 0.04881 cumulative IPC: 0.03349 (Simulation time: 0 hr 16 min 57 sec) 
Heartbeat CPU  0 instructions:  158000002 cycles: 1869530824 heartbeat IPC: 0.01671 cumulative IPC: 0.03292 (Simulation time: 0 hr 17 min 24 sec) 
Heartbeat CPU  0 instructions:  159000000 cycles: 1894554936 heartbeat IPC: 0.03996 cumulative IPC: 0.03302 (Simulation time: 0 hr 17 min 36 sec) 
Heartbeat CPU  0 instructions:  160000000 cycles: 1910580881 heartbeat IPC: 0.06240 cumulative IPC: 0.03328 (Simulation time: 0 hr 17 min 44 sec) 
Heartbeat CPU  0 instructions:  161000001 cycles: 1937791767 heartbeat IPC: 0.03675 cumulative IPC: 0.03333 (Simulation time: 0 hr 17 min 57 sec) 
Heartbeat CPU  0 instructions:  162000000 cycles: 1993953078 heartbeat IPC: 0.01781 cumulative IPC: 0.03287 (Simulation time: 0 hr 18 min 22 sec) 
Heartbeat CPU  0 instructions:  163000000 cycles: 2014841246 heartbeat IPC: 0.04787 cumulative IPC: 0.03303 (Simulation time: 0 hr 18 min 32 sec) 
Heartbeat CPU  0 instructions:  164000000 cycles: 2031535930 heartbeat IPC: 0.05990 cumulative IPC: 0.03327 (Simulation time: 0 hr 18 min 40 sec) 
Heartbeat CPU  0 instructions:  165000002 cycles: 2066125881 heartbeat IPC: 0.02891 cumulative IPC: 0.03319 (Simulation time: 0 hr 18 min 56 sec) 
Heartbeat CPU  0 instructions:  166000000 cycles: 2117836854 heartbeat IPC: 0.01934 cumulative IPC: 0.03283 (Simulation time: 0 hr 19 min 19 sec) 
Heartbeat CPU  0 instructions:  167000000 cycles: 2138091886 heartbeat IPC: 0.04937 cumulative IPC: 0.03300 (Simulation time: 0 hr 19 min 29 sec) 
Heartbeat CPU  0 instructions:  168000000 cycles: 2155423189 heartbeat IPC: 0.05770 cumulative IPC: 0.03321 (Simulation time: 0 hr 19 min 38 sec) 
Heartbeat CPU  0 instructions:  169000000 cycles: 2176051968 heartbeat IPC: 0.04848 cumulative IPC: 0.03336 (Simulation time: 0 hr 19 min 48 sec) 
Heartbeat CPU  0 instructions:  170000003 cycles: 2236625576 heartbeat IPC: 0.01651 cumulative IPC: 0.03288 (Simulation time: 0 hr 20 min 15 sec) 
Heartbeat CPU  0 instructions:  171000000 cycles: 2262004017 heartbeat IPC: 0.03940 cumulative IPC: 0.03296 (Simulation time: 0 hr 20 min 26 sec) 
Heartbeat CPU  0 instructions:  172000000 cycles: 2279839131 heartbeat IPC: 0.05607 cumulative IPC: 0.03315 (Simulation time: 0 hr 20 min 35 sec) 
Heartbeat CPU  0 instructions:  173000000 cycles: 2296191334 heartbeat IPC: 0.06115 cumulative IPC: 0.03336 (Simulation time: 0 hr 20 min 43 sec) 
Heartbeat CPU  0 instructions:  174000000 cycles: 2351281287 heartbeat IPC: 0.01815 cumulative IPC: 0.03298 (Simulation time: 0 hr 21 min 8 sec) 
Heartbeat CPU  0 instructions:  175000003 cycles: 2386006710 heartbeat IPC: 0.02880 cumulative IPC: 0.03292 (Simulation time: 0 hr 21 min 24 sec) 
Heartbeat CPU  0 instructions:  176000000 cycles: 2404539956 heartbeat IPC: 0.05396 cumulative IPC: 0.03309 (Simulation time: 0 hr 21 min 33 sec) 
Heartbeat CPU  0 instructions:  177000003 cycles: 2422717965 heartbeat IPC: 0.05501 cumulative IPC: 0.03326 (Simulation time: 0 hr 21 min 41 sec) 
Heartbeat CPU  0 instructions:  178000003 cycles: 2468157542 heartbeat IPC: 0.02201 cumulative IPC: 0.03305 (Simulation time: 0 hr 22 min 2 sec) 
Heartbeat CPU  0 instructions:  179000003 cycles: 2512926179 heartbeat IPC: 0.02234 cumulative IPC: 0.03285 (Simulation time: 0 hr 22 min 22 sec) 
Heartbeat CPU  0 instructions:  180000000 cycles: 2531905728 heartbeat IPC: 0.05269 cumulative IPC: 0.03300 (Simulation time: 0 hr 22 min 31 sec) 
Heartbeat CPU  0 instructions:  181000002 cycles: 2550869305 heartbeat IPC: 0.05273 cumulative IPC: 0.03315 (Simulation time: 0 hr 22 min 40 sec) 
Heartbeat CPU  0 instructions:  182000002 cycles: 2573547921 heartbeat IPC: 0.04409 cumulative IPC: 0.03326 (Simulation time: 0 hr 22 min 51 sec) 
Heartbeat CPU  0 instructions:  183000003 cycles: 2633288834 heartbeat IPC: 0.01674 cumulative IPC: 0.03286 (Simulation time: 0 hr 23 min 18 sec) 
Heartbeat CPU  0 instructions:  184000000 cycles: 2663646031 heartbeat IPC: 0.03294 cumulative IPC: 0.03287 (Simulation time: 0 hr 23 min 31 sec) 
Heartbeat CPU  0 instructions:  185000002 cycles: 2683937585 heartbeat IPC: 0.04928 cumulative IPC: 0.03299 (Simulation time: 0 hr 23 min 41 sec) 
Heartbeat CPU  0 instructions:  186000001 cycles: 2702455938 heartbeat IPC: 0.05400 cumulative IPC: 0.03314 (Simulation time: 0 hr 23 min 49 sec) 
Heartbeat CPU  0 instructions:  187000000 cycles: 2719134822 heartbeat IPC: 0.05996 cumulative IPC: 0.03332 (Simulation time: 0 hr 23 min 58 sec) 
Heartbeat CPU  0 instructions:  188000000 cycles: 2775236918 heartbeat IPC: 0.01782 cumulative IPC: 0.03299 (Simulation time: 0 hr 24 min 23 sec) 
Heartbeat CPU  0 instructions:  189000001 cycles: 2810686693 heartbeat IPC: 0.02821 cumulative IPC: 0.03293 (Simulation time: 0 hr 24 min 39 sec) 
Heartbeat CPU  0 instructions:  190000000 cycles: 2830176119 heartbeat IPC: 0.05131 cumulative IPC: 0.03306 (Simulation time: 0 hr 24 min 48 sec) 
Heartbeat CPU  0 instructions:  191000001 cycles: 2849877587 heartbeat IPC: 0.05076 cumulative IPC: 0.03319 (Simulation time: 0 hr 24 min 58 sec) 
Heartbeat CPU  0 instructions:  192000000 cycles: 2870094731 heartbeat IPC: 0.04946 cumulative IPC: 0.03331 (Simulation time: 0 hr 25 min 7 sec) 
Heartbeat CPU  0 instructions:  193000000 cycles: 2930887038 heartbeat IPC: 0.01645 cumulative IPC: 0.03294 (Simulation time: 0 hr 25 min 35 sec) 
Heartbeat CPU  0 instructions:  194000000 cycles: 2962109910 heartbeat IPC: 0.03203 cumulative IPC: 0.03293 (Simulation time: 0 hr 25 min 49 sec) 
Heartbeat CPU  0 instructions:  195000000 cycles: 2982353440 heartbeat IPC: 0.04940 cumulative IPC: 0.03305 (Simulation time: 0 hr 25 min 58 sec) 
Heartbeat CPU  0 instructions:  196000000 cycles: 3001408911 heartbeat IPC: 0.05248 cumulative IPC: 0.03318 (Simulation time: 0 hr 26 min 7 sec) 
Heartbeat CPU  0 instructions:  197000001 cycles: 3018896393 heartbeat IPC: 0.05718 cumulative IPC: 0.03332 (Simulation time: 0 hr 26 min 16 sec) 
Heartbeat CPU  0 instructions:  198000003 cycles: 3061848062 heartbeat IPC: 0.02328 cumulative IPC: 0.03317 (Simulation time: 0 hr 26 min 36 sec) 
Heartbeat CPU  0 instructions:  199000002 cycles: 3112284514 heartbeat IPC: 0.01983 cumulative IPC: 0.03295 (Simulation time: 0 hr 26 min 57 sec) 
Heartbeat CPU  0 instructions:  200000000 cycles: 3132589271 heartbeat IPC: 0.04925 cumulative IPC: 0.03306 (Simulation time: 0 hr 27 min 7 sec) 
Heartbeat CPU  0 instructions:  201000002 cycles: 3150014011 heartbeat IPC: 0.05739 cumulative IPC: 0.03320 (Simulation time: 0 hr 27 min 15 sec) 
Heartbeat CPU  0 instructions:  202000000 cycles: 3166050393 heartbeat IPC: 0.06236 cumulative IPC: 0.03335 (Simulation time: 0 hr 27 min 23 sec) 
Heartbeat CPU  0 instructions:  203000000 cycles: 3226670770 heartbeat IPC: 0.01650 cumulative IPC: 0.03302 (Simulation time: 0 hr 27 min 51 sec) 
Heartbeat CPU  0 instructions:  204000000 cycles: 3254224459 heartbeat IPC: 0.03629 cumulative IPC: 0.03305 (Simulation time: 0 hr 28 min 4 sec) 
Heartbeat CPU  0 instructions:  205000000 cycles: 3270394531 heartbeat IPC: 0.06184 cumulative IPC: 0.03320 (Simulation time: 0 hr 28 min 12 sec) 
Heartbeat CPU  0 instructions:  206000000 cycles: 3284792946 heartbeat IPC: 0.06945 cumulative IPC: 0.03336 (Simulation time: 0 hr 28 min 19 sec) 
Heartbeat CPU  0 instructions:  207000002 cycles: 3323826838 heartbeat IPC: 0.02562 cumulative IPC: 0.03327 (Simulation time: 0 hr 28 min 37 sec) 
Heartbeat CPU  0 instructions:  208000000 cycles: 3372285318 heartbeat IPC: 0.02064 cumulative IPC: 0.03308 (Simulation time: 0 hr 28 min 59 sec) 
Heartbeat CPU  0 instructions:  209000001 cycles: 3393660652 heartbeat IPC: 0.04678 cumulative IPC: 0.03317 (Simulation time: 0 hr 29 min 9 sec) 
Heartbeat CPU  0 instructions:  210000000 cycles: 3413594520 heartbeat IPC: 0.05017 cumulative IPC: 0.03327 (Simulation time: 0 hr 29 min 18 sec) 
Heartbeat CPU  0 instructions:  211000001 cycles: 3433794417 heartbeat IPC: 0.04951 cumulative IPC: 0.03337 (Simulation time: 0 hr 29 min 28 sec) 
Heartbeat CPU  0 instructions:  212000000 cycles: 3460761506 heartbeat IPC: 0.03708 cumulative IPC: 0.03340 (Simulation time: 0 hr 29 min 41 sec) 
Heartbeat CPU  0 instructions:  213000001 cycles: 3518464964 heartbeat IPC: 0.01733 cumulative IPC: 0.03313 (Simulation time: 0 hr 30 min 6 sec) 
Heartbeat CPU  0 instructions:  214000003 cycles: 3540791762 heartbeat IPC: 0.04479 cumulative IPC: 0.03321 (Simulation time: 0 hr 30 min 17 sec) 
Heartbeat CPU  0 instructions:  215000000 cycles: 3559085451 heartbeat IPC: 0.05466 cumulative IPC: 0.03332 (Simulation time: 0 hr 30 min 26 sec) 
Heartbeat CPU  0 instructions:  216000000 cycles: 3578758993 heartbeat IPC: 0.05083 cumulative IPC: 0.03342 (Simulation time: 0 hr 30 min 35 sec) 
Heartbeat CPU  0 instructions:  217000001 cycles: 3612208716 heartbeat IPC: 0.02990 cumulative IPC: 0.03339 (Simulation time: 0 hr 30 min 51 sec) 
Heartbeat CPU  0 instructions:  218000000 cycles: 3664836897 heartbeat IPC: 0.01900 cumulative IPC: 0.03317 (Simulation time: 0 hr 31 min 14 sec) 
Heartbeat CPU  0 instructions:  219000001 cycles: 3685374121 heartbeat IPC: 0.04869 cumulative IPC: 0.03326 (Simulation time: 0 hr 31 min 24 sec) 
Heartbeat CPU  0 instructions:  220000000 cycles: 3703453199 heartbeat IPC: 0.05531 cumulative IPC: 0.03337 (Simulation time: 0 hr 31 min 33 sec) 
Heartbeat CPU  0 instructions:  221000002 cycles: 3721525993 heartbeat IPC: 0.05533 cumulative IPC: 0.03348 (Simulation time: 0 hr 31 min 42 sec) 
Heartbeat CPU  0 instructions:  222000003 cycles: 3759315365 heartbeat IPC: 0.02646 cumulative IPC: 0.03341 (Simulation time: 0 hr 31 min 59 sec) 
Heartbeat CPU  0 instructions:  223000001 cycles: 3809230115 heartbeat IPC: 0.02003 cumulative IPC: 0.03323 (Simulation time: 0 hr 32 min 21 sec) 
Heartbeat CPU  0 instructions:  224000000 cycles: 3833674389 heartbeat IPC: 0.04091 cumulative IPC: 0.03328 (Simulation time: 0 hr 32 min 33 sec) 
Heartbeat CPU  0 instructions:  225000001 cycles: 3854104017 heartbeat IPC: 0.04895 cumulative IPC: 0.03337 (Simulation time: 0 hr 32 min 42 sec) 
Heartbeat CPU  0 instructions:  226000003 cycles: 3871804885 heartbeat IPC: 0.05649 cumulative IPC: 0.03347 (Simulation time: 0 hr 32 min 51 sec) 
Heartbeat CPU  0 instructions:  227000003 cycles: 3900445706 heartbeat IPC: 0.03492 cumulative IPC: 0.03349 (Simulation time: 0 hr 33 min 4 sec) 
Heartbeat CPU  0 instructions:  228000000 cycles: 3955404188 heartbeat IPC: 0.01820 cumulative IPC: 0.03327 (Simulation time: 0 hr 33 min 29 sec) 
Heartbeat CPU  0 instructions:  229000003 cycles: 3978397062 heartbeat IPC: 0.04349 cumulative IPC: 0.03333 (Simulation time: 0 hr 33 min 40 sec) 
Heartbeat CPU  0 instructions:  230000000 cycles: 3997920432 heartbeat IPC: 0.05122 cumulative IPC: 0.03342 (Simulation time: 0 hr 33 min 49 sec) 
Heartbeat CPU  0 instructions:  231000001 cycles: 4016341482 heartbeat IPC: 0.05429 cumulative IPC: 0.03352 (Simulation time: 0 hr 33 min 58 sec) 
Heartbeat CPU  0 instructions:  232000000 cycles: 4038310992 heartbeat IPC: 0.04552 cumulative IPC: 0.03358 (Simulation time: 0 hr 34 min 8 sec) 
Heartbeat CPU  0 instructions:  233000002 cycles: 4097520204 heartbeat IPC: 0.01689 cumulative IPC: 0.03334 (Simulation time: 0 hr 34 min 35 sec) 
Heartbeat CPU  0 instructions:  234000001 cycles: 4130148882 heartbeat IPC: 0.03065 cumulative IPC: 0.03331 (Simulation time: 0 hr 34 min 50 sec) 
Heartbeat CPU  0 instructions:  235000000 cycles: 4148638469 heartbeat IPC: 0.05408 cumulative IPC: 0.03341 (Simulation time: 0 hr 34 min 59 sec) 
Heartbeat CPU  0 instructions:  236000000 cycles: 4167710733 heartbeat IPC: 0.05243 cumulative IPC: 0.03350 (Simulation time: 0 hr 35 min 8 sec) 
Heartbeat CPU  0 instructions:  237000003 cycles: 4186982910 heartbeat IPC: 0.05189 cumulative IPC: 0.03358 (Simulation time: 0 hr 35 min 17 sec) 
Heartbeat CPU  0 instructions:  238000003 cycles: 4218741480 heartbeat IPC: 0.03149 cumulative IPC: 0.03357 (Simulation time: 0 hr 35 min 32 sec) 
Heartbeat CPU  0 instructions:  239000002 cycles: 4271977791 heartbeat IPC: 0.01878 cumulative IPC: 0.03338 (Simulation time: 0 hr 35 min 56 sec) 
Heartbeat CPU  0 instructions:  240000000 cycles: 4297345010 heartbeat IPC: 0.03942 cumulative IPC: 0.03342 (Simulation time: 0 hr 36 min 7 sec) 
Heartbeat CPU  0 instructions:  241000000 cycles: 4316855126 heartbeat IPC: 0.05126 cumulative IPC: 0.03350 (Simulation time: 0 hr 36 min 17 sec) 
Heartbeat CPU  0 instructions:  242000000 cycles: 4334922233 heartbeat IPC: 0.05535 cumulative IPC: 0.03359 (Simulation time: 0 hr 36 min 25 sec) 
Heartbeat CPU  0 instructions:  243000001 cycles: 4356009850 heartbeat IPC: 0.04742 cumulative IPC: 0.03366 (Simulation time: 0 hr 36 min 36 sec) 
Heartbeat CPU  0 instructions:  244000000 cycles: 4416528902 heartbeat IPC: 0.01652 cumulative IPC: 0.03342 (Simulation time: 0 hr 37 min 3 sec) 
Heartbeat CPU  0 instructions:  245000000 cycles: 4443696711 heartbeat IPC: 0.03681 cumulative IPC: 0.03344 (Simulation time: 0 hr 37 min 15 sec) 
Heartbeat CPU  0 instructions:  246000001 cycles: 4463313162 heartbeat IPC: 0.05098 cumulative IPC: 0.03352 (Simulation time: 0 hr 37 min 25 sec) 
Heartbeat CPU  0 instructions:  247000000 cycles: 4480963472 heartbeat IPC: 0.05666 cumulative IPC: 0.03361 (Simulation time: 0 hr 37 min 33 sec) 
Heartbeat CPU  0 instructions:  248000000 cycles: 4501818318 heartbeat IPC: 0.04795 cumulative IPC: 0.03368 (Simulation time: 0 hr 37 min 43 sec) 
Heartbeat CPU  0 instructions:  249000002 cycles: 4560222441 heartbeat IPC: 0.01712 cumulative IPC: 0.03346 (Simulation time: 0 hr 38 min 10 sec) 
Heartbeat CPU  0 instructions:  250000000 cycles: 4590052017 heartbeat IPC: 0.03352 cumulative IPC: 0.03347 (Simulation time: 0 hr 38 min 23 sec) 
Heartbeat CPU  0 instructions:  251000000 cycles: 4616478974 heartbeat IPC: 0.03784 cumulative IPC: 0.03349 (Simulation time: 0 hr 38 min 35 sec) 
Heartbeat CPU  0 instructions:  252000000 cycles: 4634023400 heartbeat IPC: 0.05700 cumulative IPC: 0.03358 (Simulation time: 0 hr 38 min 43 sec) 
Heartbeat CPU  0 instructions:  253000003 cycles: 4651296454 heartbeat IPC: 0.05789 cumulative IPC: 0.03367 (Simulation time: 0 hr 38 min 52 sec) 
Heartbeat CPU  0 instructions:  254000002 cycles: 4708039913 heartbeat IPC: 0.01762 cumulative IPC: 0.03348 (Simulation time: 0 hr 39 min 18 sec) 
Heartbeat CPU  0 instructions:  255000001 cycles: 4741624812 heartbeat IPC: 0.02978 cumulative IPC: 0.03345 (Simulation time: 0 hr 39 min 33 sec) 
Heartbeat CPU  0 instructions:  256000000 cycles: 4760096911 heartbeat IPC: 0.05414 cumulative IPC: 0.03353 (Simulation time: 0 hr 39 min 42 sec) 
Heartbeat CPU  0 instructions:  257000000 cycles: 4774876287 heartbeat IPC: 0.06766 cumulative IPC: 0.03364 (Simulation time: 0 hr 39 min 50 sec) 
Heartbeat CPU  0 instructions:  258000003 cycles: 4806173625 heartbeat IPC: 0.03195 cumulative IPC: 0.03363 (Simulation time: 0 hr 40 min 5 sec) 
Heartbeat CPU  0 instructions:  259000001 cycles: 4857112584 heartbeat IPC: 0.01963 cumulative IPC: 0.03348 (Simulation time: 0 hr 40 min 28 sec) 
Heartbeat CPU  0 instructions:  260000000 cycles: 4880185390 heartbeat IPC: 0.04334 cumulative IPC: 0.03353 (Simulation time: 0 hr 40 min 38 sec) 
Heartbeat CPU  0 instructions:  261000001 cycles: 4898364724 heartbeat IPC: 0.05501 cumulative IPC: 0.03361 (Simulation time: 0 hr 40 min 47 sec) 
Heartbeat CPU  0 instructions:  262000000 cycles: 4917453976 heartbeat IPC: 0.05239 cumulative IPC: 0.03368 (Simulation time: 0 hr 40 min 56 sec) 
Heartbeat CPU  0 instructions:  263000002 cycles: 4943788563 heartbeat IPC: 0.03797 cumulative IPC: 0.03371 (Simulation time: 0 hr 41 min 9 sec) 
Heartbeat CPU  0 instructions:  264000000 cycles: 5001210272 heartbeat IPC: 0.01741 cumulative IPC: 0.03351 (Simulation time: 0 hr 41 min 35 sec) 
Heartbeat CPU  0 instructions:  265000001 cycles: 5025891943 heartbeat IPC: 0.04052 cumulative IPC: 0.03355 (Simulation time: 0 hr 41 min 46 sec) 
Heartbeat CPU  0 instructions:  266000000 cycles: 5044913682 heartbeat IPC: 0.05257 cumulative IPC: 0.03362 (Simulation time: 0 hr 41 min 55 sec) 
Heartbeat CPU  0 instructions:  267000000 cycles: 5063582164 heartbeat IPC: 0.05357 cumulative IPC: 0.03370 (Simulation time: 0 hr 42 min 4 sec) 
Heartbeat CPU  0 instructions:  268000000 cycles: 5081736820 heartbeat IPC: 0.05508 cumulative IPC: 0.03378 (Simulation time: 0 hr 42 min 13 sec) 
Heartbeat CPU  0 instructions:  269000000 cycles: 5120015476 heartbeat IPC: 0.02612 cumulative IPC: 0.03372 (Simulation time: 0 hr 42 min 31 sec) 
Heartbeat CPU  0 instructions:  270000000 cycles: 5172195654 heartbeat IPC: 0.01916 cumulative IPC: 0.03357 (Simulation time: 0 hr 42 min 54 sec) 
Heartbeat CPU  0 instructions:  271000000 cycles: 5191396274 heartbeat IPC: 0.05208 cumulative IPC: 0.03364 (Simulation time: 0 hr 43 min 3 sec) 
Heartbeat CPU  0 instructions:  272000000 cycles: 5207248166 heartbeat IPC: 0.06308 cumulative IPC: 0.03373 (Simulation time: 0 hr 43 min 11 sec) 
Heartbeat CPU  0 instructions:  273000001 cycles: 5224536531 heartbeat IPC: 0.05784 cumulative IPC: 0.03381 (Simulation time: 0 hr 43 min 20 sec) 
Heartbeat CPU  0 instructions:  274000000 cycles: 5281844032 heartbeat IPC: 0.01745 cumulative IPC: 0.03363 (Simulation time: 0 hr 43 min 46 sec) 
Heartbeat CPU  0 instructions:  275000000 cycles: 5306524144 heartbeat IPC: 0.04052 cumulative IPC: 0.03366 (Simulation time: 0 hr 43 min 57 sec) 
Heartbeat CPU  0 instructions:  276000000 cycles: 5321566048 heartbeat IPC: 0.06648 cumulative IPC: 0.03376 (Simulation time: 0 hr 44 min 5 sec) 
Heartbeat CPU  0 instructions:  277000000 cycles: 5349520176 heartbeat IPC: 0.03577 cumulative IPC: 0.03377 (Simulation time: 0 hr 44 min 17 sec) 
Heartbeat CPU  0 instructions:  278000002 cycles: 5371073912 heartbeat IPC: 0.04640 cumulative IPC: 0.03382 (Simulation time: 0 hr 44 min 28 sec) 
Heartbeat CPU  0 instructions:  279000000 cycles: 5429056617 heartbeat IPC: 0.01725 cumulative IPC: 0.03364 (Simulation time: 0 hr 44 min 54 sec) 
Heartbeat CPU  0 instructions:  280000000 cycles: 5462052228 heartbeat IPC: 0.03031 cumulative IPC: 0.03362 (Simulation time: 0 hr 45 min 9 sec) 
Heartbeat CPU  0 instructions:  281000001 cycles: 5478573682 heartbeat IPC: 0.06053 cumulative IPC: 0.03370 (Simulation time: 0 hr 45 min 17 sec) 
Heartbeat CPU  0 instructions:  282000001 cycles: 5497424601 heartbeat IPC: 0.05305 cumulative IPC: 0.03377 (Simulation time: 0 hr 45 min 26 sec) 
Heartbeat CPU  0 instructions:  283000000 cycles: 5522940063 heartbeat IPC: 0.03919 cumulative IPC: 0.03379 (Simulation time: 0 hr 45 min 38 sec) 
Heartbeat CPU  0 instructions:  284000000 cycles: 5578588317 heartbeat IPC: 0.01797 cumulative IPC: 0.03363 (Simulation time: 0 hr 46 min 3 sec) 
Heartbeat CPU  0 instructions:  285000000 cycles: 5606837726 heartbeat IPC: 0.03540 cumulative IPC: 0.03364 (Simulation time: 0 hr 46 min 15 sec) 
Heartbeat CPU  0 instructions:  286000001 cycles: 5627169127 heartbeat IPC: 0.04919 cumulative IPC: 0.03370 (Simulation time: 0 hr 46 min 25 sec) 
Heartbeat CPU  0 instructions:  287000001 cycles: 5643809797 heartbeat IPC: 0.06009 cumulative IPC: 0.03378 (Simulation time: 0 hr 46 min 33 sec) 
Heartbeat CPU  0 instructions:  288000000 cycles: 5694612893 heartbeat IPC: 0.01968 cumulative IPC: 0.03365 (Simulation time: 0 hr 46 min 57 sec) 
Heartbeat CPU  0 instructions:  289000000 cycles: 5732647051 heartbeat IPC: 0.02629 cumulative IPC: 0.03360 (Simulation time: 0 hr 47 min 14 sec) 
Heartbeat CPU  0 instructions:  290000001 cycles: 5751920567 heartbeat IPC: 0.05188 cumulative IPC: 0.03366 (Simulation time: 0 hr 47 min 24 sec) 
Heartbeat CPU  0 instructions:  291000000 cycles: 5768729282 heartbeat IPC: 0.05949 cumulative IPC: 0.03374 (Simulation time: 0 hr 47 min 32 sec) 
Heartbeat CPU  0 instructions:  292000000 cycles: 5787490990 heartbeat IPC: 0.05330 cumulative IPC: 0.03380 (Simulation time: 0 hr 47 min 41 sec) 
Heartbeat CPU  0 instructions:  293000001 cycles: 5834581839 heartbeat IPC: 0.02124 cumulative IPC: 0.03370 (Simulation time: 0 hr 48 min 2 sec) 
Heartbeat CPU  0 instructions:  294000000 cycles: 5878685214 heartbeat IPC: 0.02267 cumulative IPC: 0.03362 (Simulation time: 0 hr 48 min 23 sec) 
Heartbeat CPU  0 instructions:  295000001 cycles: 5899724606 heartbeat IPC: 0.04753 cumulative IPC: 0.03367 (Simulation time: 0 hr 48 min 33 sec) 
Heartbeat CPU  0 instructions:  296000000 cycles: 5919643572 heartbeat IPC: 0.05020 cumulative IPC: 0.03372 (Simulation time: 0 hr 48 min 42 sec) 
Heartbeat CPU  0 instructions:  297000001 cycles: 5940967242 heartbeat IPC: 0.04690 cumulative IPC: 0.03377 (Simulation time: 0 hr 48 min 52 sec) 
Heartbeat CPU  0 instructions:  298000000 cycles: 5959433101 heartbeat IPC: 0.05415 cumulative IPC: 0.03384 (Simulation time: 0 hr 49 min 1 sec) 
Heartbeat CPU  0 instructions:  299000001 cycles: 6001976923 heartbeat IPC: 0.02351 cumulative IPC: 0.03376 (Simulation time: 0 hr 49 min 20 sec) 
Heartbeat CPU  0 instructions:  300000000 cycles: 6050392514 heartbeat IPC: 0.02065 cumulative IPC: 0.03366 (Simulation time: 0 hr 49 min 42 sec) 
Heartbeat CPU  0 instructions:  301000002 cycles: 6072737857 heartbeat IPC: 0.04475 cumulative IPC: 0.03370 (Simulation time: 0 hr 49 min 52 sec) 
Heartbeat CPU  0 instructions:  302000001 cycles: 6101588548 heartbeat IPC: 0.03466 cumulative IPC: 0.03370 (Simulation time: 0 hr 50 min 5 sec) 
Heartbeat CPU  0 instructions:  303000000 cycles: 6119399019 heartbeat IPC: 0.05615 cumulative IPC: 0.03377 (Simulation time: 0 hr 50 min 14 sec) 
Heartbeat CPU  0 instructions:  304000000 cycles: 6137892902 heartbeat IPC: 0.05407 cumulative IPC: 0.03383 (Simulation time: 0 hr 50 min 22 sec) 
Heartbeat CPU  0 instructions:  305000000 cycles: 6177711232 heartbeat IPC: 0.02511 cumulative IPC: 0.03377 (Simulation time: 0 hr 50 min 41 sec) 
Heartbeat CPU  0 instructions:  306000001 cycles: 6228254232 heartbeat IPC: 0.01979 cumulative IPC: 0.03366 (Simulation time: 0 hr 51 min 3 sec) 
Heartbeat CPU  0 instructions:  307000001 cycles: 6252117996 heartbeat IPC: 0.04190 cumulative IPC: 0.03369 (Simulation time: 0 hr 51 min 14 sec) 
Heartbeat CPU  0 instructions:  308000000 cycles: 6271387715 heartbeat IPC: 0.05189 cumulative IPC: 0.03375 (Simulation time: 0 hr 51 min 23 sec) 
Heartbeat CPU  0 instructions:  309000002 cycles: 6288624757 heartbeat IPC: 0.05801 cumulative IPC: 0.03381 (Simulation time: 0 hr 51 min 32 sec) 
Heartbeat CPU  0 instructions:  310000003 cycles: 6312707186 heartbeat IPC: 0.04152 cumulative IPC: 0.03384 (Simulation time: 0 hr 51 min 44 sec) 
Heartbeat CPU  0 instructions:  311000002 cycles: 6372054722 heartbeat IPC: 0.01685 cumulative IPC: 0.03368 (Simulation time: 0 hr 52 min 11 sec) 
Heartbeat CPU  0 instructions:  312000000 cycles: 6395756500 heartbeat IPC: 0.04219 cumulative IPC: 0.03372 (Simulation time: 0 hr 52 min 22 sec) 
Heartbeat CPU  0 instructions:  313000000 cycles: 6417519044 heartbeat IPC: 0.04595 cumulative IPC: 0.03376 (Simulation time: 0 hr 52 min 32 sec) 
Heartbeat CPU  0 instructions:  314000000 cycles: 6437309404 heartbeat IPC: 0.05053 cumulative IPC: 0.03381 (Simulation time: 0 hr 52 min 42 sec) 
Heartbeat CPU  0 instructions:  315000000 cycles: 6456501620 heartbeat IPC: 0.05210 cumulative IPC: 0.03387 (Simulation time: 0 hr 52 min 51 sec) 
Heartbeat CPU  0 instructions:  316000000 cycles: 6477212682 heartbeat IPC: 0.04828 cumulative IPC: 0.03391 (Simulation time: 0 hr 53 min 1 sec) 
Heartbeat CPU  0 instructions:  317000002 cycles: 6525355557 heartbeat IPC: 0.02077 cumulative IPC: 0.03381 (Simulation time: 0 hr 53 min 23 sec) 
Heartbeat CPU  0 instructions:  318000002 cycles: 6568724498 heartbeat IPC: 0.02306 cumulative IPC: 0.03374 (Simulation time: 0 hr 53 min 43 sec) 
Heartbeat CPU  0 instructions:  319000002 cycles: 6589529347 heartbeat IPC: 0.04807 cumulative IPC: 0.03379 (Simulation time: 0 hr 53 min 53 sec) 
Heartbeat CPU  0 instructions:  320000000 cycles: 6608187594 heartbeat IPC: 0.05360 cumulative IPC: 0.03384 (Simulation time: 0 hr 54 min 2 sec) 
Heartbeat CPU  0 instructions:  321000001 cycles: 6627753045 heartbeat IPC: 0.05111 cumulative IPC: 0.03390 (Simulation time: 0 hr 54 min 11 sec) 
Heartbeat CPU  0 instructions:  322000000 cycles: 6647679571 heartbeat IPC: 0.05018 cumulative IPC: 0.03395 (Simulation time: 0 hr 54 min 21 sec) 
Heartbeat CPU  0 instructions:  323000002 cycles: 6665009611 heartbeat IPC: 0.05770 cumulative IPC: 0.03401 (Simulation time: 0 hr 54 min 29 sec) 
Heartbeat CPU  0 instructions:  324000000 cycles: 6686236187 heartbeat IPC: 0.04711 cumulative IPC: 0.03405 (Simulation time: 0 hr 54 min 39 sec) 
Heartbeat CPU  0 instructions:  325000000 cycles: 6745601583 heartbeat IPC: 0.01684 cumulative IPC: 0.03390 (Simulation time: 0 hr 55 min 6 sec) 
Heartbeat CPU  0 instructions:  326000002 cycles: 6775325941 heartbeat IPC: 0.03364 cumulative IPC: 0.03390 (Simulation time: 0 hr 55 min 20 sec) 
Heartbeat CPU  0 instructions:  327000000 cycles: 6797961058 heartbeat IPC: 0.04418 cumulative IPC: 0.03393 (Simulation time: 0 hr 55 min 31 sec) 
Heartbeat CPU  0 instructions:  328000000 cycles: 6817368871 heartbeat IPC: 0.05153 cumulative IPC: 0.03398 (Simulation time: 0 hr 55 min 40 sec) 
Heartbeat CPU  0 instructions:  329000001 cycles: 6833740059 heartbeat IPC: 0.06108 cumulative IPC: 0.03405 (Simulation time: 0 hr 55 min 48 sec) 
Heartbeat CPU  0 instructions:  330000002 cycles: 6852126991 heartbeat IPC: 0.05439 cumulative IPC: 0.03410 (Simulation time: 0 hr 55 min 57 sec) 
Heartbeat CPU  0 instructions:  331000003 cycles: 6872200484 heartbeat IPC: 0.04982 cumulative IPC: 0.03415 (Simulation time: 0 hr 56 min 7 sec) 
Heartbeat CPU  0 instructions:  332000000 cycles: 6931080382 heartbeat IPC: 0.01698 cumulative IPC: 0.03400 (Simulation time: 0 hr 56 min 33 sec) 
Heartbeat CPU  0 instructions:  333000001 cycles: 6963891972 heartbeat IPC: 0.03048 cumulative IPC: 0.03398 (Simulation time: 0 hr 56 min 48 sec) 
Heartbeat CPU  0 instructions:  334000001 cycles: 6982847488 heartbeat IPC: 0.05276 cumulative IPC: 0.03404 (Simulation time: 0 hr 56 min 57 sec) 
Heartbeat CPU  0 instructions:  335000002 cycles: 6997790041 heartbeat IPC: 0.06692 cumulative IPC: 0.03411 (Simulation time: 0 hr 57 min 5 sec) 
Heartbeat CPU  0 instructions:  336000000 cycles: 7018833837 heartbeat IPC: 0.04752 cumulative IPC: 0.03415 (Simulation time: 0 hr 57 min 15 sec) 
Heartbeat CPU  0 instructions:  337000000 cycles: 7037676200 heartbeat IPC: 0.05307 cumulative IPC: 0.03420 (Simulation time: 0 hr 57 min 24 sec) 
Heartbeat CPU  0 instructions:  338000000 cycles: 7055382772 heartbeat IPC: 0.05648 cumulative IPC: 0.03426 (Simulation time: 0 hr 57 min 33 sec) 
Heartbeat CPU  0 instructions:  339000000 cycles: 7075271855 heartbeat IPC: 0.05028 cumulative IPC: 0.03430 (Simulation time: 0 hr 57 min 42 sec) 
Heartbeat CPU  0 instructions:  340000000 cycles: 7131432971 heartbeat IPC: 0.01781 cumulative IPC: 0.03417 (Simulation time: 0 hr 58 min 7 sec) 
Heartbeat CPU  0 instructions:  341000000 cycles: 7170505332 heartbeat IPC: 0.02559 cumulative IPC: 0.03412 (Simulation time: 0 hr 58 min 25 sec) 
Heartbeat CPU  0 instructions:  342000000 cycles: 7190227957 heartbeat IPC: 0.05070 cumulative IPC: 0.03417 (Simulation time: 0 hr 58 min 34 sec) 
Heartbeat CPU  0 instructions:  343000000 cycles: 7206968892 heartbeat IPC: 0.05973 cumulative IPC: 0.03423 (Simulation time: 0 hr 58 min 42 sec) 
Heartbeat CPU  0 instructions:  344000000 cycles: 7226378756 heartbeat IPC: 0.05152 cumulative IPC: 0.03428 (Simulation time: 0 hr 58 min 52 sec) 
Heartbeat CPU  0 instructions:  345000000 cycles: 7244909322 heartbeat IPC: 0.05396 cumulative IPC: 0.03433 (Simulation time: 0 hr 59 min 0 sec) 
Heartbeat CPU  0 instructions:  346000001 cycles: 7261470889 heartbeat IPC: 0.06038 cumulative IPC: 0.03439 (Simulation time: 0 hr 59 min 9 sec) 
Heartbeat CPU  0 instructions:  347000003 cycles: 7292452773 heartbeat IPC: 0.03228 cumulative IPC: 0.03438 (Simulation time: 0 hr 59 min 24 sec) 
Heartbeat CPU  0 instructions:  348000000 cycles: 7337350051 heartbeat IPC: 0.02227 cumulative IPC: 0.03430 (Simulation time: 0 hr 59 min 45 sec) 
Heartbeat CPU  0 instructions:  349000001 cycles: 7354160662 heartbeat IPC: 0.05949 cumulative IPC: 0.03436 (Simulation time: 0 hr 59 min 53 sec) 
Heartbeat CPU  0 instructions:  350000000 cycles: 7382706899 heartbeat IPC: 0.03503 cumulative IPC: 0.03436 (Simulation time: 1 hr 0 min 6 sec) 
Heartbeat CPU  0 instructions:  351000001 cycles: 7394101038 heartbeat IPC: 0.08776 cumulative IPC: 0.03445 (Simulation time: 1 hr 0 min 13 sec) 
Heartbeat CPU  0 instructions:  352000000 cycles: 7403987120 heartbeat IPC: 0.10115 cumulative IPC: 0.03454 (Simulation time: 1 hr 0 min 20 sec) 
Heartbeat CPU  0 instructions:  353000003 cycles: 7445700849 heartbeat IPC: 0.02397 cumulative IPC: 0.03448 (Simulation time: 1 hr 0 min 40 sec) 
Heartbeat CPU  0 instructions:  354000002 cycles: 7489595460 heartbeat IPC: 0.02278 cumulative IPC: 0.03441 (Simulation time: 1 hr 1 min 2 sec) 
Heartbeat CPU  0 instructions:  355000002 cycles: 7502148336 heartbeat IPC: 0.07966 cumulative IPC: 0.03449 (Simulation time: 1 hr 1 min 10 sec) 
Heartbeat CPU  0 instructions:  356000000 cycles: 7513807566 heartbeat IPC: 0.08577 cumulative IPC: 0.03457 (Simulation time: 1 hr 1 min 17 sec) 
Heartbeat CPU  0 instructions:  357000000 cycles: 7523466506 heartbeat IPC: 0.10353 cumulative IPC: 0.03466 (Simulation time: 1 hr 1 min 24 sec) 
Heartbeat CPU  0 instructions:  358000001 cycles: 7560446460 heartbeat IPC: 0.02704 cumulative IPC: 0.03462 (Simulation time: 1 hr 1 min 41 sec) 
Heartbeat CPU  0 instructions:  359000002 cycles: 7603890081 heartbeat IPC: 0.02302 cumulative IPC: 0.03455 (Simulation time: 1 hr 2 min 3 sec) 
Heartbeat CPU  0 instructions:  360000000 cycles: 7618590160 heartbeat IPC: 0.06803 cumulative IPC: 0.03462 (Simulation time: 1 hr 2 min 12 sec) 
Heartbeat CPU  0 instructions:  361000001 cycles: 7629928529 heartbeat IPC: 0.08820 cumulative IPC: 0.03470 (Simulation time: 1 hr 2 min 19 sec) 
Heartbeat CPU  0 instructions:  362000003 cycles: 7640474689 heartbeat IPC: 0.09482 cumulative IPC: 0.03478 (Simulation time: 1 hr 2 min 26 sec) 
Heartbeat CPU  0 instructions:  363000002 cycles: 7670318242 heartbeat IPC: 0.03351 cumulative IPC: 0.03478 (Simulation time: 1 hr 2 min 41 sec) 
Heartbeat CPU  0 instructions:  364000000 cycles: 7721830144 heartbeat IPC: 0.01941 cumulative IPC: 0.03467 (Simulation time: 1 hr 3 min 6 sec) 
Heartbeat CPU  0 instructions:  365000001 cycles: 7735708274 heartbeat IPC: 0.07206 cumulative IPC: 0.03474 (Simulation time: 1 hr 3 min 15 sec) 
Heartbeat CPU  0 instructions:  366000001 cycles: 7747110900 heartbeat IPC: 0.08770 cumulative IPC: 0.03482 (Simulation time: 1 hr 3 min 22 sec) 
Heartbeat CPU  0 instructions:  367000002 cycles: 7757641165 heartbeat IPC: 0.09496 cumulative IPC: 0.03490 (Simulation time: 1 hr 3 min 29 sec) 
Heartbeat CPU  0 instructions:  368000000 cycles: 7771132060 heartbeat IPC: 0.07412 cumulative IPC: 0.03497 (Simulation time: 1 hr 3 min 37 sec) 
Heartbeat CPU  0 instructions:  369000000 cycles: 7834728107 heartbeat IPC: 0.01572 cumulative IPC: 0.03481 (Simulation time: 1 hr 4 min 7 sec) 
Heartbeat CPU  0 instructions:  370000002 cycles: 7859434759 heartbeat IPC: 0.04048 cumulative IPC: 0.03483 (Simulation time: 1 hr 4 min 21 sec) 
Heartbeat CPU  0 instructions:  371000002 cycles: 7874761876 heartbeat IPC: 0.06524 cumulative IPC: 0.03489 (Simulation time: 1 hr 4 min 30 sec) 
Heartbeat CPU  0 instructions:  372000000 cycles: 7888519651 heartbeat IPC: 0.07269 cumulative IPC: 0.03496 (Simulation time: 1 hr 4 min 38 sec) 
Heartbeat CPU  0 instructions:  373000000 cycles: 7901243850 heartbeat IPC: 0.07859 cumulative IPC: 0.03503 (Simulation time: 1 hr 4 min 46 sec) 
Heartbeat CPU  0 instructions:  374000000 cycles: 7914994008 heartbeat IPC: 0.07273 cumulative IPC: 0.03510 (Simulation time: 1 hr 4 min 54 sec) 
Heartbeat CPU  0 instructions:  375000002 cycles: 7961955397 heartbeat IPC: 0.02129 cumulative IPC: 0.03501 (Simulation time: 1 hr 5 min 17 sec) 
Heartbeat CPU  0 instructions:  376000000 cycles: 8002172191 heartbeat IPC: 0.02487 cumulative IPC: 0.03496 (Simulation time: 1 hr 5 min 37 sec) 
Heartbeat CPU  0 instructions:  377000000 cycles: 8018715771 heartbeat IPC: 0.06045 cumulative IPC: 0.03501 (Simulation time: 1 hr 5 min 47 sec) 
Heartbeat CPU  0 instructions:  378000002 cycles: 8036613685 heartbeat IPC: 0.05587 cumulative IPC: 0.03506 (Simulation time: 1 hr 5 min 57 sec) 
Heartbeat CPU  0 instructions:  379000000 cycles: 8050465000 heartbeat IPC: 0.07220 cumulative IPC: 0.03513 (Simulation time: 1 hr 6 min 5 sec) 
Heartbeat CPU  0 instructions:  380000000 cycles: 8070512171 heartbeat IPC: 0.04988 cumulative IPC: 0.03516 (Simulation time: 1 hr 6 min 15 sec) 
Heartbeat CPU  0 instructions:  381000002 cycles: 8086664542 heartbeat IPC: 0.06191 cumulative IPC: 0.03522 (Simulation time: 1 hr 6 min 24 sec) 
Heartbeat CPU  0 instructions:  382000001 cycles: 8143114834 heartbeat IPC: 0.01771 cumulative IPC: 0.03509 (Simulation time: 1 hr 6 min 51 sec) 
Heartbeat CPU  0 instructions:  383000002 cycles: 8179678116 heartbeat IPC: 0.02735 cumulative IPC: 0.03506 (Simulation time: 1 hr 7 min 9 sec) 
Heartbeat CPU  0 instructions:  384000000 cycles: 8197291387 heartbeat IPC: 0.05678 cumulative IPC: 0.03511 (Simulation time: 1 hr 7 min 19 sec) 
Heartbeat CPU  0 instructions:  385000002 cycles: 8213100870 heartbeat IPC: 0.06325 cumulative IPC: 0.03516 (Simulation time: 1 hr 7 min 27 sec) 
Heartbeat CPU  0 instructions:  386000001 cycles: 8229295508 heartbeat IPC: 0.06175 cumulative IPC: 0.03522 (Simulation time: 1 hr 7 min 36 sec) 
Heartbeat CPU  0 instructions:  387000000 cycles: 8244412254 heartbeat IPC: 0.06615 cumulative IPC: 0.03527 (Simulation time: 1 hr 7 min 44 sec) 
Heartbeat CPU  0 instructions:  388000000 cycles: 8281723619 heartbeat IPC: 0.02680 cumulative IPC: 0.03523 (Simulation time: 1 hr 8 min 1 sec) 
Heartbeat CPU  0 instructions:  389000000 cycles: 8339930242 heartbeat IPC: 0.01718 cumulative IPC: 0.03511 (Simulation time: 1 hr 8 min 28 sec) 
Heartbeat CPU  0 instructions:  390000001 cycles: 8362975816 heartbeat IPC: 0.04339 cumulative IPC: 0.03513 (Simulation time: 1 hr 8 min 38 sec) 
Heartbeat CPU  0 instructions:  391000003 cycles: 8384020763 heartbeat IPC: 0.04752 cumulative IPC: 0.03516 (Simulation time: 1 hr 8 min 48 sec) 
Heartbeat CPU  0 instructions:  392000000 cycles: 8403561564 heartbeat IPC: 0.05117 cumulative IPC: 0.03520 (Simulation time: 1 hr 8 min 57 sec) 
Heartbeat CPU  0 instructions:  393000003 cycles: 8422606013 heartbeat IPC: 0.05251 cumulative IPC: 0.03524 (Simulation time: 1 hr 9 min 6 sec) 
Heartbeat CPU  0 instructions:  394000001 cycles: 8441884246 heartbeat IPC: 0.05187 cumulative IPC: 0.03528 (Simulation time: 1 hr 9 min 15 sec) 
Heartbeat CPU  0 instructions:  395000000 cycles: 8461775156 heartbeat IPC: 0.05027 cumulative IPC: 0.03531 (Simulation time: 1 hr 9 min 25 sec) 
Heartbeat CPU  0 instructions:  396000000 cycles: 8501911447 heartbeat IPC: 0.02492 cumulative IPC: 0.03526 (Simulation time: 1 hr 9 min 43 sec) 
Heartbeat CPU  0 instructions:  397000001 cycles: 8555006630 heartbeat IPC: 0.01883 cumulative IPC: 0.03516 (Simulation time: 1 hr 10 min 8 sec) 
Heartbeat CPU  0 instructions:  398000002 cycles: 8578876494 heartbeat IPC: 0.04189 cumulative IPC: 0.03518 (Simulation time: 1 hr 10 min 19 sec) 
Heartbeat CPU  0 instructions:  399000000 cycles: 8600626678 heartbeat IPC: 0.04598 cumulative IPC: 0.03521 (Simulation time: 1 hr 10 min 29 sec) 
Heartbeat CPU  0 instructions:  400000000 cycles: 8621541727 heartbeat IPC: 0.04781 cumulative IPC: 0.03524 (Simulation time: 1 hr 10 min 38 sec) 
Heartbeat CPU  0 instructions:  401000001 cycles: 8641461776 heartbeat IPC: 0.05020 cumulative IPC: 0.03527 (Simulation time: 1 hr 10 min 48 sec) 
Heartbeat CPU  0 instructions:  402000001 cycles: 8660154634 heartbeat IPC: 0.05350 cumulative IPC: 0.03531 (Simulation time: 1 hr 10 min 57 sec) 
Heartbeat CPU  0 instructions:  403000001 cycles: 8679923784 heartbeat IPC: 0.05058 cumulative IPC: 0.03535 (Simulation time: 1 hr 11 min 6 sec) 
Heartbeat CPU  0 instructions:  404000000 cycles: 8711632611 heartbeat IPC: 0.03154 cumulative IPC: 0.03533 (Simulation time: 1 hr 11 min 21 sec) 
Heartbeat CPU  0 instructions:  405000001 cycles: 8773631041 heartbeat IPC: 0.01613 cumulative IPC: 0.03520 (Simulation time: 1 hr 11 min 49 sec) 
Heartbeat CPU  0 instructions:  406000002 cycles: 8797266942 heartbeat IPC: 0.04231 cumulative IPC: 0.03521 (Simulation time: 1 hr 12 min 0 sec) 
Heartbeat CPU  0 instructions:  407000001 cycles: 8817371226 heartbeat IPC: 0.04974 cumulative IPC: 0.03525 (Simulation time: 1 hr 12 min 10 sec) 
Heartbeat CPU  0 instructions:  408000000 cycles: 8837949469 heartbeat IPC: 0.04859 cumulative IPC: 0.03528 (Simulation time: 1 hr 12 min 19 sec) 
Heartbeat CPU  0 instructions:  409000001 cycles: 8859422044 heartbeat IPC: 0.04657 cumulative IPC: 0.03531 (Simulation time: 1 hr 12 min 29 sec) 
Heartbeat CPU  0 instructions:  410000002 cycles: 8879790845 heartbeat IPC: 0.04909 cumulative IPC: 0.03534 (Simulation time: 1 hr 12 min 39 sec) 
Heartbeat CPU  0 instructions:  411000000 cycles: 8899169626 heartbeat IPC: 0.05160 cumulative IPC: 0.03538 (Simulation time: 1 hr 12 min 48 sec) 
Heartbeat CPU  0 instructions:  412000000 cycles: 8919626096 heartbeat IPC: 0.04888 cumulative IPC: 0.03541 (Simulation time: 1 hr 12 min 58 sec) 
Heartbeat CPU  0 instructions:  413000002 cycles: 8940590763 heartbeat IPC: 0.04770 cumulative IPC: 0.03544 (Simulation time: 1 hr 13 min 7 sec) 
Heartbeat CPU  0 instructions:  414000001 cycles: 9001423098 heartbeat IPC: 0.01644 cumulative IPC: 0.03531 (Simulation time: 1 hr 13 min 36 sec) 
Heartbeat CPU  0 instructions:  415000001 cycles: 9027871327 heartbeat IPC: 0.03781 cumulative IPC: 0.03531 (Simulation time: 1 hr 13 min 48 sec) 
Heartbeat CPU  0 instructions:  416000000 cycles: 9040809932 heartbeat IPC: 0.07729 cumulative IPC: 0.03537 (Simulation time: 1 hr 13 min 56 sec) 
Heartbeat CPU  0 instructions:  417000000 cycles: 9052194917 heartbeat IPC: 0.08783 cumulative IPC: 0.03544 (Simulation time: 1 hr 14 min 2 sec) 
Heartbeat CPU  0 instructions:  418000000 cycles: 9114296261 heartbeat IPC: 0.01610 cumulative IPC: 0.03531 (Simulation time: 1 hr 14 min 31 sec) 
Heartbeat CPU  0 instructions:  419000000 cycles: 9138101525 heartbeat IPC: 0.04201 cumulative IPC: 0.03533 (Simulation time: 1 hr 14 min 43 sec) 
Heartbeat CPU  0 instructions:  420000000 cycles: 9150859865 heartbeat IPC: 0.07838 cumulative IPC: 0.03539 (Simulation time: 1 hr 14 min 50 sec) 
Heartbeat CPU  0 instructions:  421000000 cycles: 9181557293 heartbeat IPC: 0.03258 cumulative IPC: 0.03538 (Simulation time: 1 hr 15 min 3 sec) 
Heartbeat CPU  0 instructions:  422000003 cycles: 9215236295 heartbeat IPC: 0.02969 cumulative IPC: 0.03536 (Simulation time: 1 hr 15 min 20 sec) 
Heartbeat CPU  0 instructions:  423000000 cycles: 9265385989 heartbeat IPC: 0.01994 cumulative IPC: 0.03527 (Simulation time: 1 hr 15 min 44 sec) 
Heartbeat CPU  0 instructions:  424000000 cycles: 9280478048 heartbeat IPC: 0.06626 cumulative IPC: 0.03532 (Simulation time: 1 hr 15 min 52 sec) 
Heartbeat CPU  0 instructions:  425000000 cycles: 9291894346 heartbeat IPC: 0.08759 cumulative IPC: 0.03539 (Simulation time: 1 hr 15 min 59 sec) 
Heartbeat CPU  0 instructions:  426000003 cycles: 9326881724 heartbeat IPC: 0.02858 cumulative IPC: 0.03536 (Simulation time: 1 hr 16 min 16 sec) 
Heartbeat CPU  0 instructions:  427000003 cycles: 9374176124 heartbeat IPC: 0.02114 cumulative IPC: 0.03529 (Simulation time: 1 hr 16 min 39 sec) 
Heartbeat CPU  0 instructions:  428000000 cycles: 9388769575 heartbeat IPC: 0.06852 cumulative IPC: 0.03534 (Simulation time: 1 hr 16 min 47 sec) 
Heartbeat CPU  0 instructions:  429000000 cycles: 9403158863 heartbeat IPC: 0.06950 cumulative IPC: 0.03539 (Simulation time: 1 hr 16 min 55 sec) 
Heartbeat CPU  0 instructions:  430000001 cycles: 9434128044 heartbeat IPC: 0.03229 cumulative IPC: 0.03538 (Simulation time: 1 hr 17 min 9 sec) 
Heartbeat CPU  0 instructions:  431000001 cycles: 9491526448 heartbeat IPC: 0.01742 cumulative IPC: 0.03527 (Simulation time: 1 hr 17 min 36 sec) 
Heartbeat CPU  0 instructions:  432000000 cycles: 9510487764 heartbeat IPC: 0.05274 cumulative IPC: 0.03531 (Simulation time: 1 hr 17 min 45 sec) 
Heartbeat CPU  0 instructions:  433000001 cycles: 9530259590 heartbeat IPC: 0.05058 cumulative IPC: 0.03534 (Simulation time: 1 hr 17 min 54 sec) 
Heartbeat CPU  0 instructions:  434000000 cycles: 9548526674 heartbeat IPC: 0.05474 cumulative IPC: 0.03538 (Simulation time: 1 hr 18 min 3 sec) 
Heartbeat CPU  0 instructions:  435000000 cycles: 9567197478 heartbeat IPC: 0.05356 cumulative IPC: 0.03541 (Simulation time: 1 hr 18 min 12 sec) 
Heartbeat CPU  0 instructions:  436000000 cycles: 9619344872 heartbeat IPC: 0.01918 cumulative IPC: 0.03533 (Simulation time: 1 hr 18 min 36 sec) 
Heartbeat CPU  0 instructions:  437000001 cycles: 9662305334 heartbeat IPC: 0.02328 cumulative IPC: 0.03527 (Simulation time: 1 hr 18 min 55 sec) 
Heartbeat CPU  0 instructions:  438000000 cycles: 9684789946 heartbeat IPC: 0.04447 cumulative IPC: 0.03529 (Simulation time: 1 hr 19 min 6 sec) 
Heartbeat CPU  0 instructions:  439000001 cycles: 9704974623 heartbeat IPC: 0.04954 cumulative IPC: 0.03532 (Simulation time: 1 hr 19 min 15 sec) 
Heartbeat CPU  0 instructions:  440000000 cycles: 9725688363 heartbeat IPC: 0.04828 cumulative IPC: 0.03535 (Simulation time: 1 hr 19 min 25 sec) 
Heartbeat CPU  0 instructions:  441000000 cycles: 9743458703 heartbeat IPC: 0.05627 cumulative IPC: 0.03539 (Simulation time: 1 hr 19 min 34 sec) 
Heartbeat CPU  0 instructions:  442000001 cycles: 9762766257 heartbeat IPC: 0.05179 cumulative IPC: 0.03542 (Simulation time: 1 hr 19 min 43 sec) 
Heartbeat CPU  0 instructions:  443000002 cycles: 9799042523 heartbeat IPC: 0.02757 cumulative IPC: 0.03539 (Simulation time: 1 hr 20 min 0 sec) 
Heartbeat CPU  0 instructions:  444000000 cycles: 9854629884 heartbeat IPC: 0.01799 cumulative IPC: 0.03529 (Simulation time: 1 hr 20 min 25 sec) 
Heartbeat CPU  0 instructions:  445000001 cycles: 9876314668 heartbeat IPC: 0.04612 cumulative IPC: 0.03532 (Simulation time: 1 hr 20 min 35 sec) 
Heartbeat CPU  0 instructions:  446000001 cycles: 9895463705 heartbeat IPC: 0.05222 cumulative IPC: 0.03535 (Simulation time: 1 hr 20 min 45 sec) 
Heartbeat CPU  0 instructions:  447000000 cycles: 9915969019 heartbeat IPC: 0.04877 cumulative IPC: 0.03538 (Simulation time: 1 hr 20 min 54 sec) 
Heartbeat CPU  0 instructions:  448000000 cycles: 9933908846 heartbeat IPC: 0.05574 cumulative IPC: 0.03542 (Simulation time: 1 hr 21 min 3 sec) 
Heartbeat CPU  0 instructions:  449000001 cycles: 9975858915 heartbeat IPC: 0.02384 cumulative IPC: 0.03537 (Simulation time: 1 hr 21 min 23 sec) 
Heartbeat CPU  0 instructions:  450000000 cycles: 10027776606 heartbeat IPC: 0.01926 cumulative IPC: 0.03528 (Simulation time: 1 hr 21 min 46 sec) 
Heartbeat CPU  0 instructions:  451000002 cycles: 10049878995 heartbeat IPC: 0.04524 cumulative IPC: 0.03530 (Simulation time: 1 hr 21 min 57 sec) 
Heartbeat CPU  0 instructions:  452000000 cycles: 10070764912 heartbeat IPC: 0.04788 cumulative IPC: 0.03533 (Simulation time: 1 hr 22 min 6 sec) 
Heartbeat CPU  0 instructions:  453000000 cycles: 10089553454 heartbeat IPC: 0.05322 cumulative IPC: 0.03536 (Simulation time: 1 hr 22 min 16 sec) 
Heartbeat CPU  0 instructions:  454000003 cycles: 10109208404 heartbeat IPC: 0.05088 cumulative IPC: 0.03539 (Simulation time: 1 hr 22 min 25 sec) 
Heartbeat CPU  0 instructions:  455000000 cycles: 10129508281 heartbeat IPC: 0.04926 cumulative IPC: 0.03542 (Simulation time: 1 hr 22 min 34 sec) 
Heartbeat CPU  0 instructions:  456000000 cycles: 10156828218 heartbeat IPC: 0.03660 cumulative IPC: 0.03543 (Simulation time: 1 hr 22 min 47 sec) 
Heartbeat CPU  0 instructions:  457000001 cycles: 10219869853 heartbeat IPC: 0.01586 cumulative IPC: 0.03530 (Simulation time: 1 hr 23 min 16 sec) 
Heartbeat CPU  0 instructions:  458000000 cycles: 10247537771 heartbeat IPC: 0.03614 cumulative IPC: 0.03531 (Simulation time: 1 hr 23 min 28 sec) 
Heartbeat CPU  0 instructions:  459000003 cycles: 10268684869 heartbeat IPC: 0.04729 cumulative IPC: 0.03533 (Simulation time: 1 hr 23 min 38 sec) 
Heartbeat CPU  0 instructions:  460000000 cycles: 10289636624 heartbeat IPC: 0.04773 cumulative IPC: 0.03536 (Simulation time: 1 hr 23 min 48 sec) 
Heartbeat CPU  0 instructions:  461000002 cycles: 10323619740 heartbeat IPC: 0.02943 cumulative IPC: 0.03534 (Simulation time: 1 hr 24 min 1 sec) 
Heartbeat CPU  0 instructions:  462000000 cycles: 10343615642 heartbeat IPC: 0.05001 cumulative IPC: 0.03537 (Simulation time: 1 hr 24 min 11 sec) 
Heartbeat CPU  0 instructions:  463000000 cycles: 10363788095 heartbeat IPC: 0.04957 cumulative IPC: 0.03539 (Simulation time: 1 hr 24 min 20 sec) 
Heartbeat CPU  0 instructions:  464000000 cycles: 10385044097 heartbeat IPC: 0.04705 cumulative IPC: 0.03542 (Simulation time: 1 hr 24 min 30 sec) 
Heartbeat CPU  0 instructions:  465000000 cycles: 10406409673 heartbeat IPC: 0.04680 cumulative IPC: 0.03544 (Simulation time: 1 hr 24 min 40 sec) 
Heartbeat CPU  0 instructions:  466000000 cycles: 10426321007 heartbeat IPC: 0.05022 cumulative IPC: 0.03547 (Simulation time: 1 hr 24 min 50 sec) 
Heartbeat CPU  0 instructions:  467000003 cycles: 10488539569 heartbeat IPC: 0.01607 cumulative IPC: 0.03535 (Simulation time: 1 hr 25 min 19 sec) 
Heartbeat CPU  0 instructions:  468000000 cycles: 10524479854 heartbeat IPC: 0.02782 cumulative IPC: 0.03533 (Simulation time: 1 hr 25 min 35 sec) 
Heartbeat CPU  0 instructions:  469000000 cycles: 10545342811 heartbeat IPC: 0.04793 cumulative IPC: 0.03535 (Simulation time: 1 hr 25 min 44 sec) 
Heartbeat CPU  0 instructions:  470000001 cycles: 10566574644 heartbeat IPC: 0.04710 cumulative IPC: 0.03538 (Simulation time: 1 hr 25 min 55 sec) 
Heartbeat CPU  0 instructions:  471000000 cycles: 10588686046 heartbeat IPC: 0.04523 cumulative IPC: 0.03540 (Simulation time: 1 hr 26 min 5 sec) 
Heartbeat CPU  0 instructions:  472000000 cycles: 10610000141 heartbeat IPC: 0.04692 cumulative IPC: 0.03542 (Simulation time: 1 hr 26 min 14 sec) 
Heartbeat CPU  0 instructions:  473000003 cycles: 10630988515 heartbeat IPC: 0.04765 cumulative IPC: 0.03545 (Simulation time: 1 hr 26 min 24 sec) 
Heartbeat CPU  0 instructions:  474000000 cycles: 10650986589 heartbeat IPC: 0.05000 cumulative IPC: 0.03547 (Simulation time: 1 hr 26 min 34 sec) 
Heartbeat CPU  0 instructions:  475000001 cycles: 10671998764 heartbeat IPC: 0.04759 cumulative IPC: 0.03550 (Simulation time: 1 hr 26 min 43 sec) 
Heartbeat CPU  0 instructions:  476000000 cycles: 10693333868 heartbeat IPC: 0.04687 cumulative IPC: 0.03552 (Simulation time: 1 hr 26 min 53 sec) 
Heartbeat CPU  0 instructions:  477000000 cycles: 10713746018 heartbeat IPC: 0.04899 cumulative IPC: 0.03555 (Simulation time: 1 hr 27 min 3 sec) 
Heartbeat CPU  0 instructions:  478000002 cycles: 10740460599 heartbeat IPC: 0.03743 cumulative IPC: 0.03555 (Simulation time: 1 hr 27 min 15 sec) 
Heartbeat CPU  0 instructions:  479000000 cycles: 10802647358 heartbeat IPC: 0.01608 cumulative IPC: 0.03544 (Simulation time: 1 hr 27 min 44 sec) 
Heartbeat CPU  0 instructions:  480000000 cycles: 10832064103 heartbeat IPC: 0.03399 cumulative IPC: 0.03543 (Simulation time: 1 hr 27 min 57 sec) 
Heartbeat CPU  0 instructions:  481000000 cycles: 10850897659 heartbeat IPC: 0.05310 cumulative IPC: 0.03546 (Simulation time: 1 hr 28 min 6 sec) 
Heartbeat CPU  0 instructions:  482000000 cycles: 10870913018 heartbeat IPC: 0.04996 cumulative IPC: 0.03549 (Simulation time: 1 hr 28 min 15 sec) 
Heartbeat CPU  0 instructions:  483000001 cycles: 10891777301 heartbeat IPC: 0.04793 cumulative IPC: 0.03552 (Simulation time: 1 hr 28 min 25 sec) 
Heartbeat CPU  0 instructions:  484000000 cycles: 10912986950 heartbeat IPC: 0.04715 cumulative IPC: 0.03554 (Simulation time: 1 hr 28 min 35 sec) 
Heartbeat CPU  0 instructions:  485000003 cycles: 10933739875 heartbeat IPC: 0.04819 cumulative IPC: 0.03556 (Simulation time: 1 hr 28 min 45 sec) 
Heartbeat CPU  0 instructions:  486000000 cycles: 10954989614 heartbeat IPC: 0.04706 cumulative IPC: 0.03559 (Simulation time: 1 hr 28 min 55 sec) 
Heartbeat CPU  0 instructions:  487000002 cycles: 10974340033 heartbeat IPC: 0.05168 cumulative IPC: 0.03561 (Simulation time: 1 hr 29 min 4 sec) 
Heartbeat CPU  0 instructions:  488000000 cycles: 11029080936 heartbeat IPC: 0.01827 cumulative IPC: 0.03553 (Simulation time: 1 hr 29 min 29 sec) 
Heartbeat CPU  0 instructions:  489000000 cycles: 11072960297 heartbeat IPC: 0.02279 cumulative IPC: 0.03548 (Simulation time: 1 hr 29 min 49 sec) 
Heartbeat CPU  0 instructions:  490000000 cycles: 11094473604 heartbeat IPC: 0.04648 cumulative IPC: 0.03550 (Simulation time: 1 hr 30 min 0 sec) 
Heartbeat CPU  0 instructions:  491000000 cycles: 11115729380 heartbeat IPC: 0.04705 cumulative IPC: 0.03552 (Simulation time: 1 hr 30 min 10 sec) 
Heartbeat CPU  0 instructions:  492000000 cycles: 11135867283 heartbeat IPC: 0.04966 cumulative IPC: 0.03555 (Simulation time: 1 hr 30 min 19 sec) 
Heartbeat CPU  0 instructions:  493000000 cycles: 11156082164 heartbeat IPC: 0.04947 cumulative IPC: 0.03557 (Simulation time: 1 hr 30 min 29 sec) 
Heartbeat CPU  0 instructions:  494000001 cycles: 11176901713 heartbeat IPC: 0.04803 cumulative IPC: 0.03559 (Simulation time: 1 hr 30 min 39 sec) 
Heartbeat CPU  0 instructions:  495000002 cycles: 11197499423 heartbeat IPC: 0.04855 cumulative IPC: 0.03562 (Simulation time: 1 hr 30 min 48 sec) 
Heartbeat CPU  0 instructions:  496000000 cycles: 11217547041 heartbeat IPC: 0.04988 cumulative IPC: 0.03564 (Simulation time: 1 hr 30 min 58 sec) 
Heartbeat CPU  0 instructions:  497000001 cycles: 11237235482 heartbeat IPC: 0.05079 cumulative IPC: 0.03567 (Simulation time: 1 hr 31 min 8 sec) 
Heartbeat CPU  0 instructions:  498000002 cycles: 11255842081 heartbeat IPC: 0.05374 cumulative IPC: 0.03570 (Simulation time: 1 hr 31 min 17 sec) 
Heartbeat CPU  0 instructions:  499000000 cycles: 11291407665 heartbeat IPC: 0.02812 cumulative IPC: 0.03568 (Simulation time: 1 hr 31 min 33 sec) 
Heartbeat CPU  0 instructions:  500000000 cycles: 11349750273 heartbeat IPC: 0.01714 cumulative IPC: 0.03558 (Simulation time: 1 hr 32 min 0 sec) 
Heartbeat CPU  0 instructions:  501000002 cycles: 11374244776 heartbeat IPC: 0.04083 cumulative IPC: 0.03559 (Simulation time: 1 hr 32 min 11 sec) 
Heartbeat CPU  0 instructions:  502000000 cycles: 11396766790 heartbeat IPC: 0.04440 cumulative IPC: 0.03561 (Simulation time: 1 hr 32 min 22 sec) 
Heartbeat CPU  0 instructions:  503000000 cycles: 11418941638 heartbeat IPC: 0.04510 cumulative IPC: 0.03563 (Simulation time: 1 hr 32 min 32 sec) 
Heartbeat CPU  0 instructions:  504000000 cycles: 11440325893 heartbeat IPC: 0.04676 cumulative IPC: 0.03565 (Simulation time: 1 hr 32 min 42 sec) 
Heartbeat CPU  0 instructions:  505000002 cycles: 11461231027 heartbeat IPC: 0.04784 cumulative IPC: 0.03567 (Simulation time: 1 hr 32 min 52 sec) 
Heartbeat CPU  0 instructions:  506000000 cycles: 11482496499 heartbeat IPC: 0.04702 cumulative IPC: 0.03569 (Simulation time: 1 hr 33 min 2 sec) 
Heartbeat CPU  0 instructions:  507000001 cycles: 11503771340 heartbeat IPC: 0.04700 cumulative IPC: 0.03571 (Simulation time: 1 hr 33 min 12 sec) 
Heartbeat CPU  0 instructions:  508000000 cycles: 11523962179 heartbeat IPC: 0.04953 cumulative IPC: 0.03574 (Simulation time: 1 hr 33 min 22 sec) 
Heartbeat CPU  0 instructions:  509000000 cycles: 11543478261 heartbeat IPC: 0.05124 cumulative IPC: 0.03577 (Simulation time: 1 hr 33 min 31 sec) 
Heartbeat CPU  0 instructions:  510000000 cycles: 11563901843 heartbeat IPC: 0.04896 cumulative IPC: 0.03579 (Simulation time: 1 hr 33 min 40 sec) 
Heartbeat CPU  0 instructions:  511000000 cycles: 11584286616 heartbeat IPC: 0.04906 cumulative IPC: 0.03581 (Simulation time: 1 hr 33 min 50 sec) 
Heartbeat CPU  0 instructions:  512000000 cycles: 11604432370 heartbeat IPC: 0.04964 cumulative IPC: 0.03584 (Simulation time: 1 hr 34 min 0 sec) 
Heartbeat CPU  0 instructions:  513000001 cycles: 11626047146 heartbeat IPC: 0.04626 cumulative IPC: 0.03586 (Simulation time: 1 hr 34 min 10 sec) 
Heartbeat CPU  0 instructions:  514000001 cycles: 11687569678 heartbeat IPC: 0.01625 cumulative IPC: 0.03575 (Simulation time: 1 hr 34 min 38 sec) 
Heartbeat CPU  0 instructions:  515000000 cycles: 11723136980 heartbeat IPC: 0.02812 cumulative IPC: 0.03573 (Simulation time: 1 hr 34 min 54 sec) 
Heartbeat CPU  0 instructions:  516000000 cycles: 11746504631 heartbeat IPC: 0.04279 cumulative IPC: 0.03574 (Simulation time: 1 hr 35 min 5 sec) 
Heartbeat CPU  0 instructions:  517000001 cycles: 11769220945 heartbeat IPC: 0.04402 cumulative IPC: 0.03576 (Simulation time: 1 hr 35 min 15 sec) 
Heartbeat CPU  0 instructions:  518000003 cycles: 11791839541 heartbeat IPC: 0.04421 cumulative IPC: 0.03578 (Simulation time: 1 hr 35 min 26 sec) 
Heartbeat CPU  0 instructions:  519000003 cycles: 11813380165 heartbeat IPC: 0.04642 cumulative IPC: 0.03579 (Simulation time: 1 hr 35 min 35 sec) 
Heartbeat CPU  0 instructions:  520000000 cycles: 11833562034 heartbeat IPC: 0.04955 cumulative IPC: 0.03582 (Simulation time: 1 hr 35 min 45 sec) 
Heartbeat CPU  0 instructions:  521000001 cycles: 11852903302 heartbeat IPC: 0.05170 cumulative IPC: 0.03584 (Simulation time: 1 hr 35 min 54 sec) 
Heartbeat CPU  0 instructions:  522000002 cycles: 11874122179 heartbeat IPC: 0.04713 cumulative IPC: 0.03586 (Simulation time: 1 hr 36 min 4 sec) 
Heartbeat CPU  0 instructions:  523000003 cycles: 11894891273 heartbeat IPC: 0.04815 cumulative IPC: 0.03589 (Simulation time: 1 hr 36 min 14 sec) 
Heartbeat CPU  0 instructions:  524000000 cycles: 11914946966 heartbeat IPC: 0.04986 cumulative IPC: 0.03591 (Simulation time: 1 hr 36 min 23 sec) 
Heartbeat CPU  0 instructions:  525000000 cycles: 11935691713 heartbeat IPC: 0.04820 cumulative IPC: 0.03593 (Simulation time: 1 hr 36 min 33 sec) 
Heartbeat CPU  0 instructions:  526000000 cycles: 11955800028 heartbeat IPC: 0.04973 cumulative IPC: 0.03596 (Simulation time: 1 hr 36 min 42 sec) 
Heartbeat CPU  0 instructions:  527000000 cycles: 11977083543 heartbeat IPC: 0.04698 cumulative IPC: 0.03598 (Simulation time: 1 hr 36 min 52 sec) 
[...]
Heartbeat CPU  0 instructions:  543000002 cycles: 12417646797 heartbeat IPC: 0.01969 cumulative IPC: 0.03599 (Simulation time: 1 hr 40 min 17 sec) 
Heartbeat CPU  0 instructions:  544000000 cycles: 12433087735 heartbeat IPC: 0.06476 cumulative IPC: 0.03602 (Simulation time: 1 hr 40 min 25 sec) 
Heartbeat CPU  0 instructions:  545000001 cycles: 12444190768 heartbeat IPC: 0.09007 cumulative IPC: 0.03607 (Simulation time: 1 hr 40 min 31 sec) 
Heartbeat CPU  0 instructions:  546000000 cycles: 12455173531 heartbeat IPC: 0.09105 cumulative IPC: 0.03612 (Simulation time: 1 hr 40 min 37 sec) 
Heartbeat CPU  0 instructions:  547000002 cycles: 12503640390 heartbeat IPC: 0.02063 cumulative IPC: 0.03606 (Simulation time: 1 hr 41 min 0 sec) 
Heartbeat CPU  0 instructions:  548000000 cycles: 12536299035 heartbeat IPC: 0.03062 cumulative IPC: 0.03605 (Simulation time: 1 hr 41 min 16 sec) 
Heartbeat CPU  0 instructions:  549000000 cycles: 12552577738 heartbeat IPC: 0.06143 cumulative IPC: 0.03608 (Simulation time: 1 hr 41 min 24 sec) 
Heartbeat CPU  0 instructions:  550000000 cycles: 12564368151 heartbeat IPC: 0.08481 cumulative IPC: 0.03613 (Simulation time: 1 hr 41 min 30 sec) 
Heartbeat CPU  0 instructions:  551000000 cycles: 12590667578 heartbeat IPC: 0.03802 cumulative IPC: 0.03613 (Simulation time: 1 hr 41 min 43 sec) 
Heartbeat CPU  0 instructions:  552000000 cycles: 12642843567 heartbeat IPC: 0.01917 cumulative IPC: 0.03606 (Simulation time: 1 hr 42 min 7 sec) 
Heartbeat CPU  0 instructions:  553000000 cycles: 12661186367 heartbeat IPC: 0.05452 cumulative IPC: 0.03609 (Simulation time: 1 hr 42 min 16 sec) 
Heartbeat CPU  0 instructions:  554000000 cycles: 12675080152 heartbeat IPC: 0.07197 cumulative IPC: 0.03613 (Simulation time: 1 hr 42 min 23 sec) 
Heartbeat CPU  0 instructions:  555000000 cycles: 12713187354 heartbeat IPC: 0.02624 cumulative IPC: 0.03610 (Simulation time: 1 hr 42 min 41 sec) 
Heartbeat CPU  0 instructions:  556000000 cycles: 12757882210 heartbeat IPC: 0.02237 cumulative IPC: 0.03605 (Simulation time: 1 hr 43 min 2 sec) 
Heartbeat CPU  0 instructions:  557000000 cycles: 12775097566 heartbeat IPC: 0.05809 cumulative IPC: 0.03608 (Simulation time: 1 hr 43 min 10 sec) 
Heartbeat CPU  0 instructions:  558000000 cycles: 12789226965 heartbeat IPC: 0.07077 cumulative IPC: 0.03612 (Simulation time: 1 hr 43 min 17 sec) 
Heartbeat CPU  0 instructions:  559000000 cycles: 12832914703 heartbeat IPC: 0.02289 cumulative IPC: 0.03607 (Simulation time: 1 hr 43 min 38 sec) 
Heartbeat CPU  0 instructions:  560000000 cycles: 12868785645 heartbeat IPC: 0.02788 cumulative IPC: 0.03605 (Simulation time: 1 hr 43 min 55 sec) 
Heartbeat CPU  0 instructions:  561000003 cycles: 12885167717 heartbeat IPC: 0.06104 cumulative IPC: 0.03608 (Simulation time: 1 hr 44 min 3 sec) 
Heartbeat CPU  0 instructions:  562000003 cycles: 12900232391 heartbeat IPC: 0.06638 cumulative IPC: 0.03612 (Simulation time: 1 hr 44 min 11 sec) 
Heartbeat CPU  0 instructions:  563000002 cycles: 12947994582 heartbeat IPC: 0.02094 cumulative IPC: 0.03606 (Simulation time: 1 hr 44 min 33 sec) 
Heartbeat CPU  0 instructions:  564000000 cycles: 12987131880 heartbeat IPC: 0.02555 cumulative IPC: 0.03603 (Simulation time: 1 hr 44 min 51 sec) 
Heartbeat CPU  0 instructions:  565000000 cycles: 13003514898 heartbeat IPC: 0.06104 cumulative IPC: 0.03606 (Simulation time: 1 hr 45 min 0 sec) 
Heartbeat CPU  0 instructions:  566000002 cycles: 13028407345 heartbeat IPC: 0.04017 cumulative IPC: 0.03607 (Simulation time: 1 hr 45 min 12 sec) 
Heartbeat CPU  0 instructions:  567000000 cycles: 13086921620 heartbeat IPC: 0.01709 cumulative IPC: 0.03598 (Simulation time: 1 hr 45 min 39 sec) 
Heartbeat CPU  0 instructions:  568000000 cycles: 13107414887 heartbeat IPC: 0.04880 cumulative IPC: 0.03600 (Simulation time: 1 hr 45 min 49 sec) 
Heartbeat CPU  0 instructions:  569000001 cycles: 13123570893 heartbeat IPC: 0.06190 cumulative IPC: 0.03603 (Simulation time: 1 hr 45 min 57 sec) 
Heartbeat CPU  0 instructions:  570000003 cycles: 13164031471 heartbeat IPC: 0.02472 cumulative IPC: 0.03600 (Simulation time: 1 hr 46 min 16 sec) 
Heartbeat CPU  0 instructions:  571000000 cycles: 13209438568 heartbeat IPC: 0.02202 cumulative IPC: 0.03595 (Simulation time: 1 hr 46 min 37 sec) 
Heartbeat CPU  0 instructions:  572000000 cycles: 13225963693 heartbeat IPC: 0.06051 cumulative IPC: 0.03598 (Simulation time: 1 hr 46 min 45 sec) 
Heartbeat CPU  0 instructions:  573000001 cycles: 13241101893 heartbeat IPC: 0.06606 cumulative IPC: 0.03602 (Simulation time: 1 hr 46 min 52 sec) 
Heartbeat CPU  0 instructions:  574000000 cycles: 13301007496 heartbeat IPC: 0.01669 cumulative IPC: 0.03593 (Simulation time: 1 hr 47 min 21 sec) 
Heartbeat CPU  0 instructions:  575000000 cycles: 13326218357 heartbeat IPC: 0.03967 cumulative IPC: 0.03593 (Simulation time: 1 hr 47 min 33 sec) 
Heartbeat CPU  0 instructions:  576000000 cycles: 13341284783 heartbeat IPC: 0.06637 cumulative IPC: 0.03597 (Simulation time: 1 hr 47 min 41 sec) 
Heartbeat CPU  0 instructions:  577000001 cycles: 13373747178 heartbeat IPC: 0.03080 cumulative IPC: 0.03596 (Simulation time: 1 hr 47 min 56 sec) 
Heartbeat CPU  0 instructions:  578000000 cycles: 13423834548 heartbeat IPC: 0.01997 cumulative IPC: 0.03590 (Simulation time: 1 hr 48 min 19 sec) 
Heartbeat CPU  0 instructions:  579000000 cycles: 13441794674 heartbeat IPC: 0.05568 cumulative IPC: 0.03592 (Simulation time: 1 hr 48 min 28 sec) 
Heartbeat CPU  0 instructions:  580000000 cycles: 13456020300 heartbeat IPC: 0.07030 cumulative IPC: 0.03596 (Simulation time: 1 hr 48 min 35 sec) 
Heartbeat CPU  0 instructions:  581000002 cycles: 13509832241 heartbeat IPC: 0.01858 cumulative IPC: 0.03589 (Simulation time: 1 hr 49 min 0 sec) 
Heartbeat CPU  0 instructions:  582000003 cycles: 13540633802 heartbeat IPC: 0.03247 cumulative IPC: 0.03588 (Simulation time: 1 hr 49 min 15 sec) 
Heartbeat CPU  0 instructions:  583000003 cycles: 13555926248 heartbeat IPC: 0.06539 cumulative IPC: 0.03592 (Simulation time: 1 hr 49 min 23 sec) 
Heartbeat CPU  0 instructions:  584000000 cycles: 13587029869 heartbeat IPC: 0.03215 cumulative IPC: 0.03591 (Simulation time: 1 hr 49 min 38 sec) 
Heartbeat CPU  0 instructions:  585000000 cycles: 13639278148 heartbeat IPC: 0.01914 cumulative IPC: 0.03584 (Simulation time: 1 hr 50 min 2 sec) 
Heartbeat CPU  0 instructions:  586000001 cycles: 13657011145 heartbeat IPC: 0.05639 cumulative IPC: 0.03587 (Simulation time: 1 hr 50 min 10 sec) 
Heartbeat CPU  0 instructions:  587000000 cycles: 13670438700 heartbeat IPC: 0.07447 cumulative IPC: 0.03591 (Simulation time: 1 hr 50 min 17 sec) 
Heartbeat CPU  0 instructions:  588000000 cycles: 13721273608 heartbeat IPC: 0.01967 cumulative IPC: 0.03585 (Simulation time: 1 hr 50 min 41 sec) 
Heartbeat CPU  0 instructions:  589000000 cycles: 13753414099 heartbeat IPC: 0.03111 cumulative IPC: 0.03584 (Simulation time: 1 hr 50 min 56 sec) 
Heartbeat CPU  0 instructions:  590000001 cycles: 13768144300 heartbeat IPC: 0.06789 cumulative IPC: 0.03587 (Simulation time: 1 hr 51 min 3 sec) 
Heartbeat CPU  0 instructions:  591000003 cycles: 13797113671 heartbeat IPC: 0.03452 cumulative IPC: 0.03587 (Simulation time: 1 hr 51 min 17 sec) 
Heartbeat CPU  0 instructions:  592000000 cycles: 13848638686 heartbeat IPC: 0.01941 cumulative IPC: 0.03581 (Simulation time: 1 hr 51 min 41 sec) 
Heartbeat CPU  0 instructions:  593000000 cycles: 13866547311 heartbeat IPC: 0.05584 cumulative IPC: 0.03583 (Simulation time: 1 hr 51 min 50 sec) 
Heartbeat CPU  0 instructions:  594000001 cycles: 13880046244 heartbeat IPC: 0.07408 cumulative IPC: 0.03587 (Simulation time: 1 hr 51 min 57 sec) 
Heartbeat CPU  0 instructions:  595000003 cycles: 13929727892 heartbeat IPC: 0.02013 cumulative IPC: 0.03581 (Simulation time: 1 hr 52 min 20 sec) 
Heartbeat CPU  0 instructions:  596000000 cycles: 13964614637 heartbeat IPC: 0.02866 cumulative IPC: 0.03579 (Simulation time: 1 hr 52 min 36 sec) 
Heartbeat CPU  0 instructions:  597000000 cycles: 13978924635 heartbeat IPC: 0.06988 cumulative IPC: 0.03583 (Simulation time: 1 hr 52 min 44 sec) 
Heartbeat CPU  0 instructions:  598000001 cycles: 14001248435 heartbeat IPC: 0.04480 cumulative IPC: 0.03584 (Simulation time: 1 hr 52 min 55 sec) 
Heartbeat CPU  0 instructions:  599000000 cycles: 14056626908 heartbeat IPC: 0.01806 cumulative IPC: 0.03577 (Simulation time: 1 hr 53 min 20 sec) 
Heartbeat CPU  0 instructions:  600000000 cycles: 14075987085 heartbeat IPC: 0.05165 cumulative IPC: 0.03580 (Simulation time: 1 hr 53 min 30 sec) 
Finished CPU 0 instructions: 500000000 cycles: 13968219126 cumulative IPC: 0.03580 (Simulation time: 1 hr 53 min 30 sec) 

ChampSim completed all CPUs

[ROI Statistics]
Core_0_instructions 500000000
Core_0_cycles 13968219126
Core_0_IPC 0.03580

Core_0_branch_prediction_accuracy 93.42004
Core_0_branch_MPKI 15.82262
Core_0_average_ROB_occupancy_at_mispredict 58.37124

Core_0_L1D_total_access 121357287
Core_0_L1D_total_hit 56651014
Core_0_L1D_total_miss 64706273
Core_0_L1D_loads 105787079
Core_0_L1D_load_hit 41913703
Core_0_L1D_load_miss 63873376
Core_0_L1D_RFOs 15570208
Core_0_L1D_RFO_hit 14737311
Core_0_L1D_RFO_miss 832897
Core_0_L1D_prefetches 0
Core_0_L1D_prefetch_hit 0
Core_0_L1D_prefetch_miss 0
Core_0_L1D_writebacks 0
Core_0_L1D_writeback_hit 0
Core_0_L1D_writeback_miss 0
Core_0_L1D_prefetch_requested 0
Core_0_L1D_prefetch_dropped 0
Core_0_L1D_prefetch_issued 0
Core_0_L1D_prefetch_filled 0
Core_0_L1D_prefetch_useful 0
Core_0_L1D_prefetch_useless 0
Core_0_L1D_prefetch_late 0
Core_0_L1D_average_miss_latency 388.99537

Core_0_L1D_rq_access 161169690
Core_0_L1D_rq_forward 0
Core_0_L1D_rq_merged 54938951
Core_0_L1D_rq_to_cache 106230739
Core_0_L1D_rq_full 0

Core_0_L1D_wq_access 16623469
Core_0_L1D_wq_forward 0
Core_0_L1D_wq_merged 945273
Core_0_L1D_wq_to_cache 15678196
Core_0_L1D_wq_full 0

Core_0_L1D_pq_access 0
Core_0_L1D_pq_forward 0
Core_0_L1D_pq_merged 0
Core_0_L1D_pq_to_cache 0
Core_0_L1D_pq_full 0

Core_0_L1D_acc_epochs 13335065
Core_0_L1D_acc_level_0 13335065
Core_0_L1D_acc_level_1 0
Core_0_L1D_acc_level_2 0
Core_0_L1D_acc_level_3 0
Core_0_L1D_acc_level_4 0
Core_0_L1D_acc_level_5 0
Core_0_L1D_acc_level_6 0
Core_0_L1D_acc_level_7 0
Core_0_L1D_acc_level_8 0
Core_0_L1D_acc_level_9 0

Core_0_L1I_total_access 103760190
Core_0_L1I_total_hit 103760190
Core_0_L1I_total_miss 0
Core_0_L1I_loads 103760190
Core_0_L1I_load_hit 103760190
Core_0_L1I_load_miss 0
Core_0_L1I_RFOs 0
Core_0_L1I_RFO_hit 0
Core_0_L1I_RFO_miss 0
Core_0_L1I_prefetches 0
Core_0_L1I_prefetch_hit 0
Core_0_L1I_prefetch_miss 0
Core_0_L1I_writebacks 0
Core_0_L1I_writeback_hit 0
Core_0_L1I_writeback_miss 0
Core_0_L1I_prefetch_requested 0
Core_0_L1I_prefetch_dropped 0
Core_0_L1I_prefetch_issued 0
Core_0_L1I_prefetch_filled 0
Core_0_L1I_prefetch_useful 0
Core_0_L1I_prefetch_useless 0
Core_0_L1I_prefetch_late 0
Core_0_L1I_average_miss_latency -nan

Core_0_L1I_rq_access 500000052
Core_0_L1I_rq_forward 0
Core_0_L1I_rq_merged 396239862
Core_0_L1I_rq_to_cache 103760190
Core_0_L1I_rq_full 0

Core_0_L1I_wq_access 0
Core_0_L1I_wq_forward 0
Core_0_L1I_wq_merged 0
Core_0_L1I_wq_to_cache 0
Core_0_L1I_wq_full 0

Core_0_L1I_pq_access 0
Core_0_L1I_pq_forward 0
Core_0_L1I_pq_merged 0
Core_0_L1I_pq_to_cache 0
Core_0_L1I_pq_full 0

Core_0_L1I_acc_epochs 13335065
Core_0_L1I_acc_level_0 13335065
Core_0_L1I_acc_level_1 0
Core_0_L1I_acc_level_2 0
Core_0_L1I_acc_level_3 0
Core_0_L1I_acc_level_4 0
Core_0_L1I_acc_level_5 0
Core_0_L1I_acc_level_6 0
Core_0_L1I_acc_level_7 0
Core_0_L1I_acc_level_8 0
Core_0_L1I_acc_level_9 0

Core_0_L2C_total_access 86013945
Core_0_L2C_total_hit 28735918
Core_0_L2C_total_miss 57278027
Core_0_L2C_loads 63873070
Core_0_L2C_load_hit 19638479
Core_0_L2C_load_miss 44234591
Core_0_L2C_RFOs 832885
Core_0_L2C_RFO_hit 284915
Core_0_L2C_RFO_miss 547970
Core_0_L2C_prefetches 12616613
Core_0_L2C_prefetch_hit 127200
Core_0_L2C_prefetch_miss 12489413
Core_0_L2C_writebacks 8691377
Core_0_L2C_writeback_hit 8685324
Core_0_L2C_writeback_miss 6053
Core_0_L2C_prefetch_requested 62359742
Core_0_L2C_prefetch_dropped 0
Core_0_L2C_prefetch_issued 62359742
Core_0_L2C_prefetch_filled 16150224
Core_0_L2C_prefetch_useful 6909563
Core_0_L2C_prefetch_useless 9240354
Core_0_L2C_prefetch_late 3907
Core_0_L2C_average_miss_latency 577.49547

Core_0_L2C_rq_access 64706273
Core_0_L2C_rq_forward 0
Core_0_L2C_rq_merged 0
Core_0_L2C_rq_to_cache 64705955
Core_0_L2C_rq_full 0

Core_0_L2C_wq_access 8691377
Core_0_L2C_wq_forward 318
Core_0_L2C_wq_merged 0
Core_0_L2C_wq_to_cache 8691377
Core_0_L2C_wq_full 0

Core_0_L2C_pq_access 62359742
Core_0_L2C_pq_forward 0
Core_0_L2C_pq_merged 18932
Core_0_L2C_pq_to_cache 62340810
Core_0_L2C_pq_full 0

Core_0_L2C_acc_epochs 13335065
Core_0_L2C_acc_level_0 11383256
Core_0_L2C_acc_level_1 464576
Core_0_L2C_acc_level_2 371862
Core_0_L2C_acc_level_3 280845
Core_0_L2C_acc_level_4 185657
Core_0_L2C_acc_level_5 194374
Core_0_L2C_acc_level_6 122667
Core_0_L2C_acc_level_7 88912
Core_0_L2C_acc_level_8 59382
Core_0_L2C_acc_level_9 183534

Core_0_LLC_total_access 100260783
Core_0_LLC_total_hit 39179801
Core_0_LLC_total_miss 61080982
Core_0_LLC_loads 44230692
Core_0_LLC_load_hit 23646885
Core_0_LLC_load_miss 20583807
Core_0_LLC_RFOs 547968
Core_0_LLC_RFO_hit 136871
Core_0_LLC_RFO_miss 411097
Core_0_LLC_prefetches 48963441
Core_0_LLC_prefetch_hit 11866526
Core_0_LLC_prefetch_miss 37096915
Core_0_LLC_writebacks 6518682
Core_0_LLC_writeback_hit 3529519
Core_0_LLC_writeback_miss 2989163
Core_0_LLC_prefetch_requested 0
Core_0_LLC_prefetch_dropped 0
Core_0_LLC_prefetch_issued 0
Core_0_LLC_prefetch_filled 44547839
Core_0_LLC_prefetch_useful 10142859
Core_0_LLC_prefetch_useless 34394097
Core_0_LLC_prefetch_late 34401
Core_0_LLC_average_miss_latency 1578.81473

Core_0_LLC_rq_access 44778829
Core_0_LLC_rq_forward 0
Core_0_LLC_rq_merged 0
Core_0_LLC_rq_to_cache 44778660
Core_0_LLC_rq_full 0

Core_0_LLC_wq_access 6518682
Core_0_LLC_wq_forward 175
Core_0_LLC_wq_merged 0
Core_0_LLC_wq_to_cache 6518682
Core_0_LLC_wq_full 0

Core_0_LLC_pq_access 59832290
Core_0_LLC_pq_forward 0
Core_0_LLC_pq_merged 212
Core_0_LLC_pq_to_cache 59832072
Core_0_LLC_pq_full 0

Core_0_LLC_acc_epochs 13746082
Core_0_LLC_acc_level_0 6787247
Core_0_LLC_acc_level_1 1873101
Core_0_LLC_acc_level_2 1404697
Core_0_LLC_acc_level_3 883943
Core_0_LLC_acc_level_4 510048
Core_0_LLC_acc_level_5 749355
Core_0_LLC_acc_level_6 354717
Core_0_LLC_acc_level_7 267982
Core_0_LLC_acc_level_8 186890
Core_0_LLC_acc_level_9 728102

Core_0_major_page_fault 0
Core_0_minor_page_fault 289215

[MLOP] History of tracked zone:
IIIIIIIIIIIIIIIIIIIIIIIIIIIIIIIIIIIIIIIIIIIIIIIIIIIIIIIIIIIIIIII
IAIIIIIIIIIIIIIIIIIIIIIIIIIIIIIIIIIIIIIIIIIIIIIIIIIIIIIIIIIIIIII
IAAIIIIIIIIIIIIIIIIIIIIIIIIIIIIIIIIIIIIIIIIIIIIIIIIIIIIIIIIIIIII
IAAA4IIIIIIIIIIIIIIIIIIIIIIIIIIIIIIIIIIIIIIIIIIIIIIIIIIIIIIIIIII
IAAAA4IIIIIIIIIIIIIIIIIIIIIIIIIIIIIIIIIIIIIIIIIIIIIIIIIIIIIIIIII
IAAAAAI44IIIIIIIIIIIIIIIIIIIIIIIIIIIIIIIIIIIIIIIIIIIIIIIIIIIIIII
IAAAAAA4444IIIIIIIIIIIIIIIIIIIIIIIIIIIIIIIIIIIIIIIIIIIIIIIIIIIII
IAAAAAAA444I4IIIIIIIIIIIIIIIIIIIIIIIIIIIIIIIIIIIIIIIIIIIIIIIIIII
IAAAAAAAA444444IIIIIIIIIIIIIIIIIIIIIIIIIIIIIIIIIIIIIIIIIIIIIIIII
IAAAAAAAAA4444444IIIIIIIIIIIIIIIIIIIIIIIIIIIIIIIIIIIIIIIIIIIIIII
IAAAAAAAAAA4444444IIIIIIIIIIIIIIIIIIIIIIIIIIIIIIIIIIIIIIIIIIIIII
IAAAAAAAAAAA444444I4IIIIIIIIIIIIIIIIIIIIIIIIIIIIIIIIIIIIIIIIIIII
IAAAAAAAAAAAA44444I44I4IIIIIIIIIIIIIIIIIIIIIIIIIIIIIIIIIIIIIIIII
IAAAAAAAAAAAAA4444444I444IIIIIIIIIIIIIIIIIIIIIIIIIIIIIIIIIIIIIII
IAAAAAAAAAAAAAA444444I4444IIIIIIIIIIIIIIIIIIIIIIIIIIIIIIIIIIIIII
IAAAAAAAAAAAAAAA4444444444I4IIIIIIIIIIIIIIIIIIIIIIIIIIIIIIIIIIII
IAAAAAAAAAAAAAAAA44444444444I44IIIIIIIIIIIIIIIIIIIIIIIIIIIIIIIII
IAAAAAAAAAAAAAAAAA4444444444I44I4IIIIIIIIIIIIIIIIIIIIIIIIIIIIIII
IAAAAAAAAAAAAAAAAAA4444444444444444IIIIIIIIIIIIIIIIIIIIIIIIIIIII
IAAAAAAAAAAAAAAAAAAA4444444444444444IIIIIIIIIIIIIIIIIIIIIIIIIIII
IAAAAAAAAAAAAAAAAAAAA4444444444444444IIIIIIIIIIIIIIIIIIIIIIIIIII
IAAAAAAAAAAAAAAAAAAAAA4444444444444444IIIIIIIIIIIIIIIIIIIIIIIIII
IAAAAAAAAAAAAAAAAAAAAAA4444444444444444I4IIIIIIIIIIIIIIIIIIIIIII
IAAAAAAAAAAAAAAAAAAAAAAA444444444444444I4I4IIIIIIIIIIIIIIIIIIIII
IAAAAAAAAAAAAAAAAAAAAAAAA444444444444444444IIIIIIIIIIIIIIIIIIIII
IAAAAAAAAAAAAAAAAAAAAAAAAA44444444444444444IIIIIIIIIIIIIIIIIIIII
IAAAAAAAAAAAAAAAAAAAAAAAAAA4444444444444444IIIIIIIIIIIIIIIIIIIII
IAAAAAAAAAAAAAAAAAAAAAAAAAAA4444444444444444I4IIIIIIIIIIIIIIIIII
IAAAAAAAAAAAAAAAAAAAAAAAAAAAA444444444444444I44IIIIIIIIIIIIIIIII
IAAAAAAAAAAAAAAAAAAAAAAAAAAAAA44444444444444I444IIIIIIIIIIIIIIII
IAAAAAAAAAAAAAAAAAAAAAAAAAAAAAA444444444444444444IIIIIIIIIIIIIII
IAAAAAAAAAAAAAAAAAAAAAAAAAAAAAAA444444444444444444IIIIIIIIIIIIII
IAAAAAAAAAAAAAAAAAAAAAAAAAAAAAAAA444444444444444444IIIIIIIIIIIII
IAAAAAAAAAAAAAAAAAAAAAAAAAAAAAAAAA44444444444444444IIIIIIIIIIIII
IAAAAAAAAAAAAAAAAAAAAAAAAAAAAAAAAAA4444444444444444IIIIIIIIIIIII
IAAAAAAAAAAAAAAAAAAAAAAAAAAAAAAAAAAA4444444444444444IIIIIIIIIIII
IAAAAAAAAAAAAAAAAAAAAAAAAAAAAAAAAAAAA444444444444444II4IIIIIIIII
IAAAAAAAAAAAAAAAAAAAAAAAAAAAAAAAAAIAA444444444444444II4IIIIIIIII
IAAAAAAAAAAAAAAAAAAAAAAAAAAAAAAAIAIAA444444444444444II4IIIIIIIII
IAAAAAAAAAAAAAAAAAAAAAAAAAAAAAAIIAIAA444444444444444II4IIIIIIIII
IAAAAAAAAAAAAAAAAAAAAAAAAAAAAAIIIAIAA444444444444444II4IIIIIIIII
IAAAAAAAAAAAAAAAAAAAAAAAAAAAAAIIIAIAAA424444444444444I44IIIIIIII
IAAAAAAAAAAAAAAAAAAAAAAAAAAAAAIIIAIAAAA24444444444444I44IIIIIIII
IAAAAAAAAAAAAAAAAAAAAAAAAAAAAAIIIAIAAAAA4444444444444444I4IIIIII
IAAAAAAAAAAAAAAAAAAAAAAAAAAAAAIIIAIAAAAAA44444444444444444IIIIII
IAAAAAAAAAAAAAAAAAAAAAAAAAAAAAIIIAIAAAAAAA4444444444444444IIIIII
IAAAAAAAAAAAAAAAAAAAAAAAAAAAAAIIIAIAAAAAAAA4444444444444444IIIII
IAAAAAAAAAAAAAAAAAAAAAAAAAAAAAIIIAIAAAAAAAAA4444444444444444IIII
IAAAAAAAAAAAAAAAAAAAAAAAAAAAAAIIIAIAAAAAAAAAA4444444444444444I4I
IAAAAAAAAAAAAAAAAAAAAAAAAAAAAAIIIAIAAAAAAAAAAA444444444444444I44
IAAAAAAAAAAAAAAAAAAAAAAAAAAAAAIIIAIAAAAAAAAAAAA44444444444444I44
IAAAAAAAAAAAAAAAAAAAAAAAAAAAAAIIIAIAAAAAAAAAAAAA4444444444444I44
IAAAAAAAAAAAAAAAAAAAAAAAAAAAAAIIIAIAAAAAAAAAAAAAA444444444444I44
IAAAAAAAAAAAAAAAAAAAAAAAAAAAAAIIIAIAAAAAAAAAAAAAAA44444444444444
IAAAAAAAAAAAAAAAAAAAAAAAAAAAAAIIIAIAAAAAAAAAAAAAAAA4444444444444
IAAAAAAAAAAAAAAAAAAAAAAAAAAAAAIIIAIAAAAAAAAAAAAAAAAA444444444444
IAAAAAAAAAAAAAAAAAAAAAAAAAAAAAIIIAIAAAAAAAAAAAAAAAAAA44444444444
IAAAAAAAAAAAAAAAAAAAAAAAAAAAAAIIIAIAAAAAAAAAAAAAAIAAA44444444444
IAAAAAAAAAAAAAAAAAAAAAAAAAAAAAIIIAIAAAAAAAAAAIAAAIAAA44444444444
IAAAAAAAAAAAAAAAAAAAAAAAAAAAAAIIIAIAAAAAAAAAAIAAIIAAA44444444444
IAAAAAAAAAAAAAAAAAAAAAAAAAAAAAIIIAIAAAAAAAAAAIAAIIAAAA4224444444
IAAAAAAAAAAAAAAAAAAAAAAAAAAAAAIIIAIAAAAAAAAAAIAAIIAAAAA224444444
IAAAAAAAAAAAAAAAAAAAAAAAAAAAAAIIIAIAAAAAAAAAAIAAIIAAAAAA24444444
IAAAAAAAAAAAAAAAAAAAAAAAAAAAAAIIIAIAAAAAAAAAAIAAIIAAAAAAA4444444
IAAAAAAAAAAAAAAAAAAAAAAAAAAAAAIIIAIAAAAAAAAAAIAAIIAAAAAAAA444444
IAAAAAAAAAAAAAAAAAAAAAAAAAAAAAIIIAIAAAAAAAAAAIAAIIAAAAAAAAA44444
IAAAAAAAAAAAAAAAAAAAAAAAAAAAAAIIIAIAAAAAAAAAAIAAIIAAAAAAAAAA4444
IAAAAAAAAAAAAAAAAAAAAAAAAAAAAAIIIAIAAAAAAAAAAIAAIIAAAAAAAAAAA444
IAAAAAAAAAAAAAAAAAAAAAAAAAAAAAIIIAIAAAAAAAAAAIAAIIAAAAAAAAAAAA44
IAAAAAAAAAAAAAAAAAAAAAAAAAAAAAIIIAIAAAAAAAAAAIAAIIAAAAAAAAAIAA44
IAAAAAAAAAAAAAAAAAAAAAAAAAAAAAIIIAIAAAAAAAAAAIAAIIAAAAAIAAAIAA44
IAAAAAAAAAAAAAAAAAAAAAAAAAAAAAIIIAIAAAAAAAAAAIAAIIAAAAAIAIAIAA44
IAAAAAAAAAAAAAAAAAAAAAAAAAAAAAIIIAIAAAAAAAAAAIAAIIAAAAAIAIAIAAA4
IAAAAAAAAAAAAAAAAAAAAAAAAAAAAAIIIAIAAAAAAAAAAIAAIIAAAAAIAIAIAAAA
[MLOP] Prefetch Degree Mean: 5.24169
[MLOP] Prefetch Degree SD: 2.48864
[MLOP] Max Score Left Mean (%): 35.36775
[MLOP] Max Score Left SD (%): 15.69650
[MLOP] Max Score Right Mean (%): 68.32748
[MLOP] Max Score Right SD (%): 13.47575

Channel_0_RQ_row_buffer_hit 6832707
Channel_0_RQ_row_buffer_miss 51241655
Channel_0_WQ_row_buffer_hit 998478
Channel_0_WQ_row_buffer_miss 4294924
Channel_0_WQ_full 336
Channel_0_dbus_congested 63253807

avg_congested_cycle 192

DRAM_bw_pochs 54984325
DRAM_bw_level_0 22355978
DRAM_bw_level_1 0
DRAM_bw_level_2 0
DRAM_bw_level_3 32628347
