*************************************************
   ChampSim Multicore Out-of-Order Simulator
   Last compiled: Dec 11 2024 17:59:53
*************************************************
parsing config file: /home/functionmain/桌面/Pythia/config/bingo.ini

trace_0 /home/functionmain/桌面/Pythia/traces/429.mcf-184B.champsimtrace.xz
adding L2C_PREFETCHER: Bingo
Initialize SHIP state
warmup_instructions 100000000
simulation_instructions 500000000
champsim_seed 223
measure_ipc 0
measure_ipc_epoch 1000
measure_dram_bw 1
measure_dram_bw_epoch 256
measure_cache_acc 1
measure_cache_acc_epoch 1024
l1d_perfect 0
l2c_perfect 0
llc_perfect 0
l1d_semi_perfect 0
l2c_semi_perfect 0
llc_semi_perfect 0
semi_perfect_cache_page_buffer_size 64

num_cpus 1
cpu_freq 4000
dram_io_freq 600
page_size 4096
block_size 64
max_read_per_cycle 8
max_fill_per_cycle 1
dram_channels 1
log2_dram_channels 0
dram_ranks 1
dram_banks 8
dram_rows 65536
dram_columns 128
dram_row_size 8
dram_size 4096
dram_pages 1048576

fetch_width 6
decode_width 6
exec_width 4
lq_width 2
sq_width 2
retire_width 4
scheduler_size 128
branch_mispredict_penalty 20
rob_size 256
lq_size 72
sq_size 56
num_instr_destinations_sparc 4
num_instr_destinations 2
num_instr_sources 4

itlb_set 16
itlb_way 8
itlb_rq_size 16
itlb_wq_size 16
itlb_pq_size 0
itlb_mshr_size 8
itlb_latency 1

dtlb_set 16
dtlb_way 4
dtlb_rq_size 16
dtlb_wq_size 16
dtlb_pq_size 0
dtlb_mshr_size 8
dtlb_latency 1

stlb_set 128
stlb_way 12
stlb_rq_size 32
stlb_wq_size 32
stlb_pq_size 0
stlb_mshr_size 16
stlb_latency 8

l1i_size 32
l1i_set 64
l1i_way 8
l1i_rq_size 64
l1i_wq_size 64
l1i_pq_size 8
l1i_mshr_size 8
l1i_latency 1

l1d_size 32
l1d_set 64
l1d_way 8
l1d_rq_size 64
l1d_wq_size 64
l1d_pq_size 8
l1d_mshr_size 16
l1d_latency 4

l2c_size 256
l2c_set 512
l2c_way 8
l2c_rq_size 32
l2c_wq_size 32
l2c_pq_size 32
l2c_mshr_size 32
l2c_latency 10

llc_size 2048
llc_set 2048
llc_way 16
llc_rq_size 32
llc_wq_size 32
llc_pq_size 32
llc_mshr_size 64
llc_latency 20

dram_channel_width 8
dram_wq_size 64
dram_rq_size 64
tRP 15
tRCD 15
tCAS 12.5
dram_dbus_turn_around_time 30
dram_write_high_wm 56
dram_write_low_wm 48
min_dram_writes_per_switch 16
dram_mtps 600
dram_dbus_return_time 53

bingo_region_size 2048
bingo_pattern_len 32
bingo_pc_width 16
bingo_min_addr_width 5
bingo_max_addr_width 16
bingo_ft_size 64
bingo_at_size 128
bingo_pht_size 4096
bingo_pht_ways 16
bingo_pf_streamer_size 128
bingo_debug_level 0
bingo_l1d_thresh 1.01
bingo_l2c_thresh 0.8
bingo_llc_thresh 0.05
bingo_pc_address_fill_level L2


Heartbeat CPU  0 instructions:    1000000 cycles:    1116853 heartbeat IPC: 0.89537 cumulative IPC: 0.89537 (Simulation time: 0 hr 0 min 3 sec) 
Heartbeat CPU  0 instructions:    2000002 cycles:    2229678 heartbeat IPC: 0.89862 cumulative IPC: 0.89699 (Simulation time: 0 hr 0 min 5 sec) 
Heartbeat CPU  0 instructions:    3000000 cycles:    3308829 heartbeat IPC: 0.92665 cumulative IPC: 0.90667 (Simulation time: 0 hr 0 min 8 sec) 
Heartbeat CPU  0 instructions:    4000000 cycles:    4326908 heartbeat IPC: 0.98224 cumulative IPC: 0.92445 (Simulation time: 0 hr 0 min 10 sec) 
Heartbeat CPU  0 instructions:    5000003 cycles:    5282458 heartbeat IPC: 1.04652 cumulative IPC: 0.94653 (Simulation time: 0 hr 0 min 13 sec) 
Heartbeat CPU  0 instructions:    6000003 cycles:    6456371 heartbeat IPC: 0.85185 cumulative IPC: 0.92932 (Simulation time: 0 hr 0 min 16 sec) 
Heartbeat CPU  0 instructions:    7000001 cycles:    7621074 heartbeat IPC: 0.85859 cumulative IPC: 0.91851 (Simulation time: 0 hr 0 min 18 sec) 
Heartbeat CPU  0 instructions:    8000000 cycles:    8763276 heartbeat IPC: 0.87550 cumulative IPC: 0.91290 (Simulation time: 0 hr 0 min 21 sec) 
Heartbeat CPU  0 instructions:    9000001 cycles:    9919548 heartbeat IPC: 0.86485 cumulative IPC: 0.90730 (Simulation time: 0 hr 0 min 24 sec) 
Heartbeat CPU  0 instructions:   10000001 cycles:   11041760 heartbeat IPC: 0.89110 cumulative IPC: 0.90565 (Simulation time: 0 hr 0 min 26 sec) 
Heartbeat CPU  0 instructions:   11000000 cycles:   12165504 heartbeat IPC: 0.88988 cumulative IPC: 0.90420 (Simulation time: 0 hr 0 min 29 sec) 
Heartbeat CPU  0 instructions:   12000000 cycles:   13328872 heartbeat IPC: 0.85957 cumulative IPC: 0.90030 (Simulation time: 0 hr 0 min 32 sec) 
Heartbeat CPU  0 instructions:   13000000 cycles:   14484456 heartbeat IPC: 0.86536 cumulative IPC: 0.89751 (Simulation time: 0 hr 0 min 35 sec) 
Heartbeat CPU  0 instructions:   14000001 cycles:   15669762 heartbeat IPC: 0.84366 cumulative IPC: 0.89344 (Simulation time: 0 hr 0 min 38 sec) 
Heartbeat CPU  0 instructions:   15000003 cycles:   16856921 heartbeat IPC: 0.84235 cumulative IPC: 0.88984 (Simulation time: 0 hr 0 min 40 sec) 
Heartbeat CPU  0 instructions:   16000000 cycles:   18039772 heartbeat IPC: 0.84541 cumulative IPC: 0.88693 (Simulation time: 0 hr 0 min 43 sec) 
Heartbeat CPU  0 instructions:   17000000 cycles:   19235099 heartbeat IPC: 0.83659 cumulative IPC: 0.88380 (Simulation time: 0 hr 0 min 46 sec) 
Heartbeat CPU  0 instructions:   18000000 cycles:   20451455 heartbeat IPC: 0.82213 cumulative IPC: 0.88013 (Simulation time: 0 hr 0 min 49 sec) 
Heartbeat CPU  0 instructions:   19000000 cycles:   21396846 heartbeat IPC: 1.05776 cumulative IPC: 0.88798 (Simulation time: 0 hr 0 min 52 sec) 
Heartbeat CPU  0 instructions:   20000000 cycles:   22518967 heartbeat IPC: 0.89117 cumulative IPC: 0.88814 (Simulation time: 0 hr 0 min 55 sec) 
Heartbeat CPU  0 instructions:   21000000 cycles:   23732096 heartbeat IPC: 0.82431 cumulative IPC: 0.88488 (Simulation time: 0 hr 0 min 57 sec) 
Heartbeat CPU  0 instructions:   22000001 cycles:   24871800 heartbeat IPC: 0.87742 cumulative IPC: 0.88454 (Simulation time: 0 hr 1 min 0 sec) 
Heartbeat CPU  0 instructions:   23000001 cycles:   26032200 heartbeat IPC: 0.86177 cumulative IPC: 0.88352 (Simulation time: 0 hr 1 min 3 sec) 
Heartbeat CPU  0 instructions:   24000000 cycles:   27210701 heartbeat IPC: 0.84853 cumulative IPC: 0.88201 (Simulation time: 0 hr 1 min 6 sec) 
Heartbeat CPU  0 instructions:   25000002 cycles:   28387911 heartbeat IPC: 0.84947 cumulative IPC: 0.88066 (Simulation time: 0 hr 1 min 8 sec) 
Heartbeat CPU  0 instructions:   26000000 cycles:   29525140 heartbeat IPC: 0.87933 cumulative IPC: 0.88061 (Simulation time: 0 hr 1 min 11 sec) 
Heartbeat CPU  0 instructions:   27000000 cycles:   30726991 heartbeat IPC: 0.83205 cumulative IPC: 0.87871 (Simulation time: 0 hr 1 min 14 sec) 
Heartbeat CPU  0 instructions:   28000000 cycles:   31921931 heartbeat IPC: 0.83686 cumulative IPC: 0.87714 (Simulation time: 0 hr 1 min 17 sec) 
Heartbeat CPU  0 instructions:   29000000 cycles:   33082998 heartbeat IPC: 0.86128 cumulative IPC: 0.87658 (Simulation time: 0 hr 1 min 19 sec) 
Heartbeat CPU  0 instructions:   30000000 cycles:   34270346 heartbeat IPC: 0.84221 cumulative IPC: 0.87539 (Simulation time: 0 hr 1 min 22 sec) 
Heartbeat CPU  0 instructions:   31000002 cycles:   35420116 heartbeat IPC: 0.86974 cumulative IPC: 0.87521 (Simulation time: 0 hr 1 min 25 sec) 
Heartbeat CPU  0 instructions:   32000000 cycles:   36566403 heartbeat IPC: 0.87238 cumulative IPC: 0.87512 (Simulation time: 0 hr 1 min 28 sec) 
Heartbeat CPU  0 instructions:   33000000 cycles:   37731385 heartbeat IPC: 0.85838 cumulative IPC: 0.87460 (Simulation time: 0 hr 1 min 31 sec) 
Heartbeat CPU  0 instructions:   34000002 cycles:   38684486 heartbeat IPC: 1.04921 cumulative IPC: 0.87891 (Simulation time: 0 hr 1 min 33 sec) 
Heartbeat CPU  0 instructions:   35000003 cycles:   39751854 heartbeat IPC: 0.93688 cumulative IPC: 0.88046 (Simulation time: 0 hr 1 min 36 sec) 
Heartbeat CPU  0 instructions:   36000000 cycles:   40927901 heartbeat IPC: 0.85030 cumulative IPC: 0.87960 (Simulation time: 0 hr 1 min 39 sec) 
Heartbeat CPU  0 instructions:   37000002 cycles:   42132033 heartbeat IPC: 0.83048 cumulative IPC: 0.87819 (Simulation time: 0 hr 1 min 42 sec) 
Heartbeat CPU  0 instructions:   38000003 cycles:   43301089 heartbeat IPC: 0.85539 cumulative IPC: 0.87758 (Simulation time: 0 hr 1 min 44 sec) 
Heartbeat CPU  0 instructions:   39000001 cycles:   44429730 heartbeat IPC: 0.88602 cumulative IPC: 0.87779 (Simulation time: 0 hr 1 min 47 sec) 
Heartbeat CPU  0 instructions:   40000000 cycles:   45549112 heartbeat IPC: 0.89335 cumulative IPC: 0.87817 (Simulation time: 0 hr 1 min 50 sec) 
Heartbeat CPU  0 instructions:   41000000 cycles:   46712994 heartbeat IPC: 0.85919 cumulative IPC: 0.87770 (Simulation time: 0 hr 1 min 53 sec) 
Heartbeat CPU  0 instructions:   42000000 cycles:   47886314 heartbeat IPC: 0.85228 cumulative IPC: 0.87708 (Simulation time: 0 hr 1 min 55 sec) 
Heartbeat CPU  0 instructions:   43000000 cycles:   49031095 heartbeat IPC: 0.87353 cumulative IPC: 0.87699 (Simulation time: 0 hr 1 min 58 sec) 
Heartbeat CPU  0 instructions:   44000000 cycles:   50171520 heartbeat IPC: 0.87687 cumulative IPC: 0.87699 (Simulation time: 0 hr 2 min 1 sec) 
Heartbeat CPU  0 instructions:   45000003 cycles:   51320918 heartbeat IPC: 0.87002 cumulative IPC: 0.87684 (Simulation time: 0 hr 2 min 4 sec) 
Heartbeat CPU  0 instructions:   46000003 cycles:   52422955 heartbeat IPC: 0.90741 cumulative IPC: 0.87748 (Simulation time: 0 hr 2 min 7 sec) 
Heartbeat CPU  0 instructions:   47000000 cycles:   53490993 heartbeat IPC: 0.93629 cumulative IPC: 0.87865 (Simulation time: 0 hr 2 min 10 sec) 
Heartbeat CPU  0 instructions:   48000000 cycles:   54369005 heartbeat IPC: 1.13894 cumulative IPC: 0.88286 (Simulation time: 0 hr 2 min 13 sec) 
Heartbeat CPU  0 instructions:   49000002 cycles:   55526762 heartbeat IPC: 0.86374 cumulative IPC: 0.88246 (Simulation time: 0 hr 2 min 15 sec) 
Heartbeat CPU  0 instructions:   50000003 cycles:   56694703 heartbeat IPC: 0.85621 cumulative IPC: 0.88192 (Simulation time: 0 hr 2 min 18 sec) 
Heartbeat CPU  0 instructions:   51000001 cycles:   57842266 heartbeat IPC: 0.87141 cumulative IPC: 0.88171 (Simulation time: 0 hr 2 min 21 sec) 
Heartbeat CPU  0 instructions:   52000000 cycles:   58989718 heartbeat IPC: 0.87150 cumulative IPC: 0.88151 (Simulation time: 0 hr 2 min 24 sec) 
Heartbeat CPU  0 instructions:   53000001 cycles:   60165213 heartbeat IPC: 0.85071 cumulative IPC: 0.88091 (Simulation time: 0 hr 2 min 26 sec) 
Heartbeat CPU  0 instructions:   54000001 cycles:   61335204 heartbeat IPC: 0.85471 cumulative IPC: 0.88041 (Simulation time: 0 hr 2 min 29 sec) 
Heartbeat CPU  0 instructions:   55000002 cycles:   62492888 heartbeat IPC: 0.86379 cumulative IPC: 0.88010 (Simulation time: 0 hr 2 min 32 sec) 
Heartbeat CPU  0 instructions:   56000000 cycles:   63592891 heartbeat IPC: 0.90909 cumulative IPC: 0.88060 (Simulation time: 0 hr 2 min 35 sec) 
Heartbeat CPU  0 instructions:   57000002 cycles:   64731188 heartbeat IPC: 0.87851 cumulative IPC: 0.88056 (Simulation time: 0 hr 2 min 37 sec) 
Heartbeat CPU  0 instructions:   58000002 cycles:   65866977 heartbeat IPC: 0.88045 cumulative IPC: 0.88056 (Simulation time: 0 hr 2 min 40 sec) 
Heartbeat CPU  0 instructions:   59000001 cycles:   66993851 heartbeat IPC: 0.88741 cumulative IPC: 0.88068 (Simulation time: 0 hr 2 min 43 sec) 
Heartbeat CPU  0 instructions:   60000000 cycles:   68139383 heartbeat IPC: 0.87296 cumulative IPC: 0.88055 (Simulation time: 0 hr 2 min 46 sec) 
Heartbeat CPU  0 instructions:   61000002 cycles:   69169661 heartbeat IPC: 0.97061 cumulative IPC: 0.88189 (Simulation time: 0 hr 2 min 49 sec) 
Heartbeat CPU  0 instructions:   62000000 cycles:   70108379 heartbeat IPC: 1.06528 cumulative IPC: 0.88435 (Simulation time: 0 hr 2 min 51 sec) 
Heartbeat CPU  0 instructions:   63000001 cycles:   71247378 heartbeat IPC: 0.87796 cumulative IPC: 0.88424 (Simulation time: 0 hr 2 min 54 sec) 
Heartbeat CPU  0 instructions:   64000000 cycles:   72355284 heartbeat IPC: 0.90260 cumulative IPC: 0.88452 (Simulation time: 0 hr 2 min 57 sec) 
Heartbeat CPU  0 instructions:   65000002 cycles:   73455833 heartbeat IPC: 0.90864 cumulative IPC: 0.88489 (Simulation time: 0 hr 2 min 59 sec) 
Heartbeat CPU  0 instructions:   66000000 cycles:   74576790 heartbeat IPC: 0.89209 cumulative IPC: 0.88499 (Simulation time: 0 hr 3 min 2 sec) 
Heartbeat CPU  0 instructions:   67000002 cycles:   75647097 heartbeat IPC: 0.93431 cumulative IPC: 0.88569 (Simulation time: 0 hr 3 min 4 sec) 
Heartbeat CPU  0 instructions:   68000000 cycles:   76762546 heartbeat IPC: 0.89650 cumulative IPC: 0.88585 (Simulation time: 0 hr 3 min 7 sec) 
Heartbeat CPU  0 instructions:   69000002 cycles:   77720181 heartbeat IPC: 1.04424 cumulative IPC: 0.88780 (Simulation time: 0 hr 3 min 10 sec) 
Heartbeat CPU  0 instructions:   70000001 cycles:   78753085 heartbeat IPC: 0.96814 cumulative IPC: 0.88885 (Simulation time: 0 hr 3 min 12 sec) 
Heartbeat CPU  0 instructions:   71000002 cycles:   79873367 heartbeat IPC: 0.89263 cumulative IPC: 0.88891 (Simulation time: 0 hr 3 min 15 sec) 
Heartbeat CPU  0 instructions:   72000000 cycles:   80963513 heartbeat IPC: 0.91731 cumulative IPC: 0.88929 (Simulation time: 0 hr 3 min 18 sec) 
Heartbeat CPU  0 instructions:   73000001 cycles:   82132956 heartbeat IPC: 0.85511 cumulative IPC: 0.88880 (Simulation time: 0 hr 3 min 21 sec) 
Heartbeat CPU  0 instructions:   74000000 cycles:   83253530 heartbeat IPC: 0.89240 cumulative IPC: 0.88885 (Simulation time: 0 hr 3 min 24 sec) 
Heartbeat CPU  0 instructions:   75000000 cycles:   84388560 heartbeat IPC: 0.88103 cumulative IPC: 0.88875 (Simulation time: 0 hr 3 min 26 sec) 
Heartbeat CPU  0 instructions:   76000000 cycles:   85537239 heartbeat IPC: 0.87057 cumulative IPC: 0.88850 (Simulation time: 0 hr 3 min 29 sec) 
Heartbeat CPU  0 instructions:   77000000 cycles:   86665480 heartbeat IPC: 0.88634 cumulative IPC: 0.88847 (Simulation time: 0 hr 3 min 32 sec) 
Heartbeat CPU  0 instructions:   78000002 cycles:   87743492 heartbeat IPC: 0.92764 cumulative IPC: 0.88895 (Simulation time: 0 hr 3 min 35 sec) 
Heartbeat CPU  0 instructions:   79000002 cycles:   88663577 heartbeat IPC: 1.08686 cumulative IPC: 0.89101 (Simulation time: 0 hr 3 min 38 sec) 
Heartbeat CPU  0 instructions:   80000000 cycles:   89767580 heartbeat IPC: 0.90579 cumulative IPC: 0.89119 (Simulation time: 0 hr 3 min 40 sec) 
Heartbeat CPU  0 instructions:   81000003 cycles:   90812102 heartbeat IPC: 0.95738 cumulative IPC: 0.89195 (Simulation time: 0 hr 3 min 43 sec) 
Heartbeat CPU  0 instructions:   82000003 cycles:   91821027 heartbeat IPC: 0.99115 cumulative IPC: 0.89304 (Simulation time: 0 hr 3 min 45 sec) 
Heartbeat CPU  0 instructions:   83000003 cycles:   92816251 heartbeat IPC: 1.00480 cumulative IPC: 0.89424 (Simulation time: 0 hr 3 min 47 sec) 
Heartbeat CPU  0 instructions:   84000000 cycles:   93700665 heartbeat IPC: 1.13069 cumulative IPC: 0.89647 (Simulation time: 0 hr 3 min 50 sec) 
Heartbeat CPU  0 instructions:   85000000 cycles:   94685488 heartbeat IPC: 1.01541 cumulative IPC: 0.89771 (Simulation time: 0 hr 3 min 52 sec) 
Heartbeat CPU  0 instructions:   86000000 cycles:   95625739 heartbeat IPC: 1.06355 cumulative IPC: 0.89934 (Simulation time: 0 hr 3 min 55 sec) 
Heartbeat CPU  0 instructions:   87000002 cycles:   96550160 heartbeat IPC: 1.08176 cumulative IPC: 0.90109 (Simulation time: 0 hr 3 min 57 sec) 
Heartbeat CPU  0 instructions:   88000000 cycles:   97427994 heartbeat IPC: 1.13917 cumulative IPC: 0.90323 (Simulation time: 0 hr 4 min 0 sec) 
Heartbeat CPU  0 instructions:   89000001 cycles:   98343184 heartbeat IPC: 1.09267 cumulative IPC: 0.90499 (Simulation time: 0 hr 4 min 2 sec) 
Heartbeat CPU  0 instructions:   90000000 cycles:   99316666 heartbeat IPC: 1.02724 cumulative IPC: 0.90619 (Simulation time: 0 hr 4 min 4 sec) 
Heartbeat CPU  0 instructions:   91000002 cycles:  100340932 heartbeat IPC: 0.97631 cumulative IPC: 0.90691 (Simulation time: 0 hr 4 min 7 sec) 
Heartbeat CPU  0 instructions:   92000000 cycles:  101322559 heartbeat IPC: 1.01871 cumulative IPC: 0.90799 (Simulation time: 0 hr 4 min 9 sec) 
Heartbeat CPU  0 instructions:   93000001 cycles:  102215311 heartbeat IPC: 1.12013 cumulative IPC: 0.90984 (Simulation time: 0 hr 4 min 12 sec) 
Heartbeat CPU  0 instructions:   94000003 cycles:  103250105 heartbeat IPC: 0.96638 cumulative IPC: 0.91041 (Simulation time: 0 hr 4 min 15 sec) 
Heartbeat CPU  0 instructions:   95000002 cycles:  104290457 heartbeat IPC: 0.96121 cumulative IPC: 0.91092 (Simulation time: 0 hr 4 min 17 sec) 
Heartbeat CPU  0 instructions:   96000000 cycles:  105267719 heartbeat IPC: 1.02327 cumulative IPC: 0.91196 (Simulation time: 0 hr 4 min 19 sec) 
Heartbeat CPU  0 instructions:   97000001 cycles:  106206505 heartbeat IPC: 1.06521 cumulative IPC: 0.91332 (Simulation time: 0 hr 4 min 22 sec) 
Heartbeat CPU  0 instructions:   98000001 cycles:  107078024 heartbeat IPC: 1.14742 cumulative IPC: 0.91522 (Simulation time: 0 hr 4 min 25 sec) 
Heartbeat CPU  0 instructions:   99000001 cycles:  107999081 heartbeat IPC: 1.08571 cumulative IPC: 0.91667 (Simulation time: 0 hr 4 min 27 sec) 
Heartbeat CPU  0 instructions:  100000000 cycles:  108916658 heartbeat IPC: 1.08983 cumulative IPC: 0.91813 (Simulation time: 0 hr 4 min 29 sec) 

Warmup complete CPU  0 instructions:  100000002 cycles:  108916659 (Simulation time: 0 hr 4 min 29 sec) 

Heartbeat CPU  0 instructions:  101000002 cycles:  137190149 heartbeat IPC: 0.03537 cumulative IPC: 0.03537 (Simulation time: 0 hr 4 min 42 sec) 
Heartbeat CPU  0 instructions:  102000000 cycles:  173472112 heartbeat IPC: 0.02756 cumulative IPC: 0.03098 (Simulation time: 0 hr 4 min 59 sec) 
Heartbeat CPU  0 instructions:  103000001 cycles:  188481222 heartbeat IPC: 0.06663 cumulative IPC: 0.03771 (Simulation time: 0 hr 5 min 6 sec) 
Heartbeat CPU  0 instructions:  104000000 cycles:  204839464 heartbeat IPC: 0.06113 cumulative IPC: 0.04170 (Simulation time: 0 hr 5 min 14 sec) 
Heartbeat CPU  0 instructions:  105000003 cycles:  252715101 heartbeat IPC: 0.02089 cumulative IPC: 0.03477 (Simulation time: 0 hr 5 min 36 sec) 
Heartbeat CPU  0 instructions:  106000000 cycles:  268241668 heartbeat IPC: 0.06441 cumulative IPC: 0.03766 (Simulation time: 0 hr 5 min 43 sec) 
Heartbeat CPU  0 instructions:  107000000 cycles:  284448108 heartbeat IPC: 0.06170 cumulative IPC: 0.03988 (Simulation time: 0 hr 5 min 51 sec) 
Heartbeat CPU  0 instructions:  108000000 cycles:  320047117 heartbeat IPC: 0.02809 cumulative IPC: 0.03789 (Simulation time: 0 hr 6 min 7 sec) 
Heartbeat CPU  0 instructions:  109000002 cycles:  348280709 heartbeat IPC: 0.03542 cumulative IPC: 0.03760 (Simulation time: 0 hr 6 min 20 sec) 
Heartbeat CPU  0 instructions:  110000001 cycles:  363253303 heartbeat IPC: 0.06679 cumulative IPC: 0.03932 (Simulation time: 0 hr 6 min 27 sec) 
Heartbeat CPU  0 instructions:  111000001 cycles:  381690800 heartbeat IPC: 0.05424 cumulative IPC: 0.04033 (Simulation time: 0 hr 6 min 36 sec) 
Heartbeat CPU  0 instructions:  112000000 cycles:  427167287 heartbeat IPC: 0.02199 cumulative IPC: 0.03771 (Simulation time: 0 hr 6 min 57 sec) 
Heartbeat CPU  0 instructions:  113000001 cycles:  442113614 heartbeat IPC: 0.06691 cumulative IPC: 0.03902 (Simulation time: 0 hr 7 min 4 sec) 
Heartbeat CPU  0 instructions:  114000002 cycles:  457498235 heartbeat IPC: 0.06500 cumulative IPC: 0.04016 (Simulation time: 0 hr 7 min 12 sec) 
Heartbeat CPU  0 instructions:  115000000 cycles:  495212031 heartbeat IPC: 0.02652 cumulative IPC: 0.03883 (Simulation time: 0 hr 7 min 29 sec) 
Heartbeat CPU  0 instructions:  116000000 cycles:  520703269 heartbeat IPC: 0.03923 cumulative IPC: 0.03886 (Simulation time: 0 hr 7 min 41 sec) 
Heartbeat CPU  0 instructions:  117000000 cycles:  535745461 heartbeat IPC: 0.06648 cumulative IPC: 0.03983 (Simulation time: 0 hr 7 min 48 sec) 
Heartbeat CPU  0 instructions:  118000001 cycles:  552748334 heartbeat IPC: 0.05881 cumulative IPC: 0.04056 (Simulation time: 0 hr 7 min 56 sec) 
Heartbeat CPU  0 instructions:  119000000 cycles:  599906966 heartbeat IPC: 0.02121 cumulative IPC: 0.03870 (Simulation time: 0 hr 8 min 18 sec) 
Heartbeat CPU  0 instructions:  120000000 cycles:  614140083 heartbeat IPC: 0.07026 cumulative IPC: 0.03959 (Simulation time: 0 hr 8 min 24 sec) 
Heartbeat CPU  0 instructions:  121000000 cycles:  628637745 heartbeat IPC: 0.06898 cumulative IPC: 0.04041 (Simulation time: 0 hr 8 min 31 sec) 
Heartbeat CPU  0 instructions:  122000001 cycles:  653433096 heartbeat IPC: 0.04033 cumulative IPC: 0.04040 (Simulation time: 0 hr 8 min 43 sec) 
Heartbeat CPU  0 instructions:  123000000 cycles:  690001958 heartbeat IPC: 0.02735 cumulative IPC: 0.03958 (Simulation time: 0 hr 9 min 0 sec) 
Heartbeat CPU  0 instructions:  124000000 cycles:  702357325 heartbeat IPC: 0.08094 cumulative IPC: 0.04044 (Simulation time: 0 hr 9 min 6 sec) 
Heartbeat CPU  0 instructions:  125000000 cycles:  715396691 heartbeat IPC: 0.07669 cumulative IPC: 0.04122 (Simulation time: 0 hr 9 min 12 sec) 
Heartbeat CPU  0 instructions:  126000003 cycles:  742562311 heartbeat IPC: 0.03681 cumulative IPC: 0.04103 (Simulation time: 0 hr 9 min 24 sec) 
Heartbeat CPU  0 instructions:  127000000 cycles:  776531186 heartbeat IPC: 0.02944 cumulative IPC: 0.04044 (Simulation time: 0 hr 9 min 40 sec) 
Heartbeat CPU  0 instructions:  128000000 cycles:  788803245 heartbeat IPC: 0.08149 cumulative IPC: 0.04118 (Simulation time: 0 hr 9 min 46 sec) 
Heartbeat CPU  0 instructions:  129000002 cycles:  802099447 heartbeat IPC: 0.07521 cumulative IPC: 0.04184 (Simulation time: 0 hr 9 min 52 sec) 
Heartbeat CPU  0 instructions:  130000003 cycles:  834682192 heartbeat IPC: 0.03069 cumulative IPC: 0.04134 (Simulation time: 0 hr 10 min 7 sec) 
Heartbeat CPU  0 instructions:  131000001 cycles:  863044304 heartbeat IPC: 0.03526 cumulative IPC: 0.04111 (Simulation time: 0 hr 10 min 20 sec) 
Heartbeat CPU  0 instructions:  132000000 cycles:  875730985 heartbeat IPC: 0.07882 cumulative IPC: 0.04173 (Simulation time: 0 hr 10 min 26 sec) 
Heartbeat CPU  0 instructions:  133000000 cycles:  889469466 heartbeat IPC: 0.07279 cumulative IPC: 0.04228 (Simulation time: 0 hr 10 min 33 sec) 
Heartbeat CPU  0 instructions:  134000002 cycles:  923837932 heartbeat IPC: 0.02910 cumulative IPC: 0.04172 (Simulation time: 0 hr 10 min 49 sec) 
Heartbeat CPU  0 instructions:  135000000 cycles:  950373308 heartbeat IPC: 0.03769 cumulative IPC: 0.04159 (Simulation time: 0 hr 11 min 2 sec) 
Heartbeat CPU  0 instructions:  136000000 cycles:  963576571 heartbeat IPC: 0.07574 cumulative IPC: 0.04212 (Simulation time: 0 hr 11 min 8 sec) 
Heartbeat CPU  0 instructions:  137000002 cycles:  977946006 heartbeat IPC: 0.06959 cumulative IPC: 0.04258 (Simulation time: 0 hr 11 min 14 sec) 
Heartbeat CPU  0 instructions:  138000002 cycles: 1010842553 heartbeat IPC: 0.03040 cumulative IPC: 0.04213 (Simulation time: 0 hr 11 min 30 sec) 
Heartbeat CPU  0 instructions:  139000001 cycles: 1040734277 heartbeat IPC: 0.03345 cumulative IPC: 0.04185 (Simulation time: 0 hr 11 min 43 sec) 
Heartbeat CPU  0 instructions:  140000000 cycles: 1056806037 heartbeat IPC: 0.06222 cumulative IPC: 0.04220 (Simulation time: 0 hr 11 min 50 sec) 
Heartbeat CPU  0 instructions:  141000002 cycles: 1072622592 heartbeat IPC: 0.06323 cumulative IPC: 0.04254 (Simulation time: 0 hr 11 min 57 sec) 
Heartbeat CPU  0 instructions:  142000003 cycles: 1105252876 heartbeat IPC: 0.03065 cumulative IPC: 0.04215 (Simulation time: 0 hr 12 min 12 sec) 
Heartbeat CPU  0 instructions:  143000000 cycles: 1136335073 heartbeat IPC: 0.03217 cumulative IPC: 0.04185 (Simulation time: 0 hr 12 min 27 sec) 
Heartbeat CPU  0 instructions:  144000000 cycles: 1152980130 heartbeat IPC: 0.06008 cumulative IPC: 0.04214 (Simulation time: 0 hr 12 min 34 sec) 
Heartbeat CPU  0 instructions:  145000002 cycles: 1173117352 heartbeat IPC: 0.04966 cumulative IPC: 0.04229 (Simulation time: 0 hr 12 min 43 sec) 
Heartbeat CPU  0 instructions:  146000000 cycles: 1209456509 heartbeat IPC: 0.02752 cumulative IPC: 0.04180 (Simulation time: 0 hr 12 min 59 sec) 
Heartbeat CPU  0 instructions:  147000001 cycles: 1241553778 heartbeat IPC: 0.03116 cumulative IPC: 0.04150 (Simulation time: 0 hr 13 min 14 sec) 
Heartbeat CPU  0 instructions:  148000000 cycles: 1259151689 heartbeat IPC: 0.05682 cumulative IPC: 0.04173 (Simulation time: 0 hr 13 min 22 sec) 
Heartbeat CPU  0 instructions:  149000000 cycles: 1275154540 heartbeat IPC: 0.06249 cumulative IPC: 0.04202 (Simulation time: 0 hr 13 min 29 sec) 
Heartbeat CPU  0 instructions:  150000001 cycles: 1312103238 heartbeat IPC: 0.02706 cumulative IPC: 0.04156 (Simulation time: 0 hr 13 min 46 sec) 
Heartbeat CPU  0 instructions:  151000000 cycles: 1339855700 heartbeat IPC: 0.03603 cumulative IPC: 0.04143 (Simulation time: 0 hr 13 min 59 sec) 
Heartbeat CPU  0 instructions:  152000000 cycles: 1356278125 heartbeat IPC: 0.06089 cumulative IPC: 0.04169 (Simulation time: 0 hr 14 min 7 sec) 
Heartbeat CPU  0 instructions:  153000000 cycles: 1373473820 heartbeat IPC: 0.05815 cumulative IPC: 0.04191 (Simulation time: 0 hr 14 min 15 sec) 
Heartbeat CPU  0 instructions:  154000000 cycles: 1416176523 heartbeat IPC: 0.02342 cumulative IPC: 0.04131 (Simulation time: 0 hr 14 min 34 sec) 
Heartbeat CPU  0 instructions:  155000000 cycles: 1437835767 heartbeat IPC: 0.04617 cumulative IPC: 0.04139 (Simulation time: 0 hr 14 min 45 sec) 
Heartbeat CPU  0 instructions:  156000000 cycles: 1454785700 heartbeat IPC: 0.05900 cumulative IPC: 0.04161 (Simulation time: 0 hr 14 min 52 sec) 
Heartbeat CPU  0 instructions:  157000002 cycles: 1474227649 heartbeat IPC: 0.05144 cumulative IPC: 0.04175 (Simulation time: 0 hr 15 min 1 sec) 
Heartbeat CPU  0 instructions:  158000002 cycles: 1521136108 heartbeat IPC: 0.02132 cumulative IPC: 0.04107 (Simulation time: 0 hr 15 min 23 sec) 
Heartbeat CPU  0 instructions:  159000000 cycles: 1538533239 heartbeat IPC: 0.05748 cumulative IPC: 0.04127 (Simulation time: 0 hr 15 min 31 sec) 
Heartbeat CPU  0 instructions:  160000000 cycles: 1556151993 heartbeat IPC: 0.05676 cumulative IPC: 0.04146 (Simulation time: 0 hr 15 min 38 sec) 
Heartbeat CPU  0 instructions:  161000001 cycles: 1578405728 heartbeat IPC: 0.04494 cumulative IPC: 0.04151 (Simulation time: 0 hr 15 min 49 sec) 
Heartbeat CPU  0 instructions:  162000000 cycles: 1621275959 heartbeat IPC: 0.02333 cumulative IPC: 0.04100 (Simulation time: 0 hr 16 min 9 sec) 
Heartbeat CPU  0 instructions:  163000000 cycles: 1638937759 heartbeat IPC: 0.05662 cumulative IPC: 0.04118 (Simulation time: 0 hr 16 min 17 sec) 
Heartbeat CPU  0 instructions:  164000000 cycles: 1658329249 heartbeat IPC: 0.05157 cumulative IPC: 0.04131 (Simulation time: 0 hr 16 min 25 sec) 
Heartbeat CPU  0 instructions:  165000003 cycles: 1689237414 heartbeat IPC: 0.03235 cumulative IPC: 0.04113 (Simulation time: 0 hr 16 min 39 sec) 
Heartbeat CPU  0 instructions:  166000000 cycles: 1726713204 heartbeat IPC: 0.02668 cumulative IPC: 0.04080 (Simulation time: 0 hr 16 min 56 sec) 
Heartbeat CPU  0 instructions:  167000000 cycles: 1746641951 heartbeat IPC: 0.05018 cumulative IPC: 0.04091 (Simulation time: 0 hr 17 min 5 sec) 
Heartbeat CPU  0 instructions:  168000000 cycles: 1767670407 heartbeat IPC: 0.04755 cumulative IPC: 0.04099 (Simulation time: 0 hr 17 min 14 sec) 
Heartbeat CPU  0 instructions:  169000000 cycles: 1788868411 heartbeat IPC: 0.04717 cumulative IPC: 0.04107 (Simulation time: 0 hr 17 min 23 sec) 
Heartbeat CPU  0 instructions:  170000003 cycles: 1835886664 heartbeat IPC: 0.02127 cumulative IPC: 0.04053 (Simulation time: 0 hr 17 min 45 sec) 
Heartbeat CPU  0 instructions:  171000000 cycles: 1856079867 heartbeat IPC: 0.04952 cumulative IPC: 0.04064 (Simulation time: 0 hr 17 min 54 sec) 
Heartbeat CPU  0 instructions:  172000000 cycles: 1877667498 heartbeat IPC: 0.04632 cumulative IPC: 0.04071 (Simulation time: 0 hr 18 min 3 sec) 
Heartbeat CPU  0 instructions:  173000000 cycles: 1899000951 heartbeat IPC: 0.04687 cumulative IPC: 0.04078 (Simulation time: 0 hr 18 min 12 sec) 
Heartbeat CPU  0 instructions:  174000000 cycles: 1944587398 heartbeat IPC: 0.02194 cumulative IPC: 0.04031 (Simulation time: 0 hr 18 min 33 sec) 
Heartbeat CPU  0 instructions:  175000003 cycles: 1968360337 heartbeat IPC: 0.04206 cumulative IPC: 0.04033 (Simulation time: 0 hr 18 min 43 sec) 
Heartbeat CPU  0 instructions:  176000000 cycles: 1988960421 heartbeat IPC: 0.04854 cumulative IPC: 0.04042 (Simulation time: 0 hr 18 min 52 sec) 
Heartbeat CPU  0 instructions:  177000003 cycles: 2012199710 heartbeat IPC: 0.04303 cumulative IPC: 0.04046 (Simulation time: 0 hr 19 min 2 sec) 
Heartbeat CPU  0 instructions:  178000003 cycles: 2052143693 heartbeat IPC: 0.02504 cumulative IPC: 0.04014 (Simulation time: 0 hr 19 min 20 sec) 
Heartbeat CPU  0 instructions:  179000003 cycles: 2082827048 heartbeat IPC: 0.03259 cumulative IPC: 0.04002 (Simulation time: 0 hr 19 min 34 sec) 
Heartbeat CPU  0 instructions:  180000000 cycles: 2103156932 heartbeat IPC: 0.04919 cumulative IPC: 0.04012 (Simulation time: 0 hr 19 min 42 sec) 
Heartbeat CPU  0 instructions:  181000002 cycles: 2126255482 heartbeat IPC: 0.04329 cumulative IPC: 0.04015 (Simulation time: 0 hr 19 min 52 sec) 
Heartbeat CPU  0 instructions:  182000001 cycles: 2151710384 heartbeat IPC: 0.03929 cumulative IPC: 0.04014 (Simulation time: 0 hr 20 min 3 sec) 
Heartbeat CPU  0 instructions:  183000003 cycles: 2199470523 heartbeat IPC: 0.02094 cumulative IPC: 0.03970 (Simulation time: 0 hr 20 min 25 sec) 
Heartbeat CPU  0 instructions:  184000000 cycles: 2223478662 heartbeat IPC: 0.04165 cumulative IPC: 0.03972 (Simulation time: 0 hr 20 min 35 sec) 
Heartbeat CPU  0 instructions:  185000002 cycles: 2248624582 heartbeat IPC: 0.03977 cumulative IPC: 0.03973 (Simulation time: 0 hr 20 min 45 sec) 
Heartbeat CPU  0 instructions:  186000001 cycles: 2274023860 heartbeat IPC: 0.03937 cumulative IPC: 0.03972 (Simulation time: 0 hr 20 min 56 sec) 
Heartbeat CPU  0 instructions:  187000000 cycles: 2296058385 heartbeat IPC: 0.04538 cumulative IPC: 0.03978 (Simulation time: 0 hr 21 min 5 sec) 
Heartbeat CPU  0 instructions:  188000000 cycles: 2340620682 heartbeat IPC: 0.02244 cumulative IPC: 0.03943 (Simulation time: 0 hr 21 min 26 sec) 
Heartbeat CPU  0 instructions:  189000001 cycles: 2364314879 heartbeat IPC: 0.04220 cumulative IPC: 0.03946 (Simulation time: 0 hr 21 min 36 sec) 
Heartbeat CPU  0 instructions:  190000000 cycles: 2385944573 heartbeat IPC: 0.04623 cumulative IPC: 0.03953 (Simulation time: 0 hr 21 min 46 sec) 
Heartbeat CPU  0 instructions:  191000001 cycles: 2410956803 heartbeat IPC: 0.03998 cumulative IPC: 0.03953 (Simulation time: 0 hr 21 min 56 sec) 
Heartbeat CPU  0 instructions:  192000000 cycles: 2432832322 heartbeat IPC: 0.04571 cumulative IPC: 0.03959 (Simulation time: 0 hr 22 min 6 sec) 
Heartbeat CPU  0 instructions:  193000000 cycles: 2481211873 heartbeat IPC: 0.02067 cumulative IPC: 0.03920 (Simulation time: 0 hr 22 min 28 sec) 
Heartbeat CPU  0 instructions:  194000000 cycles: 2505172356 heartbeat IPC: 0.04174 cumulative IPC: 0.03923 (Simulation time: 0 hr 22 min 38 sec) 
Heartbeat CPU  0 instructions:  195000000 cycles: 2531200638 heartbeat IPC: 0.03842 cumulative IPC: 0.03922 (Simulation time: 0 hr 22 min 49 sec) 
Heartbeat CPU  0 instructions:  196000000 cycles: 2556594103 heartbeat IPC: 0.03938 cumulative IPC: 0.03922 (Simulation time: 0 hr 22 min 59 sec) 
Heartbeat CPU  0 instructions:  197000001 cycles: 2581142423 heartbeat IPC: 0.04074 cumulative IPC: 0.03924 (Simulation time: 0 hr 23 min 10 sec) 
Heartbeat CPU  0 instructions:  198000003 cycles: 2619643648 heartbeat IPC: 0.02597 cumulative IPC: 0.03903 (Simulation time: 0 hr 23 min 27 sec) 
Heartbeat CPU  0 instructions:  199000001 cycles: 2654861654 heartbeat IPC: 0.02839 cumulative IPC: 0.03889 (Simulation time: 0 hr 23 min 43 sec) 
Heartbeat CPU  0 instructions:  200000000 cycles: 2678216970 heartbeat IPC: 0.04282 cumulative IPC: 0.03892 (Simulation time: 0 hr 23 min 53 sec) 
Heartbeat CPU  0 instructions:  201000002 cycles: 2701136528 heartbeat IPC: 0.04363 cumulative IPC: 0.03896 (Simulation time: 0 hr 24 min 2 sec) 
Heartbeat CPU  0 instructions:  202000000 cycles: 2721323089 heartbeat IPC: 0.04954 cumulative IPC: 0.03904 (Simulation time: 0 hr 24 min 11 sec) 
Heartbeat CPU  0 instructions:  203000000 cycles: 2769716136 heartbeat IPC: 0.02066 cumulative IPC: 0.03871 (Simulation time: 0 hr 24 min 34 sec) 
Heartbeat CPU  0 instructions:  204000000 cycles: 2788382902 heartbeat IPC: 0.05357 cumulative IPC: 0.03881 (Simulation time: 0 hr 24 min 42 sec) 
Heartbeat CPU  0 instructions:  205000000 cycles: 2805238419 heartbeat IPC: 0.05933 cumulative IPC: 0.03894 (Simulation time: 0 hr 24 min 49 sec) 
Heartbeat CPU  0 instructions:  206000000 cycles: 2821901923 heartbeat IPC: 0.06001 cumulative IPC: 0.03907 (Simulation time: 0 hr 24 min 57 sec) 
Heartbeat CPU  0 instructions:  207000002 cycles: 2857098977 heartbeat IPC: 0.02841 cumulative IPC: 0.03893 (Simulation time: 0 hr 25 min 13 sec) 
Heartbeat CPU  0 instructions:  208000000 cycles: 2891010559 heartbeat IPC: 0.02949 cumulative IPC: 0.03882 (Simulation time: 0 hr 25 min 29 sec) 
Heartbeat CPU  0 instructions:  209000001 cycles: 2913644632 heartbeat IPC: 0.04418 cumulative IPC: 0.03886 (Simulation time: 0 hr 25 min 39 sec) 
Heartbeat CPU  0 instructions:  210000000 cycles: 2937650983 heartbeat IPC: 0.04166 cumulative IPC: 0.03889 (Simulation time: 0 hr 25 min 49 sec) 
Heartbeat CPU  0 instructions:  211000001 cycles: 2962295338 heartbeat IPC: 0.04058 cumulative IPC: 0.03890 (Simulation time: 0 hr 26 min 0 sec) 
Heartbeat CPU  0 instructions:  212000000 cycles: 2988984942 heartbeat IPC: 0.03747 cumulative IPC: 0.03889 (Simulation time: 0 hr 26 min 12 sec) 
Heartbeat CPU  0 instructions:  213000001 cycles: 3033560491 heartbeat IPC: 0.02243 cumulative IPC: 0.03864 (Simulation time: 0 hr 26 min 32 sec) 
Heartbeat CPU  0 instructions:  214000001 cycles: 3053733164 heartbeat IPC: 0.04957 cumulative IPC: 0.03871 (Simulation time: 0 hr 26 min 41 sec) 
Heartbeat CPU  0 instructions:  215000000 cycles: 3076109567 heartbeat IPC: 0.04469 cumulative IPC: 0.03876 (Simulation time: 0 hr 26 min 51 sec) 
Heartbeat CPU  0 instructions:  216000000 cycles: 3101518817 heartbeat IPC: 0.03936 cumulative IPC: 0.03876 (Simulation time: 0 hr 27 min 1 sec) 
Heartbeat CPU  0 instructions:  217000001 cycles: 3131660290 heartbeat IPC: 0.03318 cumulative IPC: 0.03871 (Simulation time: 0 hr 27 min 15 sec) 
Heartbeat CPU  0 instructions:  218000000 cycles: 3170069759 heartbeat IPC: 0.02604 cumulative IPC: 0.03855 (Simulation time: 0 hr 27 min 32 sec) 
Heartbeat CPU  0 instructions:  219000001 cycles: 3189222391 heartbeat IPC: 0.05221 cumulative IPC: 0.03863 (Simulation time: 0 hr 27 min 41 sec) 
Heartbeat CPU  0 instructions:  220000000 cycles: 3210771663 heartbeat IPC: 0.04641 cumulative IPC: 0.03869 (Simulation time: 0 hr 27 min 50 sec) 
Heartbeat CPU  0 instructions:  221000002 cycles: 3235087275 heartbeat IPC: 0.04113 cumulative IPC: 0.03871 (Simulation time: 0 hr 28 min 0 sec) 
Heartbeat CPU  0 instructions:  222000003 cycles: 3271116368 heartbeat IPC: 0.02776 cumulative IPC: 0.03858 (Simulation time: 0 hr 28 min 16 sec) 
Heartbeat CPU  0 instructions:  223000001 cycles: 3306845654 heartbeat IPC: 0.02799 cumulative IPC: 0.03846 (Simulation time: 0 hr 28 min 33 sec) 
Heartbeat CPU  0 instructions:  224000000 cycles: 3329693703 heartbeat IPC: 0.04377 cumulative IPC: 0.03850 (Simulation time: 0 hr 28 min 43 sec) 
Heartbeat CPU  0 instructions:  225000001 cycles: 3356159352 heartbeat IPC: 0.03778 cumulative IPC: 0.03849 (Simulation time: 0 hr 28 min 54 sec) 
Heartbeat CPU  0 instructions:  226000003 cycles: 3379470556 heartbeat IPC: 0.04290 cumulative IPC: 0.03853 (Simulation time: 0 hr 29 min 4 sec) 
Heartbeat CPU  0 instructions:  227000001 cycles: 3407821407 heartbeat IPC: 0.03527 cumulative IPC: 0.03850 (Simulation time: 0 hr 29 min 17 sec) 
Heartbeat CPU  0 instructions:  228000000 cycles: 3448877386 heartbeat IPC: 0.02436 cumulative IPC: 0.03832 (Simulation time: 0 hr 29 min 36 sec) 
Heartbeat CPU  0 instructions:  229000001 cycles: 3470448441 heartbeat IPC: 0.04636 cumulative IPC: 0.03838 (Simulation time: 0 hr 29 min 45 sec) 
Heartbeat CPU  0 instructions:  230000000 cycles: 3494529830 heartbeat IPC: 0.04153 cumulative IPC: 0.03840 (Simulation time: 0 hr 29 min 55 sec) 
Heartbeat CPU  0 instructions:  231000001 cycles: 3519859162 heartbeat IPC: 0.03948 cumulative IPC: 0.03841 (Simulation time: 0 hr 30 min 5 sec) 
Heartbeat CPU  0 instructions:  232000000 cycles: 3548022903 heartbeat IPC: 0.03551 cumulative IPC: 0.03838 (Simulation time: 0 hr 30 min 17 sec) 
Heartbeat CPU  0 instructions:  233000002 cycles: 3596779151 heartbeat IPC: 0.02051 cumulative IPC: 0.03813 (Simulation time: 0 hr 30 min 40 sec) 
Heartbeat CPU  0 instructions:  234000001 cycles: 3621504569 heartbeat IPC: 0.04044 cumulative IPC: 0.03815 (Simulation time: 0 hr 30 min 50 sec) 
Heartbeat CPU  0 instructions:  235000000 cycles: 3644327332 heartbeat IPC: 0.04382 cumulative IPC: 0.03819 (Simulation time: 0 hr 30 min 59 sec) 
Heartbeat CPU  0 instructions:  236000000 cycles: 3670649764 heartbeat IPC: 0.03799 cumulative IPC: 0.03818 (Simulation time: 0 hr 31 min 10 sec) 
Heartbeat CPU  0 instructions:  237000003 cycles: 3698801891 heartbeat IPC: 0.03552 cumulative IPC: 0.03816 (Simulation time: 0 hr 31 min 22 sec) 
Heartbeat CPU  0 instructions:  238000003 cycles: 3730294757 heartbeat IPC: 0.03175 cumulative IPC: 0.03811 (Simulation time: 0 hr 31 min 36 sec) 
Heartbeat CPU  0 instructions:  239000002 cycles: 3769881739 heartbeat IPC: 0.02526 cumulative IPC: 0.03797 (Simulation time: 0 hr 31 min 54 sec) 
Heartbeat CPU  0 instructions:  240000000 cycles: 3792131002 heartbeat IPC: 0.04495 cumulative IPC: 0.03801 (Simulation time: 0 hr 32 min 4 sec) 
Heartbeat CPU  0 instructions:  241000000 cycles: 3816213819 heartbeat IPC: 0.04152 cumulative IPC: 0.03803 (Simulation time: 0 hr 32 min 14 sec) 
Heartbeat CPU  0 instructions:  242000000 cycles: 3840514904 heartbeat IPC: 0.04115 cumulative IPC: 0.03805 (Simulation time: 0 hr 32 min 24 sec) 
Heartbeat CPU  0 instructions:  243000001 cycles: 3865102494 heartbeat IPC: 0.04067 cumulative IPC: 0.03807 (Simulation time: 0 hr 32 min 34 sec) 
Heartbeat CPU  0 instructions:  244000000 cycles: 3913771285 heartbeat IPC: 0.02055 cumulative IPC: 0.03785 (Simulation time: 0 hr 32 min 57 sec) 
Heartbeat CPU  0 instructions:  245000000 cycles: 3934473601 heartbeat IPC: 0.04830 cumulative IPC: 0.03790 (Simulation time: 0 hr 33 min 6 sec) 
Heartbeat CPU  0 instructions:  246000001 cycles: 3959941647 heartbeat IPC: 0.03926 cumulative IPC: 0.03791 (Simulation time: 0 hr 33 min 16 sec) 
Heartbeat CPU  0 instructions:  247000000 cycles: 3983010614 heartbeat IPC: 0.04335 cumulative IPC: 0.03794 (Simulation time: 0 hr 33 min 26 sec) 
Heartbeat CPU  0 instructions:  248000000 cycles: 4006953286 heartbeat IPC: 0.04177 cumulative IPC: 0.03797 (Simulation time: 0 hr 33 min 36 sec) 
Heartbeat CPU  0 instructions:  249000002 cycles: 4054983869 heartbeat IPC: 0.02082 cumulative IPC: 0.03776 (Simulation time: 0 hr 33 min 59 sec) 
Heartbeat CPU  0 instructions:  250000000 cycles: 4078031857 heartbeat IPC: 0.04339 cumulative IPC: 0.03779 (Simulation time: 0 hr 34 min 8 sec) 
Heartbeat CPU  0 instructions:  251000000 cycles: 4101471875 heartbeat IPC: 0.04266 cumulative IPC: 0.03782 (Simulation time: 0 hr 34 min 18 sec) 
Heartbeat CPU  0 instructions:  252000000 cycles: 4123408196 heartbeat IPC: 0.04559 cumulative IPC: 0.03786 (Simulation time: 0 hr 34 min 28 sec) 
Heartbeat CPU  0 instructions:  253000003 cycles: 4146166829 heartbeat IPC: 0.04394 cumulative IPC: 0.03790 (Simulation time: 0 hr 34 min 38 sec) 
Heartbeat CPU  0 instructions:  254000002 cycles: 4193236388 heartbeat IPC: 0.02125 cumulative IPC: 0.03771 (Simulation time: 0 hr 34 min 59 sec) 
Heartbeat CPU  0 instructions:  255000001 cycles: 4215570309 heartbeat IPC: 0.04477 cumulative IPC: 0.03774 (Simulation time: 0 hr 35 min 9 sec) 
Heartbeat CPU  0 instructions:  256000000 cycles: 4236388045 heartbeat IPC: 0.04804 cumulative IPC: 0.03780 (Simulation time: 0 hr 35 min 19 sec) 
Heartbeat CPU  0 instructions:  257000000 cycles: 4253691779 heartbeat IPC: 0.05779 cumulative IPC: 0.03788 (Simulation time: 0 hr 35 min 27 sec) 
Heartbeat CPU  0 instructions:  258000003 cycles: 4282381161 heartbeat IPC: 0.03486 cumulative IPC: 0.03786 (Simulation time: 0 hr 35 min 40 sec) 
Heartbeat CPU  0 instructions:  259000001 cycles: 4320030175 heartbeat IPC: 0.02656 cumulative IPC: 0.03776 (Simulation time: 0 hr 35 min 58 sec) 
Heartbeat CPU  0 instructions:  260000000 cycles: 4340195560 heartbeat IPC: 0.04959 cumulative IPC: 0.03781 (Simulation time: 0 hr 36 min 6 sec) 
Heartbeat CPU  0 instructions:  261000001 cycles: 4361901448 heartbeat IPC: 0.04607 cumulative IPC: 0.03786 (Simulation time: 0 hr 36 min 16 sec) 
Heartbeat CPU  0 instructions:  262000000 cycles: 4388298412 heartbeat IPC: 0.03788 cumulative IPC: 0.03786 (Simulation time: 0 hr 36 min 28 sec) 
Heartbeat CPU  0 instructions:  263000002 cycles: 4417351973 heartbeat IPC: 0.03442 cumulative IPC: 0.03783 (Simulation time: 0 hr 36 min 41 sec) 
Heartbeat CPU  0 instructions:  264000000 cycles: 4461887552 heartbeat IPC: 0.02245 cumulative IPC: 0.03768 (Simulation time: 0 hr 37 min 1 sec) 
Heartbeat CPU  0 instructions:  265000001 cycles: 4482206915 heartbeat IPC: 0.04921 cumulative IPC: 0.03773 (Simulation time: 0 hr 37 min 10 sec) 
Heartbeat CPU  0 instructions:  266000000 cycles: 4504930074 heartbeat IPC: 0.04401 cumulative IPC: 0.03776 (Simulation time: 0 hr 37 min 20 sec) 
Heartbeat CPU  0 instructions:  267000000 cycles: 4529750795 heartbeat IPC: 0.04029 cumulative IPC: 0.03778 (Simulation time: 0 hr 37 min 31 sec) 
Heartbeat CPU  0 instructions:  268000000 cycles: 4554634750 heartbeat IPC: 0.04019 cumulative IPC: 0.03779 (Simulation time: 0 hr 37 min 42 sec) 
Heartbeat CPU  0 instructions:  269000003 cycles: 4590138538 heartbeat IPC: 0.02817 cumulative IPC: 0.03771 (Simulation time: 0 hr 37 min 59 sec) 
Heartbeat CPU  0 instructions:  270000000 cycles: 4627683741 heartbeat IPC: 0.02663 cumulative IPC: 0.03762 (Simulation time: 0 hr 38 min 16 sec) 
Heartbeat CPU  0 instructions:  271000000 cycles: 4647227707 heartbeat IPC: 0.05117 cumulative IPC: 0.03768 (Simulation time: 0 hr 38 min 24 sec) 
Heartbeat CPU  0 instructions:  272000000 cycles: 4665845277 heartbeat IPC: 0.05371 cumulative IPC: 0.03774 (Simulation time: 0 hr 38 min 32 sec) 
Heartbeat CPU  0 instructions:  273000001 cycles: 4684275319 heartbeat IPC: 0.05426 cumulative IPC: 0.03781 (Simulation time: 0 hr 38 min 40 sec) 
Heartbeat CPU  0 instructions:  274000000 cycles: 4732848072 heartbeat IPC: 0.02059 cumulative IPC: 0.03763 (Simulation time: 0 hr 39 min 3 sec) 
Heartbeat CPU  0 instructions:  275000000 cycles: 4746919834 heartbeat IPC: 0.07106 cumulative IPC: 0.03773 (Simulation time: 0 hr 39 min 10 sec) 
Heartbeat CPU  0 instructions:  276000000 cycles: 4761364415 heartbeat IPC: 0.06923 cumulative IPC: 0.03783 (Simulation time: 0 hr 39 min 17 sec) 
Heartbeat CPU  0 instructions:  277000000 cycles: 4782144443 heartbeat IPC: 0.04812 cumulative IPC: 0.03788 (Simulation time: 0 hr 39 min 26 sec) 
Heartbeat CPU  0 instructions:  278000002 cycles: 4808626325 heartbeat IPC: 0.03776 cumulative IPC: 0.03787 (Simulation time: 0 hr 39 min 38 sec) 
Heartbeat CPU  0 instructions:  279000000 cycles: 4856491907 heartbeat IPC: 0.02089 cumulative IPC: 0.03770 (Simulation time: 0 hr 40 min 0 sec) 
Heartbeat CPU  0 instructions:  280000000 cycles: 4879938290 heartbeat IPC: 0.04265 cumulative IPC: 0.03773 (Simulation time: 0 hr 40 min 10 sec) 
Heartbeat CPU  0 instructions:  281000001 cycles: 4899331699 heartbeat IPC: 0.05156 cumulative IPC: 0.03778 (Simulation time: 0 hr 40 min 18 sec) 
Heartbeat CPU  0 instructions:  282000000 cycles: 4921219722 heartbeat IPC: 0.04569 cumulative IPC: 0.03782 (Simulation time: 0 hr 40 min 27 sec) 
Heartbeat CPU  0 instructions:  283000000 cycles: 4947244724 heartbeat IPC: 0.03842 cumulative IPC: 0.03782 (Simulation time: 0 hr 40 min 39 sec) 
Heartbeat CPU  0 instructions:  284000000 cycles: 4989497797 heartbeat IPC: 0.02367 cumulative IPC: 0.03770 (Simulation time: 0 hr 40 min 59 sec) 
Heartbeat CPU  0 instructions:  285000000 cycles: 5008928017 heartbeat IPC: 0.05147 cumulative IPC: 0.03776 (Simulation time: 0 hr 41 min 7 sec) 
Heartbeat CPU  0 instructions:  286000001 cycles: 5028482082 heartbeat IPC: 0.05114 cumulative IPC: 0.03781 (Simulation time: 0 hr 41 min 16 sec) 
Heartbeat CPU  0 instructions:  287000001 cycles: 5049081895 heartbeat IPC: 0.04854 cumulative IPC: 0.03785 (Simulation time: 0 hr 41 min 26 sec) 
Heartbeat CPU  0 instructions:  288000000 cycles: 5092502299 heartbeat IPC: 0.02303 cumulative IPC: 0.03772 (Simulation time: 0 hr 41 min 46 sec) 
Heartbeat CPU  0 instructions:  289000000 cycles: 5118383362 heartbeat IPC: 0.03864 cumulative IPC: 0.03773 (Simulation time: 0 hr 41 min 58 sec) 
Heartbeat CPU  0 instructions:  290000001 cycles: 5140104164 heartbeat IPC: 0.04604 cumulative IPC: 0.03776 (Simulation time: 0 hr 42 min 7 sec) 
Heartbeat CPU  0 instructions:  291000000 cycles: 5161066776 heartbeat IPC: 0.04770 cumulative IPC: 0.03781 (Simulation time: 0 hr 42 min 17 sec) 
Heartbeat CPU  0 instructions:  292000000 cycles: 5184971991 heartbeat IPC: 0.04183 cumulative IPC: 0.03782 (Simulation time: 0 hr 42 min 28 sec) 
Heartbeat CPU  0 instructions:  293000001 cycles: 5226286864 heartbeat IPC: 0.02420 cumulative IPC: 0.03771 (Simulation time: 0 hr 42 min 47 sec) 
Heartbeat CPU  0 instructions:  294000000 cycles: 5255596810 heartbeat IPC: 0.03412 cumulative IPC: 0.03769 (Simulation time: 0 hr 43 min 0 sec) 
Heartbeat CPU  0 instructions:  295000001 cycles: 5280903407 heartbeat IPC: 0.03952 cumulative IPC: 0.03770 (Simulation time: 0 hr 43 min 10 sec) 
Heartbeat CPU  0 instructions:  296000000 cycles: 5307920609 heartbeat IPC: 0.03701 cumulative IPC: 0.03770 (Simulation time: 0 hr 43 min 22 sec) 
Heartbeat CPU  0 instructions:  297000001 cycles: 5336178911 heartbeat IPC: 0.03539 cumulative IPC: 0.03769 (Simulation time: 0 hr 43 min 33 sec) 
Heartbeat CPU  0 instructions:  298000000 cycles: 5363177269 heartbeat IPC: 0.03704 cumulative IPC: 0.03768 (Simulation time: 0 hr 43 min 45 sec) 
Heartbeat CPU  0 instructions:  299000001 cycles: 5403780421 heartbeat IPC: 0.02463 cumulative IPC: 0.03758 (Simulation time: 0 hr 44 min 3 sec) 
Heartbeat CPU  0 instructions:  300000000 cycles: 5436361610 heartbeat IPC: 0.03069 cumulative IPC: 0.03754 (Simulation time: 0 hr 44 min 18 sec) 
Heartbeat CPU  0 instructions:  301000002 cycles: 5462048044 heartbeat IPC: 0.03893 cumulative IPC: 0.03755 (Simulation time: 0 hr 44 min 28 sec) 
Heartbeat CPU  0 instructions:  302000001 cycles: 5487801561 heartbeat IPC: 0.03883 cumulative IPC: 0.03755 (Simulation time: 0 hr 44 min 39 sec) 
Heartbeat CPU  0 instructions:  303000000 cycles: 5512032265 heartbeat IPC: 0.04127 cumulative IPC: 0.03757 (Simulation time: 0 hr 44 min 49 sec) 
Heartbeat CPU  0 instructions:  304000000 cycles: 5539079516 heartbeat IPC: 0.03697 cumulative IPC: 0.03757 (Simulation time: 0 hr 45 min 1 sec) 
Heartbeat CPU  0 instructions:  305000000 cycles: 5577759423 heartbeat IPC: 0.02585 cumulative IPC: 0.03749 (Simulation time: 0 hr 45 min 18 sec) 
Heartbeat CPU  0 instructions:  306000001 cycles: 5611456100 heartbeat IPC: 0.02968 cumulative IPC: 0.03744 (Simulation time: 0 hr 45 min 33 sec) 
Heartbeat CPU  0 instructions:  307000001 cycles: 5638829244 heartbeat IPC: 0.03653 cumulative IPC: 0.03743 (Simulation time: 0 hr 45 min 45 sec) 
Heartbeat CPU  0 instructions:  308000000 cycles: 5664738516 heartbeat IPC: 0.03860 cumulative IPC: 0.03744 (Simulation time: 0 hr 45 min 56 sec) 
Heartbeat CPU  0 instructions:  309000002 cycles: 5688662353 heartbeat IPC: 0.04180 cumulative IPC: 0.03746 (Simulation time: 0 hr 46 min 6 sec) 
Heartbeat CPU  0 instructions:  310000003 cycles: 5715329499 heartbeat IPC: 0.03750 cumulative IPC: 0.03746 (Simulation time: 0 hr 46 min 18 sec) 
Heartbeat CPU  0 instructions:  311000002 cycles: 5758922962 heartbeat IPC: 0.02294 cumulative IPC: 0.03735 (Simulation time: 0 hr 46 min 38 sec) 
Heartbeat CPU  0 instructions:  312000000 cycles: 5780220210 heartbeat IPC: 0.04695 cumulative IPC: 0.03738 (Simulation time: 0 hr 46 min 47 sec) 
Heartbeat CPU  0 instructions:  313000000 cycles: 5807950604 heartbeat IPC: 0.03606 cumulative IPC: 0.03737 (Simulation time: 0 hr 47 min 0 sec) 
Heartbeat CPU  0 instructions:  314000000 cycles: 5835715887 heartbeat IPC: 0.03602 cumulative IPC: 0.03737 (Simulation time: 0 hr 47 min 12 sec) 
Heartbeat CPU  0 instructions:  315000000 cycles: 5863669972 heartbeat IPC: 0.03577 cumulative IPC: 0.03736 (Simulation time: 0 hr 47 min 25 sec) 
Heartbeat CPU  0 instructions:  316000000 cycles: 5891055784 heartbeat IPC: 0.03652 cumulative IPC: 0.03736 (Simulation time: 0 hr 47 min 37 sec) 
Heartbeat CPU  0 instructions:  317000002 cycles: 5932216073 heartbeat IPC: 0.02430 cumulative IPC: 0.03726 (Simulation time: 0 hr 47 min 56 sec) 
Heartbeat CPU  0 instructions:  318000002 cycles: 5961306268 heartbeat IPC: 0.03438 cumulative IPC: 0.03725 (Simulation time: 0 hr 48 min 9 sec) 
Heartbeat CPU  0 instructions:  319000002 cycles: 5985852468 heartbeat IPC: 0.04074 cumulative IPC: 0.03726 (Simulation time: 0 hr 48 min 19 sec) 
Heartbeat CPU  0 instructions:  320000000 cycles: 6010197184 heartbeat IPC: 0.04108 cumulative IPC: 0.03728 (Simulation time: 0 hr 48 min 30 sec) 
Heartbeat CPU  0 instructions:  321000001 cycles: 6037261969 heartbeat IPC: 0.03695 cumulative IPC: 0.03728 (Simulation time: 0 hr 48 min 41 sec) 
Heartbeat CPU  0 instructions:  322000000 cycles: 6066819362 heartbeat IPC: 0.03383 cumulative IPC: 0.03726 (Simulation time: 0 hr 48 min 53 sec) 
Heartbeat CPU  0 instructions:  323000001 cycles: 6091634008 heartbeat IPC: 0.04030 cumulative IPC: 0.03727 (Simulation time: 0 hr 49 min 3 sec) 
Heartbeat CPU  0 instructions:  324000000 cycles: 6118435945 heartbeat IPC: 0.03731 cumulative IPC: 0.03727 (Simulation time: 0 hr 49 min 15 sec) 
Heartbeat CPU  0 instructions:  325000000 cycles: 6165315877 heartbeat IPC: 0.02133 cumulative IPC: 0.03715 (Simulation time: 0 hr 49 min 36 sec) 
Heartbeat CPU  0 instructions:  326000000 cycles: 6188843504 heartbeat IPC: 0.04250 cumulative IPC: 0.03717 (Simulation time: 0 hr 49 min 46 sec) 
Heartbeat CPU  0 instructions:  327000000 cycles: 6217324437 heartbeat IPC: 0.03511 cumulative IPC: 0.03716 (Simulation time: 0 hr 49 min 58 sec) 
Heartbeat CPU  0 instructions:  328000000 cycles: 6244434973 heartbeat IPC: 0.03689 cumulative IPC: 0.03716 (Simulation time: 0 hr 50 min 9 sec) 
Heartbeat CPU  0 instructions:  329000001 cycles: 6266084165 heartbeat IPC: 0.04619 cumulative IPC: 0.03719 (Simulation time: 0 hr 50 min 19 sec) 
Heartbeat CPU  0 instructions:  330000002 cycles: 6290044352 heartbeat IPC: 0.04174 cumulative IPC: 0.03721 (Simulation time: 0 hr 50 min 29 sec) 
Heartbeat CPU  0 instructions:  331000003 cycles: 6314830722 heartbeat IPC: 0.04034 cumulative IPC: 0.03722 (Simulation time: 0 hr 50 min 40 sec) 
Heartbeat CPU  0 instructions:  332000000 cycles: 6362148909 heartbeat IPC: 0.02113 cumulative IPC: 0.03710 (Simulation time: 0 hr 51 min 2 sec) 
Heartbeat CPU  0 instructions:  333000000 cycles: 6386686507 heartbeat IPC: 0.04075 cumulative IPC: 0.03712 (Simulation time: 0 hr 51 min 12 sec) 
Heartbeat CPU  0 instructions:  334000001 cycles: 6410410235 heartbeat IPC: 0.04215 cumulative IPC: 0.03713 (Simulation time: 0 hr 51 min 22 sec) 
Heartbeat CPU  0 instructions:  335000002 cycles: 6428805611 heartbeat IPC: 0.05436 cumulative IPC: 0.03718 (Simulation time: 0 hr 51 min 30 sec) 
Heartbeat CPU  0 instructions:  336000000 cycles: 6457647861 heartbeat IPC: 0.03467 cumulative IPC: 0.03717 (Simulation time: 0 hr 51 min 42 sec) 
Heartbeat CPU  0 instructions:  337000000 cycles: 6483723950 heartbeat IPC: 0.03835 cumulative IPC: 0.03718 (Simulation time: 0 hr 51 min 53 sec) 
Heartbeat CPU  0 instructions:  338000000 cycles: 6508397847 heartbeat IPC: 0.04053 cumulative IPC: 0.03719 (Simulation time: 0 hr 52 min 3 sec) 
Heartbeat CPU  0 instructions:  339000000 cycles: 6536058105 heartbeat IPC: 0.03615 cumulative IPC: 0.03719 (Simulation time: 0 hr 52 min 14 sec) 
Heartbeat CPU  0 instructions:  340000000 cycles: 6583114038 heartbeat IPC: 0.02125 cumulative IPC: 0.03707 (Simulation time: 0 hr 52 min 36 sec) 
Heartbeat CPU  0 instructions:  341000000 cycles: 6612283549 heartbeat IPC: 0.03428 cumulative IPC: 0.03706 (Simulation time: 0 hr 52 min 48 sec) 
Heartbeat CPU  0 instructions:  342000000 cycles: 6637200850 heartbeat IPC: 0.04013 cumulative IPC: 0.03707 (Simulation time: 0 hr 52 min 59 sec) 
Heartbeat CPU  0 instructions:  343000000 cycles: 6658185196 heartbeat IPC: 0.04765 cumulative IPC: 0.03710 (Simulation time: 0 hr 53 min 7 sec) 
Heartbeat CPU  0 instructions:  344000000 cycles: 6685242103 heartbeat IPC: 0.03696 cumulative IPC: 0.03710 (Simulation time: 0 hr 53 min 18 sec) 
Heartbeat CPU  0 instructions:  345000000 cycles: 6711581618 heartbeat IPC: 0.03797 cumulative IPC: 0.03711 (Simulation time: 0 hr 53 min 29 sec) 
Heartbeat CPU  0 instructions:  346000001 cycles: 6734227744 heartbeat IPC: 0.04416 cumulative IPC: 0.03713 (Simulation time: 0 hr 53 min 39 sec) 
Heartbeat CPU  0 instructions:  347000003 cycles: 6762412712 heartbeat IPC: 0.03548 cumulative IPC: 0.03712 (Simulation time: 0 hr 53 min 53 sec) 
Heartbeat CPU  0 instructions:  348000000 cycles: 6793159417 heartbeat IPC: 0.03252 cumulative IPC: 0.03710 (Simulation time: 0 hr 54 min 7 sec) 
Heartbeat CPU  0 instructions:  349000001 cycles: 6803988685 heartbeat IPC: 0.09234 cumulative IPC: 0.03719 (Simulation time: 0 hr 54 min 13 sec) 
Heartbeat CPU  0 instructions:  350000000 cycles: 6821338443 heartbeat IPC: 0.05764 cumulative IPC: 0.03724 (Simulation time: 0 hr 54 min 21 sec) 
Heartbeat CPU  0 instructions:  351000000 cycles: 6832558163 heartbeat IPC: 0.08913 cumulative IPC: 0.03733 (Simulation time: 0 hr 54 min 28 sec) 
Heartbeat CPU  0 instructions:  352000000 cycles: 6844022222 heartbeat IPC: 0.08723 cumulative IPC: 0.03742 (Simulation time: 0 hr 54 min 34 sec) 
Heartbeat CPU  0 instructions:  353000003 cycles: 6877774884 heartbeat IPC: 0.02963 cumulative IPC: 0.03738 (Simulation time: 0 hr 54 min 50 sec) 
Heartbeat CPU  0 instructions:  354000002 cycles: 6903743798 heartbeat IPC: 0.03851 cumulative IPC: 0.03738 (Simulation time: 0 hr 55 min 4 sec) 
Heartbeat CPU  0 instructions:  355000002 cycles: 6913830511 heartbeat IPC: 0.09914 cumulative IPC: 0.03747 (Simulation time: 0 hr 55 min 10 sec) 
Heartbeat CPU  0 instructions:  356000000 cycles: 6925142175 heartbeat IPC: 0.08840 cumulative IPC: 0.03756 (Simulation time: 0 hr 55 min 16 sec) 
Heartbeat CPU  0 instructions:  357000000 cycles: 6935061862 heartbeat IPC: 0.10081 cumulative IPC: 0.03765 (Simulation time: 0 hr 55 min 22 sec) 
Heartbeat CPU  0 instructions:  358000001 cycles: 6964837820 heartbeat IPC: 0.03358 cumulative IPC: 0.03763 (Simulation time: 0 hr 55 min 37 sec) 
Heartbeat CPU  0 instructions:  359000002 cycles: 6991662317 heartbeat IPC: 0.03728 cumulative IPC: 0.03763 (Simulation time: 0 hr 55 min 50 sec) 
Heartbeat CPU  0 instructions:  360000000 cycles: 7002541178 heartbeat IPC: 0.09192 cumulative IPC: 0.03772 (Simulation time: 0 hr 55 min 57 sec) 
Heartbeat CPU  0 instructions:  361000001 cycles: 7013317128 heartbeat IPC: 0.09280 cumulative IPC: 0.03780 (Simulation time: 0 hr 56 min 3 sec) 
Heartbeat CPU  0 instructions:  362000003 cycles: 7024079162 heartbeat IPC: 0.09292 cumulative IPC: 0.03789 (Simulation time: 0 hr 56 min 9 sec) 
Heartbeat CPU  0 instructions:  363000003 cycles: 7048281105 heartbeat IPC: 0.04132 cumulative IPC: 0.03790 (Simulation time: 0 hr 56 min 21 sec) 
Heartbeat CPU  0 instructions:  364000000 cycles: 7081473432 heartbeat IPC: 0.03013 cumulative IPC: 0.03786 (Simulation time: 0 hr 56 min 37 sec) 
Heartbeat CPU  0 instructions:  365000001 cycles: 7091371671 heartbeat IPC: 0.10103 cumulative IPC: 0.03795 (Simulation time: 0 hr 56 min 43 sec) 
Heartbeat CPU  0 instructions:  366000001 cycles: 7101883335 heartbeat IPC: 0.09513 cumulative IPC: 0.03804 (Simulation time: 0 hr 56 min 49 sec) 
Heartbeat CPU  0 instructions:  367000000 cycles: 7112168165 heartbeat IPC: 0.09723 cumulative IPC: 0.03813 (Simulation time: 0 hr 56 min 56 sec) 
Heartbeat CPU  0 instructions:  368000000 cycles: 7126696950 heartbeat IPC: 0.06883 cumulative IPC: 0.03819 (Simulation time: 0 hr 57 min 3 sec) 
Heartbeat CPU  0 instructions:  369000000 cycles: 7172974412 heartbeat IPC: 0.02161 cumulative IPC: 0.03808 (Simulation time: 0 hr 57 min 25 sec) 
Heartbeat CPU  0 instructions:  370000002 cycles: 7186570831 heartbeat IPC: 0.07355 cumulative IPC: 0.03815 (Simulation time: 0 hr 57 min 33 sec) 
Heartbeat CPU  0 instructions:  371000000 cycles: 7201251870 heartbeat IPC: 0.06811 cumulative IPC: 0.03821 (Simulation time: 0 hr 57 min 41 sec) 
Heartbeat CPU  0 instructions:  372000000 cycles: 7216244162 heartbeat IPC: 0.06670 cumulative IPC: 0.03827 (Simulation time: 0 hr 57 min 48 sec) 
Heartbeat CPU  0 instructions:  373000000 cycles: 7230885044 heartbeat IPC: 0.06830 cumulative IPC: 0.03833 (Simulation time: 0 hr 57 min 56 sec) 
Heartbeat CPU  0 instructions:  374000000 cycles: 7247074535 heartbeat IPC: 0.06177 cumulative IPC: 0.03839 (Simulation time: 0 hr 58 min 5 sec) 
Heartbeat CPU  0 instructions:  375000002 cycles: 7284613560 heartbeat IPC: 0.02664 cumulative IPC: 0.03832 (Simulation time: 0 hr 58 min 23 sec) 
Heartbeat CPU  0 instructions:  376000000 cycles: 7308475942 heartbeat IPC: 0.04191 cumulative IPC: 0.03834 (Simulation time: 0 hr 58 min 35 sec) 
Heartbeat CPU  0 instructions:  377000000 cycles: 7323559613 heartbeat IPC: 0.06630 cumulative IPC: 0.03839 (Simulation time: 0 hr 58 min 43 sec) 
Heartbeat CPU  0 instructions:  378000002 cycles: 7343931697 heartbeat IPC: 0.04909 cumulative IPC: 0.03842 (Simulation time: 0 hr 58 min 53 sec) 
Heartbeat CPU  0 instructions:  379000000 cycles: 7360094876 heartbeat IPC: 0.06187 cumulative IPC: 0.03848 (Simulation time: 0 hr 59 min 1 sec) 
Heartbeat CPU  0 instructions:  380000000 cycles: 7382454886 heartbeat IPC: 0.04472 cumulative IPC: 0.03850 (Simulation time: 0 hr 59 min 12 sec) 
Heartbeat CPU  0 instructions:  381000002 cycles: 7402836303 heartbeat IPC: 0.04906 cumulative IPC: 0.03853 (Simulation time: 0 hr 59 min 22 sec) 
Heartbeat CPU  0 instructions:  382000001 cycles: 7446304710 heartbeat IPC: 0.02301 cumulative IPC: 0.03843 (Simulation time: 0 hr 59 min 42 sec) 
Heartbeat CPU  0 instructions:  383000002 cycles: 7468497307 heartbeat IPC: 0.04506 cumulative IPC: 0.03845 (Simulation time: 0 hr 59 min 53 sec) 
Heartbeat CPU  0 instructions:  384000000 cycles: 7487405147 heartbeat IPC: 0.05289 cumulative IPC: 0.03849 (Simulation time: 1 hr 0 min 2 sec) 
Heartbeat CPU  0 instructions:  385000002 cycles: 7505939089 heartbeat IPC: 0.05396 cumulative IPC: 0.03853 (Simulation time: 1 hr 0 min 11 sec) 
Heartbeat CPU  0 instructions:  386000001 cycles: 7526318381 heartbeat IPC: 0.04907 cumulative IPC: 0.03856 (Simulation time: 1 hr 0 min 20 sec) 
Heartbeat CPU  0 instructions:  387000000 cycles: 7546187616 heartbeat IPC: 0.05033 cumulative IPC: 0.03859 (Simulation time: 1 hr 0 min 29 sec) 
Heartbeat CPU  0 instructions:  388000000 cycles: 7580806489 heartbeat IPC: 0.02889 cumulative IPC: 0.03854 (Simulation time: 1 hr 0 min 45 sec) 
Heartbeat CPU  0 instructions:  389000000 cycles: 7617120173 heartbeat IPC: 0.02754 cumulative IPC: 0.03849 (Simulation time: 1 hr 1 min 2 sec) 
Heartbeat CPU  0 instructions:  390000001 cycles: 7643629198 heartbeat IPC: 0.03772 cumulative IPC: 0.03849 (Simulation time: 1 hr 1 min 13 sec) 
Heartbeat CPU  0 instructions:  391000003 cycles: 7672230506 heartbeat IPC: 0.03496 cumulative IPC: 0.03848 (Simulation time: 1 hr 1 min 24 sec) 
Heartbeat CPU  0 instructions:  392000000 cycles: 7700748053 heartbeat IPC: 0.03507 cumulative IPC: 0.03846 (Simulation time: 1 hr 1 min 36 sec) 
Heartbeat CPU  0 instructions:  393000003 cycles: 7728286830 heartbeat IPC: 0.03631 cumulative IPC: 0.03845 (Simulation time: 1 hr 1 min 47 sec) 
Heartbeat CPU  0 instructions:  394000001 cycles: 7756631204 heartbeat IPC: 0.03528 cumulative IPC: 0.03844 (Simulation time: 1 hr 1 min 58 sec) 
Heartbeat CPU  0 instructions:  395000000 cycles: 7787493210 heartbeat IPC: 0.03240 cumulative IPC: 0.03842 (Simulation time: 1 hr 2 min 11 sec) 
Heartbeat CPU  0 instructions:  396000000 cycles: 7825709040 heartbeat IPC: 0.02617 cumulative IPC: 0.03836 (Simulation time: 1 hr 2 min 28 sec) 
Heartbeat CPU  0 instructions:  397000001 cycles: 7859752673 heartbeat IPC: 0.02937 cumulative IPC: 0.03832 (Simulation time: 1 hr 2 min 44 sec) 
Heartbeat CPU  0 instructions:  398000000 cycles: 7887929636 heartbeat IPC: 0.03549 cumulative IPC: 0.03831 (Simulation time: 1 hr 2 min 55 sec) 
Heartbeat CPU  0 instructions:  399000000 cycles: 7918322930 heartbeat IPC: 0.03290 cumulative IPC: 0.03829 (Simulation time: 1 hr 3 min 7 sec) 
Heartbeat CPU  0 instructions:  400000000 cycles: 7949557007 heartbeat IPC: 0.03202 cumulative IPC: 0.03826 (Simulation time: 1 hr 3 min 20 sec) 
Heartbeat CPU  0 instructions:  401000001 cycles: 7978995382 heartbeat IPC: 0.03397 cumulative IPC: 0.03825 (Simulation time: 1 hr 3 min 32 sec) 
Heartbeat CPU  0 instructions:  402000001 cycles: 8007167097 heartbeat IPC: 0.03550 cumulative IPC: 0.03824 (Simulation time: 1 hr 3 min 43 sec) 
Heartbeat CPU  0 instructions:  403000000 cycles: 8037919842 heartbeat IPC: 0.03252 cumulative IPC: 0.03821 (Simulation time: 1 hr 3 min 56 sec) 
Heartbeat CPU  0 instructions:  404000000 cycles: 8073393676 heartbeat IPC: 0.02819 cumulative IPC: 0.03817 (Simulation time: 1 hr 4 min 11 sec) 
Heartbeat CPU  0 instructions:  405000001 cycles: 8113483726 heartbeat IPC: 0.02494 cumulative IPC: 0.03810 (Simulation time: 1 hr 4 min 30 sec) 
Heartbeat CPU  0 instructions:  406000002 cycles: 8138310229 heartbeat IPC: 0.04028 cumulative IPC: 0.03811 (Simulation time: 1 hr 4 min 40 sec) 
Heartbeat CPU  0 instructions:  407000001 cycles: 8164044346 heartbeat IPC: 0.03886 cumulative IPC: 0.03811 (Simulation time: 1 hr 4 min 51 sec) 
Heartbeat CPU  0 instructions:  408000000 cycles: 8194162823 heartbeat IPC: 0.03320 cumulative IPC: 0.03809 (Simulation time: 1 hr 5 min 4 sec) 
Heartbeat CPU  0 instructions:  409000001 cycles: 8227560098 heartbeat IPC: 0.02994 cumulative IPC: 0.03806 (Simulation time: 1 hr 5 min 17 sec) 
Heartbeat CPU  0 instructions:  410000002 cycles: 8260204161 heartbeat IPC: 0.03063 cumulative IPC: 0.03803 (Simulation time: 1 hr 5 min 30 sec) 
Heartbeat CPU  0 instructions:  411000000 cycles: 8291069281 heartbeat IPC: 0.03240 cumulative IPC: 0.03801 (Simulation time: 1 hr 5 min 43 sec) 
Heartbeat CPU  0 instructions:  412000000 cycles: 8323908642 heartbeat IPC: 0.03045 cumulative IPC: 0.03798 (Simulation time: 1 hr 5 min 56 sec) 
Heartbeat CPU  0 instructions:  413000002 cycles: 8353424997 heartbeat IPC: 0.03388 cumulative IPC: 0.03796 (Simulation time: 1 hr 6 min 8 sec) 
Heartbeat CPU  0 instructions:  414000001 cycles: 8399262853 heartbeat IPC: 0.02182 cumulative IPC: 0.03788 (Simulation time: 1 hr 6 min 29 sec) 
Heartbeat CPU  0 instructions:  415000001 cycles: 8414259922 heartbeat IPC: 0.06668 cumulative IPC: 0.03793 (Simulation time: 1 hr 6 min 37 sec) 
Heartbeat CPU  0 instructions:  416000000 cycles: 8425991985 heartbeat IPC: 0.08524 cumulative IPC: 0.03799 (Simulation time: 1 hr 6 min 43 sec) 
Heartbeat CPU  0 instructions:  417000000 cycles: 8437318888 heartbeat IPC: 0.08829 cumulative IPC: 0.03806 (Simulation time: 1 hr 6 min 48 sec) 
Heartbeat CPU  0 instructions:  418000000 cycles: 8483737662 heartbeat IPC: 0.02154 cumulative IPC: 0.03797 (Simulation time: 1 hr 7 min 10 sec) 
Heartbeat CPU  0 instructions:  419000000 cycles: 8495971361 heartbeat IPC: 0.08174 cumulative IPC: 0.03803 (Simulation time: 1 hr 7 min 17 sec) 
Heartbeat CPU  0 instructions:  420000000 cycles: 8506688754 heartbeat IPC: 0.09331 cumulative IPC: 0.03811 (Simulation time: 1 hr 7 min 22 sec) 
Heartbeat CPU  0 instructions:  421000000 cycles: 8524753444 heartbeat IPC: 0.05536 cumulative IPC: 0.03814 (Simulation time: 1 hr 7 min 30 sec) 
Heartbeat CPU  0 instructions:  422000003 cycles: 8550784027 heartbeat IPC: 0.03842 cumulative IPC: 0.03814 (Simulation time: 1 hr 7 min 43 sec) 
Heartbeat CPU  0 instructions:  423000000 cycles: 8584334675 heartbeat IPC: 0.02981 cumulative IPC: 0.03811 (Simulation time: 1 hr 7 min 59 sec) 
Heartbeat CPU  0 instructions:  424000000 cycles: 8594885978 heartbeat IPC: 0.09478 cumulative IPC: 0.03818 (Simulation time: 1 hr 8 min 5 sec) 
Heartbeat CPU  0 instructions:  425000000 cycles: 8605688399 heartbeat IPC: 0.09257 cumulative IPC: 0.03825 (Simulation time: 1 hr 8 min 11 sec) 
Heartbeat CPU  0 instructions:  426000000 cycles: 8633798163 heartbeat IPC: 0.03557 cumulative IPC: 0.03824 (Simulation time: 1 hr 8 min 25 sec) 
Heartbeat CPU  0 instructions:  427000003 cycles: 8665248997 heartbeat IPC: 0.03180 cumulative IPC: 0.03822 (Simulation time: 1 hr 8 min 40 sec) 
Heartbeat CPU  0 instructions:  428000000 cycles: 8675701672 heartbeat IPC: 0.09567 cumulative IPC: 0.03829 (Simulation time: 1 hr 8 min 46 sec) 
Heartbeat CPU  0 instructions:  429000000 cycles: 8688017364 heartbeat IPC: 0.08120 cumulative IPC: 0.03835 (Simulation time: 1 hr 8 min 52 sec) 
Heartbeat CPU  0 instructions:  430000001 cycles: 8711754143 heartbeat IPC: 0.04213 cumulative IPC: 0.03836 (Simulation time: 1 hr 9 min 3 sec) 
Heartbeat CPU  0 instructions:  431000001 cycles: 8750356361 heartbeat IPC: 0.02591 cumulative IPC: 0.03830 (Simulation time: 1 hr 9 min 21 sec) 
Heartbeat CPU  0 instructions:  432000000 cycles: 8767406270 heartbeat IPC: 0.05865 cumulative IPC: 0.03834 (Simulation time: 1 hr 9 min 29 sec) 
Heartbeat CPU  0 instructions:  433000001 cycles: 8791230038 heartbeat IPC: 0.04197 cumulative IPC: 0.03835 (Simulation time: 1 hr 9 min 39 sec) 
Heartbeat CPU  0 instructions:  434000000 cycles: 8814247701 heartbeat IPC: 0.04344 cumulative IPC: 0.03837 (Simulation time: 1 hr 9 min 49 sec) 
Heartbeat CPU  0 instructions:  435000000 cycles: 8838918607 heartbeat IPC: 0.04053 cumulative IPC: 0.03837 (Simulation time: 1 hr 9 min 59 sec) 
Heartbeat CPU  0 instructions:  436000000 cycles: 8879673385 heartbeat IPC: 0.02454 cumulative IPC: 0.03831 (Simulation time: 1 hr 10 min 18 sec) 
Heartbeat CPU  0 instructions:  437000001 cycles: 8910292786 heartbeat IPC: 0.03266 cumulative IPC: 0.03829 (Simulation time: 1 hr 10 min 32 sec) 
Heartbeat CPU  0 instructions:  438000000 cycles: 8938920733 heartbeat IPC: 0.03493 cumulative IPC: 0.03828 (Simulation time: 1 hr 10 min 44 sec) 
Heartbeat CPU  0 instructions:  439000001 cycles: 8967362989 heartbeat IPC: 0.03516 cumulative IPC: 0.03827 (Simulation time: 1 hr 10 min 56 sec) 
Heartbeat CPU  0 instructions:  440000000 cycles: 8996315337 heartbeat IPC: 0.03454 cumulative IPC: 0.03826 (Simulation time: 1 hr 11 min 8 sec) 
Heartbeat CPU  0 instructions:  441000000 cycles: 9021007515 heartbeat IPC: 0.04050 cumulative IPC: 0.03826 (Simulation time: 1 hr 11 min 19 sec) 
Heartbeat CPU  0 instructions:  442000001 cycles: 9047324242 heartbeat IPC: 0.03800 cumulative IPC: 0.03826 (Simulation time: 1 hr 11 min 30 sec) 
Heartbeat CPU  0 instructions:  443000002 cycles: 9081472052 heartbeat IPC: 0.02928 cumulative IPC: 0.03823 (Simulation time: 1 hr 11 min 46 sec) 
Heartbeat CPU  0 instructions:  444000000 cycles: 9118723587 heartbeat IPC: 0.02684 cumulative IPC: 0.03818 (Simulation time: 1 hr 12 min 3 sec) 
Heartbeat CPU  0 instructions:  445000001 cycles: 9143256431 heartbeat IPC: 0.04076 cumulative IPC: 0.03819 (Simulation time: 1 hr 12 min 13 sec) 
Heartbeat CPU  0 instructions:  446000000 cycles: 9169311466 heartbeat IPC: 0.03838 cumulative IPC: 0.03819 (Simulation time: 1 hr 12 min 25 sec) 
Heartbeat CPU  0 instructions:  447000000 cycles: 9199412869 heartbeat IPC: 0.03322 cumulative IPC: 0.03817 (Simulation time: 1 hr 12 min 38 sec) 
Heartbeat CPU  0 instructions:  448000000 cycles: 9225393850 heartbeat IPC: 0.03849 cumulative IPC: 0.03817 (Simulation time: 1 hr 12 min 50 sec) 
Heartbeat CPU  0 instructions:  449000001 cycles: 9263018300 heartbeat IPC: 0.02658 cumulative IPC: 0.03812 (Simulation time: 1 hr 13 min 8 sec) 
Heartbeat CPU  0 instructions:  450000000 cycles: 9297685814 heartbeat IPC: 0.02885 cumulative IPC: 0.03809 (Simulation time: 1 hr 13 min 23 sec) 
Heartbeat CPU  0 instructions:  451000002 cycles: 9323639085 heartbeat IPC: 0.03853 cumulative IPC: 0.03809 (Simulation time: 1 hr 13 min 34 sec) 
Heartbeat CPU  0 instructions:  452000000 cycles: 9352030755 heartbeat IPC: 0.03522 cumulative IPC: 0.03808 (Simulation time: 1 hr 13 min 46 sec) 
Heartbeat CPU  0 instructions:  453000000 cycles: 9377524032 heartbeat IPC: 0.03923 cumulative IPC: 0.03809 (Simulation time: 1 hr 13 min 56 sec) 
Heartbeat CPU  0 instructions:  454000003 cycles: 9405676526 heartbeat IPC: 0.03552 cumulative IPC: 0.03808 (Simulation time: 1 hr 14 min 8 sec) 
Heartbeat CPU  0 instructions:  455000000 cycles: 9436951009 heartbeat IPC: 0.03197 cumulative IPC: 0.03806 (Simulation time: 1 hr 14 min 21 sec) 
Heartbeat CPU  0 instructions:  456000000 cycles: 9467941286 heartbeat IPC: 0.03227 cumulative IPC: 0.03804 (Simulation time: 1 hr 14 min 35 sec) 
Heartbeat CPU  0 instructions:  457000003 cycles: 9511004416 heartbeat IPC: 0.02322 cumulative IPC: 0.03797 (Simulation time: 1 hr 14 min 55 sec) 
Heartbeat CPU  0 instructions:  458000000 cycles: 9540378864 heartbeat IPC: 0.03404 cumulative IPC: 0.03796 (Simulation time: 1 hr 15 min 7 sec) 
Heartbeat CPU  0 instructions:  459000003 cycles: 9568531444 heartbeat IPC: 0.03552 cumulative IPC: 0.03795 (Simulation time: 1 hr 15 min 18 sec) 
Heartbeat CPU  0 instructions:  460000000 cycles: 9599564601 heartbeat IPC: 0.03222 cumulative IPC: 0.03793 (Simulation time: 1 hr 15 min 30 sec) 
Heartbeat CPU  0 instructions:  461000002 cycles: 9622617755 heartbeat IPC: 0.04338 cumulative IPC: 0.03795 (Simulation time: 1 hr 15 min 40 sec) 
Heartbeat CPU  0 instructions:  462000000 cycles: 9651447396 heartbeat IPC: 0.03469 cumulative IPC: 0.03794 (Simulation time: 1 hr 15 min 52 sec) 
Heartbeat CPU  0 instructions:  463000000 cycles: 9682765067 heartbeat IPC: 0.03193 cumulative IPC: 0.03792 (Simulation time: 1 hr 16 min 4 sec) 
Heartbeat CPU  0 instructions:  464000000 cycles: 9716921931 heartbeat IPC: 0.02928 cumulative IPC: 0.03789 (Simulation time: 1 hr 16 min 18 sec) 
Heartbeat CPU  0 instructions:  465000000 cycles: 9752567217 heartbeat IPC: 0.02805 cumulative IPC: 0.03785 (Simulation time: 1 hr 16 min 32 sec) 
Heartbeat CPU  0 instructions:  466000000 cycles: 9783848877 heartbeat IPC: 0.03197 cumulative IPC: 0.03783 (Simulation time: 1 hr 16 min 45 sec) 
Heartbeat CPU  0 instructions:  467000003 cycles: 9830885621 heartbeat IPC: 0.02126 cumulative IPC: 0.03775 (Simulation time: 1 hr 17 min 7 sec) 
Heartbeat CPU  0 instructions:  468000000 cycles: 9858474722 heartbeat IPC: 0.03625 cumulative IPC: 0.03775 (Simulation time: 1 hr 17 min 19 sec) 
Heartbeat CPU  0 instructions:  469000000 cycles: 9885584171 heartbeat IPC: 0.03689 cumulative IPC: 0.03774 (Simulation time: 1 hr 17 min 30 sec) 
Heartbeat CPU  0 instructions:  470000001 cycles: 9916075741 heartbeat IPC: 0.03280 cumulative IPC: 0.03773 (Simulation time: 1 hr 17 min 42 sec) 
Heartbeat CPU  0 instructions:  471000000 cycles: 9950687723 heartbeat IPC: 0.02889 cumulative IPC: 0.03770 (Simulation time: 1 hr 17 min 56 sec) 
Heartbeat CPU  0 instructions:  472000000 cycles: 9986073804 heartbeat IPC: 0.02826 cumulative IPC: 0.03766 (Simulation time: 1 hr 18 min 10 sec) 
Heartbeat CPU  0 instructions:  473000001 cycles: 10020770982 heartbeat IPC: 0.02882 cumulative IPC: 0.03763 (Simulation time: 1 hr 18 min 24 sec) 
Heartbeat CPU  0 instructions:  474000000 cycles: 10052690521 heartbeat IPC: 0.03133 cumulative IPC: 0.03761 (Simulation time: 1 hr 18 min 37 sec) 
Heartbeat CPU  0 instructions:  475000001 cycles: 10086317044 heartbeat IPC: 0.02974 cumulative IPC: 0.03758 (Simulation time: 1 hr 18 min 50 sec) 
Heartbeat CPU  0 instructions:  476000000 cycles: 10120612022 heartbeat IPC: 0.02916 cumulative IPC: 0.03756 (Simulation time: 1 hr 19 min 4 sec) 
Heartbeat CPU  0 instructions:  477000000 cycles: 10152860621 heartbeat IPC: 0.03101 cumulative IPC: 0.03754 (Simulation time: 1 hr 19 min 17 sec) 
Heartbeat CPU  0 instructions:  478000002 cycles: 10186601789 heartbeat IPC: 0.02964 cumulative IPC: 0.03751 (Simulation time: 1 hr 19 min 31 sec) 
Heartbeat CPU  0 instructions:  479000000 cycles: 10233169353 heartbeat IPC: 0.02147 cumulative IPC: 0.03743 (Simulation time: 1 hr 19 min 53 sec) 
Heartbeat CPU  0 instructions:  480000000 cycles: 10259406247 heartbeat IPC: 0.03811 cumulative IPC: 0.03744 (Simulation time: 1 hr 20 min 4 sec) 
Heartbeat CPU  0 instructions:  481000000 cycles: 10284368459 heartbeat IPC: 0.04006 cumulative IPC: 0.03744 (Simulation time: 1 hr 20 min 14 sec) 
Heartbeat CPU  0 instructions:  482000000 cycles: 10312379273 heartbeat IPC: 0.03570 cumulative IPC: 0.03744 (Simulation time: 1 hr 20 min 26 sec) 
Heartbeat CPU  0 instructions:  483000000 cycles: 10342151096 heartbeat IPC: 0.03359 cumulative IPC: 0.03743 (Simulation time: 1 hr 20 min 39 sec) 
Heartbeat CPU  0 instructions:  484000000 cycles: 10372984068 heartbeat IPC: 0.03243 cumulative IPC: 0.03741 (Simulation time: 1 hr 20 min 54 sec) 
Heartbeat CPU  0 instructions:  485000003 cycles: 10402993194 heartbeat IPC: 0.03332 cumulative IPC: 0.03740 (Simulation time: 1 hr 21 min 7 sec) 
Heartbeat CPU  0 instructions:  486000000 cycles: 10434050454 heartbeat IPC: 0.03220 cumulative IPC: 0.03738 (Simulation time: 1 hr 21 min 21 sec) 
Heartbeat CPU  0 instructions:  487000002 cycles: 10463126902 heartbeat IPC: 0.03439 cumulative IPC: 0.03738 (Simulation time: 1 hr 21 min 33 sec) 
Heartbeat CPU  0 instructions:  488000000 cycles: 10506305265 heartbeat IPC: 0.02316 cumulative IPC: 0.03732 (Simulation time: 1 hr 21 min 53 sec) 
Heartbeat CPU  0 instructions:  489000000 cycles: 10539851922 heartbeat IPC: 0.02981 cumulative IPC: 0.03729 (Simulation time: 1 hr 22 min 8 sec) 
Heartbeat CPU  0 instructions:  490000000 cycles: 10569060022 heartbeat IPC: 0.03424 cumulative IPC: 0.03728 (Simulation time: 1 hr 22 min 20 sec) 
Heartbeat CPU  0 instructions:  491000000 cycles: 10600041639 heartbeat IPC: 0.03228 cumulative IPC: 0.03727 (Simulation time: 1 hr 22 min 33 sec) 
Heartbeat CPU  0 instructions:  492000000 cycles: 10631400157 heartbeat IPC: 0.03189 cumulative IPC: 0.03725 (Simulation time: 1 hr 22 min 45 sec) 
Heartbeat CPU  0 instructions:  493000000 cycles: 10663595421 heartbeat IPC: 0.03106 cumulative IPC: 0.03723 (Simulation time: 1 hr 22 min 59 sec) 
Heartbeat CPU  0 instructions:  494000001 cycles: 10697031290 heartbeat IPC: 0.02991 cumulative IPC: 0.03721 (Simulation time: 1 hr 23 min 12 sec) 
Heartbeat CPU  0 instructions:  495000002 cycles: 10730726722 heartbeat IPC: 0.02968 cumulative IPC: 0.03719 (Simulation time: 1 hr 23 min 26 sec) 
Heartbeat CPU  0 instructions:  496000000 cycles: 10763511894 heartbeat IPC: 0.03050 cumulative IPC: 0.03717 (Simulation time: 1 hr 23 min 40 sec) 
Heartbeat CPU  0 instructions:  497000001 cycles: 10795316922 heartbeat IPC: 0.03144 cumulative IPC: 0.03715 (Simulation time: 1 hr 23 min 53 sec) 
Heartbeat CPU  0 instructions:  498000000 cycles: 10825367091 heartbeat IPC: 0.03328 cumulative IPC: 0.03714 (Simulation time: 1 hr 24 min 6 sec) 
Heartbeat CPU  0 instructions:  499000000 cycles: 10860776371 heartbeat IPC: 0.02824 cumulative IPC: 0.03711 (Simulation time: 1 hr 24 min 21 sec) 
Heartbeat CPU  0 instructions:  500000000 cycles: 10901602507 heartbeat IPC: 0.02449 cumulative IPC: 0.03706 (Simulation time: 1 hr 24 min 40 sec) 
Heartbeat CPU  0 instructions:  501000000 cycles: 10931360567 heartbeat IPC: 0.03360 cumulative IPC: 0.03705 (Simulation time: 1 hr 24 min 52 sec) 
Heartbeat CPU  0 instructions:  502000000 cycles: 10964164099 heartbeat IPC: 0.03048 cumulative IPC: 0.03703 (Simulation time: 1 hr 25 min 5 sec) 
Heartbeat CPU  0 instructions:  503000000 cycles: 10998022839 heartbeat IPC: 0.02953 cumulative IPC: 0.03701 (Simulation time: 1 hr 25 min 19 sec) 
Heartbeat CPU  0 instructions:  504000000 cycles: 11032059167 heartbeat IPC: 0.02938 cumulative IPC: 0.03699 (Simulation time: 1 hr 25 min 32 sec) 
Heartbeat CPU  0 instructions:  505000002 cycles: 11065488727 heartbeat IPC: 0.02991 cumulative IPC: 0.03696 (Simulation time: 1 hr 25 min 46 sec) 
Heartbeat CPU  0 instructions:  506000000 cycles: 11100303506 heartbeat IPC: 0.02872 cumulative IPC: 0.03694 (Simulation time: 1 hr 26 min 0 sec) 
Heartbeat CPU  0 instructions:  507000001 cycles: 11134303407 heartbeat IPC: 0.02941 cumulative IPC: 0.03691 (Simulation time: 1 hr 26 min 14 sec) 
Heartbeat CPU  0 instructions:  508000000 cycles: 11168524481 heartbeat IPC: 0.02922 cumulative IPC: 0.03689 (Simulation time: 1 hr 26 min 28 sec) 
Heartbeat CPU  0 instructions:  509000000 cycles: 11201211038 heartbeat IPC: 0.03059 cumulative IPC: 0.03687 (Simulation time: 1 hr 26 min 41 sec) 
Heartbeat CPU  0 instructions:  510000000 cycles: 11236426619 heartbeat IPC: 0.02840 cumulative IPC: 0.03685 (Simulation time: 1 hr 26 min 55 sec) 
Heartbeat CPU  0 instructions:  511000000 cycles: 11270246801 heartbeat IPC: 0.02957 cumulative IPC: 0.03682 (Simulation time: 1 hr 27 min 9 sec) 
Heartbeat CPU  0 instructions:  512000000 cycles: 11304401459 heartbeat IPC: 0.02928 cumulative IPC: 0.03680 (Simulation time: 1 hr 27 min 23 sec) 
Heartbeat CPU  0 instructions:  513000001 cycles: 11338706587 heartbeat IPC: 0.02915 cumulative IPC: 0.03678 (Simulation time: 1 hr 27 min 37 sec) 
Heartbeat CPU  0 instructions:  514000001 cycles: 11386634121 heartbeat IPC: 0.02086 cumulative IPC: 0.03671 (Simulation time: 1 hr 27 min 59 sec) 
Heartbeat CPU  0 instructions:  515000000 cycles: 11415761987 heartbeat IPC: 0.03433 cumulative IPC: 0.03670 (Simulation time: 1 hr 28 min 11 sec) 
Heartbeat CPU  0 instructions:  516000000 cycles: 11449139149 heartbeat IPC: 0.02996 cumulative IPC: 0.03668 (Simulation time: 1 hr 28 min 25 sec) 
Heartbeat CPU  0 instructions:  517000001 cycles: 11483897492 heartbeat IPC: 0.02877 cumulative IPC: 0.03666 (Simulation time: 1 hr 28 min 39 sec) 
Heartbeat CPU  0 instructions:  518000003 cycles: 11520150091 heartbeat IPC: 0.02758 cumulative IPC: 0.03663 (Simulation time: 1 hr 28 min 53 sec) 
Heartbeat CPU  0 instructions:  519000003 cycles: 11554382975 heartbeat IPC: 0.02921 cumulative IPC: 0.03661 (Simulation time: 1 hr 29 min 7 sec) 
Heartbeat CPU  0 instructions:  520000000 cycles: 11584971555 heartbeat IPC: 0.03269 cumulative IPC: 0.03660 (Simulation time: 1 hr 29 min 20 sec) 
Heartbeat CPU  0 instructions:  521000001 cycles: 11615667038 heartbeat IPC: 0.03258 cumulative IPC: 0.03659 (Simulation time: 1 hr 29 min 32 sec) 
Heartbeat CPU  0 instructions:  522000002 cycles: 11650091012 heartbeat IPC: 0.02905 cumulative IPC: 0.03656 (Simulation time: 1 hr 29 min 46 sec) 
Heartbeat CPU  0 instructions:  523000003 cycles: 11684613161 heartbeat IPC: 0.02897 cumulative IPC: 0.03654 (Simulation time: 1 hr 30 min 0 sec) 
Heartbeat CPU  0 instructions:  524000000 cycles: 11718054739 heartbeat IPC: 0.02990 cumulative IPC: 0.03652 (Simulation time: 1 hr 30 min 14 sec) 
Heartbeat CPU  0 instructions:  525000000 cycles: 11751605526 heartbeat IPC: 0.02981 cumulative IPC: 0.03650 (Simulation time: 1 hr 30 min 27 sec) 
Heartbeat CPU  0 instructions:  526000000 cycles: 11784745784 heartbeat IPC: 0.03017 cumulative IPC: 0.03649 (Simulation time: 1 hr 30 min 41 sec) 
Heartbeat CPU  0 instructions:  527000000 cycles: 11820705643 heartbeat IPC: 0.02781 cumulative IPC: 0.03646 (Simulation time: 1 hr 30 min 55 sec) 
Heartbeat CPU  0 instructions:  528000000 cycles: 11855940981 heartbeat IPC: 0.02838 cumulative IPC: 0.03643 (Simulation time: 1 hr 31 min 9 sec) 
Heartbeat CPU  0 instructions:  529000000 cycles: 11891171317 heartbeat IPC: 0.02838 cumulative IPC: 0.03641 (Simulation time: 1 hr 31 min 24 sec) 
Heartbeat CPU  0 instructions:  530000000 cycles: 11928549645 heartbeat IPC: 0.02675 cumulative IPC: 0.03638 (Simulation time: 1 hr 31 min 40 sec) 
Heartbeat CPU  0 instructions:  531000001 cycles: 11972731078 heartbeat IPC: 0.02263 cumulative IPC: 0.03633 (Simulation time: 1 hr 32 min 0 sec) 
Heartbeat CPU  0 instructions:  532000000 cycles: 12006035936 heartbeat IPC: 0.03003 cumulative IPC: 0.03631 (Simulation time: 1 hr 32 min 14 sec) 
Heartbeat CPU  0 instructions:  533000000 cycles: 12040489210 heartbeat IPC: 0.02902 cumulative IPC: 0.03629 (Simulation time: 1 hr 32 min 28 sec) 
Heartbeat CPU  0 instructions:  534000002 cycles: 12076337565 heartbeat IPC: 0.02790 cumulative IPC: 0.03627 (Simulation time: 1 hr 32 min 42 sec) 
Heartbeat CPU  0 instructions:  535000002 cycles: 12114141705 heartbeat IPC: 0.02645 cumulative IPC: 0.03623 (Simulation time: 1 hr 32 min 57 sec) 
Heartbeat CPU  0 instructions:  536000000 cycles: 12148329825 heartbeat IPC: 0.02925 cumulative IPC: 0.03621 (Simulation time: 1 hr 33 min 11 sec) 
Heartbeat CPU  0 instructions:  537000000 cycles: 12179659189 heartbeat IPC: 0.03192 cumulative IPC: 0.03620 (Simulation time: 1 hr 33 min 24 sec) 
Heartbeat CPU  0 instructions:  538000001 cycles: 12209605230 heartbeat IPC: 0.03339 cumulative IPC: 0.03620 (Simulation time: 1 hr 33 min 36 sec) 
Heartbeat CPU  0 instructions:  539000000 cycles: 12236977843 heartbeat IPC: 0.03653 cumulative IPC: 0.03620 (Simulation time: 1 hr 33 min 48 sec) 
Heartbeat CPU  0 instructions:  540000000 cycles: 12268169989 heartbeat IPC: 0.03206 cumulative IPC: 0.03619 (Simulation time: 1 hr 34 min 1 sec) 
Heartbeat CPU  0 instructions:  541000000 cycles: 12300647809 heartbeat IPC: 0.03079 cumulative IPC: 0.03617 (Simulation time: 1 hr 34 min 15 sec) 
Heartbeat CPU  0 instructions:  542000003 cycles: 12338446885 heartbeat IPC: 0.02646 cumulative IPC: 0.03614 (Simulation time: 1 hr 34 min 32 sec) 
Heartbeat CPU  0 instructions:  543000002 cycles: 12372959065 heartbeat IPC: 0.02898 cumulative IPC: 0.03612 (Simulation time: 1 hr 34 min 48 sec) 
Heartbeat CPU  0 instructions:  544000000 cycles: 12389276648 heartbeat IPC: 0.06128 cumulative IPC: 0.03616 (Simulation time: 1 hr 34 min 55 sec) 
Heartbeat CPU  0 instructions:  545000001 cycles: 12401279027 heartbeat IPC: 0.08332 cumulative IPC: 0.03620 (Simulation time: 1 hr 35 min 1 sec) 
Heartbeat CPU  0 instructions:  546000000 cycles: 12413894417 heartbeat IPC: 0.07927 cumulative IPC: 0.03625 (Simulation time: 1 hr 35 min 7 sec) 
Heartbeat CPU  0 instructions:  547000002 cycles: 12454734283 heartbeat IPC: 0.02449 cumulative IPC: 0.03621 (Simulation time: 1 hr 35 min 26 sec) 
Heartbeat CPU  0 instructions:  548000000 cycles: 12474810663 heartbeat IPC: 0.04981 cumulative IPC: 0.03623 (Simulation time: 1 hr 35 min 36 sec) 
Heartbeat CPU  0 instructions:  549000000 cycles: 12488839395 heartbeat IPC: 0.07128 cumulative IPC: 0.03627 (Simulation time: 1 hr 35 min 43 sec) 
Heartbeat CPU  0 instructions:  550000000 cycles: 12501531108 heartbeat IPC: 0.07879 cumulative IPC: 0.03631 (Simulation time: 1 hr 35 min 49 sec) 
Heartbeat CPU  0 instructions:  551000000 cycles: 12523748297 heartbeat IPC: 0.04501 cumulative IPC: 0.03633 (Simulation time: 1 hr 35 min 59 sec) 
Heartbeat CPU  0 instructions:  552000000 cycles: 12563402228 heartbeat IPC: 0.02522 cumulative IPC: 0.03629 (Simulation time: 1 hr 36 min 18 sec) 
Heartbeat CPU  0 instructions:  553000000 cycles: 12577686718 heartbeat IPC: 0.07001 cumulative IPC: 0.03633 (Simulation time: 1 hr 36 min 24 sec) 
Heartbeat CPU  0 instructions:  554000000 cycles: 12592865913 heartbeat IPC: 0.06588 cumulative IPC: 0.03637 (Simulation time: 1 hr 36 min 31 sec) 
Heartbeat CPU  0 instructions:  555000000 cycles: 12624455483 heartbeat IPC: 0.03166 cumulative IPC: 0.03635 (Simulation time: 1 hr 36 min 46 sec) 
Heartbeat CPU  0 instructions:  556000000 cycles: 12657779826 heartbeat IPC: 0.03001 cumulative IPC: 0.03634 (Simulation time: 1 hr 37 min 1 sec) 
Heartbeat CPU  0 instructions:  557000000 cycles: 12674014044 heartbeat IPC: 0.06160 cumulative IPC: 0.03637 (Simulation time: 1 hr 37 min 8 sec) 
Heartbeat CPU  0 instructions:  558000000 cycles: 12689518253 heartbeat IPC: 0.06450 cumulative IPC: 0.03641 (Simulation time: 1 hr 37 min 15 sec) 
Heartbeat CPU  0 instructions:  559000000 cycles: 12726504445 heartbeat IPC: 0.02704 cumulative IPC: 0.03638 (Simulation time: 1 hr 37 min 32 sec) 
Heartbeat CPU  0 instructions:  560000000 cycles: 12749374055 heartbeat IPC: 0.04373 cumulative IPC: 0.03639 (Simulation time: 1 hr 37 min 43 sec) 
Heartbeat CPU  0 instructions:  561000001 cycles: 12762418796 heartbeat IPC: 0.07666 cumulative IPC: 0.03643 (Simulation time: 1 hr 37 min 50 sec) 
Heartbeat CPU  0 instructions:  562000003 cycles: 12778576643 heartbeat IPC: 0.06189 cumulative IPC: 0.03647 (Simulation time: 1 hr 37 min 57 sec) 
Heartbeat CPU  0 instructions:  563000002 cycles: 12816339844 heartbeat IPC: 0.02648 cumulative IPC: 0.03644 (Simulation time: 1 hr 38 min 16 sec) 
Heartbeat CPU  0 instructions:  564000000 cycles: 12841602726 heartbeat IPC: 0.03958 cumulative IPC: 0.03644 (Simulation time: 1 hr 38 min 29 sec) 
Heartbeat CPU  0 instructions:  565000000 cycles: 12857928456 heartbeat IPC: 0.06125 cumulative IPC: 0.03647 (Simulation time: 1 hr 38 min 37 sec) 
Heartbeat CPU  0 instructions:  566000002 cycles: 12880113253 heartbeat IPC: 0.04508 cumulative IPC: 0.03649 (Simulation time: 1 hr 38 min 48 sec) 
Heartbeat CPU  0 instructions:  567000000 cycles: 12923013270 heartbeat IPC: 0.02331 cumulative IPC: 0.03644 (Simulation time: 1 hr 39 min 8 sec) 
Heartbeat CPU  0 instructions:  568000000 cycles: 12939879649 heartbeat IPC: 0.05929 cumulative IPC: 0.03647 (Simulation time: 1 hr 39 min 15 sec) 
Heartbeat CPU  0 instructions:  569000001 cycles: 12956534066 heartbeat IPC: 0.06004 cumulative IPC: 0.03650 (Simulation time: 1 hr 39 min 23 sec) 
Heartbeat CPU  0 instructions:  570000003 cycles: 12990588608 heartbeat IPC: 0.02936 cumulative IPC: 0.03649 (Simulation time: 1 hr 39 min 39 sec) 
Heartbeat CPU  0 instructions:  571000000 cycles: 13020144244 heartbeat IPC: 0.03383 cumulative IPC: 0.03648 (Simulation time: 1 hr 39 min 52 sec) 
Heartbeat CPU  0 instructions:  572000000 cycles: 13034468484 heartbeat IPC: 0.06981 cumulative IPC: 0.03652 (Simulation time: 1 hr 39 min 59 sec) 
Heartbeat CPU  0 instructions:  573000001 cycles: 13049953868 heartbeat IPC: 0.06458 cumulative IPC: 0.03655 (Simulation time: 1 hr 40 min 7 sec) 
Heartbeat CPU  0 instructions:  574000000 cycles: 13097884750 heartbeat IPC: 0.02086 cumulative IPC: 0.03649 (Simulation time: 1 hr 40 min 29 sec) 
Heartbeat CPU  0 instructions:  575000000 cycles: 13112495944 heartbeat IPC: 0.06844 cumulative IPC: 0.03653 (Simulation time: 1 hr 40 min 36 sec) 
Heartbeat CPU  0 instructions:  576000000 cycles: 13127655842 heartbeat IPC: 0.06596 cumulative IPC: 0.03656 (Simulation time: 1 hr 40 min 43 sec) 
Heartbeat CPU  0 instructions:  577000001 cycles: 13154922353 heartbeat IPC: 0.03668 cumulative IPC: 0.03656 (Simulation time: 1 hr 40 min 55 sec) 
Heartbeat CPU  0 instructions:  578000000 cycles: 13191135248 heartbeat IPC: 0.02761 cumulative IPC: 0.03654 (Simulation time: 1 hr 41 min 12 sec) 
Heartbeat CPU  0 instructions:  579000000 cycles: 13206256131 heartbeat IPC: 0.06613 cumulative IPC: 0.03657 (Simulation time: 1 hr 41 min 19 sec) 
Heartbeat CPU  0 instructions:  580000000 cycles: 13221482372 heartbeat IPC: 0.06568 cumulative IPC: 0.03661 (Simulation time: 1 hr 41 min 26 sec) 
Heartbeat CPU  0 instructions:  581000002 cycles: 13266051994 heartbeat IPC: 0.02244 cumulative IPC: 0.03656 (Simulation time: 1 hr 41 min 47 sec) 
Heartbeat CPU  0 instructions:  582000003 cycles: 13284756813 heartbeat IPC: 0.05346 cumulative IPC: 0.03658 (Simulation time: 1 hr 41 min 56 sec) 
Heartbeat CPU  0 instructions:  583000003 cycles: 13300192062 heartbeat IPC: 0.06479 cumulative IPC: 0.03662 (Simulation time: 1 hr 42 min 3 sec) 
Heartbeat CPU  0 instructions:  584000000 cycles: 13324304077 heartbeat IPC: 0.04147 cumulative IPC: 0.03662 (Simulation time: 1 hr 42 min 15 sec) 
Heartbeat CPU  0 instructions:  585000000 cycles: 13364385414 heartbeat IPC: 0.02495 cumulative IPC: 0.03659 (Simulation time: 1 hr 42 min 33 sec) 
Heartbeat CPU  0 instructions:  586000001 cycles: 13378681310 heartbeat IPC: 0.06995 cumulative IPC: 0.03662 (Simulation time: 1 hr 42 min 40 sec) 
Heartbeat CPU  0 instructions:  587000000 cycles: 13393776295 heartbeat IPC: 0.06625 cumulative IPC: 0.03666 (Simulation time: 1 hr 42 min 47 sec) 
Heartbeat CPU  0 instructions:  588000000 cycles: 13435623199 heartbeat IPC: 0.02390 cumulative IPC: 0.03662 (Simulation time: 1 hr 43 min 7 sec) 
Heartbeat CPU  0 instructions:  589000000 cycles: 13456200061 heartbeat IPC: 0.04860 cumulative IPC: 0.03664 (Simulation time: 1 hr 43 min 17 sec) 
Heartbeat CPU  0 instructions:  590000001 cycles: 13470899421 heartbeat IPC: 0.06803 cumulative IPC: 0.03667 (Simulation time: 1 hr 43 min 24 sec) 
Heartbeat CPU  0 instructions:  591000003 cycles: 13493797824 heartbeat IPC: 0.04367 cumulative IPC: 0.03668 (Simulation time: 1 hr 43 min 35 sec) 
Heartbeat CPU  0 instructions:  592000000 cycles: 13534547362 heartbeat IPC: 0.02454 cumulative IPC: 0.03665 (Simulation time: 1 hr 43 min 54 sec) 
Heartbeat CPU  0 instructions:  593000000 cycles: 13548744792 heartbeat IPC: 0.07044 cumulative IPC: 0.03668 (Simulation time: 1 hr 44 min 1 sec) 
Heartbeat CPU  0 instructions:  594000001 cycles: 13563749281 heartbeat IPC: 0.06665 cumulative IPC: 0.03672 (Simulation time: 1 hr 44 min 8 sec) 
Heartbeat CPU  0 instructions:  595000003 cycles: 13604699180 heartbeat IPC: 0.02442 cumulative IPC: 0.03668 (Simulation time: 1 hr 44 min 27 sec) 
Heartbeat CPU  0 instructions:  596000000 cycles: 13626070019 heartbeat IPC: 0.04679 cumulative IPC: 0.03669 (Simulation time: 1 hr 44 min 37 sec) 
Heartbeat CPU  0 instructions:  597000000 cycles: 13639855649 heartbeat IPC: 0.07254 cumulative IPC: 0.03673 (Simulation time: 1 hr 44 min 44 sec) 
Heartbeat CPU  0 instructions:  598000001 cycles: 13659022394 heartbeat IPC: 0.05217 cumulative IPC: 0.03675 (Simulation time: 1 hr 44 min 54 sec) 
Heartbeat CPU  0 instructions:  599000000 cycles: 13703259443 heartbeat IPC: 0.02261 cumulative IPC: 0.03671 (Simulation time: 1 hr 45 min 15 sec) 
Heartbeat CPU  0 instructions:  600000000 cycles: 13716250425 heartbeat IPC: 0.07698 cumulative IPC: 0.03674 (Simulation time: 1 hr 45 min 21 sec) 
Finished CPU 0 instructions: 500000000 cycles: 13607333776 cumulative IPC: 0.03674 (Simulation time: 1 hr 45 min 21 sec) 

ChampSim completed all CPUs

[ROI Statistics]
Core_0_instructions 500000000
Core_0_cycles 13607333776
Core_0_IPC 0.03674

Core_0_branch_prediction_accuracy 93.42004
Core_0_branch_MPKI 15.82262
Core_0_average_ROB_occupancy_at_mispredict 59.24001

Core_0_L1D_total_access 121583217
Core_0_L1D_total_hit 56875607
Core_0_L1D_total_miss 64707610
Core_0_L1D_loads 106013889
Core_0_L1D_load_hit 42139077
Core_0_L1D_load_miss 63874812
Core_0_L1D_RFOs 15569328
Core_0_L1D_RFO_hit 14736530
Core_0_L1D_RFO_miss 832798
Core_0_L1D_prefetches 0
Core_0_L1D_prefetch_hit 0
Core_0_L1D_prefetch_miss 0
Core_0_L1D_writebacks 0
Core_0_L1D_writeback_hit 0
Core_0_L1D_writeback_miss 0
Core_0_L1D_prefetch_requested 0
Core_0_L1D_prefetch_dropped 0
Core_0_L1D_prefetch_issued 0
Core_0_L1D_prefetch_filled 0
Core_0_L1D_prefetch_useful 0
Core_0_L1D_prefetch_useless 0
Core_0_L1D_prefetch_late 0
Core_0_L1D_average_miss_latency 402.31801

Core_0_L1D_rq_access 161127657
Core_0_L1D_rq_forward 0
Core_0_L1D_rq_merged 54714008
Core_0_L1D_rq_to_cache 106413649
Core_0_L1D_rq_full 0

Core_0_L1D_wq_access 16623469
Core_0_L1D_wq_forward 0
Core_0_L1D_wq_merged 945349
Core_0_L1D_wq_to_cache 15678120
Core_0_L1D_wq_full 0

Core_0_L1D_pq_access 0
Core_0_L1D_pq_forward 0
Core_0_L1D_pq_merged 0
Core_0_L1D_pq_to_cache 0
Core_0_L1D_pq_full 0

Core_0_L1D_acc_epochs 12983765
Core_0_L1D_acc_level_0 12983765
Core_0_L1D_acc_level_1 0
Core_0_L1D_acc_level_2 0
Core_0_L1D_acc_level_3 0
Core_0_L1D_acc_level_4 0
Core_0_L1D_acc_level_5 0
Core_0_L1D_acc_level_6 0
Core_0_L1D_acc_level_7 0
Core_0_L1D_acc_level_8 0
Core_0_L1D_acc_level_9 0

Core_0_L1I_total_access 103879029
Core_0_L1I_total_hit 103879029
Core_0_L1I_total_miss 0
Core_0_L1I_loads 103879029
Core_0_L1I_load_hit 103879029
Core_0_L1I_load_miss 0
Core_0_L1I_RFOs 0
Core_0_L1I_RFO_hit 0
Core_0_L1I_RFO_miss 0
Core_0_L1I_prefetches 0
Core_0_L1I_prefetch_hit 0
Core_0_L1I_prefetch_miss 0
Core_0_L1I_writebacks 0
Core_0_L1I_writeback_hit 0
Core_0_L1I_writeback_miss 0
Core_0_L1I_prefetch_requested 0
Core_0_L1I_prefetch_dropped 0
Core_0_L1I_prefetch_issued 0
Core_0_L1I_prefetch_filled 0
Core_0_L1I_prefetch_useful 0
Core_0_L1I_prefetch_useless 0
Core_0_L1I_prefetch_late 0
Core_0_L1I_average_miss_latency -nan

Core_0_L1I_rq_access 500000052
Core_0_L1I_rq_forward 0
Core_0_L1I_rq_merged 396121023
Core_0_L1I_rq_to_cache 103879029
Core_0_L1I_rq_full 0

Core_0_L1I_wq_access 0
Core_0_L1I_wq_forward 0
Core_0_L1I_wq_merged 0
Core_0_L1I_wq_to_cache 0
Core_0_L1I_wq_full 0

Core_0_L1I_pq_access 0
Core_0_L1I_pq_forward 0
Core_0_L1I_pq_merged 0
Core_0_L1I_pq_to_cache 0
Core_0_L1I_pq_full 0

Core_0_L1I_acc_epochs 12983765
Core_0_L1I_acc_level_0 12983765
Core_0_L1I_acc_level_1 0
Core_0_L1I_acc_level_2 0
Core_0_L1I_acc_level_3 0
Core_0_L1I_acc_level_4 0
Core_0_L1I_acc_level_5 0
Core_0_L1I_acc_level_6 0
Core_0_L1I_acc_level_7 0
Core_0_L1I_acc_level_8 0
Core_0_L1I_acc_level_9 0

Core_0_L2C_total_access 117172128
Core_0_L2C_total_hit 61428857
Core_0_L2C_total_miss 55743271
Core_0_L2C_loads 63874500
Core_0_L2C_load_hit 17106825
Core_0_L2C_load_miss 46767675
Core_0_L2C_RFOs 832791
Core_0_L2C_RFO_hit 291361
Core_0_L2C_RFO_miss 541430
Core_0_L2C_prefetches 43772905
Core_0_L2C_prefetch_hit 35347673
Core_0_L2C_prefetch_miss 8425232
Core_0_L2C_writebacks 8691932
Core_0_L2C_writeback_hit 8682998
Core_0_L2C_writeback_miss 8934
Core_0_L2C_prefetch_requested 555345972
Core_0_L2C_prefetch_dropped 0
Core_0_L2C_prefetch_issued 555345972
Core_0_L2C_prefetch_filled 10106469
Core_0_L2C_prefetch_useful 2635713
Core_0_L2C_prefetch_useless 7470422
Core_0_L2C_prefetch_late 53272
Core_0_L2C_average_miss_latency 517.84468

Core_0_L2C_rq_access 64707610
Core_0_L2C_rq_forward 0
Core_0_L2C_rq_merged 0
Core_0_L2C_rq_to_cache 64707291
Core_0_L2C_rq_full 0

Core_0_L2C_wq_access 8691932
Core_0_L2C_wq_forward 379
Core_0_L2C_wq_merged 0
Core_0_L2C_wq_to_cache 8691932
Core_0_L2C_wq_full 0

Core_0_L2C_pq_access 555345972
Core_0_L2C_pq_forward 0
Core_0_L2C_pq_merged 10
Core_0_L2C_pq_to_cache 555345902
Core_0_L2C_pq_full 0

Core_0_L2C_acc_epochs 12983765
Core_0_L2C_acc_level_0 11418722
Core_0_L2C_acc_level_1 530478
Core_0_L2C_acc_level_2 387732
Core_0_L2C_acc_level_3 118933
Core_0_L2C_acc_level_4 45054
Core_0_L2C_acc_level_5 262320
Core_0_L2C_acc_level_6 45264
Core_0_L2C_acc_level_7 35633
Core_0_L2C_acc_level_8 18811
Core_0_L2C_acc_level_9 120818

Core_0_LLC_total_access 504492327
Core_0_LLC_total_hit 294101357
Core_0_LLC_total_miss 210390970
Core_0_LLC_loads 46717000
Core_0_LLC_load_hit 18947224
Core_0_LLC_load_miss 27769776
Core_0_LLC_RFOs 541423
Core_0_LLC_RFO_hit 384063
Core_0_LLC_RFO_miss 157360
Core_0_LLC_prefetches 450701219
Core_0_LLC_prefetch_hit 270030139
Core_0_LLC_prefetch_miss 180671080
Core_0_LLC_writebacks 6532685
Core_0_LLC_writeback_hit 4739931
Core_0_LLC_writeback_miss 1792754
Core_0_LLC_prefetch_requested 0
Core_0_LLC_prefetch_dropped 0
Core_0_LLC_prefetch_issued 0
Core_0_LLC_prefetch_filled 204256682
Core_0_LLC_prefetch_useful 15053680
Core_0_LLC_prefetch_useless 189177745
Core_0_LLC_prefetch_late 126646
Core_0_LLC_average_miss_latency 1109.50739

Core_0_LLC_rq_access 47258480
Core_0_LLC_rq_forward 0
Core_0_LLC_rq_merged 0
Core_0_LLC_rq_to_cache 47258423
Core_0_LLC_rq_full 0

Core_0_LLC_wq_access 6532685
Core_0_LLC_wq_forward 136
Core_0_LLC_wq_merged 0
Core_0_LLC_wq_to_cache 6532685
Core_0_LLC_wq_full 0

Core_0_LLC_pq_access 513439067
Core_0_LLC_pq_forward 0
Core_0_LLC_pq_merged 0
Core_0_LLC_pq_to_cache 513438985
Core_0_LLC_pq_full 0

Core_0_LLC_acc_epochs 13394776
Core_0_LLC_acc_level_0 9019228
Core_0_LLC_acc_level_1 2741510
Core_0_LLC_acc_level_2 848356
Core_0_LLC_acc_level_3 328543
Core_0_LLC_acc_level_4 121973
Core_0_LLC_acc_level_5 136388
Core_0_LLC_acc_level_6 43803
Core_0_LLC_acc_level_7 32040
Core_0_LLC_acc_level_8 20236
Core_0_LLC_acc_level_9 102699

Core_0_major_page_fault 0
Core_0_minor_page_fault 289215

[Bingo] PHT Access: 59238214
[Bingo] PHT Hit PC+Addr: 6750278
[Bingo] PHT Hit PC+Offs: 35353713
[Bingo] PHT Miss: 17134223
[Bingo] Prefetch PC+Addr: 0
[Bingo] Prefetch PC+Offs: 0
[Bingo] Useful PC+Addr: 0
[Bingo] Useful PC+Offs: 0
[Bingo] Useless PC+Addr: 0
[Bingo] Useless PC+Offs: 0
[Bingo] L1 Prefetch per Region: 0.00000
[Bingo] L2 Prefetch per Region: 1.51156
[Bingo] L3 Prefetch per Region: 14.39681
[Bingo] No Prefetch per Region: 16.09163
[Bingo] Number of Voters Mean: 13.02045
[Bingo] Number of Voters SD: 4.50676

Channel_0_RQ_row_buffer_hit 95675283
Channel_0_RQ_row_buffer_miss 112883085
Channel_0_WQ_row_buffer_hit 863910
Channel_0_WQ_row_buffer_miss 4980892
Channel_0_WQ_full 0
Channel_0_dbus_congested 196032087

avg_congested_cycle 50

DRAM_bw_pochs 53579104
DRAM_bw_level_0 13887270
DRAM_bw_level_1 5322560
DRAM_bw_level_2 4480736
DRAM_bw_level_3 29888538
