*************************************************
   ChampSim Multicore Out-of-Order Simulator
   Last compiled: Dec 11 2024 17:59:53
*************************************************
parsing config file: /home/functionmain/桌面/Pythia/config/bingo.ini

trace_0 /home/functionmain/桌面/Pythia/traces/429.mcf-51B.champsimtrace.xz
adding L2C_PREFETCHER: Bingo
Initialize SHIP state
warmup_instructions 100000000
simulation_instructions 500000000
champsim_seed 168
measure_ipc 0
measure_ipc_epoch 1000
measure_dram_bw 1
measure_dram_bw_epoch 256
measure_cache_acc 1
measure_cache_acc_epoch 1024
l1d_perfect 0
l2c_perfect 0
llc_perfect 0
l1d_semi_perfect 0
l2c_semi_perfect 0
llc_semi_perfect 0
semi_perfect_cache_page_buffer_size 64

num_cpus 1
cpu_freq 4000
dram_io_freq 1200
page_size 4096
block_size 64
max_read_per_cycle 8
max_fill_per_cycle 1
dram_channels 1
log2_dram_channels 0
dram_ranks 1
dram_banks 8
dram_rows 65536
dram_columns 128
dram_row_size 8
dram_size 4096
dram_pages 1048576

fetch_width 6
decode_width 6
exec_width 4
lq_width 2
sq_width 2
retire_width 4
scheduler_size 128
branch_mispredict_penalty 20
rob_size 256
lq_size 72
sq_size 56
num_instr_destinations_sparc 4
num_instr_destinations 2
num_instr_sources 4

itlb_set 16
itlb_way 8
itlb_rq_size 16
itlb_wq_size 16
itlb_pq_size 0
itlb_mshr_size 8
itlb_latency 1

dtlb_set 16
dtlb_way 4
dtlb_rq_size 16
dtlb_wq_size 16
dtlb_pq_size 0
dtlb_mshr_size 8
dtlb_latency 1

stlb_set 128
stlb_way 12
stlb_rq_size 32
stlb_wq_size 32
stlb_pq_size 0
stlb_mshr_size 16
stlb_latency 8

l1i_size 32
l1i_set 64
l1i_way 8
l1i_rq_size 64
l1i_wq_size 64
l1i_pq_size 8
l1i_mshr_size 8
l1i_latency 1

l1d_size 32
l1d_set 64
l1d_way 8
l1d_rq_size 64
l1d_wq_size 64
l1d_pq_size 8
l1d_mshr_size 16
l1d_latency 4

l2c_size 256
l2c_set 512
l2c_way 8
l2c_rq_size 32
l2c_wq_size 32
l2c_pq_size 32
l2c_mshr_size 32
l2c_latency 10

llc_size 2048
llc_set 2048
llc_way 16
llc_rq_size 32
llc_wq_size 32
llc_pq_size 32
llc_mshr_size 64
llc_latency 20

dram_channel_width 8
dram_wq_size 64
dram_rq_size 64
tRP 15
tRCD 15
tCAS 12.5
dram_dbus_turn_around_time 30
dram_write_high_wm 56
dram_write_low_wm 48
min_dram_writes_per_switch 16
dram_mtps 1200
dram_dbus_return_time 26

bingo_region_size 2048
bingo_pattern_len 32
bingo_pc_width 16
bingo_min_addr_width 5
bingo_max_addr_width 16
bingo_ft_size 64
bingo_at_size 128
bingo_pht_size 4096
bingo_pht_ways 16
bingo_pf_streamer_size 128
bingo_debug_level 0
bingo_l1d_thresh 1.01
bingo_l2c_thresh 0.8
bingo_llc_thresh 0.05
bingo_pc_address_fill_level L2


Heartbeat CPU  0 instructions:    1000002 cycles:     854827 heartbeat IPC: 1.16983 cumulative IPC: 1.16983 (Simulation time: 0 hr 0 min 2 sec) 
Heartbeat CPU  0 instructions:    2000000 cycles:    1627817 heartbeat IPC: 1.29368 cumulative IPC: 1.22864 (Simulation time: 0 hr 0 min 5 sec) 
Heartbeat CPU  0 instructions:    3000002 cycles:    2418980 heartbeat IPC: 1.26396 cumulative IPC: 1.24019 (Simulation time: 0 hr 0 min 8 sec) 
Heartbeat CPU  0 instructions:    4000000 cycles:    3238640 heartbeat IPC: 1.22002 cumulative IPC: 1.23509 (Simulation time: 0 hr 0 min 10 sec) 
Heartbeat CPU  0 instructions:    5000002 cycles:    4020074 heartbeat IPC: 1.27970 cumulative IPC: 1.24376 (Simulation time: 0 hr 0 min 12 sec) 
Heartbeat CPU  0 instructions:    6000001 cycles:    4787592 heartbeat IPC: 1.30290 cumulative IPC: 1.25324 (Simulation time: 0 hr 0 min 15 sec) 
Heartbeat CPU  0 instructions:    7000000 cycles:    5565417 heartbeat IPC: 1.28563 cumulative IPC: 1.25777 (Simulation time: 0 hr 0 min 17 sec) 
Heartbeat CPU  0 instructions:    8000000 cycles:    6414207 heartbeat IPC: 1.17815 cumulative IPC: 1.24723 (Simulation time: 0 hr 0 min 19 sec) 
Heartbeat CPU  0 instructions:    9000001 cycles:    7205821 heartbeat IPC: 1.26324 cumulative IPC: 1.24899 (Simulation time: 0 hr 0 min 22 sec) 
Heartbeat CPU  0 instructions:   10000000 cycles:    8006913 heartbeat IPC: 1.24829 cumulative IPC: 1.24892 (Simulation time: 0 hr 0 min 25 sec) 
Heartbeat CPU  0 instructions:   11000002 cycles:    8855004 heartbeat IPC: 1.17912 cumulative IPC: 1.24224 (Simulation time: 0 hr 0 min 27 sec) 
Heartbeat CPU  0 instructions:   12000000 cycles:    9706505 heartbeat IPC: 1.17439 cumulative IPC: 1.23628 (Simulation time: 0 hr 0 min 29 sec) 
Heartbeat CPU  0 instructions:   13000000 cycles:   10515738 heartbeat IPC: 1.23574 cumulative IPC: 1.23624 (Simulation time: 0 hr 0 min 32 sec) 
Heartbeat CPU  0 instructions:   14000002 cycles:   11285509 heartbeat IPC: 1.29909 cumulative IPC: 1.24053 (Simulation time: 0 hr 0 min 35 sec) 
Heartbeat CPU  0 instructions:   15000001 cycles:   12060081 heartbeat IPC: 1.29103 cumulative IPC: 1.24377 (Simulation time: 0 hr 0 min 37 sec) 
Heartbeat CPU  0 instructions:   16000000 cycles:   12852306 heartbeat IPC: 1.26227 cumulative IPC: 1.24491 (Simulation time: 0 hr 0 min 39 sec) 
Heartbeat CPU  0 instructions:   17000000 cycles:   13655264 heartbeat IPC: 1.24540 cumulative IPC: 1.24494 (Simulation time: 0 hr 0 min 42 sec) 
Heartbeat CPU  0 instructions:   18000002 cycles:   14430063 heartbeat IPC: 1.29066 cumulative IPC: 1.24740 (Simulation time: 0 hr 0 min 44 sec) 
Heartbeat CPU  0 instructions:   19000000 cycles:   15253761 heartbeat IPC: 1.21403 cumulative IPC: 1.24559 (Simulation time: 0 hr 0 min 47 sec) 
Heartbeat CPU  0 instructions:   20000000 cycles:   16096698 heartbeat IPC: 1.18633 cumulative IPC: 1.24249 (Simulation time: 0 hr 0 min 49 sec) 
Heartbeat CPU  0 instructions:   21000001 cycles:   16891813 heartbeat IPC: 1.25768 cumulative IPC: 1.24321 (Simulation time: 0 hr 0 min 52 sec) 
Heartbeat CPU  0 instructions:   22000000 cycles:   17682121 heartbeat IPC: 1.26533 cumulative IPC: 1.24419 (Simulation time: 0 hr 0 min 54 sec) 
Heartbeat CPU  0 instructions:   23000001 cycles:   18490415 heartbeat IPC: 1.23717 cumulative IPC: 1.24389 (Simulation time: 0 hr 0 min 56 sec) 
Heartbeat CPU  0 instructions:   24000000 cycles:   19285985 heartbeat IPC: 1.25696 cumulative IPC: 1.24443 (Simulation time: 0 hr 0 min 58 sec) 
Heartbeat CPU  0 instructions:   25000003 cycles:   20087679 heartbeat IPC: 1.24736 cumulative IPC: 1.24454 (Simulation time: 0 hr 1 min 1 sec) 
Heartbeat CPU  0 instructions:   26000002 cycles:   20891541 heartbeat IPC: 1.24399 cumulative IPC: 1.24452 (Simulation time: 0 hr 1 min 4 sec) 
Heartbeat CPU  0 instructions:   27000000 cycles:   21705847 heartbeat IPC: 1.22804 cumulative IPC: 1.24390 (Simulation time: 0 hr 1 min 6 sec) 
Heartbeat CPU  0 instructions:   28000000 cycles:   22552298 heartbeat IPC: 1.18140 cumulative IPC: 1.24156 (Simulation time: 0 hr 1 min 8 sec) 
Heartbeat CPU  0 instructions:   29000000 cycles:   23325415 heartbeat IPC: 1.29347 cumulative IPC: 1.24328 (Simulation time: 0 hr 1 min 11 sec) 
Heartbeat CPU  0 instructions:   30000000 cycles:   24146221 heartbeat IPC: 1.21831 cumulative IPC: 1.24243 (Simulation time: 0 hr 1 min 13 sec) 
Heartbeat CPU  0 instructions:   31000002 cycles:   25005916 heartbeat IPC: 1.16321 cumulative IPC: 1.23971 (Simulation time: 0 hr 1 min 16 sec) 
Heartbeat CPU  0 instructions:   32000000 cycles:   25869416 heartbeat IPC: 1.15808 cumulative IPC: 1.23698 (Simulation time: 0 hr 1 min 18 sec) 
Heartbeat CPU  0 instructions:   33000002 cycles:   26625615 heartbeat IPC: 1.32241 cumulative IPC: 1.23941 (Simulation time: 0 hr 1 min 21 sec) 
Heartbeat CPU  0 instructions:   34000003 cycles:   27486984 heartbeat IPC: 1.16094 cumulative IPC: 1.23695 (Simulation time: 0 hr 1 min 23 sec) 
Heartbeat CPU  0 instructions:   35000001 cycles:   28345393 heartbeat IPC: 1.16494 cumulative IPC: 1.23477 (Simulation time: 0 hr 1 min 25 sec) 
Heartbeat CPU  0 instructions:   36000000 cycles:   29169311 heartbeat IPC: 1.21371 cumulative IPC: 1.23417 (Simulation time: 0 hr 1 min 28 sec) 
Heartbeat CPU  0 instructions:   37000003 cycles:   29940473 heartbeat IPC: 1.29675 cumulative IPC: 1.23579 (Simulation time: 0 hr 1 min 31 sec) 
Heartbeat CPU  0 instructions:   38000003 cycles:   30746442 heartbeat IPC: 1.24074 cumulative IPC: 1.23592 (Simulation time: 0 hr 1 min 33 sec) 
Heartbeat CPU  0 instructions:   39000000 cycles:   31467321 heartbeat IPC: 1.38719 cumulative IPC: 1.23938 (Simulation time: 0 hr 1 min 35 sec) 
Heartbeat CPU  0 instructions:   40000000 cycles:   32174319 heartbeat IPC: 1.41443 cumulative IPC: 1.24323 (Simulation time: 0 hr 1 min 38 sec) 
Heartbeat CPU  0 instructions:   41000003 cycles:   32925973 heartbeat IPC: 1.33040 cumulative IPC: 1.24522 (Simulation time: 0 hr 1 min 41 sec) 
Heartbeat CPU  0 instructions:   42000001 cycles:   33607193 heartbeat IPC: 1.46795 cumulative IPC: 1.24973 (Simulation time: 0 hr 1 min 43 sec) 
Heartbeat CPU  0 instructions:   43000000 cycles:   34297904 heartbeat IPC: 1.44778 cumulative IPC: 1.25372 (Simulation time: 0 hr 1 min 45 sec) 
Heartbeat CPU  0 instructions:   44000000 cycles:   35042731 heartbeat IPC: 1.34259 cumulative IPC: 1.25561 (Simulation time: 0 hr 1 min 47 sec) 
Heartbeat CPU  0 instructions:   45000000 cycles:   35893701 heartbeat IPC: 1.17513 cumulative IPC: 1.25370 (Simulation time: 0 hr 1 min 51 sec) 
Heartbeat CPU  0 instructions:   46000000 cycles:   36847636 heartbeat IPC: 1.04829 cumulative IPC: 1.24838 (Simulation time: 0 hr 1 min 53 sec) 
Heartbeat CPU  0 instructions:   47000001 cycles:   37875958 heartbeat IPC: 0.97246 cumulative IPC: 1.24089 (Simulation time: 0 hr 1 min 55 sec) 
Heartbeat CPU  0 instructions:   48000000 cycles:   38874278 heartbeat IPC: 1.00168 cumulative IPC: 1.23475 (Simulation time: 0 hr 1 min 57 sec) 
Heartbeat CPU  0 instructions:   49000001 cycles:   39766885 heartbeat IPC: 1.12031 cumulative IPC: 1.23218 (Simulation time: 0 hr 2 min 0 sec) 
Heartbeat CPU  0 instructions:   50000001 cycles:   40621559 heartbeat IPC: 1.17004 cumulative IPC: 1.23087 (Simulation time: 0 hr 2 min 3 sec) 
Heartbeat CPU  0 instructions:   51000002 cycles:   41612570 heartbeat IPC: 1.00907 cumulative IPC: 1.22559 (Simulation time: 0 hr 2 min 5 sec) 
Heartbeat CPU  0 instructions:   52000000 cycles:   42558808 heartbeat IPC: 1.05681 cumulative IPC: 1.22184 (Simulation time: 0 hr 2 min 7 sec) 
Heartbeat CPU  0 instructions:   53000002 cycles:   43455193 heartbeat IPC: 1.11559 cumulative IPC: 1.21965 (Simulation time: 0 hr 2 min 9 sec) 
Heartbeat CPU  0 instructions:   54000002 cycles:   44247374 heartbeat IPC: 1.26234 cumulative IPC: 1.22041 (Simulation time: 0 hr 2 min 12 sec) 
Heartbeat CPU  0 instructions:   55000001 cycles:   45136108 heartbeat IPC: 1.12519 cumulative IPC: 1.21854 (Simulation time: 0 hr 2 min 14 sec) 
Heartbeat CPU  0 instructions:   56000000 cycles:   46097522 heartbeat IPC: 1.04013 cumulative IPC: 1.21482 (Simulation time: 0 hr 2 min 16 sec) 
Heartbeat CPU  0 instructions:   57000001 cycles:   46944168 heartbeat IPC: 1.18113 cumulative IPC: 1.21421 (Simulation time: 0 hr 2 min 18 sec) 
Heartbeat CPU  0 instructions:   58000000 cycles:   47767201 heartbeat IPC: 1.21502 cumulative IPC: 1.21422 (Simulation time: 0 hr 2 min 21 sec) 
Heartbeat CPU  0 instructions:   59000001 cycles:   48546200 heartbeat IPC: 1.28370 cumulative IPC: 1.21534 (Simulation time: 0 hr 2 min 24 sec) 
Heartbeat CPU  0 instructions:   60000000 cycles:   49368242 heartbeat IPC: 1.21648 cumulative IPC: 1.21536 (Simulation time: 0 hr 2 min 26 sec) 
Heartbeat CPU  0 instructions:   61000002 cycles:   50231769 heartbeat IPC: 1.15804 cumulative IPC: 1.21437 (Simulation time: 0 hr 2 min 28 sec) 
Heartbeat CPU  0 instructions:   62000000 cycles:   51044808 heartbeat IPC: 1.22995 cumulative IPC: 1.21462 (Simulation time: 0 hr 2 min 31 sec) 
Heartbeat CPU  0 instructions:   63000001 cycles:   51804620 heartbeat IPC: 1.31612 cumulative IPC: 1.21611 (Simulation time: 0 hr 2 min 34 sec) 
Heartbeat CPU  0 instructions:   64000000 cycles:   52595736 heartbeat IPC: 1.26404 cumulative IPC: 1.21683 (Simulation time: 0 hr 2 min 36 sec) 
Heartbeat CPU  0 instructions:   65000000 cycles:   53391119 heartbeat IPC: 1.25726 cumulative IPC: 1.21743 (Simulation time: 0 hr 2 min 38 sec) 
Heartbeat CPU  0 instructions:   66000002 cycles:   54180730 heartbeat IPC: 1.26645 cumulative IPC: 1.21815 (Simulation time: 0 hr 2 min 41 sec) 
Heartbeat CPU  0 instructions:   67000003 cycles:   55014070 heartbeat IPC: 1.19999 cumulative IPC: 1.21787 (Simulation time: 0 hr 2 min 43 sec) 
Heartbeat CPU  0 instructions:   68000000 cycles:   55933060 heartbeat IPC: 1.08815 cumulative IPC: 1.21574 (Simulation time: 0 hr 2 min 45 sec) 
Heartbeat CPU  0 instructions:   69000000 cycles:   56825175 heartbeat IPC: 1.12093 cumulative IPC: 1.21425 (Simulation time: 0 hr 2 min 48 sec) 
Heartbeat CPU  0 instructions:   70000001 cycles:   57680948 heartbeat IPC: 1.16854 cumulative IPC: 1.21357 (Simulation time: 0 hr 2 min 50 sec) 
Heartbeat CPU  0 instructions:   71000000 cycles:   58490165 heartbeat IPC: 1.23576 cumulative IPC: 1.21388 (Simulation time: 0 hr 2 min 53 sec) 
Heartbeat CPU  0 instructions:   72000000 cycles:   59420281 heartbeat IPC: 1.07513 cumulative IPC: 1.21171 (Simulation time: 0 hr 2 min 55 sec) 
Heartbeat CPU  0 instructions:   73000000 cycles:   60335527 heartbeat IPC: 1.09260 cumulative IPC: 1.20990 (Simulation time: 0 hr 2 min 57 sec) 
Heartbeat CPU  0 instructions:   74000000 cycles:   61185032 heartbeat IPC: 1.17716 cumulative IPC: 1.20945 (Simulation time: 0 hr 3 min 0 sec) 
Heartbeat CPU  0 instructions:   75000002 cycles:   62011130 heartbeat IPC: 1.21051 cumulative IPC: 1.20946 (Simulation time: 0 hr 3 min 3 sec) 
Heartbeat CPU  0 instructions:   76000000 cycles:   62933366 heartbeat IPC: 1.08432 cumulative IPC: 1.20763 (Simulation time: 0 hr 3 min 5 sec) 
Heartbeat CPU  0 instructions:   77000003 cycles:   63863407 heartbeat IPC: 1.07522 cumulative IPC: 1.20570 (Simulation time: 0 hr 3 min 7 sec) 
Heartbeat CPU  0 instructions:   78000000 cycles:   64703253 heartbeat IPC: 1.19069 cumulative IPC: 1.20550 (Simulation time: 0 hr 3 min 10 sec) 
Heartbeat CPU  0 instructions:   79000002 cycles:   65521117 heartbeat IPC: 1.22270 cumulative IPC: 1.20572 (Simulation time: 0 hr 3 min 13 sec) 
Heartbeat CPU  0 instructions:   80000000 cycles:   66396152 heartbeat IPC: 1.14281 cumulative IPC: 1.20489 (Simulation time: 0 hr 3 min 15 sec) 
Heartbeat CPU  0 instructions:   81000001 cycles:   67236297 heartbeat IPC: 1.19027 cumulative IPC: 1.20471 (Simulation time: 0 hr 3 min 17 sec) 
Heartbeat CPU  0 instructions:   82000000 cycles:   68246400 heartbeat IPC: 0.99000 cumulative IPC: 1.20153 (Simulation time: 0 hr 3 min 19 sec) 
Heartbeat CPU  0 instructions:   83000003 cycles:   69007313 heartbeat IPC: 1.31421 cumulative IPC: 1.20277 (Simulation time: 0 hr 3 min 23 sec) 
Heartbeat CPU  0 instructions:   84000000 cycles:   69794254 heartbeat IPC: 1.27074 cumulative IPC: 1.20354 (Simulation time: 0 hr 3 min 25 sec) 
Heartbeat CPU  0 instructions:   85000001 cycles:   70563946 heartbeat IPC: 1.29922 cumulative IPC: 1.20458 (Simulation time: 0 hr 3 min 27 sec) 
Heartbeat CPU  0 instructions:   86000002 cycles:   71338716 heartbeat IPC: 1.29071 cumulative IPC: 1.20552 (Simulation time: 0 hr 3 min 29 sec) 
Heartbeat CPU  0 instructions:   87000000 cycles:   72098688 heartbeat IPC: 1.31584 cumulative IPC: 1.20668 (Simulation time: 0 hr 3 min 32 sec) 
Heartbeat CPU  0 instructions:   88000000 cycles:   72861999 heartbeat IPC: 1.31008 cumulative IPC: 1.20776 (Simulation time: 0 hr 3 min 34 sec) 
Heartbeat CPU  0 instructions:   89000002 cycles:   73621097 heartbeat IPC: 1.31736 cumulative IPC: 1.20889 (Simulation time: 0 hr 3 min 36 sec) 
Heartbeat CPU  0 instructions:   90000001 cycles:   74389748 heartbeat IPC: 1.30098 cumulative IPC: 1.20984 (Simulation time: 0 hr 3 min 39 sec) 
Heartbeat CPU  0 instructions:   91000001 cycles:   75151390 heartbeat IPC: 1.31295 cumulative IPC: 1.21089 (Simulation time: 0 hr 3 min 42 sec) 
Heartbeat CPU  0 instructions:   92000000 cycles:   75893344 heartbeat IPC: 1.34779 cumulative IPC: 1.21223 (Simulation time: 0 hr 3 min 44 sec) 
Heartbeat CPU  0 instructions:   93000000 cycles:   76680057 heartbeat IPC: 1.27111 cumulative IPC: 1.21283 (Simulation time: 0 hr 3 min 46 sec) 
Heartbeat CPU  0 instructions:   94000001 cycles:   77561614 heartbeat IPC: 1.13436 cumulative IPC: 1.21194 (Simulation time: 0 hr 3 min 48 sec) 
Heartbeat CPU  0 instructions:   95000003 cycles:   78341411 heartbeat IPC: 1.28239 cumulative IPC: 1.21264 (Simulation time: 0 hr 3 min 51 sec) 
Heartbeat CPU  0 instructions:   96000000 cycles:   79174623 heartbeat IPC: 1.20017 cumulative IPC: 1.21251 (Simulation time: 0 hr 3 min 54 sec) 
Heartbeat CPU  0 instructions:   97000001 cycles:   79912001 heartbeat IPC: 1.35616 cumulative IPC: 1.21384 (Simulation time: 0 hr 3 min 56 sec) 
Heartbeat CPU  0 instructions:   98000000 cycles:   80628379 heartbeat IPC: 1.39591 cumulative IPC: 1.21545 (Simulation time: 0 hr 3 min 58 sec) 
Heartbeat CPU  0 instructions:   99000000 cycles:   81353897 heartbeat IPC: 1.37833 cumulative IPC: 1.21691 (Simulation time: 0 hr 4 min 1 sec) 
Heartbeat CPU  0 instructions:  100000000 cycles:   82089111 heartbeat IPC: 1.36015 cumulative IPC: 1.21819 (Simulation time: 0 hr 4 min 3 sec) 

Warmup complete CPU  0 instructions:  100000001 cycles:   82089112 (Simulation time: 0 hr 4 min 3 sec) 

Heartbeat CPU  0 instructions:  101000003 cycles:   98718964 heartbeat IPC: 0.06013 cumulative IPC: 0.06013 (Simulation time: 0 hr 4 min 13 sec) 
Heartbeat CPU  0 instructions:  102000002 cycles:  108123401 heartbeat IPC: 0.10633 cumulative IPC: 0.07682 (Simulation time: 0 hr 4 min 18 sec) 
Heartbeat CPU  0 instructions:  103000002 cycles:  116437921 heartbeat IPC: 0.12027 cumulative IPC: 0.08734 (Simulation time: 0 hr 4 min 23 sec) 
Heartbeat CPU  0 instructions:  104000000 cycles:  141894652 heartbeat IPC: 0.03928 cumulative IPC: 0.06688 (Simulation time: 0 hr 4 min 39 sec) 
Heartbeat CPU  0 instructions:  105000001 cycles:  154373912 heartbeat IPC: 0.08013 cumulative IPC: 0.06917 (Simulation time: 0 hr 4 min 47 sec) 
Heartbeat CPU  0 instructions:  106000002 cycles:  163912597 heartbeat IPC: 0.10484 cumulative IPC: 0.07333 (Simulation time: 0 hr 4 min 53 sec) 
Heartbeat CPU  0 instructions:  107000000 cycles:  172711173 heartbeat IPC: 0.11365 cumulative IPC: 0.07724 (Simulation time: 0 hr 4 min 59 sec) 
Heartbeat CPU  0 instructions:  108000000 cycles:  193679125 heartbeat IPC: 0.04769 cumulative IPC: 0.07169 (Simulation time: 0 hr 5 min 13 sec) 
Heartbeat CPU  0 instructions:  109000000 cycles:  210872021 heartbeat IPC: 0.05816 cumulative IPC: 0.06989 (Simulation time: 0 hr 5 min 24 sec) 
Heartbeat CPU  0 instructions:  110000000 cycles:  219136819 heartbeat IPC: 0.12100 cumulative IPC: 0.07297 (Simulation time: 0 hr 5 min 30 sec) 
Heartbeat CPU  0 instructions:  111000002 cycles:  227375275 heartbeat IPC: 0.12138 cumulative IPC: 0.07571 (Simulation time: 0 hr 5 min 36 sec) 
Heartbeat CPU  0 instructions:  112000000 cycles:  243152164 heartbeat IPC: 0.06338 cumulative IPC: 0.07450 (Simulation time: 0 hr 5 min 47 sec) 
Heartbeat CPU  0 instructions:  113000000 cycles:  264953777 heartbeat IPC: 0.04587 cumulative IPC: 0.07109 (Simulation time: 0 hr 6 min 1 sec) 
Heartbeat CPU  0 instructions:  114000003 cycles:  273898477 heartbeat IPC: 0.11180 cumulative IPC: 0.07299 (Simulation time: 0 hr 6 min 7 sec) 
Heartbeat CPU  0 instructions:  115000003 cycles:  283095752 heartbeat IPC: 0.10873 cumulative IPC: 0.07462 (Simulation time: 0 hr 6 min 14 sec) 
Heartbeat CPU  0 instructions:  116000000 cycles:  294132512 heartbeat IPC: 0.09061 cumulative IPC: 0.07546 (Simulation time: 0 hr 6 min 21 sec) 
Heartbeat CPU  0 instructions:  117000002 cycles:  320815590 heartbeat IPC: 0.03748 cumulative IPC: 0.07121 (Simulation time: 0 hr 6 min 38 sec) 
Heartbeat CPU  0 instructions:  118000001 cycles:  329152194 heartbeat IPC: 0.11995 cumulative IPC: 0.07286 (Simulation time: 0 hr 6 min 44 sec) 
Heartbeat CPU  0 instructions:  119000000 cycles:  341910981 heartbeat IPC: 0.07838 cumulative IPC: 0.07313 (Simulation time: 0 hr 6 min 51 sec) 
Heartbeat CPU  0 instructions:  120000000 cycles:  350088060 heartbeat IPC: 0.12229 cumulative IPC: 0.07463 (Simulation time: 0 hr 6 min 57 sec) 
Heartbeat CPU  0 instructions:  121000002 cycles:  367351642 heartbeat IPC: 0.05793 cumulative IPC: 0.07362 (Simulation time: 0 hr 7 min 6 sec) 
Heartbeat CPU  0 instructions:  122000000 cycles:  390408945 heartbeat IPC: 0.04337 cumulative IPC: 0.07135 (Simulation time: 0 hr 7 min 19 sec) 
Heartbeat CPU  0 instructions:  123000000 cycles:  398727719 heartbeat IPC: 0.12021 cumulative IPC: 0.07264 (Simulation time: 0 hr 7 min 25 sec) 
Heartbeat CPU  0 instructions:  124000000 cycles:  406972911 heartbeat IPC: 0.12128 cumulative IPC: 0.07387 (Simulation time: 0 hr 7 min 30 sec) 
Heartbeat CPU  0 instructions:  125000000 cycles:  420073176 heartbeat IPC: 0.07633 cumulative IPC: 0.07397 (Simulation time: 0 hr 7 min 38 sec) 
Heartbeat CPU  0 instructions:  126000000 cycles:  444429159 heartbeat IPC: 0.04106 cumulative IPC: 0.07176 (Simulation time: 0 hr 7 min 52 sec) 
Heartbeat CPU  0 instructions:  127000001 cycles:  453149131 heartbeat IPC: 0.11468 cumulative IPC: 0.07276 (Simulation time: 0 hr 7 min 57 sec) 
Heartbeat CPU  0 instructions:  128000000 cycles:  462186612 heartbeat IPC: 0.11065 cumulative IPC: 0.07367 (Simulation time: 0 hr 8 min 3 sec) 
Heartbeat CPU  0 instructions:  129000001 cycles:  473556940 heartbeat IPC: 0.08795 cumulative IPC: 0.07408 (Simulation time: 0 hr 8 min 10 sec) 
Heartbeat CPU  0 instructions:  130000003 cycles:  499731054 heartbeat IPC: 0.03821 cumulative IPC: 0.07183 (Simulation time: 0 hr 8 min 25 sec) 
Heartbeat CPU  0 instructions:  131000002 cycles:  509052408 heartbeat IPC: 0.10728 cumulative IPC: 0.07261 (Simulation time: 0 hr 8 min 30 sec) 
Heartbeat CPU  0 instructions:  132000000 cycles:  517066563 heartbeat IPC: 0.12478 cumulative IPC: 0.07357 (Simulation time: 0 hr 8 min 35 sec) 
Heartbeat CPU  0 instructions:  133000000 cycles:  525247085 heartbeat IPC: 0.12224 cumulative IPC: 0.07447 (Simulation time: 0 hr 8 min 40 sec) 
Heartbeat CPU  0 instructions:  134000001 cycles:  548931155 heartbeat IPC: 0.04222 cumulative IPC: 0.07283 (Simulation time: 0 hr 8 min 54 sec) 
Heartbeat CPU  0 instructions:  135000000 cycles:  563078164 heartbeat IPC: 0.07069 cumulative IPC: 0.07277 (Simulation time: 0 hr 9 min 2 sec) 
Heartbeat CPU  0 instructions:  136000000 cycles:  571544833 heartbeat IPC: 0.11811 cumulative IPC: 0.07355 (Simulation time: 0 hr 9 min 8 sec) 
Heartbeat CPU  0 instructions:  137000002 cycles:  580135313 heartbeat IPC: 0.11641 cumulative IPC: 0.07429 (Simulation time: 0 hr 9 min 13 sec) 
Heartbeat CPU  0 instructions:  138000001 cycles:  600365043 heartbeat IPC: 0.04943 cumulative IPC: 0.07332 (Simulation time: 0 hr 9 min 25 sec) 
Heartbeat CPU  0 instructions:  139000000 cycles:  618272209 heartbeat IPC: 0.05584 cumulative IPC: 0.07274 (Simulation time: 0 hr 9 min 35 sec) 
Heartbeat CPU  0 instructions:  140000000 cycles:  626793455 heartbeat IPC: 0.11735 cumulative IPC: 0.07343 (Simulation time: 0 hr 9 min 41 sec) 
Heartbeat CPU  0 instructions:  141000000 cycles:  635255351 heartbeat IPC: 0.11818 cumulative IPC: 0.07412 (Simulation time: 0 hr 9 min 46 sec) 
Heartbeat CPU  0 instructions:  142000001 cycles:  653562524 heartbeat IPC: 0.05462 cumulative IPC: 0.07349 (Simulation time: 0 hr 9 min 57 sec) 
Heartbeat CPU  0 instructions:  143000003 cycles:  673541547 heartbeat IPC: 0.05005 cumulative IPC: 0.07270 (Simulation time: 0 hr 10 min 9 sec) 
Heartbeat CPU  0 instructions:  144000000 cycles:  682116133 heartbeat IPC: 0.11662 cumulative IPC: 0.07333 (Simulation time: 0 hr 10 min 14 sec) 
Heartbeat CPU  0 instructions:  145000002 cycles:  690781488 heartbeat IPC: 0.11540 cumulative IPC: 0.07393 (Simulation time: 0 hr 10 min 19 sec) 
Heartbeat CPU  0 instructions:  146000000 cycles:  706989637 heartbeat IPC: 0.06170 cumulative IPC: 0.07361 (Simulation time: 0 hr 10 min 29 sec) 
Heartbeat CPU  0 instructions:  147000003 cycles:  729037019 heartbeat IPC: 0.04536 cumulative IPC: 0.07265 (Simulation time: 0 hr 10 min 43 sec) 
Heartbeat CPU  0 instructions:  148000000 cycles:  737400877 heartbeat IPC: 0.11956 cumulative IPC: 0.07325 (Simulation time: 0 hr 10 min 49 sec) 
Heartbeat CPU  0 instructions:  149000003 cycles:  745996034 heartbeat IPC: 0.11634 cumulative IPC: 0.07381 (Simulation time: 0 hr 10 min 56 sec) 
Heartbeat CPU  0 instructions:  150000002 cycles:  760787538 heartbeat IPC: 0.06761 cumulative IPC: 0.07367 (Simulation time: 0 hr 11 min 4 sec) 
Heartbeat CPU  0 instructions:  151000001 cycles:  784407995 heartbeat IPC: 0.04234 cumulative IPC: 0.07262 (Simulation time: 0 hr 11 min 18 sec) 
Heartbeat CPU  0 instructions:  152000000 cycles:  792933492 heartbeat IPC: 0.11730 cumulative IPC: 0.07315 (Simulation time: 0 hr 11 min 23 sec) 
Heartbeat CPU  0 instructions:  153000000 cycles:  801244636 heartbeat IPC: 0.12032 cumulative IPC: 0.07370 (Simulation time: 0 hr 11 min 29 sec) 
Heartbeat CPU  0 instructions:  154000000 cycles:  811624948 heartbeat IPC: 0.09634 cumulative IPC: 0.07402 (Simulation time: 0 hr 11 min 35 sec) 
Heartbeat CPU  0 instructions:  155000000 cycles:  839024388 heartbeat IPC: 0.03650 cumulative IPC: 0.07266 (Simulation time: 0 hr 11 min 51 sec) 
Heartbeat CPU  0 instructions:  156000000 cycles:  847342067 heartbeat IPC: 0.12023 cumulative IPC: 0.07318 (Simulation time: 0 hr 11 min 56 sec) 
Heartbeat CPU  0 instructions:  157000000 cycles:  857424937 heartbeat IPC: 0.09918 cumulative IPC: 0.07352 (Simulation time: 0 hr 12 min 2 sec) 
Heartbeat CPU  0 instructions:  158000001 cycles:  866814742 heartbeat IPC: 0.10650 cumulative IPC: 0.07391 (Simulation time: 0 hr 12 min 7 sec) 
Heartbeat CPU  0 instructions:  159000000 cycles:  889331323 heartbeat IPC: 0.04441 cumulative IPC: 0.07309 (Simulation time: 0 hr 12 min 20 sec) 
Heartbeat CPU  0 instructions:  160000000 cycles:  905687621 heartbeat IPC: 0.06114 cumulative IPC: 0.07285 (Simulation time: 0 hr 12 min 29 sec) 
Heartbeat CPU  0 instructions:  161000003 cycles:  915374239 heartbeat IPC: 0.10324 cumulative IPC: 0.07320 (Simulation time: 0 hr 12 min 34 sec) 
Heartbeat CPU  0 instructions:  162000000 cycles:  926104300 heartbeat IPC: 0.09320 cumulative IPC: 0.07346 (Simulation time: 0 hr 12 min 41 sec) 
Heartbeat CPU  0 instructions:  163000000 cycles:  942489352 heartbeat IPC: 0.06103 cumulative IPC: 0.07322 (Simulation time: 0 hr 12 min 51 sec) 
Heartbeat CPU  0 instructions:  164000000 cycles:  964272006 heartbeat IPC: 0.04591 cumulative IPC: 0.07255 (Simulation time: 0 hr 13 min 4 sec) 
Heartbeat CPU  0 instructions:  165000002 cycles:  976006425 heartbeat IPC: 0.08522 cumulative IPC: 0.07271 (Simulation time: 0 hr 13 min 11 sec) 
Heartbeat CPU  0 instructions:  166000003 cycles:  986077561 heartbeat IPC: 0.09929 cumulative IPC: 0.07301 (Simulation time: 0 hr 13 min 17 sec) 
Heartbeat CPU  0 instructions:  167000003 cycles:  999625815 heartbeat IPC: 0.07381 cumulative IPC: 0.07302 (Simulation time: 0 hr 13 min 25 sec) 
Heartbeat CPU  0 instructions:  168000000 cycles: 1024541990 heartbeat IPC: 0.04013 cumulative IPC: 0.07215 (Simulation time: 0 hr 13 min 40 sec) 
Heartbeat CPU  0 instructions:  169000000 cycles: 1034030013 heartbeat IPC: 0.10540 cumulative IPC: 0.07248 (Simulation time: 0 hr 13 min 45 sec) 
Heartbeat CPU  0 instructions:  170000000 cycles: 1043234862 heartbeat IPC: 0.10864 cumulative IPC: 0.07283 (Simulation time: 0 hr 13 min 51 sec) 
Heartbeat CPU  0 instructions:  171000002 cycles: 1059260915 heartbeat IPC: 0.06240 cumulative IPC: 0.07266 (Simulation time: 0 hr 14 min 1 sec) 
Heartbeat CPU  0 instructions:  172000000 cycles: 1081809241 heartbeat IPC: 0.04435 cumulative IPC: 0.07202 (Simulation time: 0 hr 14 min 14 sec) 
Heartbeat CPU  0 instructions:  173000000 cycles: 1091554615 heartbeat IPC: 0.10261 cumulative IPC: 0.07232 (Simulation time: 0 hr 14 min 20 sec) 
Heartbeat CPU  0 instructions:  174000002 cycles: 1101762535 heartbeat IPC: 0.09796 cumulative IPC: 0.07257 (Simulation time: 0 hr 14 min 27 sec) 
Heartbeat CPU  0 instructions:  175000003 cycles: 1115505566 heartbeat IPC: 0.07276 cumulative IPC: 0.07257 (Simulation time: 0 hr 14 min 35 sec) 
Heartbeat CPU  0 instructions:  176000000 cycles: 1139771763 heartbeat IPC: 0.04121 cumulative IPC: 0.07186 (Simulation time: 0 hr 14 min 50 sec) 
Heartbeat CPU  0 instructions:  177000002 cycles: 1148310806 heartbeat IPC: 0.11711 cumulative IPC: 0.07222 (Simulation time: 0 hr 14 min 56 sec) 
Heartbeat CPU  0 instructions:  178000001 cycles: 1156826621 heartbeat IPC: 0.11743 cumulative IPC: 0.07258 (Simulation time: 0 hr 15 min 3 sec) 
Heartbeat CPU  0 instructions:  179000000 cycles: 1172769225 heartbeat IPC: 0.06272 cumulative IPC: 0.07243 (Simulation time: 0 hr 15 min 13 sec) 
Heartbeat CPU  0 instructions:  180000000 cycles: 1195245440 heartbeat IPC: 0.04449 cumulative IPC: 0.07187 (Simulation time: 0 hr 15 min 29 sec) 
Heartbeat CPU  0 instructions:  181000002 cycles: 1203584231 heartbeat IPC: 0.11992 cumulative IPC: 0.07223 (Simulation time: 0 hr 15 min 36 sec) 
Heartbeat CPU  0 instructions:  182000000 cycles: 1212056024 heartbeat IPC: 0.11804 cumulative IPC: 0.07257 (Simulation time: 0 hr 15 min 42 sec) 
Heartbeat CPU  0 instructions:  183000002 cycles: 1226064641 heartbeat IPC: 0.07138 cumulative IPC: 0.07255 (Simulation time: 0 hr 15 min 51 sec) 
Heartbeat CPU  0 instructions:  184000000 cycles: 1250196782 heartbeat IPC: 0.04144 cumulative IPC: 0.07191 (Simulation time: 0 hr 16 min 6 sec) 
Heartbeat CPU  0 instructions:  185000001 cycles: 1258959052 heartbeat IPC: 0.11413 cumulative IPC: 0.07223 (Simulation time: 0 hr 16 min 11 sec) 
Heartbeat CPU  0 instructions:  186000000 cycles: 1268023927 heartbeat IPC: 0.11032 cumulative IPC: 0.07252 (Simulation time: 0 hr 16 min 17 sec) 
Heartbeat CPU  0 instructions:  187000001 cycles: 1279302593 heartbeat IPC: 0.08866 cumulative IPC: 0.07267 (Simulation time: 0 hr 16 min 23 sec) 
Heartbeat CPU  0 instructions:  188000000 cycles: 1306055155 heartbeat IPC: 0.03738 cumulative IPC: 0.07190 (Simulation time: 0 hr 16 min 37 sec) 
Heartbeat CPU  0 instructions:  189000001 cycles: 1314887879 heartbeat IPC: 0.11322 cumulative IPC: 0.07219 (Simulation time: 0 hr 16 min 42 sec) 
Heartbeat CPU  0 instructions:  190000001 cycles: 1324115502 heartbeat IPC: 0.10837 cumulative IPC: 0.07246 (Simulation time: 0 hr 16 min 47 sec) 
Heartbeat CPU  0 instructions:  191000000 cycles: 1333571634 heartbeat IPC: 0.10575 cumulative IPC: 0.07271 (Simulation time: 0 hr 16 min 53 sec) 
Heartbeat CPU  0 instructions:  192000000 cycles: 1357399975 heartbeat IPC: 0.04197 cumulative IPC: 0.07214 (Simulation time: 0 hr 17 min 6 sec) 
Heartbeat CPU  0 instructions:  193000001 cycles: 1371925196 heartbeat IPC: 0.06885 cumulative IPC: 0.07210 (Simulation time: 0 hr 17 min 14 sec) 
Heartbeat CPU  0 instructions:  194000000 cycles: 1381042866 heartbeat IPC: 0.10968 cumulative IPC: 0.07237 (Simulation time: 0 hr 17 min 19 sec) 
Heartbeat CPU  0 instructions:  195000000 cycles: 1390150113 heartbeat IPC: 0.10980 cumulative IPC: 0.07263 (Simulation time: 0 hr 17 min 25 sec) 
Heartbeat CPU  0 instructions:  196000000 cycles: 1412783333 heartbeat IPC: 0.04418 cumulative IPC: 0.07214 (Simulation time: 0 hr 17 min 38 sec) 
Heartbeat CPU  0 instructions:  197000000 cycles: 1428208955 heartbeat IPC: 0.06483 cumulative IPC: 0.07206 (Simulation time: 0 hr 17 min 46 sec) 
Heartbeat CPU  0 instructions:  198000000 cycles: 1437765520 heartbeat IPC: 0.10464 cumulative IPC: 0.07229 (Simulation time: 0 hr 17 min 52 sec) 
Heartbeat CPU  0 instructions:  199000000 cycles: 1447505485 heartbeat IPC: 0.10267 cumulative IPC: 0.07251 (Simulation time: 0 hr 17 min 58 sec) 
Heartbeat CPU  0 instructions:  200000000 cycles: 1474755521 heartbeat IPC: 0.03670 cumulative IPC: 0.07180 (Simulation time: 0 hr 18 min 13 sec) 
Heartbeat CPU  0 instructions:  201000001 cycles: 1486300225 heartbeat IPC: 0.08662 cumulative IPC: 0.07193 (Simulation time: 0 hr 18 min 19 sec) 
Heartbeat CPU  0 instructions:  202000003 cycles: 1496281957 heartbeat IPC: 0.10018 cumulative IPC: 0.07213 (Simulation time: 0 hr 18 min 25 sec) 
Heartbeat CPU  0 instructions:  203000003 cycles: 1507848970 heartbeat IPC: 0.08645 cumulative IPC: 0.07224 (Simulation time: 0 hr 18 min 32 sec) 
Heartbeat CPU  0 instructions:  204000000 cycles: 1534323750 heartbeat IPC: 0.03777 cumulative IPC: 0.07161 (Simulation time: 0 hr 18 min 46 sec) 
Heartbeat CPU  0 instructions:  205000000 cycles: 1543994062 heartbeat IPC: 0.10341 cumulative IPC: 0.07182 (Simulation time: 0 hr 18 min 52 sec) 
Heartbeat CPU  0 instructions:  206000002 cycles: 1554311001 heartbeat IPC: 0.09693 cumulative IPC: 0.07200 (Simulation time: 0 hr 18 min 58 sec) 
Heartbeat CPU  0 instructions:  207000000 cycles: 1567543038 heartbeat IPC: 0.07557 cumulative IPC: 0.07203 (Simulation time: 0 hr 19 min 6 sec) 
Heartbeat CPU  0 instructions:  208000000 cycles: 1592500221 heartbeat IPC: 0.04007 cumulative IPC: 0.07150 (Simulation time: 0 hr 19 min 20 sec) 
Heartbeat CPU  0 instructions:  209000002 cycles: 1602052529 heartbeat IPC: 0.10469 cumulative IPC: 0.07171 (Simulation time: 0 hr 19 min 26 sec) 
Heartbeat CPU  0 instructions:  210000002 cycles: 1612924488 heartbeat IPC: 0.09198 cumulative IPC: 0.07186 (Simulation time: 0 hr 19 min 32 sec) 
Heartbeat CPU  0 instructions:  211000002 cycles: 1630132151 heartbeat IPC: 0.05811 cumulative IPC: 0.07170 (Simulation time: 0 hr 19 min 42 sec) 
Heartbeat CPU  0 instructions:  212000000 cycles: 1651623650 heartbeat IPC: 0.04653 cumulative IPC: 0.07136 (Simulation time: 0 hr 19 min 53 sec) 
Heartbeat CPU  0 instructions:  213000002 cycles: 1660745641 heartbeat IPC: 0.10963 cumulative IPC: 0.07158 (Simulation time: 0 hr 19 min 59 sec) 
Heartbeat CPU  0 instructions:  214000001 cycles: 1670238053 heartbeat IPC: 0.10535 cumulative IPC: 0.07178 (Simulation time: 0 hr 20 min 5 sec) 
Heartbeat CPU  0 instructions:  215000000 cycles: 1691133645 heartbeat IPC: 0.04786 cumulative IPC: 0.07147 (Simulation time: 0 hr 20 min 16 sec) 
Heartbeat CPU  0 instructions:  216000000 cycles: 1709524638 heartbeat IPC: 0.05437 cumulative IPC: 0.07128 (Simulation time: 0 hr 20 min 26 sec) 
Heartbeat CPU  0 instructions:  217000000 cycles: 1720800957 heartbeat IPC: 0.08868 cumulative IPC: 0.07140 (Simulation time: 0 hr 20 min 33 sec) 
Heartbeat CPU  0 instructions:  218000001 cycles: 1729719330 heartbeat IPC: 0.11213 cumulative IPC: 0.07162 (Simulation time: 0 hr 20 min 38 sec) 
Heartbeat CPU  0 instructions:  219000003 cycles: 1750832472 heartbeat IPC: 0.04736 cumulative IPC: 0.07131 (Simulation time: 0 hr 20 min 50 sec) 
Heartbeat CPU  0 instructions:  220000000 cycles: 1768467361 heartbeat IPC: 0.05671 cumulative IPC: 0.07116 (Simulation time: 0 hr 21 min 0 sec) 
Heartbeat CPU  0 instructions:  221000003 cycles: 1778691020 heartbeat IPC: 0.09781 cumulative IPC: 0.07132 (Simulation time: 0 hr 21 min 6 sec) 
Heartbeat CPU  0 instructions:  222000000 cycles: 1788205321 heartbeat IPC: 0.10510 cumulative IPC: 0.07151 (Simulation time: 0 hr 21 min 12 sec) 
Heartbeat CPU  0 instructions:  223000001 cycles: 1816337518 heartbeat IPC: 0.03555 cumulative IPC: 0.07092 (Simulation time: 0 hr 21 min 27 sec) 
Heartbeat CPU  0 instructions:  224000000 cycles: 1826906453 heartbeat IPC: 0.09462 cumulative IPC: 0.07107 (Simulation time: 0 hr 21 min 34 sec) 
Heartbeat CPU  0 instructions:  225000000 cycles: 1836607900 heartbeat IPC: 0.10308 cumulative IPC: 0.07124 (Simulation time: 0 hr 21 min 40 sec) 
Heartbeat CPU  0 instructions:  226000003 cycles: 1851086078 heartbeat IPC: 0.06907 cumulative IPC: 0.07123 (Simulation time: 0 hr 21 min 48 sec) 
Heartbeat CPU  0 instructions:  227000001 cycles: 1875118369 heartbeat IPC: 0.04161 cumulative IPC: 0.07083 (Simulation time: 0 hr 22 min 1 sec) 
Heartbeat CPU  0 instructions:  228000000 cycles: 1885050772 heartbeat IPC: 0.10068 cumulative IPC: 0.07099 (Simulation time: 0 hr 22 min 7 sec) 
Heartbeat CPU  0 instructions:  229000000 cycles: 1894403456 heartbeat IPC: 0.10692 cumulative IPC: 0.07118 (Simulation time: 0 hr 22 min 13 sec) 
Heartbeat CPU  0 instructions:  230000002 cycles: 1916371554 heartbeat IPC: 0.04552 cumulative IPC: 0.07087 (Simulation time: 0 hr 22 min 26 sec) 
Heartbeat CPU  0 instructions:  231000001 cycles: 1933481569 heartbeat IPC: 0.05845 cumulative IPC: 0.07076 (Simulation time: 0 hr 22 min 35 sec) 
Heartbeat CPU  0 instructions:  232000000 cycles: 1943198158 heartbeat IPC: 0.10292 cumulative IPC: 0.07093 (Simulation time: 0 hr 22 min 41 sec) 
Heartbeat CPU  0 instructions:  233000002 cycles: 1952747953 heartbeat IPC: 0.10471 cumulative IPC: 0.07110 (Simulation time: 0 hr 22 min 47 sec) 
Heartbeat CPU  0 instructions:  234000000 cycles: 1981314433 heartbeat IPC: 0.03501 cumulative IPC: 0.07056 (Simulation time: 0 hr 23 min 3 sec) 
Heartbeat CPU  0 instructions:  235000000 cycles: 1991898317 heartbeat IPC: 0.09448 cumulative IPC: 0.07069 (Simulation time: 0 hr 23 min 9 sec) 
Heartbeat CPU  0 instructions:  236000000 cycles: 2002788021 heartbeat IPC: 0.09183 cumulative IPC: 0.07081 (Simulation time: 0 hr 23 min 16 sec) 
Heartbeat CPU  0 instructions:  237000003 cycles: 2017217139 heartbeat IPC: 0.06930 cumulative IPC: 0.07080 (Simulation time: 0 hr 23 min 24 sec) 
Heartbeat CPU  0 instructions:  238000000 cycles: 2041105215 heartbeat IPC: 0.04186 cumulative IPC: 0.07044 (Simulation time: 0 hr 23 min 37 sec) 
Heartbeat CPU  0 instructions:  239000000 cycles: 2049257840 heartbeat IPC: 0.12266 cumulative IPC: 0.07066 (Simulation time: 0 hr 23 min 42 sec) 
Heartbeat CPU  0 instructions:  240000000 cycles: 2057763581 heartbeat IPC: 0.11757 cumulative IPC: 0.07086 (Simulation time: 0 hr 23 min 48 sec) 
Heartbeat CPU  0 instructions:  241000001 cycles: 2078542013 heartbeat IPC: 0.04813 cumulative IPC: 0.07063 (Simulation time: 0 hr 24 min 0 sec) 
Heartbeat CPU  0 instructions:  242000000 cycles: 2096948803 heartbeat IPC: 0.05433 cumulative IPC: 0.07048 (Simulation time: 0 hr 24 min 10 sec) 
Heartbeat CPU  0 instructions:  243000003 cycles: 2110716321 heartbeat IPC: 0.07263 cumulative IPC: 0.07049 (Simulation time: 0 hr 24 min 17 sec) 
Heartbeat CPU  0 instructions:  244000000 cycles: 2119126803 heartbeat IPC: 0.11890 cumulative IPC: 0.07069 (Simulation time: 0 hr 24 min 23 sec) 
Heartbeat CPU  0 instructions:  245000003 cycles: 2134262471 heartbeat IPC: 0.06607 cumulative IPC: 0.07066 (Simulation time: 0 hr 24 min 32 sec) 
Heartbeat CPU  0 instructions:  246000001 cycles: 2156506670 heartbeat IPC: 0.04496 cumulative IPC: 0.07038 (Simulation time: 0 hr 24 min 44 sec) 
Heartbeat CPU  0 instructions:  247000000 cycles: 2165353443 heartbeat IPC: 0.11304 cumulative IPC: 0.07056 (Simulation time: 0 hr 24 min 49 sec) 
Heartbeat CPU  0 instructions:  248000000 cycles: 2173550467 heartbeat IPC: 0.12200 cumulative IPC: 0.07076 (Simulation time: 0 hr 24 min 55 sec) 
Heartbeat CPU  0 instructions:  249000000 cycles: 2194385902 heartbeat IPC: 0.04800 cumulative IPC: 0.07054 (Simulation time: 0 hr 25 min 6 sec) 
Heartbeat CPU  0 instructions:  250000003 cycles: 2211541217 heartbeat IPC: 0.05829 cumulative IPC: 0.07044 (Simulation time: 0 hr 25 min 16 sec) 
Heartbeat CPU  0 instructions:  251000002 cycles: 2220477335 heartbeat IPC: 0.11191 cumulative IPC: 0.07061 (Simulation time: 0 hr 25 min 21 sec) 
Heartbeat CPU  0 instructions:  252000000 cycles: 2229412204 heartbeat IPC: 0.11192 cumulative IPC: 0.07079 (Simulation time: 0 hr 25 min 27 sec) 
Heartbeat CPU  0 instructions:  253000002 cycles: 2256743124 heartbeat IPC: 0.03659 cumulative IPC: 0.07036 (Simulation time: 0 hr 25 min 42 sec) 
Heartbeat CPU  0 instructions:  254000000 cycles: 2267045327 heartbeat IPC: 0.09707 cumulative IPC: 0.07048 (Simulation time: 0 hr 25 min 48 sec) 
Heartbeat CPU  0 instructions:  255000000 cycles: 2278738624 heartbeat IPC: 0.08552 cumulative IPC: 0.07056 (Simulation time: 0 hr 25 min 55 sec) 
Heartbeat CPU  0 instructions:  256000000 cycles: 2293603633 heartbeat IPC: 0.06727 cumulative IPC: 0.07054 (Simulation time: 0 hr 26 min 3 sec) 
Heartbeat CPU  0 instructions:  257000000 cycles: 2309493561 heartbeat IPC: 0.06293 cumulative IPC: 0.07049 (Simulation time: 0 hr 26 min 12 sec) 
Heartbeat CPU  0 instructions:  258000002 cycles: 2334228195 heartbeat IPC: 0.04043 cumulative IPC: 0.07016 (Simulation time: 0 hr 26 min 25 sec) 
Heartbeat CPU  0 instructions:  259000002 cycles: 2344930086 heartbeat IPC: 0.09344 cumulative IPC: 0.07027 (Simulation time: 0 hr 26 min 32 sec) 
Heartbeat CPU  0 instructions:  260000000 cycles: 2354872058 heartbeat IPC: 0.10058 cumulative IPC: 0.07040 (Simulation time: 0 hr 26 min 38 sec) 
Heartbeat CPU  0 instructions:  261000002 cycles: 2372724540 heartbeat IPC: 0.05601 cumulative IPC: 0.07029 (Simulation time: 0 hr 26 min 48 sec) 
Heartbeat CPU  0 instructions:  262000002 cycles: 2394738667 heartbeat IPC: 0.04543 cumulative IPC: 0.07005 (Simulation time: 0 hr 27 min 0 sec) 
Heartbeat CPU  0 instructions:  263000002 cycles: 2404298908 heartbeat IPC: 0.10460 cumulative IPC: 0.07019 (Simulation time: 0 hr 27 min 6 sec) 
Heartbeat CPU  0 instructions:  264000000 cycles: 2413792465 heartbeat IPC: 0.10533 cumulative IPC: 0.07033 (Simulation time: 0 hr 27 min 12 sec) 
Heartbeat CPU  0 instructions:  265000003 cycles: 2436775330 heartbeat IPC: 0.04351 cumulative IPC: 0.07007 (Simulation time: 0 hr 27 min 24 sec) 
Heartbeat CPU  0 instructions:  266000003 cycles: 2455184826 heartbeat IPC: 0.05432 cumulative IPC: 0.06995 (Simulation time: 0 hr 27 min 34 sec) 
Heartbeat CPU  0 instructions:  267000001 cycles: 2468512830 heartbeat IPC: 0.07503 cumulative IPC: 0.06998 (Simulation time: 0 hr 27 min 42 sec) 
Heartbeat CPU  0 instructions:  268000000 cycles: 2476461467 heartbeat IPC: 0.12581 cumulative IPC: 0.07016 (Simulation time: 0 hr 27 min 47 sec) 
Heartbeat CPU  0 instructions:  269000002 cycles: 2491720248 heartbeat IPC: 0.06554 cumulative IPC: 0.07014 (Simulation time: 0 hr 27 min 56 sec) 
Heartbeat CPU  0 instructions:  270000001 cycles: 2514643078 heartbeat IPC: 0.04362 cumulative IPC: 0.06989 (Simulation time: 0 hr 28 min 8 sec) 
Heartbeat CPU  0 instructions:  271000003 cycles: 2525051625 heartbeat IPC: 0.09608 cumulative IPC: 0.07000 (Simulation time: 0 hr 28 min 14 sec) 
Heartbeat CPU  0 instructions:  272000000 cycles: 2537900763 heartbeat IPC: 0.07783 cumulative IPC: 0.07004 (Simulation time: 0 hr 28 min 22 sec) 
Heartbeat CPU  0 instructions:  273000003 cycles: 2549166455 heartbeat IPC: 0.08877 cumulative IPC: 0.07012 (Simulation time: 0 hr 28 min 29 sec) 
Heartbeat CPU  0 instructions:  274000002 cycles: 2576159100 heartbeat IPC: 0.03705 cumulative IPC: 0.06977 (Simulation time: 0 hr 28 min 43 sec) 
Heartbeat CPU  0 instructions:  275000001 cycles: 2585439966 heartbeat IPC: 0.10775 cumulative IPC: 0.06991 (Simulation time: 0 hr 28 min 49 sec) 
Heartbeat CPU  0 instructions:  276000000 cycles: 2594944610 heartbeat IPC: 0.10521 cumulative IPC: 0.07004 (Simulation time: 0 hr 28 min 55 sec) 
Heartbeat CPU  0 instructions:  277000002 cycles: 2608543978 heartbeat IPC: 0.07353 cumulative IPC: 0.07006 (Simulation time: 0 hr 29 min 3 sec) 
Heartbeat CPU  0 instructions:  278000001 cycles: 2633112959 heartbeat IPC: 0.04070 cumulative IPC: 0.06978 (Simulation time: 0 hr 29 min 16 sec) 
Heartbeat CPU  0 instructions:  279000000 cycles: 2640720464 heartbeat IPC: 0.13145 cumulative IPC: 0.06996 (Simulation time: 0 hr 29 min 21 sec) 
Heartbeat CPU  0 instructions:  280000000 cycles: 2648402622 heartbeat IPC: 0.13017 cumulative IPC: 0.07014 (Simulation time: 0 hr 29 min 27 sec) 
Heartbeat CPU  0 instructions:  281000003 cycles: 2667173893 heartbeat IPC: 0.05327 cumulative IPC: 0.07002 (Simulation time: 0 hr 29 min 38 sec) 
Heartbeat CPU  0 instructions:  282000000 cycles: 2686607744 heartbeat IPC: 0.05146 cumulative IPC: 0.06988 (Simulation time: 0 hr 29 min 48 sec) 
Heartbeat CPU  0 instructions:  283000003 cycles: 2695313421 heartbeat IPC: 0.11487 cumulative IPC: 0.07003 (Simulation time: 0 hr 29 min 54 sec) 
Heartbeat CPU  0 instructions:  284000000 cycles: 2703785450 heartbeat IPC: 0.11804 cumulative IPC: 0.07018 (Simulation time: 0 hr 29 min 59 sec) 
Heartbeat CPU  0 instructions:  285000003 cycles: 2727704803 heartbeat IPC: 0.04181 cumulative IPC: 0.06993 (Simulation time: 0 hr 30 min 12 sec) 
Heartbeat CPU  0 instructions:  286000001 cycles: 2742788812 heartbeat IPC: 0.06630 cumulative IPC: 0.06991 (Simulation time: 0 hr 30 min 21 sec) 
Heartbeat CPU  0 instructions:  287000003 cycles: 2752052675 heartbeat IPC: 0.10795 cumulative IPC: 0.07004 (Simulation time: 0 hr 30 min 27 sec) 
Heartbeat CPU  0 instructions:  288000000 cycles: 2760996272 heartbeat IPC: 0.11181 cumulative IPC: 0.07018 (Simulation time: 0 hr 30 min 32 sec) 
Heartbeat CPU  0 instructions:  289000001 cycles: 2790411104 heartbeat IPC: 0.03400 cumulative IPC: 0.06978 (Simulation time: 0 hr 30 min 48 sec) 
Heartbeat CPU  0 instructions:  290000002 cycles: 2800378021 heartbeat IPC: 0.10033 cumulative IPC: 0.06990 (Simulation time: 0 hr 30 min 54 sec) 
Heartbeat CPU  0 instructions:  291000000 cycles: 2809657633 heartbeat IPC: 0.10776 cumulative IPC: 0.07003 (Simulation time: 0 hr 31 min 0 sec) 
Heartbeat CPU  0 instructions:  292000000 cycles: 2821927472 heartbeat IPC: 0.08150 cumulative IPC: 0.07008 (Simulation time: 0 hr 31 min 7 sec) 
Heartbeat CPU  0 instructions:  293000000 cycles: 2848628377 heartbeat IPC: 0.03745 cumulative IPC: 0.06976 (Simulation time: 0 hr 31 min 21 sec) 
Heartbeat CPU  0 instructions:  294000000 cycles: 2857876049 heartbeat IPC: 0.10814 cumulative IPC: 0.06989 (Simulation time: 0 hr 31 min 27 sec) 
Heartbeat CPU  0 instructions:  295000001 cycles: 2867192696 heartbeat IPC: 0.10733 cumulative IPC: 0.07002 (Simulation time: 0 hr 31 min 33 sec) 
Heartbeat CPU  0 instructions:  296000000 cycles: 2884330463 heartbeat IPC: 0.05835 cumulative IPC: 0.06994 (Simulation time: 0 hr 31 min 42 sec) 
Heartbeat CPU  0 instructions:  297000000 cycles: 2906959740 heartbeat IPC: 0.04419 cumulative IPC: 0.06974 (Simulation time: 0 hr 31 min 55 sec) 
Heartbeat CPU  0 instructions:  298000001 cycles: 2916420838 heartbeat IPC: 0.10570 cumulative IPC: 0.06986 (Simulation time: 0 hr 32 min 0 sec) 
Heartbeat CPU  0 instructions:  299000002 cycles: 2926093832 heartbeat IPC: 0.10338 cumulative IPC: 0.06997 (Simulation time: 0 hr 32 min 6 sec) 
Heartbeat CPU  0 instructions:  300000000 cycles: 2945461059 heartbeat IPC: 0.05163 cumulative IPC: 0.06985 (Simulation time: 0 hr 32 min 17 sec) 
Heartbeat CPU  0 instructions:  301000001 cycles: 2965392846 heartbeat IPC: 0.05017 cumulative IPC: 0.06971 (Simulation time: 0 hr 32 min 28 sec) 
Heartbeat CPU  0 instructions:  302000003 cycles: 2974274701 heartbeat IPC: 0.11259 cumulative IPC: 0.06984 (Simulation time: 0 hr 32 min 33 sec) 
Heartbeat CPU  0 instructions:  303000000 cycles: 2982873953 heartbeat IPC: 0.11629 cumulative IPC: 0.06998 (Simulation time: 0 hr 32 min 38 sec) 
Heartbeat CPU  0 instructions:  304000000 cycles: 3003153682 heartbeat IPC: 0.04931 cumulative IPC: 0.06984 (Simulation time: 0 hr 32 min 49 sec) 
Heartbeat CPU  0 instructions:  305000002 cycles: 3021636165 heartbeat IPC: 0.05411 cumulative IPC: 0.06974 (Simulation time: 0 hr 32 min 59 sec) 
Heartbeat CPU  0 instructions:  306000000 cycles: 3030089101 heartbeat IPC: 0.11830 cumulative IPC: 0.06988 (Simulation time: 0 hr 33 min 5 sec) 
Heartbeat CPU  0 instructions:  307000001 cycles: 3038641874 heartbeat IPC: 0.11692 cumulative IPC: 0.07001 (Simulation time: 0 hr 33 min 10 sec) 
Heartbeat CPU  0 instructions:  308000000 cycles: 3059524709 heartbeat IPC: 0.04789 cumulative IPC: 0.06986 (Simulation time: 0 hr 33 min 22 sec) 
Heartbeat CPU  0 instructions:  309000000 cycles: 3081750004 heartbeat IPC: 0.04499 cumulative IPC: 0.06967 (Simulation time: 0 hr 33 min 33 sec) 
Heartbeat CPU  0 instructions:  310000000 cycles: 3092476051 heartbeat IPC: 0.09323 cumulative IPC: 0.06976 (Simulation time: 0 hr 33 min 40 sec) 
Heartbeat CPU  0 instructions:  311000000 cycles: 3101505756 heartbeat IPC: 0.11075 cumulative IPC: 0.06988 (Simulation time: 0 hr 33 min 45 sec) 
Heartbeat CPU  0 instructions:  312000000 cycles: 3114297939 heartbeat IPC: 0.07817 cumulative IPC: 0.06992 (Simulation time: 0 hr 33 min 53 sec) 
Heartbeat CPU  0 instructions:  313000002 cycles: 3141677646 heartbeat IPC: 0.03652 cumulative IPC: 0.06962 (Simulation time: 0 hr 34 min 8 sec) 
Heartbeat CPU  0 instructions:  314000001 cycles: 3149677080 heartbeat IPC: 0.12501 cumulative IPC: 0.06976 (Simulation time: 0 hr 34 min 13 sec) 
Heartbeat CPU  0 instructions:  315000001 cycles: 3157566159 heartbeat IPC: 0.12676 cumulative IPC: 0.06991 (Simulation time: 0 hr 34 min 18 sec) 
Heartbeat CPU  0 instructions:  316000000 cycles: 3168433491 heartbeat IPC: 0.09202 cumulative IPC: 0.06999 (Simulation time: 0 hr 34 min 25 sec) 
Heartbeat CPU  0 instructions:  317000002 cycles: 3196346748 heartbeat IPC: 0.03583 cumulative IPC: 0.06968 (Simulation time: 0 hr 34 min 40 sec) 
Heartbeat CPU  0 instructions:  318000003 cycles: 3207310849 heartbeat IPC: 0.09121 cumulative IPC: 0.06976 (Simulation time: 0 hr 34 min 46 sec) 
Heartbeat CPU  0 instructions:  319000000 cycles: 3216476048 heartbeat IPC: 0.10911 cumulative IPC: 0.06987 (Simulation time: 0 hr 34 min 51 sec) 
Heartbeat CPU  0 instructions:  320000000 cycles: 3229246791 heartbeat IPC: 0.07830 cumulative IPC: 0.06990 (Simulation time: 0 hr 34 min 58 sec) 
Heartbeat CPU  0 instructions:  321000001 cycles: 3243758064 heartbeat IPC: 0.06891 cumulative IPC: 0.06990 (Simulation time: 0 hr 35 min 6 sec) 
Heartbeat CPU  0 instructions:  322000000 cycles: 3271957555 heartbeat IPC: 0.03546 cumulative IPC: 0.06960 (Simulation time: 0 hr 35 min 22 sec) 
Heartbeat CPU  0 instructions:  323000000 cycles: 3281178060 heartbeat IPC: 0.10845 cumulative IPC: 0.06971 (Simulation time: 0 hr 35 min 27 sec) 
Heartbeat CPU  0 instructions:  324000000 cycles: 3290411974 heartbeat IPC: 0.10830 cumulative IPC: 0.06982 (Simulation time: 0 hr 35 min 32 sec) 
Heartbeat CPU  0 instructions:  325000002 cycles: 3299313905 heartbeat IPC: 0.11234 cumulative IPC: 0.06994 (Simulation time: 0 hr 35 min 36 sec) 
Heartbeat CPU  0 instructions:  326000002 cycles: 3322844796 heartbeat IPC: 0.04250 cumulative IPC: 0.06974 (Simulation time: 0 hr 35 min 49 sec) 
Heartbeat CPU  0 instructions:  327000000 cycles: 3336287667 heartbeat IPC: 0.07439 cumulative IPC: 0.06976 (Simulation time: 0 hr 35 min 57 sec) 
Heartbeat CPU  0 instructions:  328000000 cycles: 3344915854 heartbeat IPC: 0.11590 cumulative IPC: 0.06988 (Simulation time: 0 hr 36 min 1 sec) 
Heartbeat CPU  0 instructions:  329000000 cycles: 3353630796 heartbeat IPC: 0.11475 cumulative IPC: 0.07000 (Simulation time: 0 hr 36 min 6 sec) 
Heartbeat CPU  0 instructions:  330000001 cycles: 3372337527 heartbeat IPC: 0.05346 cumulative IPC: 0.06990 (Simulation time: 0 hr 36 min 17 sec) 
Heartbeat CPU  0 instructions:  331000001 cycles: 3391110735 heartbeat IPC: 0.05327 cumulative IPC: 0.06981 (Simulation time: 0 hr 36 min 27 sec) 
Heartbeat CPU  0 instructions:  332000000 cycles: 3400706726 heartbeat IPC: 0.10421 cumulative IPC: 0.06991 (Simulation time: 0 hr 36 min 32 sec) 
Heartbeat CPU  0 instructions:  333000000 cycles: 3409035560 heartbeat IPC: 0.12006 cumulative IPC: 0.07003 (Simulation time: 0 hr 36 min 37 sec) 
Heartbeat CPU  0 instructions:  334000001 cycles: 3425256193 heartbeat IPC: 0.06165 cumulative IPC: 0.06999 (Simulation time: 0 hr 36 min 46 sec) 
Heartbeat CPU  0 instructions:  335000000 cycles: 3446526833 heartbeat IPC: 0.04701 cumulative IPC: 0.06985 (Simulation time: 0 hr 36 min 58 sec) 
Heartbeat CPU  0 instructions:  336000000 cycles: 3458396049 heartbeat IPC: 0.08425 cumulative IPC: 0.06990 (Simulation time: 0 hr 37 min 4 sec) 
Heartbeat CPU  0 instructions:  337000000 cycles: 3467600731 heartbeat IPC: 0.10864 cumulative IPC: 0.07000 (Simulation time: 0 hr 37 min 10 sec) 
Heartbeat CPU  0 instructions:  338000003 cycles: 3479849664 heartbeat IPC: 0.08164 cumulative IPC: 0.07005 (Simulation time: 0 hr 37 min 17 sec) 
Heartbeat CPU  0 instructions:  339000002 cycles: 3505503871 heartbeat IPC: 0.03898 cumulative IPC: 0.06981 (Simulation time: 0 hr 37 min 31 sec) 
Heartbeat CPU  0 instructions:  340000000 cycles: 3513681462 heartbeat IPC: 0.12229 cumulative IPC: 0.06994 (Simulation time: 0 hr 37 min 36 sec) 
Heartbeat CPU  0 instructions:  341000001 cycles: 3521815197 heartbeat IPC: 0.12294 cumulative IPC: 0.07006 (Simulation time: 0 hr 37 min 41 sec) 
Heartbeat CPU  0 instructions:  342000000 cycles: 3535487955 heartbeat IPC: 0.07314 cumulative IPC: 0.07008 (Simulation time: 0 hr 37 min 50 sec) 
Heartbeat CPU  0 instructions:  343000003 cycles: 3559278241 heartbeat IPC: 0.04203 cumulative IPC: 0.06988 (Simulation time: 0 hr 38 min 2 sec) 
Heartbeat CPU  0 instructions:  344000000 cycles: 3568541966 heartbeat IPC: 0.10795 cumulative IPC: 0.06999 (Simulation time: 0 hr 38 min 8 sec) 
Heartbeat CPU  0 instructions:  345000000 cycles: 3578108931 heartbeat IPC: 0.10453 cumulative IPC: 0.07008 (Simulation time: 0 hr 38 min 14 sec) 
Heartbeat CPU  0 instructions:  346000003 cycles: 3594965981 heartbeat IPC: 0.05932 cumulative IPC: 0.07003 (Simulation time: 0 hr 38 min 23 sec) 
Heartbeat CPU  0 instructions:  347000001 cycles: 3616431358 heartbeat IPC: 0.04659 cumulative IPC: 0.06989 (Simulation time: 0 hr 38 min 35 sec) 
Heartbeat CPU  0 instructions:  348000000 cycles: 3625694642 heartbeat IPC: 0.10795 cumulative IPC: 0.06999 (Simulation time: 0 hr 38 min 40 sec) 
Heartbeat CPU  0 instructions:  349000001 cycles: 3635261251 heartbeat IPC: 0.10453 cumulative IPC: 0.07008 (Simulation time: 0 hr 38 min 46 sec) 
Heartbeat CPU  0 instructions:  350000000 cycles: 3653521335 heartbeat IPC: 0.05476 cumulative IPC: 0.07000 (Simulation time: 0 hr 38 min 56 sec) 
Heartbeat CPU  0 instructions:  351000003 cycles: 3673121520 heartbeat IPC: 0.05102 cumulative IPC: 0.06990 (Simulation time: 0 hr 39 min 7 sec) 
Heartbeat CPU  0 instructions:  352000000 cycles: 3682153334 heartbeat IPC: 0.11072 cumulative IPC: 0.07000 (Simulation time: 0 hr 39 min 13 sec) 
Heartbeat CPU  0 instructions:  353000001 cycles: 3691224735 heartbeat IPC: 0.11024 cumulative IPC: 0.07010 (Simulation time: 0 hr 39 min 18 sec) 
Heartbeat CPU  0 instructions:  354000003 cycles: 3712219532 heartbeat IPC: 0.04763 cumulative IPC: 0.06997 (Simulation time: 0 hr 39 min 30 sec) 
Heartbeat CPU  0 instructions:  355000002 cycles: 3729635155 heartbeat IPC: 0.05742 cumulative IPC: 0.06991 (Simulation time: 0 hr 39 min 40 sec) 
Heartbeat CPU  0 instructions:  356000000 cycles: 3739345542 heartbeat IPC: 0.10298 cumulative IPC: 0.07000 (Simulation time: 0 hr 39 min 46 sec) 
Heartbeat CPU  0 instructions:  357000001 cycles: 3748450119 heartbeat IPC: 0.10983 cumulative IPC: 0.07010 (Simulation time: 0 hr 39 min 51 sec) 
Heartbeat CPU  0 instructions:  358000002 cycles: 3773370361 heartbeat IPC: 0.04013 cumulative IPC: 0.06989 (Simulation time: 0 hr 40 min 5 sec) 
Heartbeat CPU  0 instructions:  359000000 cycles: 3786670696 heartbeat IPC: 0.07519 cumulative IPC: 0.06991 (Simulation time: 0 hr 40 min 13 sec) 
Heartbeat CPU  0 instructions:  360000000 cycles: 3795271743 heartbeat IPC: 0.11626 cumulative IPC: 0.07002 (Simulation time: 0 hr 40 min 18 sec) 
Heartbeat CPU  0 instructions:  361000003 cycles: 3803671085 heartbeat IPC: 0.11906 cumulative IPC: 0.07013 (Simulation time: 0 hr 40 min 24 sec) 
Heartbeat CPU  0 instructions:  362000001 cycles: 3832163733 heartbeat IPC: 0.03510 cumulative IPC: 0.06987 (Simulation time: 0 hr 40 min 39 sec) 
Heartbeat CPU  0 instructions:  363000000 cycles: 3841901959 heartbeat IPC: 0.10269 cumulative IPC: 0.06995 (Simulation time: 0 hr 40 min 45 sec) 
Heartbeat CPU  0 instructions:  364000000 cycles: 3851504383 heartbeat IPC: 0.10414 cumulative IPC: 0.07004 (Simulation time: 0 hr 40 min 51 sec) 
Heartbeat CPU  0 instructions:  365000000 cycles: 3863962415 heartbeat IPC: 0.08027 cumulative IPC: 0.07007 (Simulation time: 0 hr 40 min 59 sec) 
Heartbeat CPU  0 instructions:  366000000 cycles: 3889680439 heartbeat IPC: 0.03888 cumulative IPC: 0.06986 (Simulation time: 0 hr 41 min 13 sec) 
Heartbeat CPU  0 instructions:  367000003 cycles: 3898939927 heartbeat IPC: 0.10800 cumulative IPC: 0.06995 (Simulation time: 0 hr 41 min 18 sec) 
Heartbeat CPU  0 instructions:  368000000 cycles: 3908785330 heartbeat IPC: 0.10157 cumulative IPC: 0.07003 (Simulation time: 0 hr 41 min 24 sec) 
Heartbeat CPU  0 instructions:  369000003 cycles: 3925601604 heartbeat IPC: 0.05947 cumulative IPC: 0.06999 (Simulation time: 0 hr 41 min 34 sec) 
Heartbeat CPU  0 instructions:  370000003 cycles: 3947155064 heartbeat IPC: 0.04640 cumulative IPC: 0.06986 (Simulation time: 0 hr 41 min 46 sec) 
Heartbeat CPU  0 instructions:  371000002 cycles: 3954910868 heartbeat IPC: 0.12894 cumulative IPC: 0.06997 (Simulation time: 0 hr 41 min 51 sec) 
Heartbeat CPU  0 instructions:  372000000 cycles: 3962709425 heartbeat IPC: 0.12823 cumulative IPC: 0.07009 (Simulation time: 0 hr 41 min 57 sec) 
Heartbeat CPU  0 instructions:  373000002 cycles: 3985702346 heartbeat IPC: 0.04349 cumulative IPC: 0.06994 (Simulation time: 0 hr 42 min 10 sec) 
Heartbeat CPU  0 instructions:  374000001 cycles: 4000306263 heartbeat IPC: 0.06847 cumulative IPC: 0.06993 (Simulation time: 0 hr 42 min 18 sec) 
Heartbeat CPU  0 instructions:  375000002 cycles: 4009573969 heartbeat IPC: 0.10790 cumulative IPC: 0.07002 (Simulation time: 0 hr 42 min 24 sec) 
Heartbeat CPU  0 instructions:  376000000 cycles: 4020728824 heartbeat IPC: 0.08965 cumulative IPC: 0.07007 (Simulation time: 0 hr 42 min 31 sec) 
Heartbeat CPU  0 instructions:  377000000 cycles: 4047550411 heartbeat IPC: 0.03728 cumulative IPC: 0.06985 (Simulation time: 0 hr 42 min 46 sec) 
Heartbeat CPU  0 instructions:  378000003 cycles: 4056175871 heartbeat IPC: 0.11594 cumulative IPC: 0.06995 (Simulation time: 0 hr 42 min 52 sec) 
Heartbeat CPU  0 instructions:  379000002 cycles: 4064156262 heartbeat IPC: 0.12531 cumulative IPC: 0.07006 (Simulation time: 0 hr 42 min 57 sec) 
Heartbeat CPU  0 instructions:  380000000 cycles: 4082076412 heartbeat IPC: 0.05580 cumulative IPC: 0.07000 (Simulation time: 0 hr 43 min 8 sec) 
Heartbeat CPU  0 instructions:  381000000 cycles: 4101859225 heartbeat IPC: 0.05055 cumulative IPC: 0.06990 (Simulation time: 0 hr 43 min 19 sec) 
Heartbeat CPU  0 instructions:  382000002 cycles: 4111079778 heartbeat IPC: 0.10845 cumulative IPC: 0.06999 (Simulation time: 0 hr 43 min 25 sec) 
Heartbeat CPU  0 instructions:  383000000 cycles: 4120255481 heartbeat IPC: 0.10898 cumulative IPC: 0.07008 (Simulation time: 0 hr 43 min 31 sec) 
Heartbeat CPU  0 instructions:  384000000 cycles: 4145698253 heartbeat IPC: 0.03930 cumulative IPC: 0.06989 (Simulation time: 0 hr 43 min 45 sec) 
Heartbeat CPU  0 instructions:  385000001 cycles: 4158294351 heartbeat IPC: 0.07939 cumulative IPC: 0.06992 (Simulation time: 0 hr 43 min 52 sec) 
Heartbeat CPU  0 instructions:  386000002 cycles: 4166965150 heartbeat IPC: 0.11533 cumulative IPC: 0.07001 (Simulation time: 0 hr 43 min 58 sec) 
Heartbeat CPU  0 instructions:  387000003 cycles: 4178373492 heartbeat IPC: 0.08766 cumulative IPC: 0.07006 (Simulation time: 0 hr 44 min 6 sec) 
Heartbeat CPU  0 instructions:  388000000 cycles: 4203994037 heartbeat IPC: 0.03903 cumulative IPC: 0.06987 (Simulation time: 0 hr 44 min 20 sec) 
Heartbeat CPU  0 instructions:  389000001 cycles: 4212944151 heartbeat IPC: 0.11173 cumulative IPC: 0.06996 (Simulation time: 0 hr 44 min 25 sec) 
Heartbeat CPU  0 instructions:  390000000 cycles: 4221322434 heartbeat IPC: 0.11936 cumulative IPC: 0.07006 (Simulation time: 0 hr 44 min 31 sec) 
Heartbeat CPU  0 instructions:  391000001 cycles: 4238968366 heartbeat IPC: 0.05667 cumulative IPC: 0.07000 (Simulation time: 0 hr 44 min 41 sec) 
Heartbeat CPU  0 instructions:  392000000 cycles: 4258636155 heartbeat IPC: 0.05084 cumulative IPC: 0.06991 (Simulation time: 0 hr 44 min 52 sec) 
Heartbeat CPU  0 instructions:  393000000 cycles: 4266787649 heartbeat IPC: 0.12268 cumulative IPC: 0.07002 (Simulation time: 0 hr 44 min 58 sec) 
Heartbeat CPU  0 instructions:  394000001 cycles: 4275579523 heartbeat IPC: 0.11374 cumulative IPC: 0.07011 (Simulation time: 0 hr 45 min 4 sec) 
Heartbeat CPU  0 instructions:  395000000 cycles: 4299619517 heartbeat IPC: 0.04160 cumulative IPC: 0.06995 (Simulation time: 0 hr 45 min 18 sec) 
Heartbeat CPU  0 instructions:  396000000 cycles: 4313082540 heartbeat IPC: 0.07428 cumulative IPC: 0.06996 (Simulation time: 0 hr 45 min 26 sec) 
Heartbeat CPU  0 instructions:  397000000 cycles: 4322661616 heartbeat IPC: 0.10439 cumulative IPC: 0.07004 (Simulation time: 0 hr 45 min 32 sec) 
Heartbeat CPU  0 instructions:  398000000 cycles: 4333274493 heartbeat IPC: 0.09423 cumulative IPC: 0.07010 (Simulation time: 0 hr 45 min 39 sec) 
Heartbeat CPU  0 instructions:  399000001 cycles: 4360173734 heartbeat IPC: 0.03718 cumulative IPC: 0.06989 (Simulation time: 0 hr 45 min 53 sec) 
Heartbeat CPU  0 instructions:  400000000 cycles: 4368908013 heartbeat IPC: 0.11449 cumulative IPC: 0.06998 (Simulation time: 0 hr 45 min 59 sec) 
Heartbeat CPU  0 instructions:  401000002 cycles: 4377522626 heartbeat IPC: 0.11608 cumulative IPC: 0.07007 (Simulation time: 0 hr 46 min 5 sec) 
Heartbeat CPU  0 instructions:  402000003 cycles: 4394541515 heartbeat IPC: 0.05876 cumulative IPC: 0.07003 (Simulation time: 0 hr 46 min 15 sec) 
Heartbeat CPU  0 instructions:  403000000 cycles: 4415015812 heartbeat IPC: 0.04884 cumulative IPC: 0.06993 (Simulation time: 0 hr 46 min 26 sec) 
Heartbeat CPU  0 instructions:  404000000 cycles: 4424480798 heartbeat IPC: 0.10565 cumulative IPC: 0.07001 (Simulation time: 0 hr 46 min 32 sec) 
Heartbeat CPU  0 instructions:  405000001 cycles: 4434726016 heartbeat IPC: 0.09761 cumulative IPC: 0.07007 (Simulation time: 0 hr 46 min 39 sec) 
Heartbeat CPU  0 instructions:  406000002 cycles: 4454577391 heartbeat IPC: 0.05037 cumulative IPC: 0.06998 (Simulation time: 0 hr 46 min 50 sec) 
Heartbeat CPU  0 instructions:  407000001 cycles: 4472530011 heartbeat IPC: 0.05570 cumulative IPC: 0.06992 (Simulation time: 0 hr 47 min 0 sec) 
Heartbeat CPU  0 instructions:  408000000 cycles: 4482241434 heartbeat IPC: 0.10297 cumulative IPC: 0.07000 (Simulation time: 0 hr 47 min 6 sec) 
Heartbeat CPU  0 instructions:  409000000 cycles: 4492775501 heartbeat IPC: 0.09493 cumulative IPC: 0.07006 (Simulation time: 0 hr 47 min 13 sec) 
Heartbeat CPU  0 instructions:  410000003 cycles: 4517327974 heartbeat IPC: 0.04073 cumulative IPC: 0.06989 (Simulation time: 0 hr 47 min 27 sec) 
Heartbeat CPU  0 instructions:  411000000 cycles: 4529831594 heartbeat IPC: 0.07998 cumulative IPC: 0.06992 (Simulation time: 0 hr 47 min 34 sec) 
Heartbeat CPU  0 instructions:  412000000 cycles: 4538328346 heartbeat IPC: 0.11769 cumulative IPC: 0.07001 (Simulation time: 0 hr 47 min 40 sec) 
Heartbeat CPU  0 instructions:  413000002 cycles: 4550952944 heartbeat IPC: 0.07921 cumulative IPC: 0.07004 (Simulation time: 0 hr 47 min 48 sec) 
Heartbeat CPU  0 instructions:  414000003 cycles: 4575714409 heartbeat IPC: 0.04039 cumulative IPC: 0.06988 (Simulation time: 0 hr 48 min 2 sec) 
Heartbeat CPU  0 instructions:  415000000 cycles: 4584353877 heartbeat IPC: 0.11575 cumulative IPC: 0.06996 (Simulation time: 0 hr 48 min 8 sec) 
Heartbeat CPU  0 instructions:  416000000 cycles: 4592668972 heartbeat IPC: 0.12026 cumulative IPC: 0.07006 (Simulation time: 0 hr 48 min 13 sec) 
Heartbeat CPU  0 instructions:  417000000 cycles: 4613976927 heartbeat IPC: 0.04693 cumulative IPC: 0.06995 (Simulation time: 0 hr 48 min 26 sec) 
Heartbeat CPU  0 instructions:  418000001 cycles: 4630598932 heartbeat IPC: 0.06016 cumulative IPC: 0.06991 (Simulation time: 0 hr 48 min 35 sec) 
Heartbeat CPU  0 instructions:  419000000 cycles: 4642419539 heartbeat IPC: 0.08460 cumulative IPC: 0.06995 (Simulation time: 0 hr 48 min 42 sec) 
Heartbeat CPU  0 instructions:  420000000 cycles: 4654592813 heartbeat IPC: 0.08215 cumulative IPC: 0.06998 (Simulation time: 0 hr 48 min 49 sec) 
Heartbeat CPU  0 instructions:  421000003 cycles: 4668185893 heartbeat IPC: 0.07357 cumulative IPC: 0.06999 (Simulation time: 0 hr 48 min 58 sec) 
Heartbeat CPU  0 instructions:  422000002 cycles: 4694270179 heartbeat IPC: 0.03834 cumulative IPC: 0.06982 (Simulation time: 0 hr 49 min 12 sec) 
Heartbeat CPU  0 instructions:  423000002 cycles: 4703535878 heartbeat IPC: 0.10792 cumulative IPC: 0.06989 (Simulation time: 0 hr 49 min 18 sec) 
Heartbeat CPU  0 instructions:  424000000 cycles: 4717680499 heartbeat IPC: 0.07070 cumulative IPC: 0.06989 (Simulation time: 0 hr 49 min 26 sec) 
Heartbeat CPU  0 instructions:  425000002 cycles: 4725600111 heartbeat IPC: 0.12627 cumulative IPC: 0.06999 (Simulation time: 0 hr 49 min 31 sec) 
Heartbeat CPU  0 instructions:  426000000 cycles: 4751463981 heartbeat IPC: 0.03866 cumulative IPC: 0.06982 (Simulation time: 0 hr 49 min 45 sec) 
Heartbeat CPU  0 instructions:  427000002 cycles: 4763859895 heartbeat IPC: 0.08067 cumulative IPC: 0.06985 (Simulation time: 0 hr 49 min 53 sec) 
Heartbeat CPU  0 instructions:  428000000 cycles: 4772981694 heartbeat IPC: 0.10963 cumulative IPC: 0.06992 (Simulation time: 0 hr 49 min 58 sec) 
Heartbeat CPU  0 instructions:  429000001 cycles: 4784246050 heartbeat IPC: 0.08878 cumulative IPC: 0.06997 (Simulation time: 0 hr 50 min 5 sec) 
Heartbeat CPU  0 instructions:  430000002 cycles: 4804887224 heartbeat IPC: 0.04845 cumulative IPC: 0.06987 (Simulation time: 0 hr 50 min 16 sec) 
Heartbeat CPU  0 instructions:  431000003 cycles: 4821969638 heartbeat IPC: 0.05854 cumulative IPC: 0.06983 (Simulation time: 0 hr 50 min 26 sec) 
Heartbeat CPU  0 instructions:  432000000 cycles: 4829921091 heartbeat IPC: 0.12576 cumulative IPC: 0.06993 (Simulation time: 0 hr 50 min 30 sec) 
Heartbeat CPU  0 instructions:  433000001 cycles: 4838244531 heartbeat IPC: 0.12014 cumulative IPC: 0.07001 (Simulation time: 0 hr 50 min 36 sec) 
Heartbeat CPU  0 instructions:  434000000 cycles: 4856162730 heartbeat IPC: 0.05581 cumulative IPC: 0.06996 (Simulation time: 0 hr 50 min 46 sec) 
Heartbeat CPU  0 instructions:  435000003 cycles: 4875833886 heartbeat IPC: 0.05084 cumulative IPC: 0.06988 (Simulation time: 0 hr 50 min 56 sec) 
Heartbeat CPU  0 instructions:  436000000 cycles: 4884291078 heartbeat IPC: 0.11824 cumulative IPC: 0.06997 (Simulation time: 0 hr 51 min 1 sec) 
Heartbeat CPU  0 instructions:  437000001 cycles: 4892997865 heartbeat IPC: 0.11485 cumulative IPC: 0.07005 (Simulation time: 0 hr 51 min 6 sec) 
Heartbeat CPU  0 instructions:  438000001 cycles: 4910138310 heartbeat IPC: 0.05834 cumulative IPC: 0.07001 (Simulation time: 0 hr 51 min 16 sec) 
Heartbeat CPU  0 instructions:  439000000 cycles: 4931069099 heartbeat IPC: 0.04778 cumulative IPC: 0.06991 (Simulation time: 0 hr 51 min 27 sec) 
Heartbeat CPU  0 instructions:  440000000 cycles: 4939770298 heartbeat IPC: 0.11493 cumulative IPC: 0.06999 (Simulation time: 0 hr 51 min 33 sec) 
Heartbeat CPU  0 instructions:  441000002 cycles: 4948364750 heartbeat IPC: 0.11635 cumulative IPC: 0.07007 (Simulation time: 0 hr 51 min 38 sec) 
Heartbeat CPU  0 instructions:  442000000 cycles: 4963762748 heartbeat IPC: 0.06494 cumulative IPC: 0.07006 (Simulation time: 0 hr 51 min 46 sec) 
Heartbeat CPU  0 instructions:  443000001 cycles: 4986581677 heartbeat IPC: 0.04382 cumulative IPC: 0.06994 (Simulation time: 0 hr 51 min 59 sec) 
Heartbeat CPU  0 instructions:  444000000 cycles: 4994949946 heartbeat IPC: 0.11950 cumulative IPC: 0.07002 (Simulation time: 0 hr 52 min 4 sec) 
Heartbeat CPU  0 instructions:  445000003 cycles: 5003645856 heartbeat IPC: 0.11500 cumulative IPC: 0.07010 (Simulation time: 0 hr 52 min 9 sec) 
Heartbeat CPU  0 instructions:  446000001 cycles: 5018065335 heartbeat IPC: 0.06935 cumulative IPC: 0.07010 (Simulation time: 0 hr 52 min 17 sec) 
Heartbeat CPU  0 instructions:  447000000 cycles: 5042220448 heartbeat IPC: 0.04140 cumulative IPC: 0.06996 (Simulation time: 0 hr 52 min 30 sec) 
Heartbeat CPU  0 instructions:  448000000 cycles: 5050618591 heartbeat IPC: 0.11907 cumulative IPC: 0.07004 (Simulation time: 0 hr 52 min 35 sec) 
Heartbeat CPU  0 instructions:  449000002 cycles: 5058917059 heartbeat IPC: 0.12050 cumulative IPC: 0.07012 (Simulation time: 0 hr 52 min 41 sec) 
Heartbeat CPU  0 instructions:  450000000 cycles: 5073223645 heartbeat IPC: 0.06990 cumulative IPC: 0.07012 (Simulation time: 0 hr 52 min 49 sec) 
Heartbeat CPU  0 instructions:  451000001 cycles: 5096889950 heartbeat IPC: 0.04225 cumulative IPC: 0.06999 (Simulation time: 0 hr 53 min 2 sec) 
Heartbeat CPU  0 instructions:  452000000 cycles: 5105414709 heartbeat IPC: 0.11731 cumulative IPC: 0.07007 (Simulation time: 0 hr 53 min 7 sec) 
Heartbeat CPU  0 instructions:  453000000 cycles: 5114203978 heartbeat IPC: 0.11378 cumulative IPC: 0.07015 (Simulation time: 0 hr 53 min 12 sec) 
Heartbeat CPU  0 instructions:  454000000 cycles: 5129778163 heartbeat IPC: 0.06421 cumulative IPC: 0.07013 (Simulation time: 0 hr 53 min 21 sec) 
Heartbeat CPU  0 instructions:  455000003 cycles: 5152493975 heartbeat IPC: 0.04402 cumulative IPC: 0.07001 (Simulation time: 0 hr 53 min 34 sec) 
Heartbeat CPU  0 instructions:  456000000 cycles: 5160865494 heartbeat IPC: 0.11945 cumulative IPC: 0.07010 (Simulation time: 0 hr 53 min 39 sec) 
Heartbeat CPU  0 instructions:  457000000 cycles: 5169675532 heartbeat IPC: 0.11351 cumulative IPC: 0.07017 (Simulation time: 0 hr 53 min 44 sec) 
Heartbeat CPU  0 instructions:  458000001 cycles: 5186986770 heartbeat IPC: 0.05777 cumulative IPC: 0.07013 (Simulation time: 0 hr 53 min 54 sec) 
Heartbeat CPU  0 instructions:  459000003 cycles: 5208025831 heartbeat IPC: 0.04753 cumulative IPC: 0.07004 (Simulation time: 0 hr 54 min 6 sec) 
Heartbeat CPU  0 instructions:  460000000 cycles: 5216508786 heartbeat IPC: 0.11788 cumulative IPC: 0.07012 (Simulation time: 0 hr 54 min 11 sec) 
Heartbeat CPU  0 instructions:  461000001 cycles: 5225637539 heartbeat IPC: 0.10954 cumulative IPC: 0.07019 (Simulation time: 0 hr 54 min 17 sec) 
Heartbeat CPU  0 instructions:  462000001 cycles: 5244909410 heartbeat IPC: 0.05189 cumulative IPC: 0.07012 (Simulation time: 0 hr 54 min 28 sec) 
Heartbeat CPU  0 instructions:  463000002 cycles: 5264029916 heartbeat IPC: 0.05230 cumulative IPC: 0.07005 (Simulation time: 0 hr 54 min 38 sec) 
Heartbeat CPU  0 instructions:  464000000 cycles: 5273439714 heartbeat IPC: 0.10627 cumulative IPC: 0.07012 (Simulation time: 0 hr 54 min 44 sec) 
Heartbeat CPU  0 instructions:  465000000 cycles: 5287443077 heartbeat IPC: 0.07141 cumulative IPC: 0.07012 (Simulation time: 0 hr 54 min 52 sec) 
Heartbeat CPU  0 instructions:  466000003 cycles: 5302955243 heartbeat IPC: 0.06447 cumulative IPC: 0.07010 (Simulation time: 0 hr 55 min 1 sec) 
Heartbeat CPU  0 instructions:  467000002 cycles: 5326799074 heartbeat IPC: 0.04194 cumulative IPC: 0.06998 (Simulation time: 0 hr 55 min 14 sec) 
Heartbeat CPU  0 instructions:  468000000 cycles: 5337096863 heartbeat IPC: 0.09711 cumulative IPC: 0.07003 (Simulation time: 0 hr 55 min 20 sec) 
Heartbeat CPU  0 instructions:  469000000 cycles: 5351546759 heartbeat IPC: 0.06920 cumulative IPC: 0.07003 (Simulation time: 0 hr 55 min 28 sec) 
Heartbeat CPU  0 instructions:  470000000 cycles: 5361497327 heartbeat IPC: 0.10050 cumulative IPC: 0.07008 (Simulation time: 0 hr 55 min 35 sec) 
Heartbeat CPU  0 instructions:  471000000 cycles: 5389413516 heartbeat IPC: 0.03582 cumulative IPC: 0.06990 (Simulation time: 0 hr 55 min 50 sec) 
Heartbeat CPU  0 instructions:  472000000 cycles: 5400806861 heartbeat IPC: 0.08777 cumulative IPC: 0.06994 (Simulation time: 0 hr 55 min 56 sec) 
Heartbeat CPU  0 instructions:  473000001 cycles: 5413420131 heartbeat IPC: 0.07928 cumulative IPC: 0.06996 (Simulation time: 0 hr 56 min 3 sec) 
Heartbeat CPU  0 instructions:  474000001 cycles: 5422088523 heartbeat IPC: 0.11536 cumulative IPC: 0.07004 (Simulation time: 0 hr 56 min 9 sec) 
Heartbeat CPU  0 instructions:  475000003 cycles: 5445396882 heartbeat IPC: 0.04290 cumulative IPC: 0.06992 (Simulation time: 0 hr 56 min 22 sec) 
Heartbeat CPU  0 instructions:  476000000 cycles: 5464780781 heartbeat IPC: 0.05159 cumulative IPC: 0.06985 (Simulation time: 0 hr 56 min 33 sec) 
Heartbeat CPU  0 instructions:  477000003 cycles: 5477789831 heartbeat IPC: 0.07687 cumulative IPC: 0.06987 (Simulation time: 0 hr 56 min 40 sec) 
Heartbeat CPU  0 instructions:  478000000 cycles: 5489586540 heartbeat IPC: 0.08477 cumulative IPC: 0.06990 (Simulation time: 0 hr 56 min 47 sec) 
Heartbeat CPU  0 instructions:  479000000 cycles: 5498477974 heartbeat IPC: 0.11247 cumulative IPC: 0.06997 (Simulation time: 0 hr 56 min 52 sec) 
Heartbeat CPU  0 instructions:  480000000 cycles: 5524712647 heartbeat IPC: 0.03812 cumulative IPC: 0.06982 (Simulation time: 0 hr 57 min 7 sec) 
Heartbeat CPU  0 instructions:  481000000 cycles: 5537035618 heartbeat IPC: 0.08115 cumulative IPC: 0.06984 (Simulation time: 0 hr 57 min 14 sec) 
Heartbeat CPU  0 instructions:  482000000 cycles: 5547146150 heartbeat IPC: 0.09891 cumulative IPC: 0.06990 (Simulation time: 0 hr 57 min 19 sec) 
Heartbeat CPU  0 instructions:  483000002 cycles: 5556921745 heartbeat IPC: 0.10230 cumulative IPC: 0.06996 (Simulation time: 0 hr 57 min 25 sec) 
Heartbeat CPU  0 instructions:  484000000 cycles: 5584631638 heartbeat IPC: 0.03609 cumulative IPC: 0.06979 (Simulation time: 0 hr 57 min 40 sec) 
Heartbeat CPU  0 instructions:  485000000 cycles: 5595445031 heartbeat IPC: 0.09248 cumulative IPC: 0.06983 (Simulation time: 0 hr 57 min 46 sec) 
Heartbeat CPU  0 instructions:  486000000 cycles: 5607005905 heartbeat IPC: 0.08650 cumulative IPC: 0.06987 (Simulation time: 0 hr 57 min 53 sec) 
Heartbeat CPU  0 instructions:  487000002 cycles: 5617359634 heartbeat IPC: 0.09658 cumulative IPC: 0.06992 (Simulation time: 0 hr 57 min 59 sec) 
Heartbeat CPU  0 instructions:  488000000 cycles: 5644872035 heartbeat IPC: 0.03635 cumulative IPC: 0.06975 (Simulation time: 0 hr 58 min 14 sec) 
Heartbeat CPU  0 instructions:  489000001 cycles: 5654347057 heartbeat IPC: 0.10554 cumulative IPC: 0.06981 (Simulation time: 0 hr 58 min 20 sec) 
Heartbeat CPU  0 instructions:  490000002 cycles: 5663176191 heartbeat IPC: 0.11326 cumulative IPC: 0.06988 (Simulation time: 0 hr 58 min 25 sec) 
Heartbeat CPU  0 instructions:  491000003 cycles: 5674638496 heartbeat IPC: 0.08724 cumulative IPC: 0.06991 (Simulation time: 0 hr 58 min 32 sec) 
Heartbeat CPU  0 instructions:  492000000 cycles: 5699826987 heartbeat IPC: 0.03970 cumulative IPC: 0.06978 (Simulation time: 0 hr 58 min 46 sec) 
Heartbeat CPU  0 instructions:  493000001 cycles: 5708571225 heartbeat IPC: 0.11436 cumulative IPC: 0.06985 (Simulation time: 0 hr 58 min 52 sec) 
Heartbeat CPU  0 instructions:  494000002 cycles: 5718953683 heartbeat IPC: 0.09632 cumulative IPC: 0.06990 (Simulation time: 0 hr 58 min 58 sec) 
Heartbeat CPU  0 instructions:  495000002 cycles: 5729562179 heartbeat IPC: 0.09426 cumulative IPC: 0.06994 (Simulation time: 0 hr 59 min 4 sec) 
Heartbeat CPU  0 instructions:  496000000 cycles: 5755421234 heartbeat IPC: 0.03867 cumulative IPC: 0.06980 (Simulation time: 0 hr 59 min 18 sec) 
Heartbeat CPU  0 instructions:  497000002 cycles: 5764037245 heartbeat IPC: 0.11606 cumulative IPC: 0.06987 (Simulation time: 0 hr 59 min 24 sec) 
Heartbeat CPU  0 instructions:  498000001 cycles: 5772394006 heartbeat IPC: 0.11966 cumulative IPC: 0.06994 (Simulation time: 0 hr 59 min 29 sec) 
Heartbeat CPU  0 instructions:  499000002 cycles: 5785002082 heartbeat IPC: 0.07931 cumulative IPC: 0.06996 (Simulation time: 0 hr 59 min 37 sec) 
Heartbeat CPU  0 instructions:  500000000 cycles: 5808758152 heartbeat IPC: 0.04209 cumulative IPC: 0.06985 (Simulation time: 0 hr 59 min 50 sec) 
Heartbeat CPU  0 instructions:  501000002 cycles: 5816621795 heartbeat IPC: 0.12717 cumulative IPC: 0.06993 (Simulation time: 0 hr 59 min 55 sec) 
Heartbeat CPU  0 instructions:  502000001 cycles: 5825278141 heartbeat IPC: 0.11552 cumulative IPC: 0.07000 (Simulation time: 1 hr 0 min 0 sec) 
Heartbeat CPU  0 instructions:  503000003 cycles: 5841746236 heartbeat IPC: 0.06072 cumulative IPC: 0.06997 (Simulation time: 1 hr 0 min 10 sec) 
Heartbeat CPU  0 instructions:  504000000 cycles: 5862360199 heartbeat IPC: 0.04851 cumulative IPC: 0.06989 (Simulation time: 1 hr 0 min 21 sec) 
Heartbeat CPU  0 instructions:  505000002 cycles: 5872384304 heartbeat IPC: 0.09976 cumulative IPC: 0.06994 (Simulation time: 1 hr 0 min 27 sec) 
Heartbeat CPU  0 instructions:  506000001 cycles: 5882670006 heartbeat IPC: 0.09722 cumulative IPC: 0.06999 (Simulation time: 1 hr 0 min 32 sec) 
Heartbeat CPU  0 instructions:  507000001 cycles: 5902797877 heartbeat IPC: 0.04968 cumulative IPC: 0.06992 (Simulation time: 1 hr 0 min 44 sec) 
Heartbeat CPU  0 instructions:  508000000 cycles: 5921715080 heartbeat IPC: 0.05286 cumulative IPC: 0.06987 (Simulation time: 1 hr 0 min 54 sec) 
Heartbeat CPU  0 instructions:  509000000 cycles: 5931080118 heartbeat IPC: 0.10678 cumulative IPC: 0.06993 (Simulation time: 1 hr 0 min 59 sec) 
Heartbeat CPU  0 instructions:  510000000 cycles: 5939578292 heartbeat IPC: 0.11767 cumulative IPC: 0.07000 (Simulation time: 1 hr 1 min 5 sec) 
Heartbeat CPU  0 instructions:  511000001 cycles: 5962100967 heartbeat IPC: 0.04440 cumulative IPC: 0.06990 (Simulation time: 1 hr 1 min 18 sec) 
Heartbeat CPU  0 instructions:  512000000 cycles: 5976561467 heartbeat IPC: 0.06915 cumulative IPC: 0.06990 (Simulation time: 1 hr 1 min 25 sec) 
Heartbeat CPU  0 instructions:  513000000 cycles: 5985014940 heartbeat IPC: 0.11829 cumulative IPC: 0.06997 (Simulation time: 1 hr 1 min 31 sec) 
Heartbeat CPU  0 instructions:  514000000 cycles: 5992814349 heartbeat IPC: 0.12821 cumulative IPC: 0.07004 (Simulation time: 1 hr 1 min 36 sec) 
Heartbeat CPU  0 instructions:  515000000 cycles: 6017894624 heartbeat IPC: 0.03987 cumulative IPC: 0.06991 (Simulation time: 1 hr 1 min 50 sec) 
Heartbeat CPU  0 instructions:  516000000 cycles: 6030133342 heartbeat IPC: 0.08171 cumulative IPC: 0.06994 (Simulation time: 1 hr 1 min 57 sec) 
Heartbeat CPU  0 instructions:  517000000 cycles: 6038361685 heartbeat IPC: 0.12153 cumulative IPC: 0.07001 (Simulation time: 1 hr 2 min 2 sec) 
Heartbeat CPU  0 instructions:  518000001 cycles: 6046465284 heartbeat IPC: 0.12340 cumulative IPC: 0.07008 (Simulation time: 1 hr 2 min 8 sec) 
Heartbeat CPU  0 instructions:  519000000 cycles: 6074883482 heartbeat IPC: 0.03519 cumulative IPC: 0.06992 (Simulation time: 1 hr 2 min 23 sec) 
Heartbeat CPU  0 instructions:  520000000 cycles: 6084581273 heartbeat IPC: 0.10312 cumulative IPC: 0.06997 (Simulation time: 1 hr 2 min 29 sec) 
Heartbeat CPU  0 instructions:  521000002 cycles: 6093615556 heartbeat IPC: 0.11069 cumulative IPC: 0.07003 (Simulation time: 1 hr 2 min 34 sec) 
Heartbeat CPU  0 instructions:  522000002 cycles: 6103469145 heartbeat IPC: 0.10149 cumulative IPC: 0.07008 (Simulation time: 1 hr 2 min 40 sec) 
Heartbeat CPU  0 instructions:  523000002 cycles: 6131469137 heartbeat IPC: 0.03571 cumulative IPC: 0.06992 (Simulation time: 1 hr 2 min 55 sec) 
Heartbeat CPU  0 instructions:  524000000 cycles: 6139665228 heartbeat IPC: 0.12201 cumulative IPC: 0.06999 (Simulation time: 1 hr 3 min 1 sec) 
Heartbeat CPU  0 instructions:  525000002 cycles: 6147261103 heartbeat IPC: 0.13165 cumulative IPC: 0.07007 (Simulation time: 1 hr 3 min 6 sec) 
Heartbeat CPU  0 instructions:  526000000 cycles: 6156759424 heartbeat IPC: 0.10528 cumulative IPC: 0.07013 (Simulation time: 1 hr 3 min 12 sec) 
Heartbeat CPU  0 instructions:  527000000 cycles: 6184386898 heartbeat IPC: 0.03620 cumulative IPC: 0.06997 (Simulation time: 1 hr 3 min 27 sec) 
Heartbeat CPU  0 instructions:  528000000 cycles: 6191812462 heartbeat IPC: 0.13467 cumulative IPC: 0.07005 (Simulation time: 1 hr 3 min 31 sec) 
Heartbeat CPU  0 instructions:  529000001 cycles: 6199480353 heartbeat IPC: 0.13041 cumulative IPC: 0.07013 (Simulation time: 1 hr 3 min 36 sec) 
Heartbeat CPU  0 instructions:  530000001 cycles: 6210294244 heartbeat IPC: 0.09247 cumulative IPC: 0.07017 (Simulation time: 1 hr 3 min 43 sec) 
Heartbeat CPU  0 instructions:  531000000 cycles: 6237087466 heartbeat IPC: 0.03732 cumulative IPC: 0.07002 (Simulation time: 1 hr 3 min 58 sec) 
Heartbeat CPU  0 instructions:  532000000 cycles: 6249847202 heartbeat IPC: 0.07837 cumulative IPC: 0.07004 (Simulation time: 1 hr 4 min 5 sec) 
Heartbeat CPU  0 instructions:  533000000 cycles: 6257924210 heartbeat IPC: 0.12381 cumulative IPC: 0.07011 (Simulation time: 1 hr 4 min 9 sec) 
Heartbeat CPU  0 instructions:  534000000 cycles: 6266115553 heartbeat IPC: 0.12208 cumulative IPC: 0.07018 (Simulation time: 1 hr 4 min 14 sec) 
Heartbeat CPU  0 instructions:  535000000 cycles: 6285877378 heartbeat IPC: 0.05060 cumulative IPC: 0.07012 (Simulation time: 1 hr 4 min 26 sec) 
Heartbeat CPU  0 instructions:  536000000 cycles: 6302317946 heartbeat IPC: 0.06083 cumulative IPC: 0.07009 (Simulation time: 1 hr 4 min 34 sec) 
Heartbeat CPU  0 instructions:  537000001 cycles: 6310999904 heartbeat IPC: 0.11518 cumulative IPC: 0.07016 (Simulation time: 1 hr 4 min 39 sec) 
Heartbeat CPU  0 instructions:  538000000 cycles: 6319761431 heartbeat IPC: 0.11414 cumulative IPC: 0.07022 (Simulation time: 1 hr 4 min 45 sec) 
Heartbeat CPU  0 instructions:  539000002 cycles: 6338551184 heartbeat IPC: 0.05322 cumulative IPC: 0.07017 (Simulation time: 1 hr 4 min 55 sec) 
Heartbeat CPU  0 instructions:  540000000 cycles: 6356163617 heartbeat IPC: 0.05678 cumulative IPC: 0.07013 (Simulation time: 1 hr 5 min 5 sec) 
Heartbeat CPU  0 instructions:  541000001 cycles: 6365373683 heartbeat IPC: 0.10858 cumulative IPC: 0.07019 (Simulation time: 1 hr 5 min 10 sec) 
Heartbeat CPU  0 instructions:  542000001 cycles: 6373601699 heartbeat IPC: 0.12154 cumulative IPC: 0.07025 (Simulation time: 1 hr 5 min 15 sec) 
Heartbeat CPU  0 instructions:  543000001 cycles: 6389639091 heartbeat IPC: 0.06235 cumulative IPC: 0.07023 (Simulation time: 1 hr 5 min 24 sec) 
Heartbeat CPU  0 instructions:  544000000 cycles: 6409972613 heartbeat IPC: 0.04918 cumulative IPC: 0.07017 (Simulation time: 1 hr 5 min 36 sec) 
Heartbeat CPU  0 instructions:  545000003 cycles: 6417687323 heartbeat IPC: 0.12962 cumulative IPC: 0.07024 (Simulation time: 1 hr 5 min 40 sec) 
Heartbeat CPU  0 instructions:  546000000 cycles: 6425541958 heartbeat IPC: 0.12731 cumulative IPC: 0.07031 (Simulation time: 1 hr 5 min 45 sec) 
Heartbeat CPU  0 instructions:  547000000 cycles: 6440276999 heartbeat IPC: 0.06787 cumulative IPC: 0.07030 (Simulation time: 1 hr 5 min 54 sec) 
Heartbeat CPU  0 instructions:  548000000 cycles: 6461824792 heartbeat IPC: 0.04641 cumulative IPC: 0.07022 (Simulation time: 1 hr 6 min 6 sec) 
Heartbeat CPU  0 instructions:  549000000 cycles: 6469274050 heartbeat IPC: 0.13424 cumulative IPC: 0.07030 (Simulation time: 1 hr 6 min 11 sec) 
Heartbeat CPU  0 instructions:  550000000 cycles: 6477085487 heartbeat IPC: 0.12802 cumulative IPC: 0.07037 (Simulation time: 1 hr 6 min 16 sec) 
Heartbeat CPU  0 instructions:  551000002 cycles: 6491352386 heartbeat IPC: 0.07009 cumulative IPC: 0.07037 (Simulation time: 1 hr 6 min 24 sec) 
Heartbeat CPU  0 instructions:  552000000 cycles: 6513653443 heartbeat IPC: 0.04484 cumulative IPC: 0.07028 (Simulation time: 1 hr 6 min 36 sec) 
Heartbeat CPU  0 instructions:  553000001 cycles: 6522042847 heartbeat IPC: 0.11920 cumulative IPC: 0.07034 (Simulation time: 1 hr 6 min 41 sec) 
Heartbeat CPU  0 instructions:  554000000 cycles: 6530979160 heartbeat IPC: 0.11190 cumulative IPC: 0.07040 (Simulation time: 1 hr 6 min 47 sec) 
Heartbeat CPU  0 instructions:  555000003 cycles: 6542383778 heartbeat IPC: 0.08768 cumulative IPC: 0.07043 (Simulation time: 1 hr 6 min 53 sec) 
Heartbeat CPU  0 instructions:  556000000 cycles: 6567606324 heartbeat IPC: 0.03965 cumulative IPC: 0.07031 (Simulation time: 1 hr 7 min 7 sec) 
Heartbeat CPU  0 instructions:  557000002 cycles: 6575705940 heartbeat IPC: 0.12346 cumulative IPC: 0.07038 (Simulation time: 1 hr 7 min 12 sec) 
Heartbeat CPU  0 instructions:  558000000 cycles: 6583884222 heartbeat IPC: 0.12227 cumulative IPC: 0.07044 (Simulation time: 1 hr 7 min 16 sec) 
Heartbeat CPU  0 instructions:  559000000 cycles: 6591972621 heartbeat IPC: 0.12363 cumulative IPC: 0.07051 (Simulation time: 1 hr 7 min 21 sec) 
Heartbeat CPU  0 instructions:  560000000 cycles: 6617798401 heartbeat IPC: 0.03872 cumulative IPC: 0.07038 (Simulation time: 1 hr 7 min 35 sec) 
Heartbeat CPU  0 instructions:  561000001 cycles: 6628304616 heartbeat IPC: 0.09518 cumulative IPC: 0.07042 (Simulation time: 1 hr 7 min 41 sec) 
Heartbeat CPU  0 instructions:  562000002 cycles: 6635701691 heartbeat IPC: 0.13519 cumulative IPC: 0.07050 (Simulation time: 1 hr 7 min 46 sec) 
Heartbeat CPU  0 instructions:  563000002 cycles: 6643159205 heartbeat IPC: 0.13409 cumulative IPC: 0.07057 (Simulation time: 1 hr 7 min 50 sec) 
Heartbeat CPU  0 instructions:  564000000 cycles: 6661309171 heartbeat IPC: 0.05510 cumulative IPC: 0.07053 (Simulation time: 1 hr 8 min 1 sec) 
Heartbeat CPU  0 instructions:  565000000 cycles: 6679527877 heartbeat IPC: 0.05489 cumulative IPC: 0.07048 (Simulation time: 1 hr 8 min 11 sec) 
Heartbeat CPU  0 instructions:  566000001 cycles: 6687141457 heartbeat IPC: 0.13134 cumulative IPC: 0.07055 (Simulation time: 1 hr 8 min 15 sec) 
Heartbeat CPU  0 instructions:  567000001 cycles: 6694951946 heartbeat IPC: 0.12803 cumulative IPC: 0.07062 (Simulation time: 1 hr 8 min 20 sec) 
Heartbeat CPU  0 instructions:  568000000 cycles: 6707702730 heartbeat IPC: 0.07843 cumulative IPC: 0.07063 (Simulation time: 1 hr 8 min 27 sec) 
Heartbeat CPU  0 instructions:  569000000 cycles: 6731935190 heartbeat IPC: 0.04127 cumulative IPC: 0.07053 (Simulation time: 1 hr 8 min 40 sec) 
Heartbeat CPU  0 instructions:  570000000 cycles: 6740124238 heartbeat IPC: 0.12211 cumulative IPC: 0.07059 (Simulation time: 1 hr 8 min 45 sec) 
Heartbeat CPU  0 instructions:  571000000 cycles: 6747303647 heartbeat IPC: 0.13929 cumulative IPC: 0.07067 (Simulation time: 1 hr 8 min 50 sec) 
Heartbeat CPU  0 instructions:  572000000 cycles: 6754666711 heartbeat IPC: 0.13581 cumulative IPC: 0.07074 (Simulation time: 1 hr 8 min 55 sec) 
Heartbeat CPU  0 instructions:  573000003 cycles: 6782883591 heartbeat IPC: 0.03544 cumulative IPC: 0.07059 (Simulation time: 1 hr 9 min 10 sec) 
Heartbeat CPU  0 instructions:  574000001 cycles: 6791388195 heartbeat IPC: 0.11758 cumulative IPC: 0.07065 (Simulation time: 1 hr 9 min 15 sec) 
Heartbeat CPU  0 instructions:  575000002 cycles: 6798947072 heartbeat IPC: 0.13229 cumulative IPC: 0.07072 (Simulation time: 1 hr 9 min 20 sec) 
Heartbeat CPU  0 instructions:  576000000 cycles: 6807497555 heartbeat IPC: 0.11695 cumulative IPC: 0.07078 (Simulation time: 1 hr 9 min 25 sec) 
Heartbeat CPU  0 instructions:  577000003 cycles: 6828198611 heartbeat IPC: 0.04831 cumulative IPC: 0.07071 (Simulation time: 1 hr 9 min 36 sec) 
Heartbeat CPU  0 instructions:  578000000 cycles: 6845279566 heartbeat IPC: 0.05854 cumulative IPC: 0.07068 (Simulation time: 1 hr 9 min 45 sec) 
Heartbeat CPU  0 instructions:  579000000 cycles: 6852863910 heartbeat IPC: 0.13185 cumulative IPC: 0.07075 (Simulation time: 1 hr 9 min 50 sec) 
Heartbeat CPU  0 instructions:  580000000 cycles: 6860572414 heartbeat IPC: 0.12973 cumulative IPC: 0.07081 (Simulation time: 1 hr 9 min 55 sec) 
Heartbeat CPU  0 instructions:  581000001 cycles: 6873695083 heartbeat IPC: 0.07620 cumulative IPC: 0.07082 (Simulation time: 1 hr 10 min 2 sec) 
Heartbeat CPU  0 instructions:  582000003 cycles: 6898319877 heartbeat IPC: 0.04061 cumulative IPC: 0.07071 (Simulation time: 1 hr 10 min 16 sec) 
Heartbeat CPU  0 instructions:  583000000 cycles: 6905832194 heartbeat IPC: 0.13311 cumulative IPC: 0.07078 (Simulation time: 1 hr 10 min 20 sec) 
Heartbeat CPU  0 instructions:  584000000 cycles: 6913119830 heartbeat IPC: 0.13722 cumulative IPC: 0.07085 (Simulation time: 1 hr 10 min 25 sec) 
Heartbeat CPU  0 instructions:  585000002 cycles: 6920763605 heartbeat IPC: 0.13083 cumulative IPC: 0.07092 (Simulation time: 1 hr 10 min 30 sec) 
Heartbeat CPU  0 instructions:  586000000 cycles: 6950238356 heartbeat IPC: 0.03393 cumulative IPC: 0.07076 (Simulation time: 1 hr 10 min 46 sec) 
Heartbeat CPU  0 instructions:  587000001 cycles: 6958882966 heartbeat IPC: 0.11568 cumulative IPC: 0.07082 (Simulation time: 1 hr 10 min 51 sec) 
Heartbeat CPU  0 instructions:  588000000 cycles: 6966447249 heartbeat IPC: 0.13220 cumulative IPC: 0.07089 (Simulation time: 1 hr 10 min 55 sec) 
Heartbeat CPU  0 instructions:  589000003 cycles: 6978687550 heartbeat IPC: 0.08170 cumulative IPC: 0.07090 (Simulation time: 1 hr 11 min 2 sec) 
Heartbeat CPU  0 instructions:  590000000 cycles: 6990792413 heartbeat IPC: 0.08261 cumulative IPC: 0.07093 (Simulation time: 1 hr 11 min 9 sec) 
Heartbeat CPU  0 instructions:  591000001 cycles: 7018201207 heartbeat IPC: 0.03648 cumulative IPC: 0.07079 (Simulation time: 1 hr 11 min 24 sec) 
Heartbeat CPU  0 instructions:  592000000 cycles: 7026299495 heartbeat IPC: 0.12348 cumulative IPC: 0.07085 (Simulation time: 1 hr 11 min 29 sec) 
Heartbeat CPU  0 instructions:  593000001 cycles: 7033886799 heartbeat IPC: 0.13180 cumulative IPC: 0.07092 (Simulation time: 1 hr 11 min 34 sec) 
Heartbeat CPU  0 instructions:  594000000 cycles: 7041160983 heartbeat IPC: 0.13747 cumulative IPC: 0.07099 (Simulation time: 1 hr 11 min 38 sec) 
Heartbeat CPU  0 instructions:  595000000 cycles: 7066279767 heartbeat IPC: 0.03981 cumulative IPC: 0.07087 (Simulation time: 1 hr 11 min 52 sec) 
Heartbeat CPU  0 instructions:  596000000 cycles: 7078761225 heartbeat IPC: 0.08012 cumulative IPC: 0.07089 (Simulation time: 1 hr 11 min 59 sec) 
Heartbeat CPU  0 instructions:  597000001 cycles: 7087458146 heartbeat IPC: 0.11498 cumulative IPC: 0.07095 (Simulation time: 1 hr 12 min 4 sec) 
Heartbeat CPU  0 instructions:  598000001 cycles: 7095997093 heartbeat IPC: 0.11711 cumulative IPC: 0.07100 (Simulation time: 1 hr 12 min 9 sec) 
Heartbeat CPU  0 instructions:  599000002 cycles: 7119847361 heartbeat IPC: 0.04193 cumulative IPC: 0.07090 (Simulation time: 1 hr 12 min 22 sec) 
Heartbeat CPU  0 instructions:  600000000 cycles: 7134376036 heartbeat IPC: 0.06883 cumulative IPC: 0.07090 (Simulation time: 1 hr 12 min 31 sec) 
Finished CPU 0 instructions: 500000000 cycles: 7052286932 cumulative IPC: 0.07090 (Simulation time: 1 hr 12 min 31 sec) 

ChampSim completed all CPUs

[ROI Statistics]
Core_0_instructions 500000000
Core_0_cycles 7052286932
Core_0_IPC 0.07090

Core_0_branch_prediction_accuracy 93.75037
Core_0_branch_MPKI 14.79093
Core_0_average_ROB_occupancy_at_mispredict 57.28247

Core_0_L1D_total_access 126635315
Core_0_L1D_total_hit 74415453
Core_0_L1D_total_miss 52219862
Core_0_L1D_loads 104017878
Core_0_L1D_load_hit 53691350
Core_0_L1D_load_miss 50326528
Core_0_L1D_RFOs 22617437
Core_0_L1D_RFO_hit 20724103
Core_0_L1D_RFO_miss 1893334
Core_0_L1D_prefetches 0
Core_0_L1D_prefetch_hit 0
Core_0_L1D_prefetch_miss 0
Core_0_L1D_writebacks 0
Core_0_L1D_writeback_hit 0
Core_0_L1D_writeback_miss 0
Core_0_L1D_prefetch_requested 0
Core_0_L1D_prefetch_dropped 0
Core_0_L1D_prefetch_issued 0
Core_0_L1D_prefetch_filled 0
Core_0_L1D_prefetch_useful 0
Core_0_L1D_prefetch_useless 0
Core_0_L1D_prefetch_late 0
Core_0_L1D_average_miss_latency 276.37845

Core_0_L1D_rq_access 158988689
Core_0_L1D_rq_forward 0
Core_0_L1D_rq_merged 54392715
Core_0_L1D_rq_to_cache 104595971
Core_0_L1D_rq_full 0

Core_0_L1D_wq_access 26393734
Core_0_L1D_wq_forward 3
Core_0_L1D_wq_merged 2415038
Core_0_L1D_wq_to_cache 23978696
Core_0_L1D_wq_full 0

Core_0_L1D_pq_access 0
Core_0_L1D_pq_forward 0
Core_0_L1D_pq_merged 0
Core_0_L1D_pq_to_cache 0
Core_0_L1D_pq_full 0

Core_0_L1D_acc_epochs 6438531
Core_0_L1D_acc_level_0 6438531
Core_0_L1D_acc_level_1 0
Core_0_L1D_acc_level_2 0
Core_0_L1D_acc_level_3 0
Core_0_L1D_acc_level_4 0
Core_0_L1D_acc_level_5 0
Core_0_L1D_acc_level_6 0
Core_0_L1D_acc_level_7 0
Core_0_L1D_acc_level_8 0
Core_0_L1D_acc_level_9 0

Core_0_L1I_total_access 107689706
Core_0_L1I_total_hit 107689706
Core_0_L1I_total_miss 0
Core_0_L1I_loads 107689706
Core_0_L1I_load_hit 107689706
Core_0_L1I_load_miss 0
Core_0_L1I_RFOs 0
Core_0_L1I_RFO_hit 0
Core_0_L1I_RFO_miss 0
Core_0_L1I_prefetches 0
Core_0_L1I_prefetch_hit 0
Core_0_L1I_prefetch_miss 0
Core_0_L1I_writebacks 0
Core_0_L1I_writeback_hit 0
Core_0_L1I_writeback_miss 0
Core_0_L1I_prefetch_requested 0
Core_0_L1I_prefetch_dropped 0
Core_0_L1I_prefetch_issued 0
Core_0_L1I_prefetch_filled 0
Core_0_L1I_prefetch_useful 0
Core_0_L1I_prefetch_useless 0
Core_0_L1I_prefetch_late 0
Core_0_L1I_average_miss_latency -nan

Core_0_L1I_rq_access 499999764
Core_0_L1I_rq_forward 0
Core_0_L1I_rq_merged 392310058
Core_0_L1I_rq_to_cache 107689706
Core_0_L1I_rq_full 0

Core_0_L1I_wq_access 0
Core_0_L1I_wq_forward 0
Core_0_L1I_wq_merged 0
Core_0_L1I_wq_to_cache 0
Core_0_L1I_wq_full 0

Core_0_L1I_pq_access 0
Core_0_L1I_pq_forward 0
Core_0_L1I_pq_merged 0
Core_0_L1I_pq_to_cache 0
Core_0_L1I_pq_full 0

Core_0_L1I_acc_epochs 6438531
Core_0_L1I_acc_level_0 6438531
Core_0_L1I_acc_level_1 0
Core_0_L1I_acc_level_2 0
Core_0_L1I_acc_level_3 0
Core_0_L1I_acc_level_4 0
Core_0_L1I_acc_level_5 0
Core_0_L1I_acc_level_6 0
Core_0_L1I_acc_level_7 0
Core_0_L1I_acc_level_8 0
Core_0_L1I_acc_level_9 0

Core_0_L2C_total_access 94791496
Core_0_L2C_total_hit 49860714
Core_0_L2C_total_miss 44930782
Core_0_L2C_loads 50325568
Core_0_L2C_load_hit 13720396
Core_0_L2C_load_miss 36605172
Core_0_L2C_RFOs 1893303
Core_0_L2C_RFO_hit 1035006
Core_0_L2C_RFO_miss 858297
Core_0_L2C_prefetches 30189343
Core_0_L2C_prefetch_hit 22754513
Core_0_L2C_prefetch_miss 7434830
Core_0_L2C_writebacks 12383282
Core_0_L2C_writeback_hit 12350799
Core_0_L2C_writeback_miss 32483
Core_0_L2C_prefetch_requested 358858163
Core_0_L2C_prefetch_dropped 0
Core_0_L2C_prefetch_issued 358858163
Core_0_L2C_prefetch_filled 8529525
Core_0_L2C_prefetch_useful 2129438
Core_0_L2C_prefetch_useless 6399721
Core_0_L2C_prefetch_late 32886
Core_0_L2C_average_miss_latency 350.96106

Core_0_L2C_rq_access 52219862
Core_0_L2C_rq_forward 0
Core_0_L2C_rq_merged 0
Core_0_L2C_rq_to_cache 52218871
Core_0_L2C_rq_full 0

Core_0_L2C_wq_access 12383282
Core_0_L2C_wq_forward 1398
Core_0_L2C_wq_merged 0
Core_0_L2C_wq_to_cache 12383282
Core_0_L2C_wq_full 0

Core_0_L2C_pq_access 358858163
Core_0_L2C_pq_forward 0
Core_0_L2C_pq_merged 7
Core_0_L2C_pq_to_cache 358857749
Core_0_L2C_pq_full 0

Core_0_L2C_acc_epochs 6438531
Core_0_L2C_acc_level_0 5005569
Core_0_L2C_acc_level_1 431940
Core_0_L2C_acc_level_2 327216
Core_0_L2C_acc_level_3 133321
Core_0_L2C_acc_level_4 62439
Core_0_L2C_acc_level_5 217944
Core_0_L2C_acc_level_6 56114
Core_0_L2C_acc_level_7 41886
Core_0_L2C_acc_level_8 25223
Core_0_L2C_acc_level_9 136879

Core_0_LLC_total_access 347814440
Core_0_LLC_total_hit 167376720
Core_0_LLC_total_miss 180437720
Core_0_LLC_loads 36575245
Core_0_LLC_load_hit 14598188
Core_0_LLC_load_miss 21977057
Core_0_LLC_RFOs 857808
Core_0_LLC_RFO_hit 484374
Core_0_LLC_RFO_miss 373434
Core_0_LLC_prefetches 301569939
Core_0_LLC_prefetch_hit 147188765
Core_0_LLC_prefetch_miss 154381174
Core_0_LLC_writebacks 8811448
Core_0_LLC_writeback_hit 5105393
Core_0_LLC_writeback_miss 3706055
Core_0_LLC_prefetch_requested 0
Core_0_LLC_prefetch_dropped 0
Core_0_LLC_prefetch_issued 0
Core_0_LLC_prefetch_filled 169540497
Core_0_LLC_prefetch_useful 11267565
Core_0_LLC_prefetch_useless 158248343
Core_0_LLC_prefetch_late 107929
Core_0_LLC_average_miss_latency 602.28176

Core_0_LLC_rq_access 37433223
Core_0_LLC_rq_forward 0
Core_0_LLC_rq_merged 0
Core_0_LLC_rq_to_cache 37433053
Core_0_LLC_rq_full 0

Core_0_LLC_wq_access 8811448
Core_0_LLC_wq_forward 274
Core_0_LLC_wq_merged 0
Core_0_LLC_wq_to_cache 8811448
Core_0_LLC_wq_full 0

Core_0_LLC_pq_access 329072241
Core_0_LLC_pq_forward 0
Core_0_LLC_pq_merged 0
Core_0_LLC_pq_to_cache 329072119
Core_0_LLC_pq_full 0

Core_0_LLC_acc_epochs 6967165
Core_0_LLC_acc_level_0 5198856
Core_0_LLC_acc_level_1 1159111
Core_0_LLC_acc_level_2 294223
Core_0_LLC_acc_level_3 105737
Core_0_LLC_acc_level_4 44556
Core_0_LLC_acc_level_5 47044
Core_0_LLC_acc_level_6 19898
Core_0_LLC_acc_level_7 15792
Core_0_LLC_acc_level_8 10947
Core_0_LLC_acc_level_9 71001

Core_0_major_page_fault 0
Core_0_minor_page_fault 158560

[Bingo] PHT Access: 42447603
[Bingo] PHT Hit PC+Addr: 4446377
[Bingo] PHT Hit PC+Offs: 29768887
[Bingo] PHT Miss: 8232339
[Bingo] Prefetch PC+Addr: 0
[Bingo] Prefetch PC+Offs: 0
[Bingo] Useful PC+Addr: 0
[Bingo] Useful PC+Offs: 0
[Bingo] Useless PC+Addr: 0
[Bingo] Useless PC+Offs: 0
[Bingo] L1 Prefetch per Region: 0.00000
[Bingo] L2 Prefetch per Region: 1.60906
[Bingo] L3 Prefetch per Region: 11.18801
[Bingo] No Prefetch per Region: 19.20293
[Bingo] Number of Voters Mean: 12.11516
[Bingo] Number of Voters SD: 5.15918

Channel_0_RQ_row_buffer_hit 74795297
Channel_0_RQ_row_buffer_miss 101869126
Channel_0_WQ_row_buffer_hit 1128531
Channel_0_WQ_row_buffer_miss 7138608
Channel_0_WQ_full 0
Channel_0_dbus_congested 162678706

avg_congested_cycle 23

DRAM_bw_pochs 27868657
DRAM_bw_level_0 4383876
DRAM_bw_level_1 2759295
DRAM_bw_level_2 2778284
DRAM_bw_level_3 17947202
