*************************************************
   ChampSim Multicore Out-of-Order Simulator
   Last compiled: Dec 11 2024 17:59:53
*************************************************
parsing config file: /home/functionmain/桌面/Pythia/config/nopref.ini

trace_0 /home/functionmain/桌面/Pythia/traces/429.mcf-192B.champsimtrace.xz
adding L2C_PREFETCHER: NONE
Initialize SHIP state
warmup_instructions 100000000
simulation_instructions 500000000
champsim_seed 222
measure_ipc 0
measure_ipc_epoch 1000
measure_dram_bw 1
measure_dram_bw_epoch 256
measure_cache_acc 1
measure_cache_acc_epoch 1024
l1d_perfect 0
l2c_perfect 0
llc_perfect 0
l1d_semi_perfect 0
l2c_semi_perfect 0
llc_semi_perfect 0
semi_perfect_cache_page_buffer_size 64

num_cpus 1
cpu_freq 4000
dram_io_freq 600
page_size 4096
block_size 64
max_read_per_cycle 8
max_fill_per_cycle 1
dram_channels 1
log2_dram_channels 0
dram_ranks 1
dram_banks 8
dram_rows 65536
dram_columns 128
dram_row_size 8
dram_size 4096
dram_pages 1048576

fetch_width 6
decode_width 6
exec_width 4
lq_width 2
sq_width 2
retire_width 4
scheduler_size 128
branch_mispredict_penalty 20
rob_size 256
lq_size 72
sq_size 56
num_instr_destinations_sparc 4
num_instr_destinations 2
num_instr_sources 4

itlb_set 16
itlb_way 8
itlb_rq_size 16
itlb_wq_size 16
itlb_pq_size 0
itlb_mshr_size 8
itlb_latency 1

dtlb_set 16
dtlb_way 4
dtlb_rq_size 16
dtlb_wq_size 16
dtlb_pq_size 0
dtlb_mshr_size 8
dtlb_latency 1

stlb_set 128
stlb_way 12
stlb_rq_size 32
stlb_wq_size 32
stlb_pq_size 0
stlb_mshr_size 16
stlb_latency 8

l1i_size 32
l1i_set 64
l1i_way 8
l1i_rq_size 64
l1i_wq_size 64
l1i_pq_size 8
l1i_mshr_size 8
l1i_latency 1

l1d_size 32
l1d_set 64
l1d_way 8
l1d_rq_size 64
l1d_wq_size 64
l1d_pq_size 8
l1d_mshr_size 16
l1d_latency 4

l2c_size 256
l2c_set 512
l2c_way 8
l2c_rq_size 32
l2c_wq_size 32
l2c_pq_size 32
l2c_mshr_size 32
l2c_latency 10

llc_size 2048
llc_set 2048
llc_way 16
llc_rq_size 32
llc_wq_size 32
llc_pq_size 32
llc_mshr_size 64
llc_latency 20

dram_channel_width 8
dram_wq_size 64
dram_rq_size 64
tRP 15
tRCD 15
tCAS 12.5
dram_dbus_turn_around_time 30
dram_write_high_wm 56
dram_write_low_wm 48
min_dram_writes_per_switch 16
dram_mtps 600
dram_dbus_return_time 53


Heartbeat CPU  0 instructions:    1000002 cycles:    1178218 heartbeat IPC: 0.84874 cumulative IPC: 0.84874 (Simulation time: 0 hr 0 min 1 sec) 
Heartbeat CPU  0 instructions:    2000002 cycles:    2361928 heartbeat IPC: 0.84480 cumulative IPC: 0.84677 (Simulation time: 0 hr 0 min 2 sec) 
Heartbeat CPU  0 instructions:    3000000 cycles:    3526486 heartbeat IPC: 0.85869 cumulative IPC: 0.85071 (Simulation time: 0 hr 0 min 4 sec) 
Heartbeat CPU  0 instructions:    4000000 cycles:    4666903 heartbeat IPC: 0.87687 cumulative IPC: 0.85710 (Simulation time: 0 hr 0 min 5 sec) 
Heartbeat CPU  0 instructions:    5000001 cycles:    5826102 heartbeat IPC: 0.86267 cumulative IPC: 0.85821 (Simulation time: 0 hr 0 min 6 sec) 
Heartbeat CPU  0 instructions:    6000000 cycles:    6980348 heartbeat IPC: 0.86637 cumulative IPC: 0.85956 (Simulation time: 0 hr 0 min 7 sec) 
Heartbeat CPU  0 instructions:    7000000 cycles:    8153325 heartbeat IPC: 0.85253 cumulative IPC: 0.85855 (Simulation time: 0 hr 0 min 8 sec) 
Heartbeat CPU  0 instructions:    8000000 cycles:    9310751 heartbeat IPC: 0.86399 cumulative IPC: 0.85922 (Simulation time: 0 hr 0 min 10 sec) 
Heartbeat CPU  0 instructions:    9000002 cycles:   10477805 heartbeat IPC: 0.85686 cumulative IPC: 0.85896 (Simulation time: 0 hr 0 min 11 sec) 
Heartbeat CPU  0 instructions:   10000000 cycles:   11642039 heartbeat IPC: 0.85893 cumulative IPC: 0.85896 (Simulation time: 0 hr 0 min 12 sec) 
Heartbeat CPU  0 instructions:   11000003 cycles:   12779736 heartbeat IPC: 0.87897 cumulative IPC: 0.86074 (Simulation time: 0 hr 0 min 13 sec) 
Heartbeat CPU  0 instructions:   12000000 cycles:   13892090 heartbeat IPC: 0.89899 cumulative IPC: 0.86380 (Simulation time: 0 hr 0 min 15 sec) 
Heartbeat CPU  0 instructions:   13000001 cycles:   15034693 heartbeat IPC: 0.87520 cumulative IPC: 0.86467 (Simulation time: 0 hr 0 min 16 sec) 
Heartbeat CPU  0 instructions:   14000000 cycles:   16185949 heartbeat IPC: 0.86862 cumulative IPC: 0.86495 (Simulation time: 0 hr 0 min 17 sec) 
Heartbeat CPU  0 instructions:   15000000 cycles:   17351375 heartbeat IPC: 0.85806 cumulative IPC: 0.86448 (Simulation time: 0 hr 0 min 18 sec) 
Heartbeat CPU  0 instructions:   16000000 cycles:   18519289 heartbeat IPC: 0.85623 cumulative IPC: 0.86396 (Simulation time: 0 hr 0 min 19 sec) 
Heartbeat CPU  0 instructions:   17000001 cycles:   19694267 heartbeat IPC: 0.85108 cumulative IPC: 0.86320 (Simulation time: 0 hr 0 min 21 sec) 
Heartbeat CPU  0 instructions:   18000000 cycles:   20865212 heartbeat IPC: 0.85401 cumulative IPC: 0.86268 (Simulation time: 0 hr 0 min 22 sec) 
Heartbeat CPU  0 instructions:   19000003 cycles:   22020711 heartbeat IPC: 0.86543 cumulative IPC: 0.86282 (Simulation time: 0 hr 0 min 23 sec) 
Heartbeat CPU  0 instructions:   20000000 cycles:   23169514 heartbeat IPC: 0.87047 cumulative IPC: 0.86320 (Simulation time: 0 hr 0 min 24 sec) 
Heartbeat CPU  0 instructions:   21000000 cycles:   24325969 heartbeat IPC: 0.86471 cumulative IPC: 0.86327 (Simulation time: 0 hr 0 min 25 sec) 
Heartbeat CPU  0 instructions:   22000003 cycles:   25486882 heartbeat IPC: 0.86139 cumulative IPC: 0.86319 (Simulation time: 0 hr 0 min 27 sec) 
Heartbeat CPU  0 instructions:   23000001 cycles:   26632589 heartbeat IPC: 0.87282 cumulative IPC: 0.86360 (Simulation time: 0 hr 0 min 28 sec) 
Heartbeat CPU  0 instructions:   24000000 cycles:   27778348 heartbeat IPC: 0.87278 cumulative IPC: 0.86398 (Simulation time: 0 hr 0 min 29 sec) 
Heartbeat CPU  0 instructions:   25000001 cycles:   28923651 heartbeat IPC: 0.87313 cumulative IPC: 0.86434 (Simulation time: 0 hr 0 min 30 sec) 
Heartbeat CPU  0 instructions:   26000000 cycles:   30075396 heartbeat IPC: 0.86825 cumulative IPC: 0.86449 (Simulation time: 0 hr 0 min 31 sec) 
Heartbeat CPU  0 instructions:   27000000 cycles:   31227503 heartbeat IPC: 0.86797 cumulative IPC: 0.86462 (Simulation time: 0 hr 0 min 33 sec) 
Heartbeat CPU  0 instructions:   28000000 cycles:   32357243 heartbeat IPC: 0.88516 cumulative IPC: 0.86534 (Simulation time: 0 hr 0 min 34 sec) 
Heartbeat CPU  0 instructions:   29000000 cycles:   33531189 heartbeat IPC: 0.85183 cumulative IPC: 0.86487 (Simulation time: 0 hr 0 min 35 sec) 
Heartbeat CPU  0 instructions:   30000002 cycles:   34704138 heartbeat IPC: 0.85255 cumulative IPC: 0.86445 (Simulation time: 0 hr 0 min 36 sec) 
Heartbeat CPU  0 instructions:   31000002 cycles:   35883706 heartbeat IPC: 0.84777 cumulative IPC: 0.86390 (Simulation time: 0 hr 0 min 37 sec) 
Heartbeat CPU  0 instructions:   32000000 cycles:   37049094 heartbeat IPC: 0.85808 cumulative IPC: 0.86372 (Simulation time: 0 hr 0 min 39 sec) 
Heartbeat CPU  0 instructions:   33000000 cycles:   38211645 heartbeat IPC: 0.86018 cumulative IPC: 0.86361 (Simulation time: 0 hr 0 min 40 sec) 
Heartbeat CPU  0 instructions:   34000002 cycles:   39370715 heartbeat IPC: 0.86276 cumulative IPC: 0.86359 (Simulation time: 0 hr 0 min 41 sec) 
Heartbeat CPU  0 instructions:   35000000 cycles:   40542067 heartbeat IPC: 0.85371 cumulative IPC: 0.86330 (Simulation time: 0 hr 0 min 42 sec) 
Heartbeat CPU  0 instructions:   36000000 cycles:   41724824 heartbeat IPC: 0.84548 cumulative IPC: 0.86280 (Simulation time: 0 hr 0 min 43 sec) 
Heartbeat CPU  0 instructions:   37000001 cycles:   42900874 heartbeat IPC: 0.85030 cumulative IPC: 0.86245 (Simulation time: 0 hr 0 min 45 sec) 
Heartbeat CPU  0 instructions:   38000000 cycles:   44063275 heartbeat IPC: 0.86029 cumulative IPC: 0.86240 (Simulation time: 0 hr 0 min 46 sec) 
Heartbeat CPU  0 instructions:   39000000 cycles:   45224894 heartbeat IPC: 0.86087 cumulative IPC: 0.86236 (Simulation time: 0 hr 0 min 47 sec) 
Heartbeat CPU  0 instructions:   40000000 cycles:   46381258 heartbeat IPC: 0.86478 cumulative IPC: 0.86242 (Simulation time: 0 hr 0 min 48 sec) 
Heartbeat CPU  0 instructions:   41000001 cycles:   47583715 heartbeat IPC: 0.83163 cumulative IPC: 0.86164 (Simulation time: 0 hr 0 min 49 sec) 
Heartbeat CPU  0 instructions:   42000000 cycles:   48770518 heartbeat IPC: 0.84260 cumulative IPC: 0.86118 (Simulation time: 0 hr 0 min 51 sec) 
Heartbeat CPU  0 instructions:   43000000 cycles:   49950614 heartbeat IPC: 0.84739 cumulative IPC: 0.86085 (Simulation time: 0 hr 0 min 52 sec) 
Heartbeat CPU  0 instructions:   44000000 cycles:   51111272 heartbeat IPC: 0.86158 cumulative IPC: 0.86087 (Simulation time: 0 hr 0 min 53 sec) 
Heartbeat CPU  0 instructions:   45000000 cycles:   52270860 heartbeat IPC: 0.86238 cumulative IPC: 0.86090 (Simulation time: 0 hr 0 min 54 sec) 
Heartbeat CPU  0 instructions:   46000002 cycles:   53406396 heartbeat IPC: 0.88064 cumulative IPC: 0.86132 (Simulation time: 0 hr 0 min 55 sec) 
Heartbeat CPU  0 instructions:   47000000 cycles:   54562380 heartbeat IPC: 0.86506 cumulative IPC: 0.86140 (Simulation time: 0 hr 0 min 57 sec) 
Heartbeat CPU  0 instructions:   48000000 cycles:   55716222 heartbeat IPC: 0.86667 cumulative IPC: 0.86151 (Simulation time: 0 hr 0 min 58 sec) 
Heartbeat CPU  0 instructions:   49000001 cycles:   56874943 heartbeat IPC: 0.86302 cumulative IPC: 0.86154 (Simulation time: 0 hr 0 min 59 sec) 
Heartbeat CPU  0 instructions:   50000002 cycles:   58015185 heartbeat IPC: 0.87701 cumulative IPC: 0.86184 (Simulation time: 0 hr 1 min 0 sec) 
Heartbeat CPU  0 instructions:   51000000 cycles:   59150681 heartbeat IPC: 0.88067 cumulative IPC: 0.86220 (Simulation time: 0 hr 1 min 1 sec) 
Heartbeat CPU  0 instructions:   52000000 cycles:   60282375 heartbeat IPC: 0.88363 cumulative IPC: 0.86261 (Simulation time: 0 hr 1 min 3 sec) 
Heartbeat CPU  0 instructions:   53000001 cycles:   61411111 heartbeat IPC: 0.88595 cumulative IPC: 0.86304 (Simulation time: 0 hr 1 min 4 sec) 
Heartbeat CPU  0 instructions:   54000000 cycles:   62539122 heartbeat IPC: 0.88652 cumulative IPC: 0.86346 (Simulation time: 0 hr 1 min 5 sec) 
Heartbeat CPU  0 instructions:   55000001 cycles:   63667693 heartbeat IPC: 0.88608 cumulative IPC: 0.86386 (Simulation time: 0 hr 1 min 6 sec) 
Heartbeat CPU  0 instructions:   56000000 cycles:   64820143 heartbeat IPC: 0.86772 cumulative IPC: 0.86393 (Simulation time: 0 hr 1 min 8 sec) 
Heartbeat CPU  0 instructions:   57000000 cycles:   65962205 heartbeat IPC: 0.87561 cumulative IPC: 0.86413 (Simulation time: 0 hr 1 min 9 sec) 
Heartbeat CPU  0 instructions:   58000003 cycles:   67112713 heartbeat IPC: 0.86918 cumulative IPC: 0.86422 (Simulation time: 0 hr 1 min 10 sec) 
Heartbeat CPU  0 instructions:   59000003 cycles:   68273818 heartbeat IPC: 0.86125 cumulative IPC: 0.86417 (Simulation time: 0 hr 1 min 11 sec) 
Heartbeat CPU  0 instructions:   60000000 cycles:   69442572 heartbeat IPC: 0.85561 cumulative IPC: 0.86402 (Simulation time: 0 hr 1 min 12 sec) 
Heartbeat CPU  0 instructions:   61000002 cycles:   70622975 heartbeat IPC: 0.84717 cumulative IPC: 0.86374 (Simulation time: 0 hr 1 min 14 sec) 
Heartbeat CPU  0 instructions:   62000000 cycles:   71803201 heartbeat IPC: 0.84729 cumulative IPC: 0.86347 (Simulation time: 0 hr 1 min 15 sec) 
Heartbeat CPU  0 instructions:   63000000 cycles:   72995701 heartbeat IPC: 0.83857 cumulative IPC: 0.86306 (Simulation time: 0 hr 1 min 16 sec) 
Heartbeat CPU  0 instructions:   64000000 cycles:   74191900 heartbeat IPC: 0.83598 cumulative IPC: 0.86263 (Simulation time: 0 hr 1 min 17 sec) 
Heartbeat CPU  0 instructions:   65000000 cycles:   75391454 heartbeat IPC: 0.83364 cumulative IPC: 0.86217 (Simulation time: 0 hr 1 min 18 sec) 
Heartbeat CPU  0 instructions:   66000002 cycles:   76587891 heartbeat IPC: 0.83582 cumulative IPC: 0.86176 (Simulation time: 0 hr 1 min 20 sec) 
Heartbeat CPU  0 instructions:   67000001 cycles:   77771147 heartbeat IPC: 0.84512 cumulative IPC: 0.86150 (Simulation time: 0 hr 1 min 21 sec) 
Heartbeat CPU  0 instructions:   68000000 cycles:   78950196 heartbeat IPC: 0.84814 cumulative IPC: 0.86130 (Simulation time: 0 hr 1 min 22 sec) 
Heartbeat CPU  0 instructions:   69000001 cycles:   80128770 heartbeat IPC: 0.84848 cumulative IPC: 0.86111 (Simulation time: 0 hr 1 min 23 sec) 
Heartbeat CPU  0 instructions:   70000001 cycles:   81306862 heartbeat IPC: 0.84883 cumulative IPC: 0.86094 (Simulation time: 0 hr 1 min 24 sec) 
Heartbeat CPU  0 instructions:   71000003 cycles:   82479484 heartbeat IPC: 0.85279 cumulative IPC: 0.86082 (Simulation time: 0 hr 1 min 26 sec) 
Heartbeat CPU  0 instructions:   72000000 cycles:   83644247 heartbeat IPC: 0.85854 cumulative IPC: 0.86079 (Simulation time: 0 hr 1 min 27 sec) 
Heartbeat CPU  0 instructions:   73000000 cycles:   84821560 heartbeat IPC: 0.84939 cumulative IPC: 0.86063 (Simulation time: 0 hr 1 min 28 sec) 
Heartbeat CPU  0 instructions:   74000000 cycles:   86001846 heartbeat IPC: 0.84725 cumulative IPC: 0.86045 (Simulation time: 0 hr 1 min 29 sec) 
Heartbeat CPU  0 instructions:   75000001 cycles:   87154632 heartbeat IPC: 0.86746 cumulative IPC: 0.86054 (Simulation time: 0 hr 1 min 30 sec) 
Heartbeat CPU  0 instructions:   76000000 cycles:   88216079 heartbeat IPC: 0.94211 cumulative IPC: 0.86152 (Simulation time: 0 hr 1 min 32 sec) 
Heartbeat CPU  0 instructions:   77000000 cycles:   89206197 heartbeat IPC: 1.00998 cumulative IPC: 0.86317 (Simulation time: 0 hr 1 min 33 sec) 
Heartbeat CPU  0 instructions:   78000001 cycles:   90392155 heartbeat IPC: 0.84320 cumulative IPC: 0.86291 (Simulation time: 0 hr 1 min 34 sec) 
Heartbeat CPU  0 instructions:   79000003 cycles:   91580384 heartbeat IPC: 0.84159 cumulative IPC: 0.86263 (Simulation time: 0 hr 1 min 35 sec) 
Heartbeat CPU  0 instructions:   80000000 cycles:   92774673 heartbeat IPC: 0.83732 cumulative IPC: 0.86230 (Simulation time: 0 hr 1 min 37 sec) 
Heartbeat CPU  0 instructions:   81000003 cycles:   93949768 heartbeat IPC: 0.85100 cumulative IPC: 0.86216 (Simulation time: 0 hr 1 min 38 sec) 
Heartbeat CPU  0 instructions:   82000003 cycles:   95125048 heartbeat IPC: 0.85086 cumulative IPC: 0.86202 (Simulation time: 0 hr 1 min 39 sec) 
Heartbeat CPU  0 instructions:   83000003 cycles:   96291912 heartbeat IPC: 0.85700 cumulative IPC: 0.86196 (Simulation time: 0 hr 1 min 40 sec) 
Heartbeat CPU  0 instructions:   84000000 cycles:   97450181 heartbeat IPC: 0.86335 cumulative IPC: 0.86198 (Simulation time: 0 hr 1 min 41 sec) 
Heartbeat CPU  0 instructions:   85000001 cycles:   98610573 heartbeat IPC: 0.86178 cumulative IPC: 0.86198 (Simulation time: 0 hr 1 min 43 sec) 
Heartbeat CPU  0 instructions:   86000000 cycles:   99752437 heartbeat IPC: 0.87576 cumulative IPC: 0.86213 (Simulation time: 0 hr 1 min 44 sec) 
Heartbeat CPU  0 instructions:   87000001 cycles:  100914581 heartbeat IPC: 0.86048 cumulative IPC: 0.86212 (Simulation time: 0 hr 1 min 45 sec) 
Heartbeat CPU  0 instructions:   88000000 cycles:  102053870 heartbeat IPC: 0.87774 cumulative IPC: 0.86229 (Simulation time: 0 hr 1 min 46 sec) 
Heartbeat CPU  0 instructions:   89000000 cycles:  103220763 heartbeat IPC: 0.85698 cumulative IPC: 0.86223 (Simulation time: 0 hr 1 min 48 sec) 
Heartbeat CPU  0 instructions:   90000000 cycles:  104348677 heartbeat IPC: 0.88659 cumulative IPC: 0.86249 (Simulation time: 0 hr 1 min 49 sec) 
Heartbeat CPU  0 instructions:   91000003 cycles:  105471411 heartbeat IPC: 0.89069 cumulative IPC: 0.86279 (Simulation time: 0 hr 1 min 50 sec) 
Heartbeat CPU  0 instructions:   92000000 cycles:  106592673 heartbeat IPC: 0.89185 cumulative IPC: 0.86310 (Simulation time: 0 hr 1 min 51 sec) 
Heartbeat CPU  0 instructions:   93000002 cycles:  107713274 heartbeat IPC: 0.89238 cumulative IPC: 0.86340 (Simulation time: 0 hr 1 min 52 sec) 
Heartbeat CPU  0 instructions:   94000001 cycles:  108840658 heartbeat IPC: 0.88701 cumulative IPC: 0.86365 (Simulation time: 0 hr 1 min 54 sec) 
Heartbeat CPU  0 instructions:   95000001 cycles:  109995472 heartbeat IPC: 0.86594 cumulative IPC: 0.86367 (Simulation time: 0 hr 1 min 55 sec) 
Heartbeat CPU  0 instructions:   96000000 cycles:  111152721 heartbeat IPC: 0.86412 cumulative IPC: 0.86368 (Simulation time: 0 hr 1 min 56 sec) 
Heartbeat CPU  0 instructions:   97000000 cycles:  112309171 heartbeat IPC: 0.86472 cumulative IPC: 0.86369 (Simulation time: 0 hr 1 min 57 sec) 
Heartbeat CPU  0 instructions:   98000001 cycles:  113454588 heartbeat IPC: 0.87305 cumulative IPC: 0.86378 (Simulation time: 0 hr 1 min 58 sec) 
Heartbeat CPU  0 instructions:   99000000 cycles:  114616799 heartbeat IPC: 0.86043 cumulative IPC: 0.86375 (Simulation time: 0 hr 2 min 0 sec) 
Heartbeat CPU  0 instructions:  100000000 cycles:  115760173 heartbeat IPC: 0.87460 cumulative IPC: 0.86385 (Simulation time: 0 hr 2 min 1 sec) 

Warmup complete CPU  0 instructions:  100000002 cycles:  115760174 (Simulation time: 0 hr 2 min 1 sec) 

Heartbeat CPU  0 instructions:  101000000 cycles:  130349969 heartbeat IPC: 0.06854 cumulative IPC: 0.06854 (Simulation time: 0 hr 2 min 5 sec) 
Heartbeat CPU  0 instructions:  102000000 cycles:  144992464 heartbeat IPC: 0.06829 cumulative IPC: 0.06842 (Simulation time: 0 hr 2 min 10 sec) 
Heartbeat CPU  0 instructions:  103000000 cycles:  159536112 heartbeat IPC: 0.06876 cumulative IPC: 0.06853 (Simulation time: 0 hr 2 min 15 sec) 
Heartbeat CPU  0 instructions:  104000000 cycles:  174347833 heartbeat IPC: 0.06751 cumulative IPC: 0.06827 (Simulation time: 0 hr 2 min 19 sec) 
Heartbeat CPU  0 instructions:  105000000 cycles:  189239759 heartbeat IPC: 0.06715 cumulative IPC: 0.06805 (Simulation time: 0 hr 2 min 24 sec) 
Heartbeat CPU  0 instructions:  106000000 cycles:  204046227 heartbeat IPC: 0.06754 cumulative IPC: 0.06796 (Simulation time: 0 hr 2 min 28 sec) 
Heartbeat CPU  0 instructions:  107000001 cycles:  218739323 heartbeat IPC: 0.06806 cumulative IPC: 0.06797 (Simulation time: 0 hr 2 min 33 sec) 
Heartbeat CPU  0 instructions:  108000000 cycles:  233524560 heartbeat IPC: 0.06763 cumulative IPC: 0.06793 (Simulation time: 0 hr 2 min 37 sec) 
Heartbeat CPU  0 instructions:  109000000 cycles:  248242408 heartbeat IPC: 0.06794 cumulative IPC: 0.06793 (Simulation time: 0 hr 2 min 42 sec) 
Heartbeat CPU  0 instructions:  110000000 cycles:  263063023 heartbeat IPC: 0.06747 cumulative IPC: 0.06789 (Simulation time: 0 hr 2 min 47 sec) 
Heartbeat CPU  0 instructions:  111000001 cycles:  277772018 heartbeat IPC: 0.06799 cumulative IPC: 0.06790 (Simulation time: 0 hr 2 min 51 sec) 
Heartbeat CPU  0 instructions:  112000000 cycles:  292616313 heartbeat IPC: 0.06737 cumulative IPC: 0.06785 (Simulation time: 0 hr 2 min 56 sec) 
Heartbeat CPU  0 instructions:  113000000 cycles:  307307069 heartbeat IPC: 0.06807 cumulative IPC: 0.06787 (Simulation time: 0 hr 3 min 0 sec) 
Heartbeat CPU  0 instructions:  114000000 cycles:  322017411 heartbeat IPC: 0.06798 cumulative IPC: 0.06788 (Simulation time: 0 hr 3 min 5 sec) 
Heartbeat CPU  0 instructions:  115000001 cycles:  336821849 heartbeat IPC: 0.06755 cumulative IPC: 0.06785 (Simulation time: 0 hr 3 min 10 sec) 
Heartbeat CPU  0 instructions:  116000000 cycles:  351537197 heartbeat IPC: 0.06796 cumulative IPC: 0.06786 (Simulation time: 0 hr 3 min 14 sec) 
Heartbeat CPU  0 instructions:  117000000 cycles:  366190476 heartbeat IPC: 0.06824 cumulative IPC: 0.06788 (Simulation time: 0 hr 3 min 19 sec) 
Heartbeat CPU  0 instructions:  118000000 cycles:  380992214 heartbeat IPC: 0.06756 cumulative IPC: 0.06787 (Simulation time: 0 hr 3 min 23 sec) 
Heartbeat CPU  0 instructions:  119000002 cycles:  395811611 heartbeat IPC: 0.06748 cumulative IPC: 0.06784 (Simulation time: 0 hr 3 min 28 sec) 
Heartbeat CPU  0 instructions:  120000000 cycles:  410537051 heartbeat IPC: 0.06791 cumulative IPC: 0.06785 (Simulation time: 0 hr 3 min 33 sec) 
Heartbeat CPU  0 instructions:  121000000 cycles:  425049801 heartbeat IPC: 0.06890 cumulative IPC: 0.06790 (Simulation time: 0 hr 3 min 37 sec) 
Heartbeat CPU  0 instructions:  122000000 cycles:  439891730 heartbeat IPC: 0.06738 cumulative IPC: 0.06787 (Simulation time: 0 hr 3 min 42 sec) 
Heartbeat CPU  0 instructions:  123000000 cycles:  454540756 heartbeat IPC: 0.06826 cumulative IPC: 0.06789 (Simulation time: 0 hr 3 min 46 sec) 
Heartbeat CPU  0 instructions:  124000000 cycles:  469337355 heartbeat IPC: 0.06758 cumulative IPC: 0.06788 (Simulation time: 0 hr 3 min 51 sec) 
Heartbeat CPU  0 instructions:  125000000 cycles:  483971185 heartbeat IPC: 0.06833 cumulative IPC: 0.06790 (Simulation time: 0 hr 3 min 56 sec) 
Heartbeat CPU  0 instructions:  126000001 cycles:  498464425 heartbeat IPC: 0.06900 cumulative IPC: 0.06794 (Simulation time: 0 hr 4 min 0 sec) 
Heartbeat CPU  0 instructions:  127000001 cycles:  512927114 heartbeat IPC: 0.06914 cumulative IPC: 0.06798 (Simulation time: 0 hr 4 min 5 sec) 
Heartbeat CPU  0 instructions:  128000000 cycles:  527264812 heartbeat IPC: 0.06975 cumulative IPC: 0.06804 (Simulation time: 0 hr 4 min 9 sec) 
Heartbeat CPU  0 instructions:  129000000 cycles:  541570294 heartbeat IPC: 0.06990 cumulative IPC: 0.06811 (Simulation time: 0 hr 4 min 14 sec) 
Heartbeat CPU  0 instructions:  130000001 cycles:  555995128 heartbeat IPC: 0.06932 cumulative IPC: 0.06815 (Simulation time: 0 hr 4 min 19 sec) 
Heartbeat CPU  0 instructions:  131000001 cycles:  570433824 heartbeat IPC: 0.06926 cumulative IPC: 0.06818 (Simulation time: 0 hr 4 min 23 sec) 
Heartbeat CPU  0 instructions:  132000000 cycles:  584951409 heartbeat IPC: 0.06888 cumulative IPC: 0.06820 (Simulation time: 0 hr 4 min 28 sec) 
Heartbeat CPU  0 instructions:  133000000 cycles:  599460569 heartbeat IPC: 0.06892 cumulative IPC: 0.06822 (Simulation time: 0 hr 4 min 32 sec) 
Heartbeat CPU  0 instructions:  134000001 cycles:  613673153 heartbeat IPC: 0.07036 cumulative IPC: 0.06829 (Simulation time: 0 hr 4 min 37 sec) 
Heartbeat CPU  0 instructions:  135000000 cycles:  627964479 heartbeat IPC: 0.06997 cumulative IPC: 0.06833 (Simulation time: 0 hr 4 min 42 sec) 
Heartbeat CPU  0 instructions:  136000000 cycles:  642612051 heartbeat IPC: 0.06827 cumulative IPC: 0.06833 (Simulation time: 0 hr 4 min 46 sec) 
Heartbeat CPU  0 instructions:  137000000 cycles:  657292001 heartbeat IPC: 0.06812 cumulative IPC: 0.06832 (Simulation time: 0 hr 4 min 51 sec) 
Heartbeat CPU  0 instructions:  138000000 cycles:  671650904 heartbeat IPC: 0.06964 cumulative IPC: 0.06836 (Simulation time: 0 hr 4 min 55 sec) 
Heartbeat CPU  0 instructions:  139000000 cycles:  686212989 heartbeat IPC: 0.06867 cumulative IPC: 0.06837 (Simulation time: 0 hr 5 min 0 sec) 
Heartbeat CPU  0 instructions:  140000000 cycles:  700994604 heartbeat IPC: 0.06765 cumulative IPC: 0.06835 (Simulation time: 0 hr 5 min 5 sec) 
Heartbeat CPU  0 instructions:  141000000 cycles:  715583541 heartbeat IPC: 0.06855 cumulative IPC: 0.06835 (Simulation time: 0 hr 5 min 9 sec) 
Heartbeat CPU  0 instructions:  142000001 cycles:  730131864 heartbeat IPC: 0.06874 cumulative IPC: 0.06836 (Simulation time: 0 hr 5 min 14 sec) 
Heartbeat CPU  0 instructions:  143000003 cycles:  744737757 heartbeat IPC: 0.06847 cumulative IPC: 0.06836 (Simulation time: 0 hr 5 min 18 sec) 
Heartbeat CPU  0 instructions:  144000000 cycles:  759288291 heartbeat IPC: 0.06873 cumulative IPC: 0.06837 (Simulation time: 0 hr 5 min 23 sec) 
Heartbeat CPU  0 instructions:  145000000 cycles:  773866127 heartbeat IPC: 0.06860 cumulative IPC: 0.06838 (Simulation time: 0 hr 5 min 28 sec) 
Heartbeat CPU  0 instructions:  146000001 cycles:  788549846 heartbeat IPC: 0.06810 cumulative IPC: 0.06837 (Simulation time: 0 hr 5 min 32 sec) 
Heartbeat CPU  0 instructions:  147000002 cycles:  803116979 heartbeat IPC: 0.06865 cumulative IPC: 0.06838 (Simulation time: 0 hr 5 min 37 sec) 
Heartbeat CPU  0 instructions:  148000000 cycles:  817729474 heartbeat IPC: 0.06843 cumulative IPC: 0.06838 (Simulation time: 0 hr 5 min 41 sec) 
Heartbeat CPU  0 instructions:  149000000 cycles:  832412740 heartbeat IPC: 0.06810 cumulative IPC: 0.06837 (Simulation time: 0 hr 5 min 46 sec) 
Heartbeat CPU  0 instructions:  150000000 cycles:  847109748 heartbeat IPC: 0.06804 cumulative IPC: 0.06837 (Simulation time: 0 hr 5 min 50 sec) 
Heartbeat CPU  0 instructions:  151000000 cycles:  861940417 heartbeat IPC: 0.06743 cumulative IPC: 0.06835 (Simulation time: 0 hr 5 min 55 sec) 
Heartbeat CPU  0 instructions:  152000000 cycles:  876638877 heartbeat IPC: 0.06803 cumulative IPC: 0.06834 (Simulation time: 0 hr 6 min 0 sec) 
Heartbeat CPU  0 instructions:  153000000 cycles:  892050904 heartbeat IPC: 0.06488 cumulative IPC: 0.06827 (Simulation time: 0 hr 6 min 4 sec) 
Heartbeat CPU  0 instructions:  154000000 cycles:  907265012 heartbeat IPC: 0.06573 cumulative IPC: 0.06822 (Simulation time: 0 hr 6 min 9 sec) 
Heartbeat CPU  0 instructions:  155000000 cycles:  922266342 heartbeat IPC: 0.06666 cumulative IPC: 0.06820 (Simulation time: 0 hr 6 min 13 sec) 
Heartbeat CPU  0 instructions:  156000000 cycles:  937185607 heartbeat IPC: 0.06703 cumulative IPC: 0.06817 (Simulation time: 0 hr 6 min 18 sec) 
Heartbeat CPU  0 instructions:  157000000 cycles:  952069014 heartbeat IPC: 0.06719 cumulative IPC: 0.06816 (Simulation time: 0 hr 6 min 23 sec) 
Heartbeat CPU  0 instructions:  158000000 cycles:  966954735 heartbeat IPC: 0.06718 cumulative IPC: 0.06814 (Simulation time: 0 hr 6 min 27 sec) 
Heartbeat CPU  0 instructions:  159000000 cycles:  981816942 heartbeat IPC: 0.06728 cumulative IPC: 0.06812 (Simulation time: 0 hr 6 min 32 sec) 
Heartbeat CPU  0 instructions:  160000000 cycles:  996722544 heartbeat IPC: 0.06709 cumulative IPC: 0.06811 (Simulation time: 0 hr 6 min 36 sec) 
Heartbeat CPU  0 instructions:  161000001 cycles: 1011639049 heartbeat IPC: 0.06704 cumulative IPC: 0.06809 (Simulation time: 0 hr 6 min 41 sec) 
Heartbeat CPU  0 instructions:  162000000 cycles: 1026555581 heartbeat IPC: 0.06704 cumulative IPC: 0.06807 (Simulation time: 0 hr 6 min 45 sec) 
Heartbeat CPU  0 instructions:  163000000 cycles: 1041384039 heartbeat IPC: 0.06744 cumulative IPC: 0.06806 (Simulation time: 0 hr 6 min 50 sec) 
Heartbeat CPU  0 instructions:  164000000 cycles: 1056076169 heartbeat IPC: 0.06806 cumulative IPC: 0.06806 (Simulation time: 0 hr 6 min 55 sec) 
Heartbeat CPU  0 instructions:  165000000 cycles: 1070771730 heartbeat IPC: 0.06805 cumulative IPC: 0.06806 (Simulation time: 0 hr 6 min 59 sec) 
Heartbeat CPU  0 instructions:  166000000 cycles: 1085503631 heartbeat IPC: 0.06788 cumulative IPC: 0.06806 (Simulation time: 0 hr 7 min 4 sec) 
Heartbeat CPU  0 instructions:  167000000 cycles: 1100315336 heartbeat IPC: 0.06751 cumulative IPC: 0.06805 (Simulation time: 0 hr 7 min 8 sec) 
Heartbeat CPU  0 instructions:  168000000 cycles: 1115022983 heartbeat IPC: 0.06799 cumulative IPC: 0.06805 (Simulation time: 0 hr 7 min 13 sec) 
Heartbeat CPU  0 instructions:  169000000 cycles: 1129758818 heartbeat IPC: 0.06786 cumulative IPC: 0.06805 (Simulation time: 0 hr 7 min 18 sec) 
Heartbeat CPU  0 instructions:  170000000 cycles: 1144643452 heartbeat IPC: 0.06718 cumulative IPC: 0.06803 (Simulation time: 0 hr 7 min 22 sec) 
Heartbeat CPU  0 instructions:  171000000 cycles: 1159477073 heartbeat IPC: 0.06741 cumulative IPC: 0.06803 (Simulation time: 0 hr 7 min 27 sec) 
Heartbeat CPU  0 instructions:  172000000 cycles: 1174341262 heartbeat IPC: 0.06728 cumulative IPC: 0.06802 (Simulation time: 0 hr 7 min 31 sec) 
Heartbeat CPU  0 instructions:  173000000 cycles: 1189084821 heartbeat IPC: 0.06783 cumulative IPC: 0.06801 (Simulation time: 0 hr 7 min 36 sec) 
Heartbeat CPU  0 instructions:  174000000 cycles: 1203529246 heartbeat IPC: 0.06923 cumulative IPC: 0.06803 (Simulation time: 0 hr 7 min 41 sec) 
Heartbeat CPU  0 instructions:  175000000 cycles: 1217948817 heartbeat IPC: 0.06935 cumulative IPC: 0.06805 (Simulation time: 0 hr 7 min 45 sec) 
Heartbeat CPU  0 instructions:  176000000 cycles: 1232458509 heartbeat IPC: 0.06892 cumulative IPC: 0.06806 (Simulation time: 0 hr 7 min 50 sec) 
Heartbeat CPU  0 instructions:  177000002 cycles: 1247058356 heartbeat IPC: 0.06849 cumulative IPC: 0.06806 (Simulation time: 0 hr 7 min 54 sec) 
Heartbeat CPU  0 instructions:  178000001 cycles: 1261738419 heartbeat IPC: 0.06812 cumulative IPC: 0.06806 (Simulation time: 0 hr 7 min 59 sec) 
Heartbeat CPU  0 instructions:  179000001 cycles: 1276301761 heartbeat IPC: 0.06867 cumulative IPC: 0.06807 (Simulation time: 0 hr 8 min 4 sec) 
Heartbeat CPU  0 instructions:  180000000 cycles: 1290927261 heartbeat IPC: 0.06837 cumulative IPC: 0.06808 (Simulation time: 0 hr 8 min 8 sec) 
Heartbeat CPU  0 instructions:  181000000 cycles: 1305630542 heartbeat IPC: 0.06801 cumulative IPC: 0.06807 (Simulation time: 0 hr 8 min 13 sec) 
Heartbeat CPU  0 instructions:  182000000 cycles: 1320431172 heartbeat IPC: 0.06756 cumulative IPC: 0.06807 (Simulation time: 0 hr 8 min 17 sec) 
Heartbeat CPU  0 instructions:  183000002 cycles: 1335168759 heartbeat IPC: 0.06785 cumulative IPC: 0.06807 (Simulation time: 0 hr 8 min 22 sec) 
Heartbeat CPU  0 instructions:  184000000 cycles: 1349969339 heartbeat IPC: 0.06756 cumulative IPC: 0.06806 (Simulation time: 0 hr 8 min 26 sec) 
Heartbeat CPU  0 instructions:  185000001 cycles: 1364534466 heartbeat IPC: 0.06866 cumulative IPC: 0.06807 (Simulation time: 0 hr 8 min 31 sec) 
Heartbeat CPU  0 instructions:  186000000 cycles: 1379098060 heartbeat IPC: 0.06866 cumulative IPC: 0.06807 (Simulation time: 0 hr 8 min 36 sec) 
Heartbeat CPU  0 instructions:  187000000 cycles: 1393707017 heartbeat IPC: 0.06845 cumulative IPC: 0.06808 (Simulation time: 0 hr 8 min 40 sec) 
Heartbeat CPU  0 instructions:  188000000 cycles: 1408669815 heartbeat IPC: 0.06683 cumulative IPC: 0.06806 (Simulation time: 0 hr 8 min 45 sec) 
Heartbeat CPU  0 instructions:  189000000 cycles: 1423613881 heartbeat IPC: 0.06692 cumulative IPC: 0.06805 (Simulation time: 0 hr 8 min 49 sec) 
Heartbeat CPU  0 instructions:  190000000 cycles: 1438468284 heartbeat IPC: 0.06732 cumulative IPC: 0.06804 (Simulation time: 0 hr 8 min 54 sec) 
Heartbeat CPU  0 instructions:  191000000 cycles: 1453279326 heartbeat IPC: 0.06752 cumulative IPC: 0.06804 (Simulation time: 0 hr 8 min 58 sec) 
Heartbeat CPU  0 instructions:  192000000 cycles: 1468110049 heartbeat IPC: 0.06743 cumulative IPC: 0.06803 (Simulation time: 0 hr 9 min 3 sec) 
Heartbeat CPU  0 instructions:  193000001 cycles: 1482878484 heartbeat IPC: 0.06771 cumulative IPC: 0.06803 (Simulation time: 0 hr 9 min 8 sec) 
Heartbeat CPU  0 instructions:  194000001 cycles: 1497755630 heartbeat IPC: 0.06722 cumulative IPC: 0.06802 (Simulation time: 0 hr 9 min 12 sec) 
Heartbeat CPU  0 instructions:  195000000 cycles: 1512603704 heartbeat IPC: 0.06735 cumulative IPC: 0.06801 (Simulation time: 0 hr 9 min 17 sec) 
Heartbeat CPU  0 instructions:  196000000 cycles: 1527435634 heartbeat IPC: 0.06742 cumulative IPC: 0.06800 (Simulation time: 0 hr 9 min 21 sec) 
Heartbeat CPU  0 instructions:  197000000 cycles: 1542225845 heartbeat IPC: 0.06761 cumulative IPC: 0.06800 (Simulation time: 0 hr 9 min 26 sec) 
Heartbeat CPU  0 instructions:  198000001 cycles: 1556951703 heartbeat IPC: 0.06791 cumulative IPC: 0.06800 (Simulation time: 0 hr 9 min 30 sec) 
Heartbeat CPU  0 instructions:  199000001 cycles: 1571660079 heartbeat IPC: 0.06799 cumulative IPC: 0.06800 (Simulation time: 0 hr 9 min 35 sec) 
Heartbeat CPU  0 instructions:  200000000 cycles: 1586558930 heartbeat IPC: 0.06712 cumulative IPC: 0.06799 (Simulation time: 0 hr 9 min 40 sec) 
Heartbeat CPU  0 instructions:  201000000 cycles: 1601382520 heartbeat IPC: 0.06746 cumulative IPC: 0.06798 (Simulation time: 0 hr 9 min 44 sec) 
Heartbeat CPU  0 instructions:  202000000 cycles: 1616105120 heartbeat IPC: 0.06792 cumulative IPC: 0.06798 (Simulation time: 0 hr 9 min 49 sec) 
Heartbeat CPU  0 instructions:  203000001 cycles: 1630727904 heartbeat IPC: 0.06839 cumulative IPC: 0.06799 (Simulation time: 0 hr 9 min 53 sec) 
Heartbeat CPU  0 instructions:  204000000 cycles: 1645323292 heartbeat IPC: 0.06851 cumulative IPC: 0.06799 (Simulation time: 0 hr 9 min 58 sec) 
Heartbeat CPU  0 instructions:  205000000 cycles: 1659959579 heartbeat IPC: 0.06832 cumulative IPC: 0.06800 (Simulation time: 0 hr 10 min 3 sec) 
Heartbeat CPU  0 instructions:  206000000 cycles: 1674715749 heartbeat IPC: 0.06777 cumulative IPC: 0.06799 (Simulation time: 0 hr 10 min 7 sec) 
Heartbeat CPU  0 instructions:  207000000 cycles: 1689448784 heartbeat IPC: 0.06787 cumulative IPC: 0.06799 (Simulation time: 0 hr 10 min 12 sec) 
Heartbeat CPU  0 instructions:  208000000 cycles: 1704130848 heartbeat IPC: 0.06811 cumulative IPC: 0.06799 (Simulation time: 0 hr 10 min 16 sec) 
Heartbeat CPU  0 instructions:  209000002 cycles: 1718812917 heartbeat IPC: 0.06811 cumulative IPC: 0.06800 (Simulation time: 0 hr 10 min 21 sec) 
Heartbeat CPU  0 instructions:  210000002 cycles: 1733587099 heartbeat IPC: 0.06769 cumulative IPC: 0.06799 (Simulation time: 0 hr 10 min 25 sec) 
Heartbeat CPU  0 instructions:  211000000 cycles: 1748356204 heartbeat IPC: 0.06771 cumulative IPC: 0.06799 (Simulation time: 0 hr 10 min 30 sec) 
Heartbeat CPU  0 instructions:  212000000 cycles: 1763118916 heartbeat IPC: 0.06774 cumulative IPC: 0.06799 (Simulation time: 0 hr 10 min 35 sec) 
Heartbeat CPU  0 instructions:  213000000 cycles: 1777933940 heartbeat IPC: 0.06750 cumulative IPC: 0.06798 (Simulation time: 0 hr 10 min 39 sec) 
Heartbeat CPU  0 instructions:  214000000 cycles: 1792614828 heartbeat IPC: 0.06812 cumulative IPC: 0.06798 (Simulation time: 0 hr 10 min 44 sec) 
Heartbeat CPU  0 instructions:  215000000 cycles: 1807144059 heartbeat IPC: 0.06883 cumulative IPC: 0.06799 (Simulation time: 0 hr 10 min 48 sec) 
Heartbeat CPU  0 instructions:  216000000 cycles: 1821762731 heartbeat IPC: 0.06841 cumulative IPC: 0.06800 (Simulation time: 0 hr 10 min 53 sec) 
Heartbeat CPU  0 instructions:  217000000 cycles: 1836296553 heartbeat IPC: 0.06881 cumulative IPC: 0.06800 (Simulation time: 0 hr 10 min 58 sec) 
Heartbeat CPU  0 instructions:  218000001 cycles: 1850876437 heartbeat IPC: 0.06859 cumulative IPC: 0.06801 (Simulation time: 0 hr 11 min 2 sec) 
Heartbeat CPU  0 instructions:  219000001 cycles: 1865638109 heartbeat IPC: 0.06774 cumulative IPC: 0.06800 (Simulation time: 0 hr 11 min 7 sec) 
Heartbeat CPU  0 instructions:  220000000 cycles: 1880255421 heartbeat IPC: 0.06841 cumulative IPC: 0.06801 (Simulation time: 0 hr 11 min 11 sec) 
Heartbeat CPU  0 instructions:  221000000 cycles: 1894921354 heartbeat IPC: 0.06819 cumulative IPC: 0.06801 (Simulation time: 0 hr 11 min 16 sec) 
Heartbeat CPU  0 instructions:  222000000 cycles: 1909742068 heartbeat IPC: 0.06747 cumulative IPC: 0.06801 (Simulation time: 0 hr 11 min 20 sec) 
Heartbeat CPU  0 instructions:  223000000 cycles: 1924345349 heartbeat IPC: 0.06848 cumulative IPC: 0.06801 (Simulation time: 0 hr 11 min 25 sec) 
Heartbeat CPU  0 instructions:  224000000 cycles: 1938926700 heartbeat IPC: 0.06858 cumulative IPC: 0.06801 (Simulation time: 0 hr 11 min 30 sec) 
Heartbeat CPU  0 instructions:  225000000 cycles: 1953648196 heartbeat IPC: 0.06793 cumulative IPC: 0.06801 (Simulation time: 0 hr 11 min 34 sec) 
Heartbeat CPU  0 instructions:  226000001 cycles: 1968455436 heartbeat IPC: 0.06753 cumulative IPC: 0.06801 (Simulation time: 0 hr 11 min 39 sec) 
Heartbeat CPU  0 instructions:  227000002 cycles: 1983206153 heartbeat IPC: 0.06779 cumulative IPC: 0.06801 (Simulation time: 0 hr 11 min 43 sec) 
Heartbeat CPU  0 instructions:  228000000 cycles: 1997948470 heartbeat IPC: 0.06783 cumulative IPC: 0.06801 (Simulation time: 0 hr 11 min 48 sec) 
Heartbeat CPU  0 instructions:  229000000 cycles: 2012502285 heartbeat IPC: 0.06871 cumulative IPC: 0.06801 (Simulation time: 0 hr 11 min 52 sec) 
Heartbeat CPU  0 instructions:  230000001 cycles: 2027076890 heartbeat IPC: 0.06861 cumulative IPC: 0.06802 (Simulation time: 0 hr 11 min 57 sec) 
Heartbeat CPU  0 instructions:  231000000 cycles: 2041727682 heartbeat IPC: 0.06826 cumulative IPC: 0.06802 (Simulation time: 0 hr 12 min 2 sec) 
Heartbeat CPU  0 instructions:  232000000 cycles: 2055915494 heartbeat IPC: 0.07048 cumulative IPC: 0.06804 (Simulation time: 0 hr 12 min 6 sec) 
Heartbeat CPU  0 instructions:  233000000 cycles: 2070551252 heartbeat IPC: 0.06833 cumulative IPC: 0.06804 (Simulation time: 0 hr 12 min 11 sec) 
Heartbeat CPU  0 instructions:  234000000 cycles: 2085008925 heartbeat IPC: 0.06917 cumulative IPC: 0.06805 (Simulation time: 0 hr 12 min 15 sec) 
Heartbeat CPU  0 instructions:  235000000 cycles: 2099619725 heartbeat IPC: 0.06844 cumulative IPC: 0.06805 (Simulation time: 0 hr 12 min 20 sec) 
Heartbeat CPU  0 instructions:  236000000 cycles: 2114225180 heartbeat IPC: 0.06847 cumulative IPC: 0.06805 (Simulation time: 0 hr 12 min 24 sec) 
Heartbeat CPU  0 instructions:  237000001 cycles: 2128743998 heartbeat IPC: 0.06888 cumulative IPC: 0.06806 (Simulation time: 0 hr 12 min 29 sec) 
Heartbeat CPU  0 instructions:  238000000 cycles: 2143103644 heartbeat IPC: 0.06964 cumulative IPC: 0.06807 (Simulation time: 0 hr 12 min 34 sec) 
Heartbeat CPU  0 instructions:  239000002 cycles: 2157562149 heartbeat IPC: 0.06916 cumulative IPC: 0.06808 (Simulation time: 0 hr 12 min 38 sec) 
Heartbeat CPU  0 instructions:  240000000 cycles: 2172105634 heartbeat IPC: 0.06876 cumulative IPC: 0.06808 (Simulation time: 0 hr 12 min 43 sec) 
Heartbeat CPU  0 instructions:  241000000 cycles: 2186541710 heartbeat IPC: 0.06927 cumulative IPC: 0.06809 (Simulation time: 0 hr 12 min 47 sec) 
Heartbeat CPU  0 instructions:  242000000 cycles: 2201015272 heartbeat IPC: 0.06909 cumulative IPC: 0.06810 (Simulation time: 0 hr 12 min 52 sec) 
Heartbeat CPU  0 instructions:  243000001 cycles: 2215616903 heartbeat IPC: 0.06849 cumulative IPC: 0.06810 (Simulation time: 0 hr 12 min 57 sec) 
Heartbeat CPU  0 instructions:  244000000 cycles: 2230244155 heartbeat IPC: 0.06837 cumulative IPC: 0.06810 (Simulation time: 0 hr 13 min 1 sec) 
Heartbeat CPU  0 instructions:  245000000 cycles: 2244699195 heartbeat IPC: 0.06918 cumulative IPC: 0.06811 (Simulation time: 0 hr 13 min 6 sec) 
Heartbeat CPU  0 instructions:  246000000 cycles: 2259247276 heartbeat IPC: 0.06874 cumulative IPC: 0.06811 (Simulation time: 0 hr 13 min 10 sec) 
Heartbeat CPU  0 instructions:  247000000 cycles: 2273903878 heartbeat IPC: 0.06823 cumulative IPC: 0.06811 (Simulation time: 0 hr 13 min 15 sec) 
Heartbeat CPU  0 instructions:  248000000 cycles: 2288517575 heartbeat IPC: 0.06843 cumulative IPC: 0.06812 (Simulation time: 0 hr 13 min 20 sec) 
Heartbeat CPU  0 instructions:  249000003 cycles: 2303229036 heartbeat IPC: 0.06797 cumulative IPC: 0.06812 (Simulation time: 0 hr 13 min 24 sec) 
Heartbeat CPU  0 instructions:  250000002 cycles: 2317924572 heartbeat IPC: 0.06805 cumulative IPC: 0.06811 (Simulation time: 0 hr 13 min 29 sec) 
Heartbeat CPU  0 instructions:  251000000 cycles: 2332551380 heartbeat IPC: 0.06837 cumulative IPC: 0.06812 (Simulation time: 0 hr 13 min 33 sec) 
Heartbeat CPU  0 instructions:  252000000 cycles: 2347221638 heartbeat IPC: 0.06817 cumulative IPC: 0.06812 (Simulation time: 0 hr 13 min 38 sec) 
Heartbeat CPU  0 instructions:  253000000 cycles: 2362062565 heartbeat IPC: 0.06738 cumulative IPC: 0.06811 (Simulation time: 0 hr 13 min 42 sec) 
Heartbeat CPU  0 instructions:  254000000 cycles: 2376924783 heartbeat IPC: 0.06728 cumulative IPC: 0.06811 (Simulation time: 0 hr 13 min 47 sec) 
Heartbeat CPU  0 instructions:  255000002 cycles: 2391705007 heartbeat IPC: 0.06766 cumulative IPC: 0.06810 (Simulation time: 0 hr 13 min 52 sec) 
Heartbeat CPU  0 instructions:  256000000 cycles: 2406418837 heartbeat IPC: 0.06796 cumulative IPC: 0.06810 (Simulation time: 0 hr 13 min 56 sec) 
Heartbeat CPU  0 instructions:  257000000 cycles: 2421170978 heartbeat IPC: 0.06779 cumulative IPC: 0.06810 (Simulation time: 0 hr 14 min 1 sec) 
Heartbeat CPU  0 instructions:  258000002 cycles: 2435968939 heartbeat IPC: 0.06758 cumulative IPC: 0.06810 (Simulation time: 0 hr 14 min 5 sec) 
Heartbeat CPU  0 instructions:  259000001 cycles: 2450777510 heartbeat IPC: 0.06753 cumulative IPC: 0.06809 (Simulation time: 0 hr 14 min 10 sec) 
Heartbeat CPU  0 instructions:  260000000 cycles: 2465450887 heartbeat IPC: 0.06815 cumulative IPC: 0.06809 (Simulation time: 0 hr 14 min 15 sec) 
Heartbeat CPU  0 instructions:  261000002 cycles: 2480107364 heartbeat IPC: 0.06823 cumulative IPC: 0.06809 (Simulation time: 0 hr 14 min 19 sec) 
Heartbeat CPU  0 instructions:  262000001 cycles: 2494706195 heartbeat IPC: 0.06850 cumulative IPC: 0.06810 (Simulation time: 0 hr 14 min 24 sec) 
Heartbeat CPU  0 instructions:  263000000 cycles: 2509221388 heartbeat IPC: 0.06889 cumulative IPC: 0.06810 (Simulation time: 0 hr 14 min 28 sec) 
Heartbeat CPU  0 instructions:  264000000 cycles: 2523994492 heartbeat IPC: 0.06769 cumulative IPC: 0.06810 (Simulation time: 0 hr 14 min 33 sec) 
Heartbeat CPU  0 instructions:  265000000 cycles: 2538476635 heartbeat IPC: 0.06905 cumulative IPC: 0.06811 (Simulation time: 0 hr 14 min 37 sec) 
Heartbeat CPU  0 instructions:  266000000 cycles: 2554297956 heartbeat IPC: 0.06321 cumulative IPC: 0.06807 (Simulation time: 0 hr 14 min 42 sec) 
Heartbeat CPU  0 instructions:  267000003 cycles: 2569575555 heartbeat IPC: 0.06546 cumulative IPC: 0.06806 (Simulation time: 0 hr 14 min 47 sec) 
Heartbeat CPU  0 instructions:  268000000 cycles: 2584647356 heartbeat IPC: 0.06635 cumulative IPC: 0.06805 (Simulation time: 0 hr 14 min 51 sec) 
Heartbeat CPU  0 instructions:  269000000 cycles: 2599571586 heartbeat IPC: 0.06701 cumulative IPC: 0.06804 (Simulation time: 0 hr 14 min 56 sec) 
Heartbeat CPU  0 instructions:  270000000 cycles: 2614525898 heartbeat IPC: 0.06687 cumulative IPC: 0.06803 (Simulation time: 0 hr 15 min 0 sec) 
Heartbeat CPU  0 instructions:  271000000 cycles: 2629433000 heartbeat IPC: 0.06708 cumulative IPC: 0.06803 (Simulation time: 0 hr 15 min 5 sec) 
Heartbeat CPU  0 instructions:  272000000 cycles: 2644166725 heartbeat IPC: 0.06787 cumulative IPC: 0.06803 (Simulation time: 0 hr 15 min 10 sec) 
Heartbeat CPU  0 instructions:  273000000 cycles: 2658930708 heartbeat IPC: 0.06773 cumulative IPC: 0.06803 (Simulation time: 0 hr 15 min 14 sec) 
Heartbeat CPU  0 instructions:  274000000 cycles: 2673586142 heartbeat IPC: 0.06823 cumulative IPC: 0.06803 (Simulation time: 0 hr 15 min 19 sec) 
Heartbeat CPU  0 instructions:  275000001 cycles: 2688117889 heartbeat IPC: 0.06881 cumulative IPC: 0.06803 (Simulation time: 0 hr 15 min 23 sec) 
Heartbeat CPU  0 instructions:  276000000 cycles: 2702647042 heartbeat IPC: 0.06883 cumulative IPC: 0.06804 (Simulation time: 0 hr 15 min 28 sec) 
Heartbeat CPU  0 instructions:  277000001 cycles: 2717292177 heartbeat IPC: 0.06828 cumulative IPC: 0.06804 (Simulation time: 0 hr 15 min 33 sec) 
Heartbeat CPU  0 instructions:  278000000 cycles: 2732038127 heartbeat IPC: 0.06782 cumulative IPC: 0.06804 (Simulation time: 0 hr 15 min 37 sec) 
Heartbeat CPU  0 instructions:  279000001 cycles: 2746837329 heartbeat IPC: 0.06757 cumulative IPC: 0.06803 (Simulation time: 0 hr 15 min 42 sec) 
Heartbeat CPU  0 instructions:  280000000 cycles: 2761597256 heartbeat IPC: 0.06775 cumulative IPC: 0.06803 (Simulation time: 0 hr 15 min 46 sec) 
Heartbeat CPU  0 instructions:  281000000 cycles: 2776285464 heartbeat IPC: 0.06808 cumulative IPC: 0.06803 (Simulation time: 0 hr 15 min 51 sec) 
Heartbeat CPU  0 instructions:  282000000 cycles: 2791058975 heartbeat IPC: 0.06769 cumulative IPC: 0.06803 (Simulation time: 0 hr 15 min 55 sec) 
Heartbeat CPU  0 instructions:  283000000 cycles: 2805772290 heartbeat IPC: 0.06797 cumulative IPC: 0.06803 (Simulation time: 0 hr 16 min 0 sec) 
Heartbeat CPU  0 instructions:  284000000 cycles: 2820579503 heartbeat IPC: 0.06753 cumulative IPC: 0.06803 (Simulation time: 0 hr 16 min 5 sec) 
Heartbeat CPU  0 instructions:  285000001 cycles: 2835237505 heartbeat IPC: 0.06822 cumulative IPC: 0.06803 (Simulation time: 0 hr 16 min 9 sec) 
Heartbeat CPU  0 instructions:  286000001 cycles: 2849953473 heartbeat IPC: 0.06795 cumulative IPC: 0.06803 (Simulation time: 0 hr 16 min 14 sec) 
Heartbeat CPU  0 instructions:  287000000 cycles: 2864762005 heartbeat IPC: 0.06753 cumulative IPC: 0.06802 (Simulation time: 0 hr 16 min 18 sec) 
Heartbeat CPU  0 instructions:  288000000 cycles: 2879590935 heartbeat IPC: 0.06744 cumulative IPC: 0.06802 (Simulation time: 0 hr 16 min 23 sec) 
Heartbeat CPU  0 instructions:  289000000 cycles: 2894482747 heartbeat IPC: 0.06715 cumulative IPC: 0.06802 (Simulation time: 0 hr 16 min 28 sec) 
Heartbeat CPU  0 instructions:  290000001 cycles: 2909342380 heartbeat IPC: 0.06730 cumulative IPC: 0.06801 (Simulation time: 0 hr 16 min 32 sec) 
Heartbeat CPU  0 instructions:  291000000 cycles: 2924078798 heartbeat IPC: 0.06786 cumulative IPC: 0.06801 (Simulation time: 0 hr 16 min 37 sec) 
Heartbeat CPU  0 instructions:  292000000 cycles: 2938877352 heartbeat IPC: 0.06757 cumulative IPC: 0.06801 (Simulation time: 0 hr 16 min 41 sec) 
Heartbeat CPU  0 instructions:  293000000 cycles: 2953632390 heartbeat IPC: 0.06777 cumulative IPC: 0.06801 (Simulation time: 0 hr 16 min 46 sec) 
Heartbeat CPU  0 instructions:  294000000 cycles: 2968197539 heartbeat IPC: 0.06866 cumulative IPC: 0.06801 (Simulation time: 0 hr 16 min 50 sec) 
Heartbeat CPU  0 instructions:  295000000 cycles: 2982717600 heartbeat IPC: 0.06887 cumulative IPC: 0.06802 (Simulation time: 0 hr 16 min 55 sec) 
Heartbeat CPU  0 instructions:  296000000 cycles: 2997172765 heartbeat IPC: 0.06918 cumulative IPC: 0.06802 (Simulation time: 0 hr 17 min 0 sec) 
Heartbeat CPU  0 instructions:  297000000 cycles: 3011817393 heartbeat IPC: 0.06828 cumulative IPC: 0.06802 (Simulation time: 0 hr 17 min 4 sec) 
Heartbeat CPU  0 instructions:  298000000 cycles: 3026498123 heartbeat IPC: 0.06812 cumulative IPC: 0.06802 (Simulation time: 0 hr 17 min 9 sec) 
Heartbeat CPU  0 instructions:  299000001 cycles: 3041191528 heartbeat IPC: 0.06806 cumulative IPC: 0.06802 (Simulation time: 0 hr 17 min 14 sec) 
Heartbeat CPU  0 instructions:  300000000 cycles: 3055946461 heartbeat IPC: 0.06777 cumulative IPC: 0.06802 (Simulation time: 0 hr 17 min 18 sec) 
Heartbeat CPU  0 instructions:  301000000 cycles: 3070737587 heartbeat IPC: 0.06761 cumulative IPC: 0.06802 (Simulation time: 0 hr 17 min 23 sec) 
Heartbeat CPU  0 instructions:  302000000 cycles: 3085549341 heartbeat IPC: 0.06751 cumulative IPC: 0.06802 (Simulation time: 0 hr 17 min 27 sec) 
Heartbeat CPU  0 instructions:  303000000 cycles: 3100304143 heartbeat IPC: 0.06777 cumulative IPC: 0.06802 (Simulation time: 0 hr 17 min 32 sec) 
Heartbeat CPU  0 instructions:  304000000 cycles: 3114964523 heartbeat IPC: 0.06821 cumulative IPC: 0.06802 (Simulation time: 0 hr 17 min 37 sec) 
Heartbeat CPU  0 instructions:  305000001 cycles: 3129594999 heartbeat IPC: 0.06835 cumulative IPC: 0.06802 (Simulation time: 0 hr 17 min 41 sec) 
Heartbeat CPU  0 instructions:  306000000 cycles: 3144234149 heartbeat IPC: 0.06831 cumulative IPC: 0.06802 (Simulation time: 0 hr 17 min 46 sec) 
Heartbeat CPU  0 instructions:  307000000 cycles: 3159033732 heartbeat IPC: 0.06757 cumulative IPC: 0.06802 (Simulation time: 0 hr 17 min 50 sec) 
Heartbeat CPU  0 instructions:  308000000 cycles: 3173786509 heartbeat IPC: 0.06778 cumulative IPC: 0.06802 (Simulation time: 0 hr 17 min 55 sec) 
Heartbeat CPU  0 instructions:  309000000 cycles: 3188429162 heartbeat IPC: 0.06829 cumulative IPC: 0.06802 (Simulation time: 0 hr 18 min 0 sec) 
Heartbeat CPU  0 instructions:  310000001 cycles: 3203216699 heartbeat IPC: 0.06762 cumulative IPC: 0.06802 (Simulation time: 0 hr 18 min 4 sec) 
Heartbeat CPU  0 instructions:  311000000 cycles: 3217990163 heartbeat IPC: 0.06769 cumulative IPC: 0.06802 (Simulation time: 0 hr 18 min 9 sec) 
Heartbeat CPU  0 instructions:  312000000 cycles: 3232779828 heartbeat IPC: 0.06761 cumulative IPC: 0.06801 (Simulation time: 0 hr 18 min 13 sec) 
Heartbeat CPU  0 instructions:  313000000 cycles: 3247569902 heartbeat IPC: 0.06761 cumulative IPC: 0.06801 (Simulation time: 0 hr 18 min 18 sec) 
Heartbeat CPU  0 instructions:  314000000 cycles: 3262277216 heartbeat IPC: 0.06799 cumulative IPC: 0.06801 (Simulation time: 0 hr 18 min 22 sec) 
Heartbeat CPU  0 instructions:  315000000 cycles: 3276863518 heartbeat IPC: 0.06856 cumulative IPC: 0.06801 (Simulation time: 0 hr 18 min 27 sec) 
Heartbeat CPU  0 instructions:  316000000 cycles: 3291480227 heartbeat IPC: 0.06841 cumulative IPC: 0.06802 (Simulation time: 0 hr 18 min 32 sec) 
Heartbeat CPU  0 instructions:  317000001 cycles: 3305995920 heartbeat IPC: 0.06889 cumulative IPC: 0.06802 (Simulation time: 0 hr 18 min 36 sec) 
Heartbeat CPU  0 instructions:  318000001 cycles: 3320422437 heartbeat IPC: 0.06932 cumulative IPC: 0.06803 (Simulation time: 0 hr 18 min 41 sec) 
Heartbeat CPU  0 instructions:  319000001 cycles: 3335042841 heartbeat IPC: 0.06840 cumulative IPC: 0.06803 (Simulation time: 0 hr 18 min 46 sec) 
Heartbeat CPU  0 instructions:  320000000 cycles: 3349922644 heartbeat IPC: 0.06721 cumulative IPC: 0.06802 (Simulation time: 0 hr 18 min 50 sec) 
Heartbeat CPU  0 instructions:  321000000 cycles: 3364795910 heartbeat IPC: 0.06723 cumulative IPC: 0.06802 (Simulation time: 0 hr 18 min 55 sec) 
Heartbeat CPU  0 instructions:  322000001 cycles: 3379711231 heartbeat IPC: 0.06705 cumulative IPC: 0.06802 (Simulation time: 0 hr 18 min 59 sec) 
Heartbeat CPU  0 instructions:  323000003 cycles: 3394628438 heartbeat IPC: 0.06704 cumulative IPC: 0.06801 (Simulation time: 0 hr 19 min 4 sec) 
Heartbeat CPU  0 instructions:  324000000 cycles: 3409530024 heartbeat IPC: 0.06711 cumulative IPC: 0.06801 (Simulation time: 0 hr 19 min 9 sec) 
Heartbeat CPU  0 instructions:  325000000 cycles: 3424259453 heartbeat IPC: 0.06789 cumulative IPC: 0.06801 (Simulation time: 0 hr 19 min 13 sec) 
Heartbeat CPU  0 instructions:  326000000 cycles: 3438767718 heartbeat IPC: 0.06893 cumulative IPC: 0.06801 (Simulation time: 0 hr 19 min 18 sec) 
Heartbeat CPU  0 instructions:  327000000 cycles: 3453356486 heartbeat IPC: 0.06855 cumulative IPC: 0.06801 (Simulation time: 0 hr 19 min 22 sec) 
Heartbeat CPU  0 instructions:  328000000 cycles: 3467995731 heartbeat IPC: 0.06831 cumulative IPC: 0.06801 (Simulation time: 0 hr 19 min 27 sec) 
Heartbeat CPU  0 instructions:  329000000 cycles: 3482826473 heartbeat IPC: 0.06743 cumulative IPC: 0.06801 (Simulation time: 0 hr 19 min 32 sec) 
Heartbeat CPU  0 instructions:  330000000 cycles: 3497570285 heartbeat IPC: 0.06783 cumulative IPC: 0.06801 (Simulation time: 0 hr 19 min 36 sec) 
Heartbeat CPU  0 instructions:  331000000 cycles: 3512216446 heartbeat IPC: 0.06828 cumulative IPC: 0.06801 (Simulation time: 0 hr 19 min 41 sec) 
Heartbeat CPU  0 instructions:  332000000 cycles: 3526596589 heartbeat IPC: 0.06954 cumulative IPC: 0.06802 (Simulation time: 0 hr 19 min 45 sec) 
Heartbeat CPU  0 instructions:  333000000 cycles: 3541201817 heartbeat IPC: 0.06847 cumulative IPC: 0.06802 (Simulation time: 0 hr 19 min 50 sec) 
Heartbeat CPU  0 instructions:  334000001 cycles: 3555843209 heartbeat IPC: 0.06830 cumulative IPC: 0.06802 (Simulation time: 0 hr 19 min 55 sec) 
Heartbeat CPU  0 instructions:  335000000 cycles: 3570551557 heartbeat IPC: 0.06799 cumulative IPC: 0.06802 (Simulation time: 0 hr 19 min 59 sec) 
Heartbeat CPU  0 instructions:  336000000 cycles: 3585224434 heartbeat IPC: 0.06815 cumulative IPC: 0.06802 (Simulation time: 0 hr 20 min 4 sec) 
Heartbeat CPU  0 instructions:  337000000 cycles: 3599872744 heartbeat IPC: 0.06827 cumulative IPC: 0.06802 (Simulation time: 0 hr 20 min 9 sec) 
Heartbeat CPU  0 instructions:  338000002 cycles: 3614417887 heartbeat IPC: 0.06875 cumulative IPC: 0.06803 (Simulation time: 0 hr 20 min 13 sec) 
Heartbeat CPU  0 instructions:  339000000 cycles: 3629175144 heartbeat IPC: 0.06776 cumulative IPC: 0.06802 (Simulation time: 0 hr 20 min 18 sec) 
Heartbeat CPU  0 instructions:  340000000 cycles: 3643882304 heartbeat IPC: 0.06799 cumulative IPC: 0.06802 (Simulation time: 0 hr 20 min 22 sec) 
Heartbeat CPU  0 instructions:  341000001 cycles: 3658490051 heartbeat IPC: 0.06846 cumulative IPC: 0.06803 (Simulation time: 0 hr 20 min 27 sec) 
Heartbeat CPU  0 instructions:  342000000 cycles: 3672961742 heartbeat IPC: 0.06910 cumulative IPC: 0.06803 (Simulation time: 0 hr 20 min 31 sec) 
Heartbeat CPU  0 instructions:  343000000 cycles: 3687484627 heartbeat IPC: 0.06886 cumulative IPC: 0.06803 (Simulation time: 0 hr 20 min 36 sec) 
Heartbeat CPU  0 instructions:  344000000 cycles: 3701987604 heartbeat IPC: 0.06895 cumulative IPC: 0.06804 (Simulation time: 0 hr 20 min 41 sec) 
Heartbeat CPU  0 instructions:  345000000 cycles: 3716571353 heartbeat IPC: 0.06857 cumulative IPC: 0.06804 (Simulation time: 0 hr 20 min 45 sec) 
Heartbeat CPU  0 instructions:  346000000 cycles: 3731239187 heartbeat IPC: 0.06818 cumulative IPC: 0.06804 (Simulation time: 0 hr 20 min 50 sec) 
Heartbeat CPU  0 instructions:  347000001 cycles: 3745952576 heartbeat IPC: 0.06797 cumulative IPC: 0.06804 (Simulation time: 0 hr 20 min 54 sec) 
Heartbeat CPU  0 instructions:  348000000 cycles: 3760787360 heartbeat IPC: 0.06741 cumulative IPC: 0.06804 (Simulation time: 0 hr 20 min 59 sec) 
Heartbeat CPU  0 instructions:  349000000 cycles: 3775555027 heartbeat IPC: 0.06772 cumulative IPC: 0.06804 (Simulation time: 0 hr 21 min 4 sec) 
Heartbeat CPU  0 instructions:  350000000 cycles: 3790360856 heartbeat IPC: 0.06754 cumulative IPC: 0.06803 (Simulation time: 0 hr 21 min 8 sec) 
Heartbeat CPU  0 instructions:  351000000 cycles: 3804957263 heartbeat IPC: 0.06851 cumulative IPC: 0.06804 (Simulation time: 0 hr 21 min 13 sec) 
Heartbeat CPU  0 instructions:  352000000 cycles: 3819611042 heartbeat IPC: 0.06824 cumulative IPC: 0.06804 (Simulation time: 0 hr 21 min 17 sec) 
Heartbeat CPU  0 instructions:  353000000 cycles: 3834265859 heartbeat IPC: 0.06824 cumulative IPC: 0.06804 (Simulation time: 0 hr 21 min 22 sec) 
Heartbeat CPU  0 instructions:  354000001 cycles: 3848804633 heartbeat IPC: 0.06878 cumulative IPC: 0.06804 (Simulation time: 0 hr 21 min 27 sec) 
Heartbeat CPU  0 instructions:  355000000 cycles: 3863304794 heartbeat IPC: 0.06896 cumulative IPC: 0.06804 (Simulation time: 0 hr 21 min 31 sec) 
Heartbeat CPU  0 instructions:  356000000 cycles: 3877676642 heartbeat IPC: 0.06958 cumulative IPC: 0.06805 (Simulation time: 0 hr 21 min 36 sec) 
Heartbeat CPU  0 instructions:  357000003 cycles: 3892121005 heartbeat IPC: 0.06923 cumulative IPC: 0.06805 (Simulation time: 0 hr 21 min 40 sec) 
Heartbeat CPU  0 instructions:  358000000 cycles: 3906698742 heartbeat IPC: 0.06860 cumulative IPC: 0.06806 (Simulation time: 0 hr 21 min 45 sec) 
Heartbeat CPU  0 instructions:  359000000 cycles: 3921246289 heartbeat IPC: 0.06874 cumulative IPC: 0.06806 (Simulation time: 0 hr 21 min 50 sec) 
Heartbeat CPU  0 instructions:  360000000 cycles: 3935641722 heartbeat IPC: 0.06947 cumulative IPC: 0.06806 (Simulation time: 0 hr 21 min 54 sec) 
Heartbeat CPU  0 instructions:  361000000 cycles: 3950282237 heartbeat IPC: 0.06830 cumulative IPC: 0.06807 (Simulation time: 0 hr 21 min 59 sec) 
Heartbeat CPU  0 instructions:  362000000 cycles: 3964878642 heartbeat IPC: 0.06851 cumulative IPC: 0.06807 (Simulation time: 0 hr 22 min 3 sec) 
Heartbeat CPU  0 instructions:  363000000 cycles: 3979566806 heartbeat IPC: 0.06808 cumulative IPC: 0.06807 (Simulation time: 0 hr 22 min 8 sec) 
Heartbeat CPU  0 instructions:  364000000 cycles: 3994190407 heartbeat IPC: 0.06838 cumulative IPC: 0.06807 (Simulation time: 0 hr 22 min 13 sec) 
Heartbeat CPU  0 instructions:  365000000 cycles: 4008756629 heartbeat IPC: 0.06865 cumulative IPC: 0.06807 (Simulation time: 0 hr 22 min 17 sec) 
Heartbeat CPU  0 instructions:  366000000 cycles: 4023651521 heartbeat IPC: 0.06714 cumulative IPC: 0.06807 (Simulation time: 0 hr 22 min 22 sec) 
Heartbeat CPU  0 instructions:  367000000 cycles: 4038524891 heartbeat IPC: 0.06723 cumulative IPC: 0.06806 (Simulation time: 0 hr 22 min 26 sec) 
Heartbeat CPU  0 instructions:  368000000 cycles: 4053361182 heartbeat IPC: 0.06740 cumulative IPC: 0.06806 (Simulation time: 0 hr 22 min 31 sec) 
Heartbeat CPU  0 instructions:  369000000 cycles: 4068017797 heartbeat IPC: 0.06823 cumulative IPC: 0.06806 (Simulation time: 0 hr 22 min 35 sec) 
Heartbeat CPU  0 instructions:  370000000 cycles: 4082922136 heartbeat IPC: 0.06709 cumulative IPC: 0.06806 (Simulation time: 0 hr 22 min 40 sec) 
Heartbeat CPU  0 instructions:  371000000 cycles: 4097766120 heartbeat IPC: 0.06737 cumulative IPC: 0.06806 (Simulation time: 0 hr 22 min 45 sec) 
Heartbeat CPU  0 instructions:  372000000 cycles: 4112690072 heartbeat IPC: 0.06701 cumulative IPC: 0.06805 (Simulation time: 0 hr 22 min 49 sec) 
Heartbeat CPU  0 instructions:  373000000 cycles: 4127534139 heartbeat IPC: 0.06737 cumulative IPC: 0.06805 (Simulation time: 0 hr 22 min 54 sec) 
Heartbeat CPU  0 instructions:  374000000 cycles: 4142420285 heartbeat IPC: 0.06718 cumulative IPC: 0.06805 (Simulation time: 0 hr 22 min 58 sec) 
Heartbeat CPU  0 instructions:  375000000 cycles: 4157171300 heartbeat IPC: 0.06779 cumulative IPC: 0.06805 (Simulation time: 0 hr 23 min 3 sec) 
Heartbeat CPU  0 instructions:  376000000 cycles: 4171939251 heartbeat IPC: 0.06771 cumulative IPC: 0.06804 (Simulation time: 0 hr 23 min 7 sec) 
Heartbeat CPU  0 instructions:  377000000 cycles: 4186771225 heartbeat IPC: 0.06742 cumulative IPC: 0.06804 (Simulation time: 0 hr 23 min 12 sec) 
Heartbeat CPU  0 instructions:  378000001 cycles: 4201447791 heartbeat IPC: 0.06814 cumulative IPC: 0.06804 (Simulation time: 0 hr 23 min 16 sec) 
Heartbeat CPU  0 instructions:  379000001 cycles: 4216288048 heartbeat IPC: 0.06738 cumulative IPC: 0.06804 (Simulation time: 0 hr 23 min 21 sec) 
Heartbeat CPU  0 instructions:  380000000 cycles: 4231074396 heartbeat IPC: 0.06763 cumulative IPC: 0.06804 (Simulation time: 0 hr 23 min 26 sec) 
Heartbeat CPU  0 instructions:  381000000 cycles: 4245808875 heartbeat IPC: 0.06787 cumulative IPC: 0.06804 (Simulation time: 0 hr 23 min 30 sec) 
Heartbeat CPU  0 instructions:  382000000 cycles: 4260548319 heartbeat IPC: 0.06785 cumulative IPC: 0.06804 (Simulation time: 0 hr 23 min 35 sec) 
Heartbeat CPU  0 instructions:  383000001 cycles: 4275386449 heartbeat IPC: 0.06739 cumulative IPC: 0.06803 (Simulation time: 0 hr 23 min 39 sec) 
Heartbeat CPU  0 instructions:  384000000 cycles: 4290144017 heartbeat IPC: 0.06776 cumulative IPC: 0.06803 (Simulation time: 0 hr 23 min 44 sec) 
Heartbeat CPU  0 instructions:  385000000 cycles: 4305024083 heartbeat IPC: 0.06720 cumulative IPC: 0.06803 (Simulation time: 0 hr 23 min 48 sec) 
Heartbeat CPU  0 instructions:  386000000 cycles: 4319970485 heartbeat IPC: 0.06691 cumulative IPC: 0.06803 (Simulation time: 0 hr 23 min 53 sec) 
Heartbeat CPU  0 instructions:  387000000 cycles: 4334847450 heartbeat IPC: 0.06722 cumulative IPC: 0.06802 (Simulation time: 0 hr 23 min 58 sec) 
Heartbeat CPU  0 instructions:  388000000 cycles: 4349783158 heartbeat IPC: 0.06695 cumulative IPC: 0.06802 (Simulation time: 0 hr 24 min 2 sec) 
Heartbeat CPU  0 instructions:  389000000 cycles: 4364641798 heartbeat IPC: 0.06730 cumulative IPC: 0.06802 (Simulation time: 0 hr 24 min 7 sec) 
Heartbeat CPU  0 instructions:  390000000 cycles: 4379524766 heartbeat IPC: 0.06719 cumulative IPC: 0.06802 (Simulation time: 0 hr 24 min 11 sec) 
Heartbeat CPU  0 instructions:  391000000 cycles: 4394573088 heartbeat IPC: 0.06645 cumulative IPC: 0.06801 (Simulation time: 0 hr 24 min 16 sec) 
Heartbeat CPU  0 instructions:  392000000 cycles: 4409528888 heartbeat IPC: 0.06686 cumulative IPC: 0.06801 (Simulation time: 0 hr 24 min 20 sec) 
Heartbeat CPU  0 instructions:  393000000 cycles: 4424528366 heartbeat IPC: 0.06667 cumulative IPC: 0.06800 (Simulation time: 0 hr 24 min 25 sec) 
Heartbeat CPU  0 instructions:  394000001 cycles: 4439441305 heartbeat IPC: 0.06706 cumulative IPC: 0.06800 (Simulation time: 0 hr 24 min 30 sec) 
Heartbeat CPU  0 instructions:  395000001 cycles: 4454227507 heartbeat IPC: 0.06763 cumulative IPC: 0.06800 (Simulation time: 0 hr 24 min 34 sec) 
Heartbeat CPU  0 instructions:  396000000 cycles: 4468812521 heartbeat IPC: 0.06856 cumulative IPC: 0.06800 (Simulation time: 0 hr 24 min 39 sec) 
Heartbeat CPU  0 instructions:  397000000 cycles: 4483817206 heartbeat IPC: 0.06665 cumulative IPC: 0.06799 (Simulation time: 0 hr 24 min 43 sec) 
Heartbeat CPU  0 instructions:  398000001 cycles: 4498660073 heartbeat IPC: 0.06737 cumulative IPC: 0.06799 (Simulation time: 0 hr 24 min 48 sec) 
Heartbeat CPU  0 instructions:  399000002 cycles: 4513473358 heartbeat IPC: 0.06751 cumulative IPC: 0.06799 (Simulation time: 0 hr 24 min 52 sec) 
Heartbeat CPU  0 instructions:  400000000 cycles: 4528274491 heartbeat IPC: 0.06756 cumulative IPC: 0.06799 (Simulation time: 0 hr 24 min 57 sec) 
Heartbeat CPU  0 instructions:  401000001 cycles: 4543041364 heartbeat IPC: 0.06772 cumulative IPC: 0.06799 (Simulation time: 0 hr 25 min 1 sec) 
Heartbeat CPU  0 instructions:  402000000 cycles: 4557745738 heartbeat IPC: 0.06801 cumulative IPC: 0.06799 (Simulation time: 0 hr 25 min 6 sec) 
Heartbeat CPU  0 instructions:  403000000 cycles: 4572469412 heartbeat IPC: 0.06792 cumulative IPC: 0.06799 (Simulation time: 0 hr 25 min 11 sec) 
Heartbeat CPU  0 instructions:  404000000 cycles: 4587204824 heartbeat IPC: 0.06786 cumulative IPC: 0.06799 (Simulation time: 0 hr 25 min 15 sec) 
Heartbeat CPU  0 instructions:  405000001 cycles: 4601922400 heartbeat IPC: 0.06795 cumulative IPC: 0.06799 (Simulation time: 0 hr 25 min 20 sec) 
Heartbeat CPU  0 instructions:  406000003 cycles: 4616603210 heartbeat IPC: 0.06812 cumulative IPC: 0.06799 (Simulation time: 0 hr 25 min 24 sec) 
Heartbeat CPU  0 instructions:  407000000 cycles: 4631355073 heartbeat IPC: 0.06779 cumulative IPC: 0.06799 (Simulation time: 0 hr 25 min 29 sec) 
Heartbeat CPU  0 instructions:  408000000 cycles: 4646101308 heartbeat IPC: 0.06781 cumulative IPC: 0.06799 (Simulation time: 0 hr 25 min 34 sec) 
Heartbeat CPU  0 instructions:  409000000 cycles: 4660777169 heartbeat IPC: 0.06814 cumulative IPC: 0.06799 (Simulation time: 0 hr 25 min 38 sec) 
Heartbeat CPU  0 instructions:  410000001 cycles: 4675300460 heartbeat IPC: 0.06885 cumulative IPC: 0.06799 (Simulation time: 0 hr 25 min 43 sec) 
Heartbeat CPU  0 instructions:  411000000 cycles: 4689856786 heartbeat IPC: 0.06870 cumulative IPC: 0.06799 (Simulation time: 0 hr 25 min 47 sec) 
Heartbeat CPU  0 instructions:  412000000 cycles: 4704426286 heartbeat IPC: 0.06864 cumulative IPC: 0.06799 (Simulation time: 0 hr 25 min 52 sec) 
Heartbeat CPU  0 instructions:  413000001 cycles: 4719031491 heartbeat IPC: 0.06847 cumulative IPC: 0.06800 (Simulation time: 0 hr 25 min 56 sec) 
Heartbeat CPU  0 instructions:  414000000 cycles: 4733539979 heartbeat IPC: 0.06893 cumulative IPC: 0.06800 (Simulation time: 0 hr 26 min 1 sec) 
Heartbeat CPU  0 instructions:  415000001 cycles: 4748089903 heartbeat IPC: 0.06873 cumulative IPC: 0.06800 (Simulation time: 0 hr 26 min 6 sec) 
Heartbeat CPU  0 instructions:  416000000 cycles: 4762645078 heartbeat IPC: 0.06870 cumulative IPC: 0.06800 (Simulation time: 0 hr 26 min 10 sec) 
Heartbeat CPU  0 instructions:  417000000 cycles: 4777221181 heartbeat IPC: 0.06861 cumulative IPC: 0.06800 (Simulation time: 0 hr 26 min 15 sec) 
Heartbeat CPU  0 instructions:  418000000 cycles: 4791926438 heartbeat IPC: 0.06800 cumulative IPC: 0.06800 (Simulation time: 0 hr 26 min 19 sec) 
Heartbeat CPU  0 instructions:  419000000 cycles: 4806512024 heartbeat IPC: 0.06856 cumulative IPC: 0.06801 (Simulation time: 0 hr 26 min 24 sec) 
Heartbeat CPU  0 instructions:  420000000 cycles: 4821137818 heartbeat IPC: 0.06837 cumulative IPC: 0.06801 (Simulation time: 0 hr 26 min 29 sec) 
Heartbeat CPU  0 instructions:  421000001 cycles: 4835631449 heartbeat IPC: 0.06900 cumulative IPC: 0.06801 (Simulation time: 0 hr 26 min 33 sec) 
Heartbeat CPU  0 instructions:  422000001 cycles: 4850253714 heartbeat IPC: 0.06839 cumulative IPC: 0.06801 (Simulation time: 0 hr 26 min 38 sec) 
Heartbeat CPU  0 instructions:  423000000 cycles: 4864910338 heartbeat IPC: 0.06823 cumulative IPC: 0.06801 (Simulation time: 0 hr 26 min 42 sec) 
Heartbeat CPU  0 instructions:  424000000 cycles: 4879630415 heartbeat IPC: 0.06793 cumulative IPC: 0.06801 (Simulation time: 0 hr 26 min 47 sec) 
Heartbeat CPU  0 instructions:  425000000 cycles: 4894302667 heartbeat IPC: 0.06816 cumulative IPC: 0.06801 (Simulation time: 0 hr 26 min 52 sec) 
Heartbeat CPU  0 instructions:  426000001 cycles: 4908977973 heartbeat IPC: 0.06814 cumulative IPC: 0.06801 (Simulation time: 0 hr 26 min 56 sec) 
Heartbeat CPU  0 instructions:  427000000 cycles: 4923624498 heartbeat IPC: 0.06828 cumulative IPC: 0.06801 (Simulation time: 0 hr 27 min 1 sec) 
Heartbeat CPU  0 instructions:  428000000 cycles: 4938190891 heartbeat IPC: 0.06865 cumulative IPC: 0.06802 (Simulation time: 0 hr 27 min 5 sec) 
Heartbeat CPU  0 instructions:  429000000 cycles: 4952690340 heartbeat IPC: 0.06897 cumulative IPC: 0.06802 (Simulation time: 0 hr 27 min 10 sec) 
Heartbeat CPU  0 instructions:  430000000 cycles: 4967305122 heartbeat IPC: 0.06842 cumulative IPC: 0.06802 (Simulation time: 0 hr 27 min 15 sec) 
Heartbeat CPU  0 instructions:  431000001 cycles: 4982008446 heartbeat IPC: 0.06801 cumulative IPC: 0.06802 (Simulation time: 0 hr 27 min 19 sec) 
Heartbeat CPU  0 instructions:  432000000 cycles: 4996653193 heartbeat IPC: 0.06828 cumulative IPC: 0.06802 (Simulation time: 0 hr 27 min 24 sec) 
Heartbeat CPU  0 instructions:  433000000 cycles: 5011405613 heartbeat IPC: 0.06779 cumulative IPC: 0.06802 (Simulation time: 0 hr 27 min 28 sec) 
Heartbeat CPU  0 instructions:  434000002 cycles: 5026095729 heartbeat IPC: 0.06807 cumulative IPC: 0.06802 (Simulation time: 0 hr 27 min 33 sec) 
Heartbeat CPU  0 instructions:  435000000 cycles: 5040818254 heartbeat IPC: 0.06792 cumulative IPC: 0.06802 (Simulation time: 0 hr 27 min 38 sec) 
Heartbeat CPU  0 instructions:  436000000 cycles: 5055447569 heartbeat IPC: 0.06836 cumulative IPC: 0.06802 (Simulation time: 0 hr 27 min 42 sec) 
Heartbeat CPU  0 instructions:  437000002 cycles: 5069993395 heartbeat IPC: 0.06875 cumulative IPC: 0.06802 (Simulation time: 0 hr 27 min 47 sec) 
Heartbeat CPU  0 instructions:  438000000 cycles: 5084573828 heartbeat IPC: 0.06858 cumulative IPC: 0.06802 (Simulation time: 0 hr 27 min 51 sec) 
Heartbeat CPU  0 instructions:  439000000 cycles: 5099262601 heartbeat IPC: 0.06808 cumulative IPC: 0.06802 (Simulation time: 0 hr 27 min 56 sec) 
Heartbeat CPU  0 instructions:  440000000 cycles: 5114045210 heartbeat IPC: 0.06765 cumulative IPC: 0.06802 (Simulation time: 0 hr 28 min 0 sec) 
Heartbeat CPU  0 instructions:  441000000 cycles: 5128875147 heartbeat IPC: 0.06743 cumulative IPC: 0.06802 (Simulation time: 0 hr 28 min 5 sec) 
Heartbeat CPU  0 instructions:  442000000 cycles: 5143743351 heartbeat IPC: 0.06726 cumulative IPC: 0.06802 (Simulation time: 0 hr 28 min 10 sec) 
Heartbeat CPU  0 instructions:  443000003 cycles: 5158483060 heartbeat IPC: 0.06784 cumulative IPC: 0.06802 (Simulation time: 0 hr 28 min 14 sec) 
Heartbeat CPU  0 instructions:  444000000 cycles: 5173216289 heartbeat IPC: 0.06787 cumulative IPC: 0.06802 (Simulation time: 0 hr 28 min 19 sec) 
Heartbeat CPU  0 instructions:  445000001 cycles: 5187967392 heartbeat IPC: 0.06779 cumulative IPC: 0.06802 (Simulation time: 0 hr 28 min 23 sec) 
Heartbeat CPU  0 instructions:  446000000 cycles: 5202797125 heartbeat IPC: 0.06743 cumulative IPC: 0.06802 (Simulation time: 0 hr 28 min 28 sec) 
Heartbeat CPU  0 instructions:  447000000 cycles: 5217664656 heartbeat IPC: 0.06726 cumulative IPC: 0.06801 (Simulation time: 0 hr 28 min 32 sec) 
Heartbeat CPU  0 instructions:  448000000 cycles: 5232366774 heartbeat IPC: 0.06802 cumulative IPC: 0.06801 (Simulation time: 0 hr 28 min 37 sec) 
Heartbeat CPU  0 instructions:  449000003 cycles: 5247085752 heartbeat IPC: 0.06794 cumulative IPC: 0.06801 (Simulation time: 0 hr 28 min 42 sec) 
Heartbeat CPU  0 instructions:  450000000 cycles: 5261811479 heartbeat IPC: 0.06791 cumulative IPC: 0.06801 (Simulation time: 0 hr 28 min 46 sec) 
Heartbeat CPU  0 instructions:  451000000 cycles: 5276576004 heartbeat IPC: 0.06773 cumulative IPC: 0.06801 (Simulation time: 0 hr 28 min 51 sec) 
Heartbeat CPU  0 instructions:  452000000 cycles: 5291241652 heartbeat IPC: 0.06819 cumulative IPC: 0.06801 (Simulation time: 0 hr 28 min 55 sec) 
Heartbeat CPU  0 instructions:  453000000 cycles: 5306122317 heartbeat IPC: 0.06720 cumulative IPC: 0.06801 (Simulation time: 0 hr 29 min 0 sec) 
Heartbeat CPU  0 instructions:  454000000 cycles: 5320937313 heartbeat IPC: 0.06750 cumulative IPC: 0.06801 (Simulation time: 0 hr 29 min 4 sec) 
Heartbeat CPU  0 instructions:  455000000 cycles: 5335840098 heartbeat IPC: 0.06710 cumulative IPC: 0.06801 (Simulation time: 0 hr 29 min 9 sec) 
Heartbeat CPU  0 instructions:  456000000 cycles: 5350754515 heartbeat IPC: 0.06705 cumulative IPC: 0.06800 (Simulation time: 0 hr 29 min 14 sec) 
Heartbeat CPU  0 instructions:  457000000 cycles: 5365514524 heartbeat IPC: 0.06775 cumulative IPC: 0.06800 (Simulation time: 0 hr 29 min 18 sec) 
Heartbeat CPU  0 instructions:  458000000 cycles: 5380454992 heartbeat IPC: 0.06693 cumulative IPC: 0.06800 (Simulation time: 0 hr 29 min 23 sec) 
Heartbeat CPU  0 instructions:  459000000 cycles: 5395378463 heartbeat IPC: 0.06701 cumulative IPC: 0.06800 (Simulation time: 0 hr 29 min 27 sec) 
Heartbeat CPU  0 instructions:  460000000 cycles: 5410095118 heartbeat IPC: 0.06795 cumulative IPC: 0.06800 (Simulation time: 0 hr 29 min 32 sec) 
Heartbeat CPU  0 instructions:  461000000 cycles: 5424869221 heartbeat IPC: 0.06769 cumulative IPC: 0.06800 (Simulation time: 0 hr 29 min 37 sec) 
Heartbeat CPU  0 instructions:  462000000 cycles: 5439549200 heartbeat IPC: 0.06812 cumulative IPC: 0.06800 (Simulation time: 0 hr 29 min 41 sec) 
Heartbeat CPU  0 instructions:  463000000 cycles: 5454168703 heartbeat IPC: 0.06840 cumulative IPC: 0.06800 (Simulation time: 0 hr 29 min 46 sec) 
Heartbeat CPU  0 instructions:  464000000 cycles: 5468876537 heartbeat IPC: 0.06799 cumulative IPC: 0.06800 (Simulation time: 0 hr 29 min 50 sec) 
Heartbeat CPU  0 instructions:  465000000 cycles: 5483700207 heartbeat IPC: 0.06746 cumulative IPC: 0.06800 (Simulation time: 0 hr 29 min 55 sec) 
Heartbeat CPU  0 instructions:  466000000 cycles: 5498491977 heartbeat IPC: 0.06761 cumulative IPC: 0.06800 (Simulation time: 0 hr 29 min 59 sec) 
Heartbeat CPU  0 instructions:  467000000 cycles: 5513156592 heartbeat IPC: 0.06819 cumulative IPC: 0.06800 (Simulation time: 0 hr 30 min 4 sec) 
Heartbeat CPU  0 instructions:  468000000 cycles: 5527789357 heartbeat IPC: 0.06834 cumulative IPC: 0.06800 (Simulation time: 0 hr 30 min 9 sec) 
Heartbeat CPU  0 instructions:  469000000 cycles: 5542306313 heartbeat IPC: 0.06888 cumulative IPC: 0.06800 (Simulation time: 0 hr 30 min 13 sec) 
Heartbeat CPU  0 instructions:  470000000 cycles: 5556888793 heartbeat IPC: 0.06858 cumulative IPC: 0.06800 (Simulation time: 0 hr 30 min 18 sec) 
Heartbeat CPU  0 instructions:  471000000 cycles: 5571487900 heartbeat IPC: 0.06850 cumulative IPC: 0.06800 (Simulation time: 0 hr 30 min 23 sec) 
Heartbeat CPU  0 instructions:  472000000 cycles: 5585912083 heartbeat IPC: 0.06933 cumulative IPC: 0.06801 (Simulation time: 0 hr 30 min 27 sec) 
Heartbeat CPU  0 instructions:  473000000 cycles: 5600354096 heartbeat IPC: 0.06924 cumulative IPC: 0.06801 (Simulation time: 0 hr 30 min 32 sec) 
Heartbeat CPU  0 instructions:  474000000 cycles: 5615003884 heartbeat IPC: 0.06826 cumulative IPC: 0.06801 (Simulation time: 0 hr 30 min 36 sec) 
Heartbeat CPU  0 instructions:  475000000 cycles: 5629486395 heartbeat IPC: 0.06905 cumulative IPC: 0.06801 (Simulation time: 0 hr 30 min 41 sec) 
Heartbeat CPU  0 instructions:  476000000 cycles: 5644169074 heartbeat IPC: 0.06811 cumulative IPC: 0.06801 (Simulation time: 0 hr 30 min 45 sec) 
Heartbeat CPU  0 instructions:  477000000 cycles: 5658902874 heartbeat IPC: 0.06787 cumulative IPC: 0.06801 (Simulation time: 0 hr 30 min 50 sec) 
Heartbeat CPU  0 instructions:  478000001 cycles: 5673730128 heartbeat IPC: 0.06744 cumulative IPC: 0.06801 (Simulation time: 0 hr 30 min 55 sec) 
Heartbeat CPU  0 instructions:  479000001 cycles: 5688564135 heartbeat IPC: 0.06741 cumulative IPC: 0.06801 (Simulation time: 0 hr 30 min 59 sec) 
Heartbeat CPU  0 instructions:  480000000 cycles: 5703479948 heartbeat IPC: 0.06704 cumulative IPC: 0.06801 (Simulation time: 0 hr 31 min 4 sec) 
Heartbeat CPU  0 instructions:  481000000 cycles: 5718332460 heartbeat IPC: 0.06733 cumulative IPC: 0.06800 (Simulation time: 0 hr 31 min 8 sec) 
Heartbeat CPU  0 instructions:  482000000 cycles: 5733228962 heartbeat IPC: 0.06713 cumulative IPC: 0.06800 (Simulation time: 0 hr 31 min 13 sec) 
Heartbeat CPU  0 instructions:  483000000 cycles: 5747966699 heartbeat IPC: 0.06785 cumulative IPC: 0.06800 (Simulation time: 0 hr 31 min 17 sec) 
Heartbeat CPU  0 instructions:  484000000 cycles: 5762831664 heartbeat IPC: 0.06727 cumulative IPC: 0.06800 (Simulation time: 0 hr 31 min 22 sec) 
Heartbeat CPU  0 instructions:  485000000 cycles: 5777802896 heartbeat IPC: 0.06679 cumulative IPC: 0.06800 (Simulation time: 0 hr 31 min 27 sec) 
Heartbeat CPU  0 instructions:  486000000 cycles: 5792716176 heartbeat IPC: 0.06705 cumulative IPC: 0.06799 (Simulation time: 0 hr 31 min 31 sec) 
Heartbeat CPU  0 instructions:  487000000 cycles: 5807636167 heartbeat IPC: 0.06702 cumulative IPC: 0.06799 (Simulation time: 0 hr 31 min 36 sec) 
Heartbeat CPU  0 instructions:  488000000 cycles: 5822248856 heartbeat IPC: 0.06843 cumulative IPC: 0.06799 (Simulation time: 0 hr 31 min 40 sec) 
Heartbeat CPU  0 instructions:  489000000 cycles: 5837084398 heartbeat IPC: 0.06741 cumulative IPC: 0.06799 (Simulation time: 0 hr 31 min 45 sec) 
Heartbeat CPU  0 instructions:  490000000 cycles: 5851731983 heartbeat IPC: 0.06827 cumulative IPC: 0.06799 (Simulation time: 0 hr 31 min 49 sec) 
Heartbeat CPU  0 instructions:  491000000 cycles: 5866428683 heartbeat IPC: 0.06804 cumulative IPC: 0.06799 (Simulation time: 0 hr 31 min 54 sec) 
Heartbeat CPU  0 instructions:  492000000 cycles: 5881191191 heartbeat IPC: 0.06774 cumulative IPC: 0.06799 (Simulation time: 0 hr 31 min 59 sec) 
Heartbeat CPU  0 instructions:  493000001 cycles: 5895920478 heartbeat IPC: 0.06789 cumulative IPC: 0.06799 (Simulation time: 0 hr 32 min 3 sec) 
Heartbeat CPU  0 instructions:  494000001 cycles: 5910639137 heartbeat IPC: 0.06794 cumulative IPC: 0.06799 (Simulation time: 0 hr 32 min 8 sec) 
Heartbeat CPU  0 instructions:  495000000 cycles: 5925425760 heartbeat IPC: 0.06763 cumulative IPC: 0.06799 (Simulation time: 0 hr 32 min 12 sec) 
Heartbeat CPU  0 instructions:  496000000 cycles: 5940172250 heartbeat IPC: 0.06781 cumulative IPC: 0.06799 (Simulation time: 0 hr 32 min 17 sec) 
Heartbeat CPU  0 instructions:  497000001 cycles: 5954730510 heartbeat IPC: 0.06869 cumulative IPC: 0.06799 (Simulation time: 0 hr 32 min 22 sec) 
Heartbeat CPU  0 instructions:  498000000 cycles: 5969436059 heartbeat IPC: 0.06800 cumulative IPC: 0.06799 (Simulation time: 0 hr 32 min 26 sec) 
Heartbeat CPU  0 instructions:  499000003 cycles: 5984035150 heartbeat IPC: 0.06850 cumulative IPC: 0.06799 (Simulation time: 0 hr 32 min 31 sec) 
Heartbeat CPU  0 instructions:  500000000 cycles: 5998734635 heartbeat IPC: 0.06803 cumulative IPC: 0.06799 (Simulation time: 0 hr 32 min 35 sec) 
Heartbeat CPU  0 instructions:  501000000 cycles: 6013441761 heartbeat IPC: 0.06799 cumulative IPC: 0.06799 (Simulation time: 0 hr 32 min 40 sec) 
Heartbeat CPU  0 instructions:  502000001 cycles: 6028260957 heartbeat IPC: 0.06748 cumulative IPC: 0.06799 (Simulation time: 0 hr 32 min 44 sec) 
Heartbeat CPU  0 instructions:  503000001 cycles: 6042982856 heartbeat IPC: 0.06793 cumulative IPC: 0.06799 (Simulation time: 0 hr 32 min 49 sec) 
Heartbeat CPU  0 instructions:  504000000 cycles: 6057669064 heartbeat IPC: 0.06809 cumulative IPC: 0.06799 (Simulation time: 0 hr 32 min 54 sec) 
Heartbeat CPU  0 instructions:  505000001 cycles: 6072252132 heartbeat IPC: 0.06857 cumulative IPC: 0.06799 (Simulation time: 0 hr 32 min 58 sec) 
Heartbeat CPU  0 instructions:  506000003 cycles: 6086882041 heartbeat IPC: 0.06835 cumulative IPC: 0.06799 (Simulation time: 0 hr 33 min 3 sec) 
Heartbeat CPU  0 instructions:  507000000 cycles: 6101431874 heartbeat IPC: 0.06873 cumulative IPC: 0.06800 (Simulation time: 0 hr 33 min 8 sec) 
Heartbeat CPU  0 instructions:  508000000 cycles: 6116144366 heartbeat IPC: 0.06797 cumulative IPC: 0.06800 (Simulation time: 0 hr 33 min 12 sec) 
Heartbeat CPU  0 instructions:  509000000 cycles: 6130868802 heartbeat IPC: 0.06791 cumulative IPC: 0.06800 (Simulation time: 0 hr 33 min 17 sec) 
Heartbeat CPU  0 instructions:  510000001 cycles: 6145554350 heartbeat IPC: 0.06809 cumulative IPC: 0.06800 (Simulation time: 0 hr 33 min 21 sec) 
Heartbeat CPU  0 instructions:  511000003 cycles: 6160173388 heartbeat IPC: 0.06840 cumulative IPC: 0.06800 (Simulation time: 0 hr 33 min 26 sec) 
Heartbeat CPU  0 instructions:  512000000 cycles: 6174876106 heartbeat IPC: 0.06801 cumulative IPC: 0.06800 (Simulation time: 0 hr 33 min 31 sec) 
Heartbeat CPU  0 instructions:  513000001 cycles: 6189604313 heartbeat IPC: 0.06790 cumulative IPC: 0.06800 (Simulation time: 0 hr 33 min 35 sec) 
Heartbeat CPU  0 instructions:  514000000 cycles: 6204385226 heartbeat IPC: 0.06765 cumulative IPC: 0.06800 (Simulation time: 0 hr 33 min 40 sec) 
Heartbeat CPU  0 instructions:  515000001 cycles: 6219065736 heartbeat IPC: 0.06812 cumulative IPC: 0.06800 (Simulation time: 0 hr 33 min 44 sec) 
Heartbeat CPU  0 instructions:  516000000 cycles: 6233753284 heartbeat IPC: 0.06808 cumulative IPC: 0.06800 (Simulation time: 0 hr 33 min 49 sec) 
Heartbeat CPU  0 instructions:  517000000 cycles: 6248421469 heartbeat IPC: 0.06817 cumulative IPC: 0.06800 (Simulation time: 0 hr 33 min 53 sec) 
Heartbeat CPU  0 instructions:  518000000 cycles: 6263208512 heartbeat IPC: 0.06763 cumulative IPC: 0.06800 (Simulation time: 0 hr 33 min 58 sec) 
Heartbeat CPU  0 instructions:  519000000 cycles: 6277989242 heartbeat IPC: 0.06766 cumulative IPC: 0.06799 (Simulation time: 0 hr 34 min 3 sec) 
Heartbeat CPU  0 instructions:  520000000 cycles: 6292727555 heartbeat IPC: 0.06785 cumulative IPC: 0.06799 (Simulation time: 0 hr 34 min 7 sec) 
Heartbeat CPU  0 instructions:  521000000 cycles: 6307594264 heartbeat IPC: 0.06726 cumulative IPC: 0.06799 (Simulation time: 0 hr 34 min 12 sec) 
Heartbeat CPU  0 instructions:  522000000 cycles: 6322265930 heartbeat IPC: 0.06816 cumulative IPC: 0.06799 (Simulation time: 0 hr 34 min 17 sec) 
Heartbeat CPU  0 instructions:  523000001 cycles: 6336984694 heartbeat IPC: 0.06794 cumulative IPC: 0.06799 (Simulation time: 0 hr 34 min 21 sec) 
Heartbeat CPU  0 instructions:  524000000 cycles: 6351800950 heartbeat IPC: 0.06749 cumulative IPC: 0.06799 (Simulation time: 0 hr 34 min 26 sec) 
Heartbeat CPU  0 instructions:  525000000 cycles: 6366625903 heartbeat IPC: 0.06745 cumulative IPC: 0.06799 (Simulation time: 0 hr 34 min 30 sec) 
Heartbeat CPU  0 instructions:  526000000 cycles: 6381463917 heartbeat IPC: 0.06739 cumulative IPC: 0.06799 (Simulation time: 0 hr 34 min 35 sec) 
Heartbeat CPU  0 instructions:  527000000 cycles: 6396248512 heartbeat IPC: 0.06764 cumulative IPC: 0.06799 (Simulation time: 0 hr 34 min 39 sec) 
Heartbeat CPU  0 instructions:  528000000 cycles: 6411019035 heartbeat IPC: 0.06770 cumulative IPC: 0.06799 (Simulation time: 0 hr 34 min 44 sec) 
Heartbeat CPU  0 instructions:  529000001 cycles: 6425893327 heartbeat IPC: 0.06723 cumulative IPC: 0.06799 (Simulation time: 0 hr 34 min 49 sec) 
Heartbeat CPU  0 instructions:  530000000 cycles: 6440706944 heartbeat IPC: 0.06751 cumulative IPC: 0.06798 (Simulation time: 0 hr 34 min 53 sec) 
Heartbeat CPU  0 instructions:  531000001 cycles: 6454426209 heartbeat IPC: 0.07289 cumulative IPC: 0.06800 (Simulation time: 0 hr 34 min 58 sec) 
Heartbeat CPU  0 instructions:  532000000 cycles: 6469224736 heartbeat IPC: 0.06757 cumulative IPC: 0.06799 (Simulation time: 0 hr 35 min 2 sec) 
Heartbeat CPU  0 instructions:  533000000 cycles: 6483999245 heartbeat IPC: 0.06768 cumulative IPC: 0.06799 (Simulation time: 0 hr 35 min 7 sec) 
Heartbeat CPU  0 instructions:  534000003 cycles: 6498649300 heartbeat IPC: 0.06826 cumulative IPC: 0.06799 (Simulation time: 0 hr 35 min 11 sec) 
Heartbeat CPU  0 instructions:  535000000 cycles: 6513197796 heartbeat IPC: 0.06874 cumulative IPC: 0.06800 (Simulation time: 0 hr 35 min 16 sec) 
Heartbeat CPU  0 instructions:  536000000 cycles: 6527817447 heartbeat IPC: 0.06840 cumulative IPC: 0.06800 (Simulation time: 0 hr 35 min 20 sec) 
Heartbeat CPU  0 instructions:  537000001 cycles: 6542660172 heartbeat IPC: 0.06737 cumulative IPC: 0.06800 (Simulation time: 0 hr 35 min 25 sec) 
Heartbeat CPU  0 instructions:  538000000 cycles: 6557380010 heartbeat IPC: 0.06794 cumulative IPC: 0.06800 (Simulation time: 0 hr 35 min 29 sec) 
Heartbeat CPU  0 instructions:  539000000 cycles: 6572151827 heartbeat IPC: 0.06770 cumulative IPC: 0.06799 (Simulation time: 0 hr 35 min 34 sec) 
Heartbeat CPU  0 instructions:  540000000 cycles: 6586892916 heartbeat IPC: 0.06784 cumulative IPC: 0.06799 (Simulation time: 0 hr 35 min 39 sec) 
Heartbeat CPU  0 instructions:  541000000 cycles: 6601488053 heartbeat IPC: 0.06852 cumulative IPC: 0.06800 (Simulation time: 0 hr 35 min 43 sec) 
Heartbeat CPU  0 instructions:  542000001 cycles: 6616008170 heartbeat IPC: 0.06887 cumulative IPC: 0.06800 (Simulation time: 0 hr 35 min 48 sec) 
Heartbeat CPU  0 instructions:  543000000 cycles: 6630629342 heartbeat IPC: 0.06839 cumulative IPC: 0.06800 (Simulation time: 0 hr 35 min 52 sec) 
Heartbeat CPU  0 instructions:  544000000 cycles: 6645204862 heartbeat IPC: 0.06861 cumulative IPC: 0.06800 (Simulation time: 0 hr 35 min 57 sec) 
Heartbeat CPU  0 instructions:  545000000 cycles: 6659952281 heartbeat IPC: 0.06781 cumulative IPC: 0.06800 (Simulation time: 0 hr 36 min 1 sec) 
Heartbeat CPU  0 instructions:  546000001 cycles: 6674689435 heartbeat IPC: 0.06786 cumulative IPC: 0.06800 (Simulation time: 0 hr 36 min 6 sec) 
Heartbeat CPU  0 instructions:  547000001 cycles: 6689412759 heartbeat IPC: 0.06792 cumulative IPC: 0.06800 (Simulation time: 0 hr 36 min 11 sec) 
Heartbeat CPU  0 instructions:  548000000 cycles: 6704220848 heartbeat IPC: 0.06753 cumulative IPC: 0.06800 (Simulation time: 0 hr 36 min 15 sec) 
Heartbeat CPU  0 instructions:  549000000 cycles: 6718973795 heartbeat IPC: 0.06778 cumulative IPC: 0.06800 (Simulation time: 0 hr 36 min 20 sec) 
Heartbeat CPU  0 instructions:  550000001 cycles: 6733607333 heartbeat IPC: 0.06834 cumulative IPC: 0.06800 (Simulation time: 0 hr 36 min 24 sec) 
Heartbeat CPU  0 instructions:  551000000 cycles: 6748226762 heartbeat IPC: 0.06840 cumulative IPC: 0.06800 (Simulation time: 0 hr 36 min 29 sec) 
Heartbeat CPU  0 instructions:  552000000 cycles: 6762936651 heartbeat IPC: 0.06798 cumulative IPC: 0.06800 (Simulation time: 0 hr 36 min 33 sec) 
Heartbeat CPU  0 instructions:  553000000 cycles: 6777565169 heartbeat IPC: 0.06836 cumulative IPC: 0.06800 (Simulation time: 0 hr 36 min 38 sec) 
Heartbeat CPU  0 instructions:  554000001 cycles: 6792145565 heartbeat IPC: 0.06859 cumulative IPC: 0.06800 (Simulation time: 0 hr 36 min 43 sec) 
Heartbeat CPU  0 instructions:  555000000 cycles: 6806779327 heartbeat IPC: 0.06834 cumulative IPC: 0.06800 (Simulation time: 0 hr 36 min 47 sec) 
Heartbeat CPU  0 instructions:  556000000 cycles: 6821453579 heartbeat IPC: 0.06815 cumulative IPC: 0.06800 (Simulation time: 0 hr 36 min 52 sec) 
Heartbeat CPU  0 instructions:  557000000 cycles: 6836076973 heartbeat IPC: 0.06838 cumulative IPC: 0.06800 (Simulation time: 0 hr 36 min 56 sec) 
Heartbeat CPU  0 instructions:  558000000 cycles: 6850453448 heartbeat IPC: 0.06956 cumulative IPC: 0.06801 (Simulation time: 0 hr 37 min 1 sec) 
Heartbeat CPU  0 instructions:  559000001 cycles: 6865161468 heartbeat IPC: 0.06799 cumulative IPC: 0.06801 (Simulation time: 0 hr 37 min 5 sec) 
Heartbeat CPU  0 instructions:  560000000 cycles: 6880091700 heartbeat IPC: 0.06698 cumulative IPC: 0.06800 (Simulation time: 0 hr 37 min 10 sec) 
Heartbeat CPU  0 instructions:  561000001 cycles: 6894900272 heartbeat IPC: 0.06753 cumulative IPC: 0.06800 (Simulation time: 0 hr 37 min 15 sec) 
Heartbeat CPU  0 instructions:  562000000 cycles: 6909622431 heartbeat IPC: 0.06792 cumulative IPC: 0.06800 (Simulation time: 0 hr 37 min 19 sec) 
Heartbeat CPU  0 instructions:  563000000 cycles: 6924322540 heartbeat IPC: 0.06803 cumulative IPC: 0.06800 (Simulation time: 0 hr 37 min 24 sec) 
Heartbeat CPU  0 instructions:  564000000 cycles: 6939029325 heartbeat IPC: 0.06800 cumulative IPC: 0.06800 (Simulation time: 0 hr 37 min 28 sec) 
Heartbeat CPU  0 instructions:  565000003 cycles: 6953794990 heartbeat IPC: 0.06772 cumulative IPC: 0.06800 (Simulation time: 0 hr 37 min 33 sec) 
Heartbeat CPU  0 instructions:  566000001 cycles: 6968648488 heartbeat IPC: 0.06732 cumulative IPC: 0.06800 (Simulation time: 0 hr 37 min 37 sec) 
Heartbeat CPU  0 instructions:  567000000 cycles: 6983435803 heartbeat IPC: 0.06763 cumulative IPC: 0.06800 (Simulation time: 0 hr 37 min 42 sec) 
Heartbeat CPU  0 instructions:  568000000 cycles: 6998098612 heartbeat IPC: 0.06820 cumulative IPC: 0.06800 (Simulation time: 0 hr 37 min 46 sec) 
Heartbeat CPU  0 instructions:  569000002 cycles: 7012799991 heartbeat IPC: 0.06802 cumulative IPC: 0.06800 (Simulation time: 0 hr 37 min 51 sec) 
Heartbeat CPU  0 instructions:  570000001 cycles: 7027426131 heartbeat IPC: 0.06837 cumulative IPC: 0.06800 (Simulation time: 0 hr 37 min 55 sec) 
Heartbeat CPU  0 instructions:  571000001 cycles: 7042398723 heartbeat IPC: 0.06679 cumulative IPC: 0.06800 (Simulation time: 0 hr 38 min 0 sec) 
Heartbeat CPU  0 instructions:  572000000 cycles: 7057184983 heartbeat IPC: 0.06763 cumulative IPC: 0.06800 (Simulation time: 0 hr 38 min 4 sec) 
Heartbeat CPU  0 instructions:  573000000 cycles: 7072039493 heartbeat IPC: 0.06732 cumulative IPC: 0.06800 (Simulation time: 0 hr 38 min 9 sec) 
Heartbeat CPU  0 instructions:  574000000 cycles: 7086828031 heartbeat IPC: 0.06762 cumulative IPC: 0.06800 (Simulation time: 0 hr 38 min 14 sec) 
Heartbeat CPU  0 instructions:  575000000 cycles: 7101544050 heartbeat IPC: 0.06795 cumulative IPC: 0.06800 (Simulation time: 0 hr 38 min 18 sec) 
Heartbeat CPU  0 instructions:  576000000 cycles: 7116057983 heartbeat IPC: 0.06890 cumulative IPC: 0.06800 (Simulation time: 0 hr 38 min 23 sec) 
Heartbeat CPU  0 instructions:  577000000 cycles: 7130611174 heartbeat IPC: 0.06871 cumulative IPC: 0.06800 (Simulation time: 0 hr 38 min 27 sec) 
Heartbeat CPU  0 instructions:  578000000 cycles: 7145175258 heartbeat IPC: 0.06866 cumulative IPC: 0.06800 (Simulation time: 0 hr 38 min 32 sec) 
Heartbeat CPU  0 instructions:  579000001 cycles: 7159691684 heartbeat IPC: 0.06889 cumulative IPC: 0.06800 (Simulation time: 0 hr 38 min 37 sec) 
Heartbeat CPU  0 instructions:  580000000 cycles: 7174074100 heartbeat IPC: 0.06953 cumulative IPC: 0.06800 (Simulation time: 0 hr 38 min 41 sec) 
Heartbeat CPU  0 instructions:  581000000 cycles: 7188445534 heartbeat IPC: 0.06958 cumulative IPC: 0.06801 (Simulation time: 0 hr 38 min 46 sec) 
Heartbeat CPU  0 instructions:  582000001 cycles: 7202794008 heartbeat IPC: 0.06969 cumulative IPC: 0.06801 (Simulation time: 0 hr 38 min 50 sec) 
Heartbeat CPU  0 instructions:  583000000 cycles: 7217136234 heartbeat IPC: 0.06972 cumulative IPC: 0.06801 (Simulation time: 0 hr 38 min 55 sec) 
Heartbeat CPU  0 instructions:  584000000 cycles: 7231516954 heartbeat IPC: 0.06954 cumulative IPC: 0.06802 (Simulation time: 0 hr 38 min 59 sec) 
Heartbeat CPU  0 instructions:  585000000 cycles: 7245885137 heartbeat IPC: 0.06960 cumulative IPC: 0.06802 (Simulation time: 0 hr 39 min 4 sec) 
Heartbeat CPU  0 instructions:  586000001 cycles: 7260397581 heartbeat IPC: 0.06891 cumulative IPC: 0.06802 (Simulation time: 0 hr 39 min 9 sec) 
Heartbeat CPU  0 instructions:  587000000 cycles: 7274874861 heartbeat IPC: 0.06907 cumulative IPC: 0.06803 (Simulation time: 0 hr 39 min 13 sec) 
Heartbeat CPU  0 instructions:  588000000 cycles: 7289422987 heartbeat IPC: 0.06874 cumulative IPC: 0.06803 (Simulation time: 0 hr 39 min 18 sec) 
Heartbeat CPU  0 instructions:  589000002 cycles: 7304043660 heartbeat IPC: 0.06840 cumulative IPC: 0.06803 (Simulation time: 0 hr 39 min 22 sec) 
Heartbeat CPU  0 instructions:  590000000 cycles: 7318691727 heartbeat IPC: 0.06827 cumulative IPC: 0.06803 (Simulation time: 0 hr 39 min 27 sec) 
Heartbeat CPU  0 instructions:  591000000 cycles: 7333481019 heartbeat IPC: 0.06762 cumulative IPC: 0.06803 (Simulation time: 0 hr 39 min 31 sec) 
Heartbeat CPU  0 instructions:  592000000 cycles: 7348243001 heartbeat IPC: 0.06774 cumulative IPC: 0.06803 (Simulation time: 0 hr 39 min 36 sec) 
Heartbeat CPU  0 instructions:  593000000 cycles: 7363078845 heartbeat IPC: 0.06740 cumulative IPC: 0.06803 (Simulation time: 0 hr 39 min 40 sec) 
Heartbeat CPU  0 instructions:  594000000 cycles: 7377974393 heartbeat IPC: 0.06713 cumulative IPC: 0.06802 (Simulation time: 0 hr 39 min 45 sec) 
Heartbeat CPU  0 instructions:  595000002 cycles: 7392871926 heartbeat IPC: 0.06713 cumulative IPC: 0.06802 (Simulation time: 0 hr 39 min 49 sec) 
Heartbeat CPU  0 instructions:  596000000 cycles: 7407728054 heartbeat IPC: 0.06731 cumulative IPC: 0.06802 (Simulation time: 0 hr 39 min 54 sec) 
Heartbeat CPU  0 instructions:  597000000 cycles: 7422558985 heartbeat IPC: 0.06743 cumulative IPC: 0.06802 (Simulation time: 0 hr 39 min 59 sec) 
Heartbeat CPU  0 instructions:  598000000 cycles: 7437342420 heartbeat IPC: 0.06764 cumulative IPC: 0.06802 (Simulation time: 0 hr 40 min 3 sec) 
Heartbeat CPU  0 instructions:  599000000 cycles: 7452075387 heartbeat IPC: 0.06787 cumulative IPC: 0.06802 (Simulation time: 0 hr 40 min 8 sec) 
Heartbeat CPU  0 instructions:  600000000 cycles: 7466808481 heartbeat IPC: 0.06787 cumulative IPC: 0.06802 (Simulation time: 0 hr 40 min 12 sec) 
Finished CPU 0 instructions: 500000003 cycles: 7351048317 cumulative IPC: 0.06802 (Simulation time: 0 hr 40 min 12 sec) 

ChampSim completed all CPUs

[ROI Statistics]
Core_0_instructions 500000003
Core_0_cycles 7351048317
Core_0_IPC 0.06802

Core_0_branch_prediction_accuracy 91.38259
Core_0_branch_MPKI 20.71461
Core_0_average_ROB_occupancy_at_mispredict 46.75683

Core_0_L1D_total_access 104101991
Core_0_L1D_total_hit 29057594
Core_0_L1D_total_miss 75044397
Core_0_L1D_loads 103987036
Core_0_L1D_load_hit 28945133
Core_0_L1D_load_miss 75041903
Core_0_L1D_RFOs 114955
Core_0_L1D_RFO_hit 112461
Core_0_L1D_RFO_miss 2494
Core_0_L1D_prefetches 0
Core_0_L1D_prefetch_hit 0
Core_0_L1D_prefetch_miss 0
Core_0_L1D_writebacks 0
Core_0_L1D_writeback_hit 0
Core_0_L1D_writeback_miss 0
Core_0_L1D_prefetch_requested 0
Core_0_L1D_prefetch_dropped 0
Core_0_L1D_prefetch_issued 0
Core_0_L1D_prefetch_filled 0
Core_0_L1D_prefetch_useful 0
Core_0_L1D_prefetch_useless 0
Core_0_L1D_prefetch_late 0
Core_0_L1D_average_miss_latency 176.77654

Core_0_L1D_rq_access 155342323
Core_0_L1D_rq_forward 0
Core_0_L1D_rq_merged 51320008
Core_0_L1D_rq_to_cache 104022315
Core_0_L1D_rq_full 0

Core_0_L1D_wq_access 123159
Core_0_L1D_wq_forward 0
Core_0_L1D_wq_merged 6867
Core_0_L1D_wq_to_cache 116292
Core_0_L1D_wq_full 0

Core_0_L1D_pq_access 0
Core_0_L1D_pq_forward 0
Core_0_L1D_pq_merged 0
Core_0_L1D_pq_to_cache 0
Core_0_L1D_pq_full 0

Core_0_L1D_acc_epochs 7167848
Core_0_L1D_acc_level_0 7167848
Core_0_L1D_acc_level_1 0
Core_0_L1D_acc_level_2 0
Core_0_L1D_acc_level_3 0
Core_0_L1D_acc_level_4 0
Core_0_L1D_acc_level_5 0
Core_0_L1D_acc_level_6 0
Core_0_L1D_acc_level_7 0
Core_0_L1D_acc_level_8 0
Core_0_L1D_acc_level_9 0

Core_0_L1I_total_access 91195033
Core_0_L1I_total_hit 91195033
Core_0_L1I_total_miss 0
Core_0_L1I_loads 91195033
Core_0_L1I_load_hit 91195033
Core_0_L1I_load_miss 0
Core_0_L1I_RFOs 0
Core_0_L1I_RFO_hit 0
Core_0_L1I_RFO_miss 0
Core_0_L1I_prefetches 0
Core_0_L1I_prefetch_hit 0
Core_0_L1I_prefetch_miss 0
Core_0_L1I_writebacks 0
Core_0_L1I_writeback_hit 0
Core_0_L1I_writeback_miss 0
Core_0_L1I_prefetch_requested 0
Core_0_L1I_prefetch_dropped 0
Core_0_L1I_prefetch_issued 0
Core_0_L1I_prefetch_filled 0
Core_0_L1I_prefetch_useful 0
Core_0_L1I_prefetch_useless 0
Core_0_L1I_prefetch_late 0
Core_0_L1I_average_miss_latency -nan

Core_0_L1I_rq_access 499999982
Core_0_L1I_rq_forward 0
Core_0_L1I_rq_merged 408804949
Core_0_L1I_rq_to_cache 91195033
Core_0_L1I_rq_full 0

Core_0_L1I_wq_access 0
Core_0_L1I_wq_forward 0
Core_0_L1I_wq_merged 0
Core_0_L1I_wq_to_cache 0
Core_0_L1I_wq_full 0

Core_0_L1I_pq_access 0
Core_0_L1I_pq_forward 0
Core_0_L1I_pq_merged 0
Core_0_L1I_pq_to_cache 0
Core_0_L1I_pq_full 0

Core_0_L1I_acc_epochs 7167848
Core_0_L1I_acc_level_0 7167848
Core_0_L1I_acc_level_1 0
Core_0_L1I_acc_level_2 0
Core_0_L1I_acc_level_3 0
Core_0_L1I_acc_level_4 0
Core_0_L1I_acc_level_5 0
Core_0_L1I_acc_level_6 0
Core_0_L1I_acc_level_7 0
Core_0_L1I_acc_level_8 0
Core_0_L1I_acc_level_9 0

Core_0_L2C_total_access 75106947
Core_0_L2C_total_hit 15332958
Core_0_L2C_total_miss 59773989
Core_0_L2C_loads 75041900
Core_0_L2C_load_hit 15269815
Core_0_L2C_load_miss 59772085
Core_0_L2C_RFOs 2494
Core_0_L2C_RFO_hit 590
Core_0_L2C_RFO_miss 1904
Core_0_L2C_prefetches 0
Core_0_L2C_prefetch_hit 0
Core_0_L2C_prefetch_miss 0
Core_0_L2C_writebacks 62553
Core_0_L2C_writeback_hit 62553
Core_0_L2C_writeback_miss 0
Core_0_L2C_prefetch_requested 0
Core_0_L2C_prefetch_dropped 0
Core_0_L2C_prefetch_issued 0
Core_0_L2C_prefetch_filled 0
Core_0_L2C_prefetch_useful 0
Core_0_L2C_prefetch_useless 0
Core_0_L2C_prefetch_late 0
Core_0_L2C_average_miss_latency 203.88945

Core_0_L2C_rq_access 75044397
Core_0_L2C_rq_forward 0
Core_0_L2C_rq_merged 0
Core_0_L2C_rq_to_cache 75044394
Core_0_L2C_rq_full 0

Core_0_L2C_wq_access 62553
Core_0_L2C_wq_forward 3
Core_0_L2C_wq_merged 0
Core_0_L2C_wq_to_cache 62553
Core_0_L2C_wq_full 0

Core_0_L2C_pq_access 0
Core_0_L2C_pq_forward 0
Core_0_L2C_pq_merged 0
Core_0_L2C_pq_to_cache 0
Core_0_L2C_pq_full 0

Core_0_L2C_acc_epochs 7167848
Core_0_L2C_acc_level_0 7167848
Core_0_L2C_acc_level_1 0
Core_0_L2C_acc_level_2 0
Core_0_L2C_acc_level_3 0
Core_0_L2C_acc_level_4 0
Core_0_L2C_acc_level_5 0
Core_0_L2C_acc_level_6 0
Core_0_L2C_acc_level_7 0
Core_0_L2C_acc_level_8 0
Core_0_L2C_acc_level_9 0

Core_0_LLC_total_access 59834862
Core_0_LLC_total_hit 33117312
Core_0_LLC_total_miss 26717550
Core_0_LLC_loads 59772085
Core_0_LLC_load_hit 33060824
Core_0_LLC_load_miss 26711261
Core_0_LLC_RFOs 1904
Core_0_LLC_RFO_hit 1039
Core_0_LLC_RFO_miss 865
Core_0_LLC_prefetches 0
Core_0_LLC_prefetch_hit 0
Core_0_LLC_prefetch_miss 0
Core_0_LLC_writebacks 60873
Core_0_LLC_writeback_hit 55449
Core_0_LLC_writeback_miss 5424
Core_0_LLC_prefetch_requested 0
Core_0_LLC_prefetch_dropped 0
Core_0_LLC_prefetch_issued 0
Core_0_LLC_prefetch_filled 0
Core_0_LLC_prefetch_useful 0
Core_0_LLC_prefetch_useless 0
Core_0_LLC_prefetch_late 0
Core_0_LLC_average_miss_latency 388.83593

Core_0_LLC_rq_access 59773989
Core_0_LLC_rq_forward 0
Core_0_LLC_rq_merged 0
Core_0_LLC_rq_to_cache 59773989
Core_0_LLC_rq_full 0

Core_0_LLC_wq_access 60873
Core_0_LLC_wq_forward 0
Core_0_LLC_wq_merged 0
Core_0_LLC_wq_to_cache 60873
Core_0_LLC_wq_full 0

Core_0_LLC_pq_access 0
Core_0_LLC_pq_forward 0
Core_0_LLC_pq_merged 0
Core_0_LLC_pq_to_cache 0
Core_0_LLC_pq_full 0

Core_0_LLC_acc_epochs 7291806
Core_0_LLC_acc_level_0 7291806
Core_0_LLC_acc_level_1 0
Core_0_LLC_acc_level_2 0
Core_0_LLC_acc_level_3 0
Core_0_LLC_acc_level_4 0
Core_0_LLC_acc_level_5 0
Core_0_LLC_acc_level_6 0
Core_0_LLC_acc_level_7 0
Core_0_LLC_acc_level_8 0
Core_0_LLC_acc_level_9 0

Core_0_major_page_fault 0
Core_0_minor_page_fault 428295

Channel_0_RQ_row_buffer_hit 20483
Channel_0_RQ_row_buffer_miss 26691643
Channel_0_WQ_row_buffer_hit 3500
Channel_0_WQ_row_buffer_miss 32622
Channel_0_WQ_full 0
Channel_0_dbus_congested 136448

avg_congested_cycle 27

DRAM_bw_pochs 29167221
DRAM_bw_level_0 20363724
DRAM_bw_level_1 4482570
DRAM_bw_level_2 2199875
DRAM_bw_level_3 2121052
