*************************************************
   ChampSim Multicore Out-of-Order Simulator
   Last compiled: Dec 11 2024 17:59:53
*************************************************
parsing config file: /home/functionmain/桌面/Pythia/config/spp_dev2.ini

trace_0 /home/functionmain/桌面/Pythia/traces/429.mcf-51B.champsimtrace.xz
adding L2C_PREFETCHER: SPP_dev2
Initialize SIGNATURE TABLE
ST_SET: 1
ST_WAY: 256
ST_TAG_BIT: 16
ST_TAG_MASK: ffff

Initialize PATTERN TABLE
PT_SET: 512
PT_WAY: 4
SIG_DELTA_BIT: 7
C_SIG_BIT: 4
C_DELTA_BIT: 4

Initialize PREFETCH FILTER
FILTER_SET: 1024
fill_threshold: 90
pf_threshold: 40

Initialize SHIP state
warmup_instructions 100000000
simulation_instructions 500000000
champsim_seed 168
measure_ipc 0
measure_ipc_epoch 1000
measure_dram_bw 1
measure_dram_bw_epoch 256
measure_cache_acc 1
measure_cache_acc_epoch 1024
l1d_perfect 0
l2c_perfect 0
llc_perfect 0
l1d_semi_perfect 0
l2c_semi_perfect 0
llc_semi_perfect 0
semi_perfect_cache_page_buffer_size 64

num_cpus 1
cpu_freq 4000
dram_io_freq 9600
page_size 4096
block_size 64
max_read_per_cycle 8
max_fill_per_cycle 1
dram_channels 1
log2_dram_channels 0
dram_ranks 1
dram_banks 8
dram_rows 65536
dram_columns 128
dram_row_size 8
dram_size 4096
dram_pages 1048576

fetch_width 6
decode_width 6
exec_width 4
lq_width 2
sq_width 2
retire_width 4
scheduler_size 128
branch_mispredict_penalty 20
rob_size 256
lq_size 72
sq_size 56
num_instr_destinations_sparc 4
num_instr_destinations 2
num_instr_sources 4

itlb_set 16
itlb_way 8
itlb_rq_size 16
itlb_wq_size 16
itlb_pq_size 0
itlb_mshr_size 8
itlb_latency 1

dtlb_set 16
dtlb_way 4
dtlb_rq_size 16
dtlb_wq_size 16
dtlb_pq_size 0
dtlb_mshr_size 8
dtlb_latency 1

stlb_set 128
stlb_way 12
stlb_rq_size 32
stlb_wq_size 32
stlb_pq_size 0
stlb_mshr_size 16
stlb_latency 8

l1i_size 32
l1i_set 64
l1i_way 8
l1i_rq_size 64
l1i_wq_size 64
l1i_pq_size 8
l1i_mshr_size 8
l1i_latency 1

l1d_size 32
l1d_set 64
l1d_way 8
l1d_rq_size 64
l1d_wq_size 64
l1d_pq_size 8
l1d_mshr_size 16
l1d_latency 4

l2c_size 256
l2c_set 512
l2c_way 8
l2c_rq_size 32
l2c_wq_size 32
l2c_pq_size 32
l2c_mshr_size 32
l2c_latency 10

llc_size 2048
llc_set 2048
llc_way 16
llc_rq_size 32
llc_wq_size 32
llc_pq_size 32
llc_mshr_size 64
llc_latency 20

dram_channel_width 8
dram_wq_size 64
dram_rq_size 64
tRP 15
tRCD 15
tCAS 12.5
dram_dbus_turn_around_time 30
dram_write_high_wm 56
dram_write_low_wm 48
min_dram_writes_per_switch 16
dram_mtps 9600
dram_dbus_return_time 3


Heartbeat CPU  0 instructions:    1000003 cycles:     855225 heartbeat IPC: 1.16929 cumulative IPC: 1.16929 (Simulation time: 0 hr 0 min 1 sec) 
Heartbeat CPU  0 instructions:    2000000 cycles:    1635365 heartbeat IPC: 1.28182 cumulative IPC: 1.22297 (Simulation time: 0 hr 0 min 3 sec) 
Heartbeat CPU  0 instructions:    3000002 cycles:    2426863 heartbeat IPC: 1.26343 cumulative IPC: 1.23616 (Simulation time: 0 hr 0 min 4 sec) 
Heartbeat CPU  0 instructions:    4000000 cycles:    3246073 heartbeat IPC: 1.22069 cumulative IPC: 1.23226 (Simulation time: 0 hr 0 min 6 sec) 
Heartbeat CPU  0 instructions:    5000002 cycles:    4027533 heartbeat IPC: 1.27966 cumulative IPC: 1.24146 (Simulation time: 0 hr 0 min 7 sec) 
Heartbeat CPU  0 instructions:    6000001 cycles:    4799744 heartbeat IPC: 1.29498 cumulative IPC: 1.25007 (Simulation time: 0 hr 0 min 9 sec) 
Heartbeat CPU  0 instructions:    7000000 cycles:    5577137 heartbeat IPC: 1.28635 cumulative IPC: 1.25512 (Simulation time: 0 hr 0 min 10 sec) 
Heartbeat CPU  0 instructions:    8000000 cycles:    6425398 heartbeat IPC: 1.17888 cumulative IPC: 1.24506 (Simulation time: 0 hr 0 min 12 sec) 
Heartbeat CPU  0 instructions:    9000001 cycles:    7218333 heartbeat IPC: 1.26114 cumulative IPC: 1.24683 (Simulation time: 0 hr 0 min 13 sec) 
Heartbeat CPU  0 instructions:   10000000 cycles:    8022904 heartbeat IPC: 1.24290 cumulative IPC: 1.24643 (Simulation time: 0 hr 0 min 15 sec) 
Heartbeat CPU  0 instructions:   11000002 cycles:    8870620 heartbeat IPC: 1.17964 cumulative IPC: 1.24005 (Simulation time: 0 hr 0 min 16 sec) 
Heartbeat CPU  0 instructions:   12000000 cycles:    9721545 heartbeat IPC: 1.17519 cumulative IPC: 1.23437 (Simulation time: 0 hr 0 min 17 sec) 
Heartbeat CPU  0 instructions:   13000000 cycles:   10534472 heartbeat IPC: 1.23012 cumulative IPC: 1.23404 (Simulation time: 0 hr 0 min 19 sec) 
Heartbeat CPU  0 instructions:   14000002 cycles:   11305554 heartbeat IPC: 1.29688 cumulative IPC: 1.23833 (Simulation time: 0 hr 0 min 21 sec) 
Heartbeat CPU  0 instructions:   15000001 cycles:   12079761 heartbeat IPC: 1.29164 cumulative IPC: 1.24175 (Simulation time: 0 hr 0 min 22 sec) 
Heartbeat CPU  0 instructions:   16000000 cycles:   12871343 heartbeat IPC: 1.26329 cumulative IPC: 1.24307 (Simulation time: 0 hr 0 min 23 sec) 
Heartbeat CPU  0 instructions:   17000000 cycles:   13678285 heartbeat IPC: 1.23925 cumulative IPC: 1.24285 (Simulation time: 0 hr 0 min 25 sec) 
Heartbeat CPU  0 instructions:   18000002 cycles:   14453887 heartbeat IPC: 1.28932 cumulative IPC: 1.24534 (Simulation time: 0 hr 0 min 27 sec) 
Heartbeat CPU  0 instructions:   19000000 cycles:   15277153 heartbeat IPC: 1.21467 cumulative IPC: 1.24369 (Simulation time: 0 hr 0 min 28 sec) 
Heartbeat CPU  0 instructions:   20000000 cycles:   16119280 heartbeat IPC: 1.18747 cumulative IPC: 1.24075 (Simulation time: 0 hr 0 min 29 sec) 
Heartbeat CPU  0 instructions:   21000001 cycles:   16918296 heartbeat IPC: 1.25154 cumulative IPC: 1.24126 (Simulation time: 0 hr 0 min 31 sec) 
Heartbeat CPU  0 instructions:   22000000 cycles:   17709331 heartbeat IPC: 1.26417 cumulative IPC: 1.24228 (Simulation time: 0 hr 0 min 32 sec) 
Heartbeat CPU  0 instructions:   23000001 cycles:   18517120 heartbeat IPC: 1.23795 cumulative IPC: 1.24209 (Simulation time: 0 hr 0 min 34 sec) 
Heartbeat CPU  0 instructions:   24000000 cycles:   19312210 heartbeat IPC: 1.25772 cumulative IPC: 1.24274 (Simulation time: 0 hr 0 min 35 sec) 
Heartbeat CPU  0 instructions:   25000003 cycles:   20117771 heartbeat IPC: 1.24137 cumulative IPC: 1.24268 (Simulation time: 0 hr 0 min 37 sec) 
Heartbeat CPU  0 instructions:   26000002 cycles:   20922360 heartbeat IPC: 1.24287 cumulative IPC: 1.24269 (Simulation time: 0 hr 0 min 38 sec) 
Heartbeat CPU  0 instructions:   27000000 cycles:   21736396 heartbeat IPC: 1.22844 cumulative IPC: 1.24216 (Simulation time: 0 hr 0 min 40 sec) 
Heartbeat CPU  0 instructions:   28000000 cycles:   22582245 heartbeat IPC: 1.18224 cumulative IPC: 1.23991 (Simulation time: 0 hr 0 min 41 sec) 
Heartbeat CPU  0 instructions:   29000000 cycles:   23359260 heartbeat IPC: 1.28698 cumulative IPC: 1.24148 (Simulation time: 0 hr 0 min 43 sec) 
Heartbeat CPU  0 instructions:   30000000 cycles:   24180545 heartbeat IPC: 1.21760 cumulative IPC: 1.24067 (Simulation time: 0 hr 0 min 44 sec) 
Heartbeat CPU  0 instructions:   31000002 cycles:   25039256 heartbeat IPC: 1.16454 cumulative IPC: 1.23806 (Simulation time: 0 hr 0 min 46 sec) 
Heartbeat CPU  0 instructions:   32000000 cycles:   25902032 heartbeat IPC: 1.15905 cumulative IPC: 1.23542 (Simulation time: 0 hr 0 min 47 sec) 
Heartbeat CPU  0 instructions:   33000002 cycles:   26665535 heartbeat IPC: 1.30976 cumulative IPC: 1.23755 (Simulation time: 0 hr 0 min 49 sec) 
Heartbeat CPU  0 instructions:   34000003 cycles:   27526092 heartbeat IPC: 1.16204 cumulative IPC: 1.23519 (Simulation time: 0 hr 0 min 50 sec) 
Heartbeat CPU  0 instructions:   35000001 cycles:   28384120 heartbeat IPC: 1.16546 cumulative IPC: 1.23308 (Simulation time: 0 hr 0 min 52 sec) 
Heartbeat CPU  0 instructions:   36000000 cycles:   29208201 heartbeat IPC: 1.21347 cumulative IPC: 1.23253 (Simulation time: 0 hr 0 min 53 sec) 
Heartbeat CPU  0 instructions:   37000003 cycles:   29984352 heartbeat IPC: 1.28841 cumulative IPC: 1.23398 (Simulation time: 0 hr 0 min 55 sec) 
Heartbeat CPU  0 instructions:   38000003 cycles:   30789740 heartbeat IPC: 1.24164 cumulative IPC: 1.23418 (Simulation time: 0 hr 0 min 56 sec) 
Heartbeat CPU  0 instructions:   39000000 cycles:   31509837 heartbeat IPC: 1.38870 cumulative IPC: 1.23771 (Simulation time: 0 hr 0 min 57 sec) 
Heartbeat CPU  0 instructions:   40000000 cycles:   32216230 heartbeat IPC: 1.41564 cumulative IPC: 1.24161 (Simulation time: 0 hr 0 min 59 sec) 
Heartbeat CPU  0 instructions:   41000003 cycles:   32971587 heartbeat IPC: 1.32388 cumulative IPC: 1.24349 (Simulation time: 0 hr 1 min 1 sec) 
Heartbeat CPU  0 instructions:   42000001 cycles:   33651975 heartbeat IPC: 1.46975 cumulative IPC: 1.24807 (Simulation time: 0 hr 1 min 2 sec) 
Heartbeat CPU  0 instructions:   43000000 cycles:   34341922 heartbeat IPC: 1.44939 cumulative IPC: 1.25211 (Simulation time: 0 hr 1 min 4 sec) 
Heartbeat CPU  0 instructions:   44000000 cycles:   35088383 heartbeat IPC: 1.33965 cumulative IPC: 1.25398 (Simulation time: 0 hr 1 min 5 sec) 
Heartbeat CPU  0 instructions:   45000000 cycles:   35945677 heartbeat IPC: 1.16646 cumulative IPC: 1.25189 (Simulation time: 0 hr 1 min 7 sec) 
Heartbeat CPU  0 instructions:   46000000 cycles:   36901490 heartbeat IPC: 1.04623 cumulative IPC: 1.24656 (Simulation time: 0 hr 1 min 8 sec) 
Heartbeat CPU  0 instructions:   47000001 cycles:   37929076 heartbeat IPC: 0.97316 cumulative IPC: 1.23915 (Simulation time: 0 hr 1 min 9 sec) 
Heartbeat CPU  0 instructions:   48000000 cycles:   38927100 heartbeat IPC: 1.00198 cumulative IPC: 1.23307 (Simulation time: 0 hr 1 min 11 sec) 
Heartbeat CPU  0 instructions:   49000001 cycles:   39820958 heartbeat IPC: 1.11875 cumulative IPC: 1.23051 (Simulation time: 0 hr 1 min 12 sec) 
Heartbeat CPU  0 instructions:   50000001 cycles:   40677792 heartbeat IPC: 1.16709 cumulative IPC: 1.22917 (Simulation time: 0 hr 1 min 14 sec) 
Heartbeat CPU  0 instructions:   51000001 cycles:   41668229 heartbeat IPC: 1.00966 cumulative IPC: 1.22395 (Simulation time: 0 hr 1 min 15 sec) 
Heartbeat CPU  0 instructions:   52000000 cycles:   42613824 heartbeat IPC: 1.05753 cumulative IPC: 1.22026 (Simulation time: 0 hr 1 min 16 sec) 
Heartbeat CPU  0 instructions:   53000002 cycles:   43508526 heartbeat IPC: 1.11769 cumulative IPC: 1.21815 (Simulation time: 0 hr 1 min 17 sec) 
Heartbeat CPU  0 instructions:   54000002 cycles:   44303886 heartbeat IPC: 1.25729 cumulative IPC: 1.21885 (Simulation time: 0 hr 1 min 19 sec) 
Heartbeat CPU  0 instructions:   55000001 cycles:   45192054 heartbeat IPC: 1.12591 cumulative IPC: 1.21703 (Simulation time: 0 hr 1 min 20 sec) 
Heartbeat CPU  0 instructions:   56000000 cycles:   46156634 heartbeat IPC: 1.03672 cumulative IPC: 1.21326 (Simulation time: 0 hr 1 min 22 sec) 
Heartbeat CPU  0 instructions:   57000001 cycles:   47002360 heartbeat IPC: 1.18242 cumulative IPC: 1.21271 (Simulation time: 0 hr 1 min 23 sec) 
Heartbeat CPU  0 instructions:   58000000 cycles:   47826967 heartbeat IPC: 1.21270 cumulative IPC: 1.21271 (Simulation time: 0 hr 1 min 25 sec) 
Heartbeat CPU  0 instructions:   59000001 cycles:   48608184 heartbeat IPC: 1.28006 cumulative IPC: 1.21379 (Simulation time: 0 hr 1 min 26 sec) 
Heartbeat CPU  0 instructions:   60000000 cycles:   49429975 heartbeat IPC: 1.21685 cumulative IPC: 1.21384 (Simulation time: 0 hr 1 min 28 sec) 
Heartbeat CPU  0 instructions:   61000002 cycles:   50292991 heartbeat IPC: 1.15873 cumulative IPC: 1.21289 (Simulation time: 0 hr 1 min 29 sec) 
Heartbeat CPU  0 instructions:   62000000 cycles:   51108236 heartbeat IPC: 1.22662 cumulative IPC: 1.21311 (Simulation time: 0 hr 1 min 31 sec) 
Heartbeat CPU  0 instructions:   63000001 cycles:   51870025 heartbeat IPC: 1.31270 cumulative IPC: 1.21457 (Simulation time: 0 hr 1 min 32 sec) 
Heartbeat CPU  0 instructions:   64000000 cycles:   52660710 heartbeat IPC: 1.26472 cumulative IPC: 1.21533 (Simulation time: 0 hr 1 min 34 sec) 
Heartbeat CPU  0 instructions:   65000000 cycles:   53455305 heartbeat IPC: 1.25850 cumulative IPC: 1.21597 (Simulation time: 0 hr 1 min 35 sec) 
Heartbeat CPU  0 instructions:   66000002 cycles:   54247520 heartbeat IPC: 1.26229 cumulative IPC: 1.21665 (Simulation time: 0 hr 1 min 37 sec) 
Heartbeat CPU  0 instructions:   67000003 cycles:   55085509 heartbeat IPC: 1.19333 cumulative IPC: 1.21629 (Simulation time: 0 hr 1 min 38 sec) 
Heartbeat CPU  0 instructions:   68000000 cycles:   56003925 heartbeat IPC: 1.08883 cumulative IPC: 1.21420 (Simulation time: 0 hr 1 min 40 sec) 
Heartbeat CPU  0 instructions:   69000000 cycles:   56895123 heartbeat IPC: 1.12209 cumulative IPC: 1.21276 (Simulation time: 0 hr 1 min 41 sec) 
Heartbeat CPU  0 instructions:   70000001 cycles:   57752974 heartbeat IPC: 1.16570 cumulative IPC: 1.21206 (Simulation time: 0 hr 1 min 42 sec) 
Heartbeat CPU  0 instructions:   71000000 cycles:   58564070 heartbeat IPC: 1.23290 cumulative IPC: 1.21235 (Simulation time: 0 hr 1 min 44 sec) 
Heartbeat CPU  0 instructions:   72000000 cycles:   59494068 heartbeat IPC: 1.07527 cumulative IPC: 1.21020 (Simulation time: 0 hr 1 min 45 sec) 
Heartbeat CPU  0 instructions:   73000000 cycles:   60408835 heartbeat IPC: 1.09317 cumulative IPC: 1.20843 (Simulation time: 0 hr 1 min 47 sec) 
Heartbeat CPU  0 instructions:   74000000 cycles:   61260164 heartbeat IPC: 1.17463 cumulative IPC: 1.20796 (Simulation time: 0 hr 1 min 48 sec) 
Heartbeat CPU  0 instructions:   75000002 cycles:   62087636 heartbeat IPC: 1.20850 cumulative IPC: 1.20797 (Simulation time: 0 hr 1 min 50 sec) 
Heartbeat CPU  0 instructions:   76000000 cycles:   63011511 heartbeat IPC: 1.08240 cumulative IPC: 1.20613 (Simulation time: 0 hr 1 min 51 sec) 
Heartbeat CPU  0 instructions:   77000003 cycles:   63943322 heartbeat IPC: 1.07318 cumulative IPC: 1.20419 (Simulation time: 0 hr 1 min 52 sec) 
Heartbeat CPU  0 instructions:   78000000 cycles:   64784667 heartbeat IPC: 1.18857 cumulative IPC: 1.20399 (Simulation time: 0 hr 1 min 54 sec) 
Heartbeat CPU  0 instructions:   79000002 cycles:   65605315 heartbeat IPC: 1.21855 cumulative IPC: 1.20417 (Simulation time: 0 hr 1 min 56 sec) 
Heartbeat CPU  0 instructions:   80000000 cycles:   66479609 heartbeat IPC: 1.14378 cumulative IPC: 1.20338 (Simulation time: 0 hr 1 min 57 sec) 
Heartbeat CPU  0 instructions:   81000001 cycles:   67318849 heartbeat IPC: 1.19156 cumulative IPC: 1.20323 (Simulation time: 0 hr 1 min 58 sec) 
Heartbeat CPU  0 instructions:   82000000 cycles:   68339137 heartbeat IPC: 0.98011 cumulative IPC: 1.19990 (Simulation time: 0 hr 2 min 0 sec) 
Heartbeat CPU  0 instructions:   83000003 cycles:   69108113 heartbeat IPC: 1.30043 cumulative IPC: 1.20102 (Simulation time: 0 hr 2 min 2 sec) 
Heartbeat CPU  0 instructions:   84000000 cycles:   69894230 heartbeat IPC: 1.27207 cumulative IPC: 1.20182 (Simulation time: 0 hr 2 min 3 sec) 
Heartbeat CPU  0 instructions:   85000001 cycles:   70663872 heartbeat IPC: 1.29931 cumulative IPC: 1.20288 (Simulation time: 0 hr 2 min 4 sec) 
Heartbeat CPU  0 instructions:   86000002 cycles:   71438338 heartbeat IPC: 1.29121 cumulative IPC: 1.20384 (Simulation time: 0 hr 2 min 6 sec) 
Heartbeat CPU  0 instructions:   87000000 cycles:   72204414 heartbeat IPC: 1.30535 cumulative IPC: 1.20491 (Simulation time: 0 hr 2 min 7 sec) 
Heartbeat CPU  0 instructions:   88000000 cycles:   72966821 heartbeat IPC: 1.31164 cumulative IPC: 1.20603 (Simulation time: 0 hr 2 min 9 sec) 
Heartbeat CPU  0 instructions:   89000002 cycles:   73725811 heartbeat IPC: 1.31754 cumulative IPC: 1.20718 (Simulation time: 0 hr 2 min 10 sec) 
Heartbeat CPU  0 instructions:   90000001 cycles:   74493947 heartbeat IPC: 1.30185 cumulative IPC: 1.20815 (Simulation time: 0 hr 2 min 11 sec) 
Heartbeat CPU  0 instructions:   91000001 cycles:   75261436 heartbeat IPC: 1.30295 cumulative IPC: 1.20912 (Simulation time: 0 hr 2 min 13 sec) 
Heartbeat CPU  0 instructions:   92000000 cycles:   76002571 heartbeat IPC: 1.34928 cumulative IPC: 1.21049 (Simulation time: 0 hr 2 min 14 sec) 
Heartbeat CPU  0 instructions:   93000000 cycles:   76788687 heartbeat IPC: 1.27208 cumulative IPC: 1.21112 (Simulation time: 0 hr 2 min 16 sec) 
Heartbeat CPU  0 instructions:   94000001 cycles:   77669592 heartbeat IPC: 1.13520 cumulative IPC: 1.21025 (Simulation time: 0 hr 2 min 17 sec) 
Heartbeat CPU  0 instructions:   95000003 cycles:   78454270 heartbeat IPC: 1.27441 cumulative IPC: 1.21090 (Simulation time: 0 hr 2 min 19 sec) 
Heartbeat CPU  0 instructions:   96000000 cycles:   79286838 heartbeat IPC: 1.20110 cumulative IPC: 1.21079 (Simulation time: 0 hr 2 min 20 sec) 
Heartbeat CPU  0 instructions:   97000001 cycles:   80023707 heartbeat IPC: 1.35709 cumulative IPC: 1.21214 (Simulation time: 0 hr 2 min 22 sec) 
Heartbeat CPU  0 instructions:   98000000 cycles:   80739205 heartbeat IPC: 1.39763 cumulative IPC: 1.21378 (Simulation time: 0 hr 2 min 23 sec) 
Heartbeat CPU  0 instructions:   99000000 cycles:   81467515 heartbeat IPC: 1.37304 cumulative IPC: 1.21521 (Simulation time: 0 hr 2 min 25 sec) 
Heartbeat CPU  0 instructions:  100000000 cycles:   82203564 heartbeat IPC: 1.35861 cumulative IPC: 1.21649 (Simulation time: 0 hr 2 min 26 sec) 

Warmup complete CPU  0 instructions:  100000001 cycles:   82203565 (Simulation time: 0 hr 2 min 26 sec) 

Heartbeat CPU  0 instructions:  101000003 cycles:  100215235 heartbeat IPC: 0.05552 cumulative IPC: 0.05552 (Simulation time: 0 hr 2 min 33 sec) 
Heartbeat CPU  0 instructions:  102000002 cycles:  107959750 heartbeat IPC: 0.12912 cumulative IPC: 0.07765 (Simulation time: 0 hr 2 min 36 sec) 
Heartbeat CPU  0 instructions:  103000002 cycles:  114860802 heartbeat IPC: 0.14491 cumulative IPC: 0.09186 (Simulation time: 0 hr 2 min 39 sec) 
Heartbeat CPU  0 instructions:  104000000 cycles:  130464705 heartbeat IPC: 0.06409 cumulative IPC: 0.08288 (Simulation time: 0 hr 2 min 45 sec) 
Heartbeat CPU  0 instructions:  105000001 cycles:  139868421 heartbeat IPC: 0.10634 cumulative IPC: 0.08671 (Simulation time: 0 hr 2 min 49 sec) 
Heartbeat CPU  0 instructions:  106000002 cycles:  147555129 heartbeat IPC: 0.13009 cumulative IPC: 0.09181 (Simulation time: 0 hr 2 min 53 sec) 
Heartbeat CPU  0 instructions:  107000000 cycles:  154268833 heartbeat IPC: 0.14895 cumulative IPC: 0.09713 (Simulation time: 0 hr 2 min 56 sec) 
Heartbeat CPU  0 instructions:  108000000 cycles:  167463136 heartbeat IPC: 0.07579 cumulative IPC: 0.09383 (Simulation time: 0 hr 3 min 1 sec) 
Heartbeat CPU  0 instructions:  109000000 cycles:  179240556 heartbeat IPC: 0.08491 cumulative IPC: 0.09275 (Simulation time: 0 hr 3 min 6 sec) 
Heartbeat CPU  0 instructions:  110000000 cycles:  186137016 heartbeat IPC: 0.14500 cumulative IPC: 0.09622 (Simulation time: 0 hr 3 min 9 sec) 
Heartbeat CPU  0 instructions:  111000002 cycles:  193013693 heartbeat IPC: 0.14542 cumulative IPC: 0.09927 (Simulation time: 0 hr 3 min 13 sec) 
Heartbeat CPU  0 instructions:  112000000 cycles:  203763734 heartbeat IPC: 0.09302 cumulative IPC: 0.09872 (Simulation time: 0 hr 3 min 17 sec) 
Heartbeat CPU  0 instructions:  113000000 cycles:  217827816 heartbeat IPC: 0.07110 cumulative IPC: 0.09585 (Simulation time: 0 hr 3 min 23 sec) 
Heartbeat CPU  0 instructions:  114000003 cycles:  225511393 heartbeat IPC: 0.13015 cumulative IPC: 0.09769 (Simulation time: 0 hr 3 min 26 sec) 
Heartbeat CPU  0 instructions:  115000003 cycles:  232498967 heartbeat IPC: 0.14311 cumulative IPC: 0.09980 (Simulation time: 0 hr 3 min 30 sec) 
Heartbeat CPU  0 instructions:  116000000 cycles:  240905552 heartbeat IPC: 0.11895 cumulative IPC: 0.10082 (Simulation time: 0 hr 3 min 33 sec) 
Heartbeat CPU  0 instructions:  117000002 cycles:  256833123 heartbeat IPC: 0.06278 cumulative IPC: 0.09735 (Simulation time: 0 hr 3 min 39 sec) 
Heartbeat CPU  0 instructions:  118000001 cycles:  263915320 heartbeat IPC: 0.14120 cumulative IPC: 0.09906 (Simulation time: 0 hr 3 min 43 sec) 
Heartbeat CPU  0 instructions:  119000000 cycles:  276806846 heartbeat IPC: 0.07757 cumulative IPC: 0.09763 (Simulation time: 0 hr 3 min 48 sec) 
Heartbeat CPU  0 instructions:  120000000 cycles:  283725143 heartbeat IPC: 0.14454 cumulative IPC: 0.09924 (Simulation time: 0 hr 3 min 51 sec) 
Heartbeat CPU  0 instructions:  121000002 cycles:  297694236 heartbeat IPC: 0.07159 cumulative IPC: 0.09745 (Simulation time: 0 hr 3 min 57 sec) 
Heartbeat CPU  0 instructions:  122000000 cycles:  312059003 heartbeat IPC: 0.06961 cumulative IPC: 0.09571 (Simulation time: 0 hr 4 min 2 sec) 
Heartbeat CPU  0 instructions:  123000000 cycles:  319411202 heartbeat IPC: 0.13601 cumulative IPC: 0.09696 (Simulation time: 0 hr 4 min 5 sec) 
Heartbeat CPU  0 instructions:  124000000 cycles:  326338045 heartbeat IPC: 0.14437 cumulative IPC: 0.09831 (Simulation time: 0 hr 4 min 8 sec) 
Heartbeat CPU  0 instructions:  125000000 cycles:  336087530 heartbeat IPC: 0.10257 cumulative IPC: 0.09847 (Simulation time: 0 hr 4 min 12 sec) 
Heartbeat CPU  0 instructions:  126000000 cycles:  350750516 heartbeat IPC: 0.06820 cumulative IPC: 0.09682 (Simulation time: 0 hr 4 min 18 sec) 
Heartbeat CPU  0 instructions:  127000001 cycles:  357755057 heartbeat IPC: 0.14276 cumulative IPC: 0.09799 (Simulation time: 0 hr 4 min 21 sec) 
Heartbeat CPU  0 instructions:  128000000 cycles:  364628845 heartbeat IPC: 0.14548 cumulative IPC: 0.09914 (Simulation time: 0 hr 4 min 24 sec) 
Heartbeat CPU  0 instructions:  129000000 cycles:  373611445 heartbeat IPC: 0.11133 cumulative IPC: 0.09952 (Simulation time: 0 hr 4 min 28 sec) 
Heartbeat CPU  0 instructions:  130000003 cycles:  389273142 heartbeat IPC: 0.06385 cumulative IPC: 0.09770 (Simulation time: 0 hr 4 min 34 sec) 
Heartbeat CPU  0 instructions:  131000002 cycles:  397538853 heartbeat IPC: 0.12098 cumulative IPC: 0.09831 (Simulation time: 0 hr 4 min 38 sec) 
Heartbeat CPU  0 instructions:  132000000 cycles:  404180268 heartbeat IPC: 0.15057 cumulative IPC: 0.09939 (Simulation time: 0 hr 4 min 41 sec) 
Heartbeat CPU  0 instructions:  133000000 cycles:  410968941 heartbeat IPC: 0.14730 cumulative IPC: 0.10038 (Simulation time: 0 hr 4 min 44 sec) 
Heartbeat CPU  0 instructions:  134000001 cycles:  425637887 heartbeat IPC: 0.06817 cumulative IPC: 0.09900 (Simulation time: 0 hr 4 min 50 sec) 
Heartbeat CPU  0 instructions:  135000000 cycles:  436007441 heartbeat IPC: 0.09644 cumulative IPC: 0.09892 (Simulation time: 0 hr 4 min 54 sec) 
Heartbeat CPU  0 instructions:  136000000 cycles:  442709568 heartbeat IPC: 0.14921 cumulative IPC: 0.09986 (Simulation time: 0 hr 4 min 58 sec) 
Heartbeat CPU  0 instructions:  137000002 cycles:  449231689 heartbeat IPC: 0.15332 cumulative IPC: 0.10081 (Simulation time: 0 hr 5 min 1 sec) 
Heartbeat CPU  0 instructions:  138000001 cycles:  462266250 heartbeat IPC: 0.07672 cumulative IPC: 0.09998 (Simulation time: 0 hr 5 min 6 sec) 
Heartbeat CPU  0 instructions:  139000000 cycles:  474000904 heartbeat IPC: 0.08522 cumulative IPC: 0.09954 (Simulation time: 0 hr 5 min 11 sec) 
Heartbeat CPU  0 instructions:  140000000 cycles:  480691834 heartbeat IPC: 0.14946 cumulative IPC: 0.10038 (Simulation time: 0 hr 5 min 14 sec) 
Heartbeat CPU  0 instructions:  141000000 cycles:  487251383 heartbeat IPC: 0.15245 cumulative IPC: 0.10122 (Simulation time: 0 hr 5 min 18 sec) 
Heartbeat CPU  0 instructions:  142000001 cycles:  499157316 heartbeat IPC: 0.08399 cumulative IPC: 0.10073 (Simulation time: 0 hr 5 min 23 sec) 
Heartbeat CPU  0 instructions:  143000001 cycles:  511881234 heartbeat IPC: 0.07859 cumulative IPC: 0.10008 (Simulation time: 0 hr 5 min 28 sec) 
Heartbeat CPU  0 instructions:  144000000 cycles:  518620435 heartbeat IPC: 0.14839 cumulative IPC: 0.10082 (Simulation time: 0 hr 5 min 31 sec) 
Heartbeat CPU  0 instructions:  145000002 cycles:  525187256 heartbeat IPC: 0.15228 cumulative IPC: 0.10158 (Simulation time: 0 hr 5 min 35 sec) 
Heartbeat CPU  0 instructions:  146000000 cycles:  536119557 heartbeat IPC: 0.09147 cumulative IPC: 0.10134 (Simulation time: 0 hr 5 min 39 sec) 
Heartbeat CPU  0 instructions:  147000003 cycles:  549787682 heartbeat IPC: 0.07316 cumulative IPC: 0.10052 (Simulation time: 0 hr 5 min 44 sec) 
Heartbeat CPU  0 instructions:  148000000 cycles:  556573141 heartbeat IPC: 0.14737 cumulative IPC: 0.10119 (Simulation time: 0 hr 5 min 48 sec) 
Heartbeat CPU  0 instructions:  149000003 cycles:  563148004 heartbeat IPC: 0.15209 cumulative IPC: 0.10188 (Simulation time: 0 hr 5 min 51 sec) 
Heartbeat CPU  0 instructions:  150000002 cycles:  573279129 heartbeat IPC: 0.09871 cumulative IPC: 0.10182 (Simulation time: 0 hr 5 min 56 sec) 
Heartbeat CPU  0 instructions:  151000001 cycles:  587633195 heartbeat IPC: 0.06967 cumulative IPC: 0.10090 (Simulation time: 0 hr 6 min 1 sec) 
Heartbeat CPU  0 instructions:  152000000 cycles:  594609938 heartbeat IPC: 0.14333 cumulative IPC: 0.10148 (Simulation time: 0 hr 6 min 5 sec) 
Heartbeat CPU  0 instructions:  153000000 cycles:  601316500 heartbeat IPC: 0.14911 cumulative IPC: 0.10210 (Simulation time: 0 hr 6 min 8 sec) 
Heartbeat CPU  0 instructions:  154000000 cycles:  609505984 heartbeat IPC: 0.12211 cumulative IPC: 0.10241 (Simulation time: 0 hr 6 min 12 sec) 
Heartbeat CPU  0 instructions:  155000000 cycles:  625650811 heartbeat IPC: 0.06194 cumulative IPC: 0.10121 (Simulation time: 0 hr 6 min 18 sec) 
Heartbeat CPU  0 instructions:  156000000 cycles:  632723269 heartbeat IPC: 0.14139 cumulative IPC: 0.10172 (Simulation time: 0 hr 6 min 21 sec) 
Heartbeat CPU  0 instructions:  157000000 cycles:  642010322 heartbeat IPC: 0.10768 cumulative IPC: 0.10182 (Simulation time: 0 hr 6 min 25 sec) 
Heartbeat CPU  0 instructions:  158000001 cycles:  649494772 heartbeat IPC: 0.13361 cumulative IPC: 0.10224 (Simulation time: 0 hr 6 min 28 sec) 
Heartbeat CPU  0 instructions:  159000000 cycles:  663410495 heartbeat IPC: 0.07186 cumulative IPC: 0.10151 (Simulation time: 0 hr 6 min 34 sec) 
Heartbeat CPU  0 instructions:  160000000 cycles:  674913438 heartbeat IPC: 0.08693 cumulative IPC: 0.10123 (Simulation time: 0 hr 6 min 38 sec) 
Heartbeat CPU  0 instructions:  161000003 cycles:  682598266 heartbeat IPC: 0.13013 cumulative IPC: 0.10160 (Simulation time: 0 hr 6 min 41 sec) 
Heartbeat CPU  0 instructions:  162000000 cycles:  692137667 heartbeat IPC: 0.10483 cumulative IPC: 0.10165 (Simulation time: 0 hr 6 min 45 sec) 
Heartbeat CPU  0 instructions:  163000000 cycles:  703215132 heartbeat IPC: 0.09027 cumulative IPC: 0.10145 (Simulation time: 0 hr 6 min 50 sec) 
Heartbeat CPU  0 instructions:  164000000 cycles:  716770825 heartbeat IPC: 0.07377 cumulative IPC: 0.10086 (Simulation time: 0 hr 6 min 55 sec) 
Heartbeat CPU  0 instructions:  165000002 cycles:  728072092 heartbeat IPC: 0.08849 cumulative IPC: 0.10064 (Simulation time: 0 hr 7 min 0 sec) 
Heartbeat CPU  0 instructions:  166000003 cycles:  735861615 heartbeat IPC: 0.12838 cumulative IPC: 0.10097 (Simulation time: 0 hr 7 min 4 sec) 
Heartbeat CPU  0 instructions:  167000000 cycles:  745502619 heartbeat IPC: 0.10372 cumulative IPC: 0.10101 (Simulation time: 0 hr 7 min 8 sec) 
Heartbeat CPU  0 instructions:  168000000 cycles:  760336469 heartbeat IPC: 0.06741 cumulative IPC: 0.10028 (Simulation time: 0 hr 7 min 13 sec) 
Heartbeat CPU  0 instructions:  169000000 cycles:  767442520 heartbeat IPC: 0.14073 cumulative IPC: 0.10069 (Simulation time: 0 hr 7 min 17 sec) 
Heartbeat CPU  0 instructions:  170000000 cycles:  774183882 heartbeat IPC: 0.14834 cumulative IPC: 0.10116 (Simulation time: 0 hr 7 min 20 sec) 
Heartbeat CPU  0 instructions:  171000000 cycles:  785012086 heartbeat IPC: 0.09235 cumulative IPC: 0.10102 (Simulation time: 0 hr 7 min 24 sec) 
Heartbeat CPU  0 instructions:  172000000 cycles:  798588325 heartbeat IPC: 0.07366 cumulative IPC: 0.10050 (Simulation time: 0 hr 7 min 30 sec) 
Heartbeat CPU  0 instructions:  173000000 cycles:  806321979 heartbeat IPC: 0.12930 cumulative IPC: 0.10081 (Simulation time: 0 hr 7 min 33 sec) 
Heartbeat CPU  0 instructions:  174000002 cycles:  814147280 heartbeat IPC: 0.12779 cumulative IPC: 0.10110 (Simulation time: 0 hr 7 min 37 sec) 
Heartbeat CPU  0 instructions:  175000003 cycles:  824098603 heartbeat IPC: 0.10049 cumulative IPC: 0.10109 (Simulation time: 0 hr 7 min 41 sec) 
Heartbeat CPU  0 instructions:  176000000 cycles:  838729492 heartbeat IPC: 0.06835 cumulative IPC: 0.10046 (Simulation time: 0 hr 7 min 47 sec) 
Heartbeat CPU  0 instructions:  177000002 cycles:  845784787 heartbeat IPC: 0.14174 cumulative IPC: 0.10084 (Simulation time: 0 hr 7 min 50 sec) 
Heartbeat CPU  0 instructions:  178000001 cycles:  852476088 heartbeat IPC: 0.14945 cumulative IPC: 0.10126 (Simulation time: 0 hr 7 min 54 sec) 
Heartbeat CPU  0 instructions:  179000000 cycles:  863286819 heartbeat IPC: 0.09250 cumulative IPC: 0.10114 (Simulation time: 0 hr 7 min 58 sec) 
Heartbeat CPU  0 instructions:  180000000 cycles:  876975935 heartbeat IPC: 0.07305 cumulative IPC: 0.10066 (Simulation time: 0 hr 8 min 3 sec) 
Heartbeat CPU  0 instructions:  181000002 cycles:  883758689 heartbeat IPC: 0.14743 cumulative IPC: 0.10105 (Simulation time: 0 hr 8 min 7 sec) 
Heartbeat CPU  0 instructions:  182000000 cycles:  890691580 heartbeat IPC: 0.14424 cumulative IPC: 0.10142 (Simulation time: 0 hr 8 min 10 sec) 
Heartbeat CPU  0 instructions:  183000001 cycles:  900662653 heartbeat IPC: 0.10029 cumulative IPC: 0.10141 (Simulation time: 0 hr 8 min 14 sec) 
Heartbeat CPU  0 instructions:  184000000 cycles:  915135872 heartbeat IPC: 0.06909 cumulative IPC: 0.10085 (Simulation time: 0 hr 8 min 20 sec) 
Heartbeat CPU  0 instructions:  185000001 cycles:  922214015 heartbeat IPC: 0.14128 cumulative IPC: 0.10119 (Simulation time: 0 hr 8 min 23 sec) 
Heartbeat CPU  0 instructions:  186000000 cycles:  929081212 heartbeat IPC: 0.14562 cumulative IPC: 0.10155 (Simulation time: 0 hr 8 min 26 sec) 
Heartbeat CPU  0 instructions:  187000001 cycles:  937730415 heartbeat IPC: 0.11562 cumulative IPC: 0.10169 (Simulation time: 0 hr 8 min 30 sec) 
Heartbeat CPU  0 instructions:  188000000 cycles:  953923689 heartbeat IPC: 0.06175 cumulative IPC: 0.10095 (Simulation time: 0 hr 8 min 36 sec) 
Heartbeat CPU  0 instructions:  189000001 cycles:  961295093 heartbeat IPC: 0.13566 cumulative IPC: 0.10124 (Simulation time: 0 hr 8 min 40 sec) 
Heartbeat CPU  0 instructions:  190000001 cycles:  969600948 heartbeat IPC: 0.12040 cumulative IPC: 0.10142 (Simulation time: 0 hr 8 min 43 sec) 
Heartbeat CPU  0 instructions:  191000000 cycles:  978311732 heartbeat IPC: 0.11480 cumulative IPC: 0.10155 (Simulation time: 0 hr 8 min 47 sec) 
Heartbeat CPU  0 instructions:  192000000 cycles:  992685302 heartbeat IPC: 0.06957 cumulative IPC: 0.10105 (Simulation time: 0 hr 8 min 52 sec) 
Heartbeat CPU  0 instructions:  193000001 cycles: 1003334224 heartbeat IPC: 0.09391 cumulative IPC: 0.10096 (Simulation time: 0 hr 8 min 57 sec) 
Heartbeat CPU  0 instructions:  194000000 cycles: 1010309670 heartbeat IPC: 0.14336 cumulative IPC: 0.10128 (Simulation time: 0 hr 9 min 0 sec) 
Heartbeat CPU  0 instructions:  195000000 cycles: 1017486877 heartbeat IPC: 0.13933 cumulative IPC: 0.10157 (Simulation time: 0 hr 9 min 3 sec) 
Heartbeat CPU  0 instructions:  196000000 cycles: 1031175099 heartbeat IPC: 0.07306 cumulative IPC: 0.10116 (Simulation time: 0 hr 9 min 8 sec) 
Heartbeat CPU  0 instructions:  197000000 cycles: 1042088728 heartbeat IPC: 0.09163 cumulative IPC: 0.10105 (Simulation time: 0 hr 9 min 13 sec) 
Heartbeat CPU  0 instructions:  198000000 cycles: 1048840318 heartbeat IPC: 0.14811 cumulative IPC: 0.10138 (Simulation time: 0 hr 9 min 16 sec) 
Heartbeat CPU  0 instructions:  199000000 cycles: 1055454412 heartbeat IPC: 0.15119 cumulative IPC: 0.10172 (Simulation time: 0 hr 9 min 20 sec) 
Heartbeat CPU  0 instructions:  200000000 cycles: 1071807698 heartbeat IPC: 0.06115 cumulative IPC: 0.10105 (Simulation time: 0 hr 9 min 26 sec) 
Heartbeat CPU  0 instructions:  201000001 cycles: 1080274460 heartbeat IPC: 0.11811 cumulative IPC: 0.10120 (Simulation time: 0 hr 9 min 30 sec) 
Heartbeat CPU  0 instructions:  202000003 cycles: 1087061158 heartbeat IPC: 0.14735 cumulative IPC: 0.10151 (Simulation time: 0 hr 9 min 33 sec) 
Heartbeat CPU  0 instructions:  203000003 cycles: 1095383331 heartbeat IPC: 0.12016 cumulative IPC: 0.10166 (Simulation time: 0 hr 9 min 37 sec) 
Heartbeat CPU  0 instructions:  204000000 cycles: 1111202380 heartbeat IPC: 0.06321 cumulative IPC: 0.10107 (Simulation time: 0 hr 9 min 43 sec) 
Heartbeat CPU  0 instructions:  205000000 cycles: 1119088703 heartbeat IPC: 0.12680 cumulative IPC: 0.10126 (Simulation time: 0 hr 9 min 47 sec) 
Heartbeat CPU  0 instructions:  206000002 cycles: 1126596729 heartbeat IPC: 0.13319 cumulative IPC: 0.10149 (Simulation time: 0 hr 9 min 50 sec) 
Heartbeat CPU  0 instructions:  207000002 cycles: 1135683084 heartbeat IPC: 0.11006 cumulative IPC: 0.10157 (Simulation time: 0 hr 9 min 54 sec) 
Heartbeat CPU  0 instructions:  208000000 cycles: 1150988605 heartbeat IPC: 0.06534 cumulative IPC: 0.10105 (Simulation time: 0 hr 10 min 0 sec) 
Heartbeat CPU  0 instructions:  209000002 cycles: 1158395075 heartbeat IPC: 0.13502 cumulative IPC: 0.10128 (Simulation time: 0 hr 10 min 4 sec) 
Heartbeat CPU  0 instructions:  210000002 cycles: 1166299467 heartbeat IPC: 0.12651 cumulative IPC: 0.10147 (Simulation time: 0 hr 10 min 7 sec) 
Heartbeat CPU  0 instructions:  211000000 cycles: 1177674203 heartbeat IPC: 0.08791 cumulative IPC: 0.10133 (Simulation time: 0 hr 10 min 12 sec) 
Heartbeat CPU  0 instructions:  212000000 cycles: 1191323315 heartbeat IPC: 0.07326 cumulative IPC: 0.10098 (Simulation time: 0 hr 10 min 17 sec) 
Heartbeat CPU  0 instructions:  213000002 cycles: 1198559363 heartbeat IPC: 0.13820 cumulative IPC: 0.10122 (Simulation time: 0 hr 10 min 21 sec) 
Heartbeat CPU  0 instructions:  214000001 cycles: 1206217626 heartbeat IPC: 0.13058 cumulative IPC: 0.10142 (Simulation time: 0 hr 10 min 24 sec) 
Heartbeat CPU  0 instructions:  215000000 cycles: 1219620095 heartbeat IPC: 0.07461 cumulative IPC: 0.10111 (Simulation time: 0 hr 10 min 30 sec) 
Heartbeat CPU  0 instructions:  216000000 cycles: 1232010330 heartbeat IPC: 0.08071 cumulative IPC: 0.10089 (Simulation time: 0 hr 10 min 35 sec) 
Heartbeat CPU  0 instructions:  217000000 cycles: 1240694286 heartbeat IPC: 0.11515 cumulative IPC: 0.10099 (Simulation time: 0 hr 10 min 38 sec) 
Heartbeat CPU  0 instructions:  218000001 cycles: 1247814779 heartbeat IPC: 0.14044 cumulative IPC: 0.10123 (Simulation time: 0 hr 10 min 42 sec) 
Heartbeat CPU  0 instructions:  219000003 cycles: 1260966417 heartbeat IPC: 0.07604 cumulative IPC: 0.10095 (Simulation time: 0 hr 10 min 47 sec) 
Heartbeat CPU  0 instructions:  220000000 cycles: 1273258063 heartbeat IPC: 0.08136 cumulative IPC: 0.10075 (Simulation time: 0 hr 10 min 52 sec) 
Heartbeat CPU  0 instructions:  221000003 cycles: 1280576718 heartbeat IPC: 0.13664 cumulative IPC: 0.10097 (Simulation time: 0 hr 10 min 56 sec) 
Heartbeat CPU  0 instructions:  222000000 cycles: 1287501436 heartbeat IPC: 0.14441 cumulative IPC: 0.10122 (Simulation time: 0 hr 10 min 59 sec) 
Heartbeat CPU  0 instructions:  223000001 cycles: 1304631702 heartbeat IPC: 0.05838 cumulative IPC: 0.10062 (Simulation time: 0 hr 11 min 5 sec) 
Heartbeat CPU  0 instructions:  224000000 cycles: 1312425756 heartbeat IPC: 0.12830 cumulative IPC: 0.10079 (Simulation time: 0 hr 11 min 9 sec) 
Heartbeat CPU  0 instructions:  225000000 cycles: 1319107505 heartbeat IPC: 0.14966 cumulative IPC: 0.10106 (Simulation time: 0 hr 11 min 13 sec) 
Heartbeat CPU  0 instructions:  226000003 cycles: 1329021720 heartbeat IPC: 0.10087 cumulative IPC: 0.10106 (Simulation time: 0 hr 11 min 17 sec) 
Heartbeat CPU  0 instructions:  227000001 cycles: 1343622035 heartbeat IPC: 0.06849 cumulative IPC: 0.10068 (Simulation time: 0 hr 11 min 23 sec) 
Heartbeat CPU  0 instructions:  228000000 cycles: 1350682019 heartbeat IPC: 0.14164 cumulative IPC: 0.10091 (Simulation time: 0 hr 11 min 27 sec) 
Heartbeat CPU  0 instructions:  229000000 cycles: 1357489381 heartbeat IPC: 0.14690 cumulative IPC: 0.10115 (Simulation time: 0 hr 11 min 30 sec) 
Heartbeat CPU  0 instructions:  230000002 cycles: 1370839747 heartbeat IPC: 0.07490 cumulative IPC: 0.10088 (Simulation time: 0 hr 11 min 36 sec) 
Heartbeat CPU  0 instructions:  231000003 cycles: 1382502858 heartbeat IPC: 0.08574 cumulative IPC: 0.10075 (Simulation time: 0 hr 11 min 40 sec) 
Heartbeat CPU  0 instructions:  232000000 cycles: 1389370614 heartbeat IPC: 0.14561 cumulative IPC: 0.10098 (Simulation time: 0 hr 11 min 44 sec) 
Heartbeat CPU  0 instructions:  233000002 cycles: 1396639469 heartbeat IPC: 0.13757 cumulative IPC: 0.10118 (Simulation time: 0 hr 11 min 48 sec) 
Heartbeat CPU  0 instructions:  234000000 cycles: 1413840124 heartbeat IPC: 0.05814 cumulative IPC: 0.10063 (Simulation time: 0 hr 11 min 54 sec) 
Heartbeat CPU  0 instructions:  235000000 cycles: 1421807381 heartbeat IPC: 0.12551 cumulative IPC: 0.10078 (Simulation time: 0 hr 11 min 58 sec) 
Heartbeat CPU  0 instructions:  236000000 cycles: 1429376601 heartbeat IPC: 0.13211 cumulative IPC: 0.10095 (Simulation time: 0 hr 12 min 2 sec) 
Heartbeat CPU  0 instructions:  237000003 cycles: 1438971549 heartbeat IPC: 0.10422 cumulative IPC: 0.10098 (Simulation time: 0 hr 12 min 6 sec) 
Heartbeat CPU  0 instructions:  238000003 cycles: 1453679190 heartbeat IPC: 0.06799 cumulative IPC: 0.10062 (Simulation time: 0 hr 12 min 12 sec) 
Heartbeat CPU  0 instructions:  239000000 cycles: 1460641875 heartbeat IPC: 0.14362 cumulative IPC: 0.10084 (Simulation time: 0 hr 12 min 15 sec) 
Heartbeat CPU  0 instructions:  240000000 cycles: 1467189611 heartbeat IPC: 0.15272 cumulative IPC: 0.10108 (Simulation time: 0 hr 12 min 19 sec) 
Heartbeat CPU  0 instructions:  241000000 cycles: 1480308434 heartbeat IPC: 0.07623 cumulative IPC: 0.10085 (Simulation time: 0 hr 12 min 24 sec) 
Heartbeat CPU  0 instructions:  242000000 cycles: 1492819684 heartbeat IPC: 0.07993 cumulative IPC: 0.10067 (Simulation time: 0 hr 12 min 29 sec) 
Heartbeat CPU  0 instructions:  243000003 cycles: 1508010358 heartbeat IPC: 0.06583 cumulative IPC: 0.10029 (Simulation time: 0 hr 12 min 34 sec) 
Heartbeat CPU  0 instructions:  244000000 cycles: 1515286109 heartbeat IPC: 0.13744 cumulative IPC: 0.10048 (Simulation time: 0 hr 12 min 38 sec) 
Heartbeat CPU  0 instructions:  245000003 cycles: 1525993001 heartbeat IPC: 0.09340 cumulative IPC: 0.10043 (Simulation time: 0 hr 12 min 42 sec) 
Heartbeat CPU  0 instructions:  246000001 cycles: 1540259265 heartbeat IPC: 0.07010 cumulative IPC: 0.10013 (Simulation time: 0 hr 12 min 48 sec) 
Heartbeat CPU  0 instructions:  247000000 cycles: 1547325511 heartbeat IPC: 0.14152 cumulative IPC: 0.10033 (Simulation time: 0 hr 12 min 52 sec) 
Heartbeat CPU  0 instructions:  248000000 cycles: 1554011945 heartbeat IPC: 0.14956 cumulative IPC: 0.10056 (Simulation time: 0 hr 12 min 55 sec) 
Heartbeat CPU  0 instructions:  249000000 cycles: 1567308765 heartbeat IPC: 0.07521 cumulative IPC: 0.10033 (Simulation time: 0 hr 13 min 0 sec) 
Heartbeat CPU  0 instructions:  250000003 cycles: 1579135642 heartbeat IPC: 0.08455 cumulative IPC: 0.10020 (Simulation time: 0 hr 13 min 5 sec) 
Heartbeat CPU  0 instructions:  251000002 cycles: 1585935512 heartbeat IPC: 0.14706 cumulative IPC: 0.10042 (Simulation time: 0 hr 13 min 8 sec) 
Heartbeat CPU  0 instructions:  252000000 cycles: 1592658838 heartbeat IPC: 0.14874 cumulative IPC: 0.10063 (Simulation time: 0 hr 13 min 12 sec) 
Heartbeat CPU  0 instructions:  253000002 cycles: 1609128089 heartbeat IPC: 0.06072 cumulative IPC: 0.10020 (Simulation time: 0 hr 13 min 18 sec) 
Heartbeat CPU  0 instructions:  254000000 cycles: 1617647758 heartbeat IPC: 0.11738 cumulative IPC: 0.10030 (Simulation time: 0 hr 13 min 22 sec) 
Heartbeat CPU  0 instructions:  255000000 cycles: 1629265191 heartbeat IPC: 0.08608 cumulative IPC: 0.10019 (Simulation time: 0 hr 13 min 27 sec) 
Heartbeat CPU  0 instructions:  256000000 cycles: 1646170789 heartbeat IPC: 0.05915 cumulative IPC: 0.09975 (Simulation time: 0 hr 13 min 33 sec) 
Heartbeat CPU  0 instructions:  257000000 cycles: 1658845512 heartbeat IPC: 0.07890 cumulative IPC: 0.09958 (Simulation time: 0 hr 13 min 38 sec) 
Heartbeat CPU  0 instructions:  258000002 cycles: 1674223510 heartbeat IPC: 0.06503 cumulative IPC: 0.09924 (Simulation time: 0 hr 13 min 44 sec) 
Heartbeat CPU  0 instructions:  259000002 cycles: 1682388218 heartbeat IPC: 0.12248 cumulative IPC: 0.09936 (Simulation time: 0 hr 13 min 47 sec) 
Heartbeat CPU  0 instructions:  260000000 cycles: 1690097877 heartbeat IPC: 0.12971 cumulative IPC: 0.09951 (Simulation time: 0 hr 13 min 51 sec) 
Heartbeat CPU  0 instructions:  261000002 cycles: 1701229842 heartbeat IPC: 0.08983 cumulative IPC: 0.09944 (Simulation time: 0 hr 13 min 56 sec) 
Heartbeat CPU  0 instructions:  262000002 cycles: 1715453176 heartbeat IPC: 0.07031 cumulative IPC: 0.09919 (Simulation time: 0 hr 14 min 1 sec) 
Heartbeat CPU  0 instructions:  263000002 cycles: 1722210313 heartbeat IPC: 0.14799 cumulative IPC: 0.09939 (Simulation time: 0 hr 14 min 5 sec) 
Heartbeat CPU  0 instructions:  264000000 cycles: 1728919937 heartbeat IPC: 0.14904 cumulative IPC: 0.09959 (Simulation time: 0 hr 14 min 9 sec) 
Heartbeat CPU  0 instructions:  265000002 cycles: 1742775682 heartbeat IPC: 0.07217 cumulative IPC: 0.09936 (Simulation time: 0 hr 14 min 14 sec) 
Heartbeat CPU  0 instructions:  266000000 cycles: 1757396840 heartbeat IPC: 0.06839 cumulative IPC: 0.09909 (Simulation time: 0 hr 14 min 20 sec) 
Heartbeat CPU  0 instructions:  267000001 cycles: 1769525133 heartbeat IPC: 0.08245 cumulative IPC: 0.09897 (Simulation time: 0 hr 14 min 25 sec) 
Heartbeat CPU  0 instructions:  268000000 cycles: 1776239932 heartbeat IPC: 0.14892 cumulative IPC: 0.09917 (Simulation time: 0 hr 14 min 28 sec) 
Heartbeat CPU  0 instructions:  269000002 cycles: 1786859075 heartbeat IPC: 0.09417 cumulative IPC: 0.09914 (Simulation time: 0 hr 14 min 33 sec) 
Heartbeat CPU  0 instructions:  270000001 cycles: 1801069881 heartbeat IPC: 0.07037 cumulative IPC: 0.09890 (Simulation time: 0 hr 14 min 38 sec) 
Heartbeat CPU  0 instructions:  271000003 cycles: 1811560045 heartbeat IPC: 0.09533 cumulative IPC: 0.09888 (Simulation time: 0 hr 14 min 43 sec) 
Heartbeat CPU  0 instructions:  272000000 cycles: 1822583473 heartbeat IPC: 0.09072 cumulative IPC: 0.09883 (Simulation time: 0 hr 14 min 47 sec) 
Heartbeat CPU  0 instructions:  273000003 cycles: 1831131718 heartbeat IPC: 0.11698 cumulative IPC: 0.09892 (Simulation time: 0 hr 14 min 51 sec) 
Heartbeat CPU  0 instructions:  274000000 cycles: 1847396111 heartbeat IPC: 0.06148 cumulative IPC: 0.09857 (Simulation time: 0 hr 14 min 57 sec) 
Heartbeat CPU  0 instructions:  275000002 cycles: 1854989746 heartbeat IPC: 0.13169 cumulative IPC: 0.09871 (Simulation time: 0 hr 15 min 1 sec) 
Heartbeat CPU  0 instructions:  276000000 cycles: 1862094010 heartbeat IPC: 0.14076 cumulative IPC: 0.09888 (Simulation time: 0 hr 15 min 5 sec) 
Heartbeat CPU  0 instructions:  277000002 cycles: 1871926215 heartbeat IPC: 0.10171 cumulative IPC: 0.09890 (Simulation time: 0 hr 15 min 9 sec) 
Heartbeat CPU  0 instructions:  278000001 cycles: 1886680166 heartbeat IPC: 0.06778 cumulative IPC: 0.09864 (Simulation time: 0 hr 15 min 15 sec) 
Heartbeat CPU  0 instructions:  279000000 cycles: 1893674158 heartbeat IPC: 0.14298 cumulative IPC: 0.09881 (Simulation time: 0 hr 15 min 19 sec) 
Heartbeat CPU  0 instructions:  280000000 cycles: 1900330795 heartbeat IPC: 0.15023 cumulative IPC: 0.09900 (Simulation time: 0 hr 15 min 22 sec) 
Heartbeat CPU  0 instructions:  281000002 cycles: 1912696615 heartbeat IPC: 0.08087 cumulative IPC: 0.09888 (Simulation time: 0 hr 15 min 27 sec) 
Heartbeat CPU  0 instructions:  282000000 cycles: 1925227718 heartbeat IPC: 0.07980 cumulative IPC: 0.09875 (Simulation time: 0 hr 15 min 32 sec) 
Heartbeat CPU  0 instructions:  283000001 cycles: 1932005871 heartbeat IPC: 0.14753 cumulative IPC: 0.09893 (Simulation time: 0 hr 15 min 36 sec) 
Heartbeat CPU  0 instructions:  284000000 cycles: 1938853658 heartbeat IPC: 0.14603 cumulative IPC: 0.09910 (Simulation time: 0 hr 15 min 40 sec) 
Heartbeat CPU  0 instructions:  285000003 cycles: 1953877190 heartbeat IPC: 0.06656 cumulative IPC: 0.09884 (Simulation time: 0 hr 15 min 45 sec) 
Heartbeat CPU  0 instructions:  286000001 cycles: 1963890819 heartbeat IPC: 0.09986 cumulative IPC: 0.09885 (Simulation time: 0 hr 15 min 50 sec) 
Heartbeat CPU  0 instructions:  287000001 cycles: 1970885162 heartbeat IPC: 0.14297 cumulative IPC: 0.09901 (Simulation time: 0 hr 15 min 53 sec) 
Heartbeat CPU  0 instructions:  288000000 cycles: 1977588885 heartbeat IPC: 0.14917 cumulative IPC: 0.09919 (Simulation time: 0 hr 15 min 57 sec) 
Heartbeat CPU  0 instructions:  289000002 cycles: 1995019693 heartbeat IPC: 0.05737 cumulative IPC: 0.09881 (Simulation time: 0 hr 16 min 3 sec) 
Heartbeat CPU  0 instructions:  290000002 cycles: 2002679007 heartbeat IPC: 0.13056 cumulative IPC: 0.09893 (Simulation time: 0 hr 16 min 7 sec) 
Heartbeat CPU  0 instructions:  291000000 cycles: 2009426183 heartbeat IPC: 0.14821 cumulative IPC: 0.09911 (Simulation time: 0 hr 16 min 11 sec) 
Heartbeat CPU  0 instructions:  292000000 cycles: 2018589362 heartbeat IPC: 0.10913 cumulative IPC: 0.09915 (Simulation time: 0 hr 16 min 15 sec) 
Heartbeat CPU  0 instructions:  293000000 cycles: 2034158782 heartbeat IPC: 0.06423 cumulative IPC: 0.09888 (Simulation time: 0 hr 16 min 21 sec) 
Heartbeat CPU  0 instructions:  294000000 cycles: 2041398481 heartbeat IPC: 0.13813 cumulative IPC: 0.09902 (Simulation time: 0 hr 16 min 25 sec) 
Heartbeat CPU  0 instructions:  295000001 cycles: 2048120688 heartbeat IPC: 0.14876 cumulative IPC: 0.09919 (Simulation time: 0 hr 16 min 28 sec) 
Heartbeat CPU  0 instructions:  296000000 cycles: 2059306619 heartbeat IPC: 0.08940 cumulative IPC: 0.09913 (Simulation time: 0 hr 16 min 33 sec) 
Heartbeat CPU  0 instructions:  297000000 cycles: 2073067637 heartbeat IPC: 0.07267 cumulative IPC: 0.09895 (Simulation time: 0 hr 16 min 38 sec) 
Heartbeat CPU  0 instructions:  298000001 cycles: 2080017920 heartbeat IPC: 0.14388 cumulative IPC: 0.09911 (Simulation time: 0 hr 16 min 42 sec) 
Heartbeat CPU  0 instructions:  299000002 cycles: 2086907577 heartbeat IPC: 0.14515 cumulative IPC: 0.09927 (Simulation time: 0 hr 16 min 45 sec) 
Heartbeat CPU  0 instructions:  300000000 cycles: 2099675142 heartbeat IPC: 0.07832 cumulative IPC: 0.09913 (Simulation time: 0 hr 16 min 50 sec) 
Heartbeat CPU  0 instructions:  301000001 cycles: 2111799906 heartbeat IPC: 0.08248 cumulative IPC: 0.09903 (Simulation time: 0 hr 16 min 55 sec) 
Heartbeat CPU  0 instructions:  302000001 cycles: 2118625477 heartbeat IPC: 0.14651 cumulative IPC: 0.09919 (Simulation time: 0 hr 16 min 59 sec) 
Heartbeat CPU  0 instructions:  303000000 cycles: 2125433962 heartbeat IPC: 0.14688 cumulative IPC: 0.09935 (Simulation time: 0 hr 17 min 2 sec) 
Heartbeat CPU  0 instructions:  304000000 cycles: 2138912143 heartbeat IPC: 0.07419 cumulative IPC: 0.09919 (Simulation time: 0 hr 17 min 7 sec) 
Heartbeat CPU  0 instructions:  305000002 cycles: 2150439365 heartbeat IPC: 0.08675 cumulative IPC: 0.09912 (Simulation time: 0 hr 17 min 12 sec) 
Heartbeat CPU  0 instructions:  306000000 cycles: 2157235040 heartbeat IPC: 0.14715 cumulative IPC: 0.09928 (Simulation time: 0 hr 17 min 16 sec) 
Heartbeat CPU  0 instructions:  307000001 cycles: 2164292689 heartbeat IPC: 0.14169 cumulative IPC: 0.09942 (Simulation time: 0 hr 17 min 19 sec) 
Heartbeat CPU  0 instructions:  308000000 cycles: 2177895348 heartbeat IPC: 0.07351 cumulative IPC: 0.09925 (Simulation time: 0 hr 17 min 24 sec) 
Heartbeat CPU  0 instructions:  309000000 cycles: 2196680203 heartbeat IPC: 0.05323 cumulative IPC: 0.09884 (Simulation time: 0 hr 17 min 31 sec) 
Heartbeat CPU  0 instructions:  310000000 cycles: 2205761439 heartbeat IPC: 0.11012 cumulative IPC: 0.09889 (Simulation time: 0 hr 17 min 36 sec) 
Heartbeat CPU  0 instructions:  311000000 cycles: 2212540566 heartbeat IPC: 0.14751 cumulative IPC: 0.09905 (Simulation time: 0 hr 17 min 39 sec) 
Heartbeat CPU  0 instructions:  312000000 cycles: 2221998811 heartbeat IPC: 0.10573 cumulative IPC: 0.09907 (Simulation time: 0 hr 17 min 44 sec) 
Heartbeat CPU  0 instructions:  313000002 cycles: 2237885666 heartbeat IPC: 0.06295 cumulative IPC: 0.09881 (Simulation time: 0 hr 17 min 49 sec) 
Heartbeat CPU  0 instructions:  314000001 cycles: 2245070134 heartbeat IPC: 0.13919 cumulative IPC: 0.09894 (Simulation time: 0 hr 17 min 53 sec) 
Heartbeat CPU  0 instructions:  315000001 cycles: 2251753563 heartbeat IPC: 0.14962 cumulative IPC: 0.09910 (Simulation time: 0 hr 17 min 57 sec) 
Heartbeat CPU  0 instructions:  316000000 cycles: 2262386651 heartbeat IPC: 0.09405 cumulative IPC: 0.09907 (Simulation time: 0 hr 18 min 1 sec) 
Heartbeat CPU  0 instructions:  317000002 cycles: 2279060673 heartbeat IPC: 0.05997 cumulative IPC: 0.09878 (Simulation time: 0 hr 18 min 7 sec) 
Heartbeat CPU  0 instructions:  318000003 cycles: 2287344050 heartbeat IPC: 0.12072 cumulative IPC: 0.09886 (Simulation time: 0 hr 18 min 11 sec) 
Heartbeat CPU  0 instructions:  319000000 cycles: 2294368193 heartbeat IPC: 0.14237 cumulative IPC: 0.09900 (Simulation time: 0 hr 18 min 15 sec) 
Heartbeat CPU  0 instructions:  320000000 cycles: 2307443328 heartbeat IPC: 0.07648 cumulative IPC: 0.09887 (Simulation time: 0 hr 18 min 19 sec) 
Heartbeat CPU  0 instructions:  321000001 cycles: 2323131661 heartbeat IPC: 0.06374 cumulative IPC: 0.09862 (Simulation time: 0 hr 18 min 25 sec) 
Heartbeat CPU  0 instructions:  322000000 cycles: 2340696079 heartbeat IPC: 0.05693 cumulative IPC: 0.09830 (Simulation time: 0 hr 18 min 32 sec) 
Heartbeat CPU  0 instructions:  323000000 cycles: 2348404769 heartbeat IPC: 0.12972 cumulative IPC: 0.09840 (Simulation time: 0 hr 18 min 35 sec) 
Heartbeat CPU  0 instructions:  324000000 cycles: 2355655262 heartbeat IPC: 0.13792 cumulative IPC: 0.09853 (Simulation time: 0 hr 18 min 39 sec) 
Heartbeat CPU  0 instructions:  325000002 cycles: 2362413443 heartbeat IPC: 0.14797 cumulative IPC: 0.09868 (Simulation time: 0 hr 18 min 42 sec) 
Heartbeat CPU  0 instructions:  326000002 cycles: 2376928764 heartbeat IPC: 0.06889 cumulative IPC: 0.09849 (Simulation time: 0 hr 18 min 47 sec) 
Heartbeat CPU  0 instructions:  327000000 cycles: 2387093252 heartbeat IPC: 0.09838 cumulative IPC: 0.09849 (Simulation time: 0 hr 18 min 51 sec) 
Heartbeat CPU  0 instructions:  328000000 cycles: 2393967457 heartbeat IPC: 0.14547 cumulative IPC: 0.09863 (Simulation time: 0 hr 18 min 55 sec) 
Heartbeat CPU  0 instructions:  329000000 cycles: 2400736623 heartbeat IPC: 0.14773 cumulative IPC: 0.09877 (Simulation time: 0 hr 18 min 58 sec) 
Heartbeat CPU  0 instructions:  330000001 cycles: 2412712680 heartbeat IPC: 0.08350 cumulative IPC: 0.09869 (Simulation time: 0 hr 19 min 3 sec) 
Heartbeat CPU  0 instructions:  331000001 cycles: 2425500305 heartbeat IPC: 0.07820 cumulative IPC: 0.09858 (Simulation time: 0 hr 19 min 8 sec) 
Heartbeat CPU  0 instructions:  332000000 cycles: 2432730341 heartbeat IPC: 0.13831 cumulative IPC: 0.09870 (Simulation time: 0 hr 19 min 11 sec) 
Heartbeat CPU  0 instructions:  333000000 cycles: 2439637260 heartbeat IPC: 0.14478 cumulative IPC: 0.09884 (Simulation time: 0 hr 19 min 14 sec) 
Heartbeat CPU  0 instructions:  334000001 cycles: 2450716088 heartbeat IPC: 0.09026 cumulative IPC: 0.09880 (Simulation time: 0 hr 19 min 19 sec) 
Heartbeat CPU  0 instructions:  335000000 cycles: 2464294326 heartbeat IPC: 0.07365 cumulative IPC: 0.09865 (Simulation time: 0 hr 19 min 24 sec) 
Heartbeat CPU  0 instructions:  336000000 cycles: 2474616572 heartbeat IPC: 0.09688 cumulative IPC: 0.09865 (Simulation time: 0 hr 19 min 29 sec) 
Heartbeat CPU  0 instructions:  337000000 cycles: 2481473041 heartbeat IPC: 0.14585 cumulative IPC: 0.09878 (Simulation time: 0 hr 19 min 32 sec) 
Heartbeat CPU  0 instructions:  338000003 cycles: 2490548394 heartbeat IPC: 0.11019 cumulative IPC: 0.09882 (Simulation time: 0 hr 19 min 36 sec) 
Heartbeat CPU  0 instructions:  339000002 cycles: 2505961260 heartbeat IPC: 0.06488 cumulative IPC: 0.09861 (Simulation time: 0 hr 19 min 42 sec) 
Heartbeat CPU  0 instructions:  340000000 cycles: 2513326520 heartbeat IPC: 0.13577 cumulative IPC: 0.09872 (Simulation time: 0 hr 19 min 45 sec) 
Heartbeat CPU  0 instructions:  341000001 cycles: 2520267549 heartbeat IPC: 0.14407 cumulative IPC: 0.09885 (Simulation time: 0 hr 19 min 49 sec) 
Heartbeat CPU  0 instructions:  342000000 cycles: 2530247599 heartbeat IPC: 0.10020 cumulative IPC: 0.09885 (Simulation time: 0 hr 19 min 53 sec) 
Heartbeat CPU  0 instructions:  343000001 cycles: 2544862158 heartbeat IPC: 0.06842 cumulative IPC: 0.09867 (Simulation time: 0 hr 19 min 59 sec) 
Heartbeat CPU  0 instructions:  344000000 cycles: 2552049868 heartbeat IPC: 0.13913 cumulative IPC: 0.09879 (Simulation time: 0 hr 20 min 2 sec) 
Heartbeat CPU  0 instructions:  345000000 cycles: 2558685280 heartbeat IPC: 0.15071 cumulative IPC: 0.09893 (Simulation time: 0 hr 20 min 6 sec) 
Heartbeat CPU  0 instructions:  346000003 cycles: 2569422787 heartbeat IPC: 0.09313 cumulative IPC: 0.09891 (Simulation time: 0 hr 20 min 10 sec) 
Heartbeat CPU  0 instructions:  347000001 cycles: 2583042536 heartbeat IPC: 0.07342 cumulative IPC: 0.09877 (Simulation time: 0 hr 20 min 15 sec) 
Heartbeat CPU  0 instructions:  348000000 cycles: 2590334724 heartbeat IPC: 0.13713 cumulative IPC: 0.09888 (Simulation time: 0 hr 20 min 19 sec) 
Heartbeat CPU  0 instructions:  349000001 cycles: 2597175133 heartbeat IPC: 0.14619 cumulative IPC: 0.09901 (Simulation time: 0 hr 20 min 23 sec) 
Heartbeat CPU  0 instructions:  350000000 cycles: 2609054010 heartbeat IPC: 0.08418 cumulative IPC: 0.09894 (Simulation time: 0 hr 20 min 28 sec) 
Heartbeat CPU  0 instructions:  351000003 cycles: 2621882941 heartbeat IPC: 0.07795 cumulative IPC: 0.09883 (Simulation time: 0 hr 20 min 33 sec) 
Heartbeat CPU  0 instructions:  352000000 cycles: 2628608623 heartbeat IPC: 0.14868 cumulative IPC: 0.09896 (Simulation time: 0 hr 20 min 36 sec) 
Heartbeat CPU  0 instructions:  353000001 cycles: 2635225123 heartbeat IPC: 0.15114 cumulative IPC: 0.09910 (Simulation time: 0 hr 20 min 40 sec) 
Heartbeat CPU  0 instructions:  354000003 cycles: 2648287023 heartbeat IPC: 0.07656 cumulative IPC: 0.09898 (Simulation time: 0 hr 20 min 45 sec) 
Heartbeat CPU  0 instructions:  355000001 cycles: 2659997194 heartbeat IPC: 0.08540 cumulative IPC: 0.09892 (Simulation time: 0 hr 20 min 50 sec) 
Heartbeat CPU  0 instructions:  356000000 cycles: 2667172492 heartbeat IPC: 0.13937 cumulative IPC: 0.09903 (Simulation time: 0 hr 20 min 54 sec) 
Heartbeat CPU  0 instructions:  357000001 cycles: 2673747543 heartbeat IPC: 0.15209 cumulative IPC: 0.09917 (Simulation time: 0 hr 20 min 57 sec) 
Heartbeat CPU  0 instructions:  358000002 cycles: 2688395432 heartbeat IPC: 0.06827 cumulative IPC: 0.09900 (Simulation time: 0 hr 21 min 3 sec) 
Heartbeat CPU  0 instructions:  359000002 cycles: 2698487374 heartbeat IPC: 0.09909 cumulative IPC: 0.09900 (Simulation time: 0 hr 21 min 7 sec) 
Heartbeat CPU  0 instructions:  360000000 cycles: 2705136704 heartbeat IPC: 0.15039 cumulative IPC: 0.09913 (Simulation time: 0 hr 21 min 11 sec) 
Heartbeat CPU  0 instructions:  361000003 cycles: 2711670494 heartbeat IPC: 0.15305 cumulative IPC: 0.09926 (Simulation time: 0 hr 21 min 15 sec) 
Heartbeat CPU  0 instructions:  362000001 cycles: 2728759616 heartbeat IPC: 0.05852 cumulative IPC: 0.09900 (Simulation time: 0 hr 21 min 21 sec) 
Heartbeat CPU  0 instructions:  363000000 cycles: 2736408220 heartbeat IPC: 0.13074 cumulative IPC: 0.09909 (Simulation time: 0 hr 21 min 25 sec) 
Heartbeat CPU  0 instructions:  364000000 cycles: 2743472853 heartbeat IPC: 0.14155 cumulative IPC: 0.09920 (Simulation time: 0 hr 21 min 28 sec) 
Heartbeat CPU  0 instructions:  365000000 cycles: 2752066804 heartbeat IPC: 0.11636 cumulative IPC: 0.09926 (Simulation time: 0 hr 21 min 33 sec) 
Heartbeat CPU  0 instructions:  366000000 cycles: 2767696420 heartbeat IPC: 0.06398 cumulative IPC: 0.09905 (Simulation time: 0 hr 21 min 39 sec) 
Heartbeat CPU  0 instructions:  367000002 cycles: 2774866077 heartbeat IPC: 0.13948 cumulative IPC: 0.09916 (Simulation time: 0 hr 21 min 42 sec) 
Heartbeat CPU  0 instructions:  368000000 cycles: 2781796951 heartbeat IPC: 0.14428 cumulative IPC: 0.09927 (Simulation time: 0 hr 21 min 46 sec) 
Heartbeat CPU  0 instructions:  369000003 cycles: 2792901128 heartbeat IPC: 0.09006 cumulative IPC: 0.09924 (Simulation time: 0 hr 21 min 51 sec) 
Heartbeat CPU  0 instructions:  370000001 cycles: 2806564560 heartbeat IPC: 0.07319 cumulative IPC: 0.09911 (Simulation time: 0 hr 21 min 56 sec) 
Heartbeat CPU  0 instructions:  371000003 cycles: 2813423210 heartbeat IPC: 0.14580 cumulative IPC: 0.09922 (Simulation time: 0 hr 22 min 0 sec) 
Heartbeat CPU  0 instructions:  372000000 cycles: 2820009398 heartbeat IPC: 0.15183 cumulative IPC: 0.09935 (Simulation time: 0 hr 22 min 4 sec) 
Heartbeat CPU  0 instructions:  373000002 cycles: 2834092690 heartbeat IPC: 0.07101 cumulative IPC: 0.09920 (Simulation time: 0 hr 22 min 9 sec) 
Heartbeat CPU  0 instructions:  374000001 cycles: 2844715646 heartbeat IPC: 0.09414 cumulative IPC: 0.09919 (Simulation time: 0 hr 22 min 14 sec) 
Heartbeat CPU  0 instructions:  375000002 cycles: 2851490536 heartbeat IPC: 0.14760 cumulative IPC: 0.09930 (Simulation time: 0 hr 22 min 18 sec) 
Heartbeat CPU  0 instructions:  376000000 cycles: 2859416831 heartbeat IPC: 0.12616 cumulative IPC: 0.09938 (Simulation time: 0 hr 22 min 22 sec) 
Heartbeat CPU  0 instructions:  377000000 cycles: 2875714607 heartbeat IPC: 0.06136 cumulative IPC: 0.09916 (Simulation time: 0 hr 22 min 28 sec) 
Heartbeat CPU  0 instructions:  378000003 cycles: 2883184409 heartbeat IPC: 0.13387 cumulative IPC: 0.09925 (Simulation time: 0 hr 22 min 32 sec) 
Heartbeat CPU  0 instructions:  379000002 cycles: 2889904203 heartbeat IPC: 0.14881 cumulative IPC: 0.09937 (Simulation time: 0 hr 22 min 35 sec) 
Heartbeat CPU  0 instructions:  380000000 cycles: 2901605136 heartbeat IPC: 0.08546 cumulative IPC: 0.09931 (Simulation time: 0 hr 22 min 40 sec) 
Heartbeat CPU  0 instructions:  381000000 cycles: 2914575208 heartbeat IPC: 0.07710 cumulative IPC: 0.09921 (Simulation time: 0 hr 22 min 46 sec) 
Heartbeat CPU  0 instructions:  382000002 cycles: 2921484450 heartbeat IPC: 0.14473 cumulative IPC: 0.09932 (Simulation time: 0 hr 22 min 49 sec) 
Heartbeat CPU  0 instructions:  383000000 cycles: 2928292973 heartbeat IPC: 0.14687 cumulative IPC: 0.09943 (Simulation time: 0 hr 22 min 53 sec) 
Heartbeat CPU  0 instructions:  384000000 cycles: 2943696225 heartbeat IPC: 0.06492 cumulative IPC: 0.09925 (Simulation time: 0 hr 22 min 59 sec) 
Heartbeat CPU  0 instructions:  385000001 cycles: 2953466893 heartbeat IPC: 0.10235 cumulative IPC: 0.09926 (Simulation time: 0 hr 23 min 3 sec) 
Heartbeat CPU  0 instructions:  386000002 cycles: 2960264176 heartbeat IPC: 0.14712 cumulative IPC: 0.09937 (Simulation time: 0 hr 23 min 7 sec) 
Heartbeat CPU  0 instructions:  387000003 cycles: 2969024762 heartbeat IPC: 0.11415 cumulative IPC: 0.09942 (Simulation time: 0 hr 23 min 11 sec) 
Heartbeat CPU  0 instructions:  388000000 cycles: 2984717446 heartbeat IPC: 0.06372 cumulative IPC: 0.09922 (Simulation time: 0 hr 23 min 17 sec) 
Heartbeat CPU  0 instructions:  389000001 cycles: 2992009709 heartbeat IPC: 0.13713 cumulative IPC: 0.09932 (Simulation time: 0 hr 23 min 21 sec) 
Heartbeat CPU  0 instructions:  390000000 cycles: 2998586135 heartbeat IPC: 0.15206 cumulative IPC: 0.09944 (Simulation time: 0 hr 23 min 24 sec) 
Heartbeat CPU  0 instructions:  391000002 cycles: 3010222575 heartbeat IPC: 0.08594 cumulative IPC: 0.09938 (Simulation time: 0 hr 23 min 29 sec) 
Heartbeat CPU  0 instructions:  392000000 cycles: 3023131475 heartbeat IPC: 0.07747 cumulative IPC: 0.09929 (Simulation time: 0 hr 23 min 35 sec) 
Heartbeat CPU  0 instructions:  393000000 cycles: 3029921095 heartbeat IPC: 0.14728 cumulative IPC: 0.09940 (Simulation time: 0 hr 23 min 38 sec) 
Heartbeat CPU  0 instructions:  394000001 cycles: 3036823953 heartbeat IPC: 0.14487 cumulative IPC: 0.09951 (Simulation time: 0 hr 23 min 42 sec) 
Heartbeat CPU  0 instructions:  395000000 cycles: 3051550933 heartbeat IPC: 0.06790 cumulative IPC: 0.09935 (Simulation time: 0 hr 23 min 48 sec) 
Heartbeat CPU  0 instructions:  396000000 cycles: 3061458768 heartbeat IPC: 0.10093 cumulative IPC: 0.09935 (Simulation time: 0 hr 23 min 52 sec) 
Heartbeat CPU  0 instructions:  397000000 cycles: 3068588327 heartbeat IPC: 0.14026 cumulative IPC: 0.09945 (Simulation time: 0 hr 23 min 56 sec) 
Heartbeat CPU  0 instructions:  398000001 cycles: 3076242637 heartbeat IPC: 0.13065 cumulative IPC: 0.09953 (Simulation time: 0 hr 24 min 0 sec) 
Heartbeat CPU  0 instructions:  399000001 cycles: 3092753635 heartbeat IPC: 0.06057 cumulative IPC: 0.09932 (Simulation time: 0 hr 24 min 6 sec) 
Heartbeat CPU  0 instructions:  400000000 cycles: 3100275433 heartbeat IPC: 0.13295 cumulative IPC: 0.09940 (Simulation time: 0 hr 24 min 10 sec) 
Heartbeat CPU  0 instructions:  401000002 cycles: 3107127155 heartbeat IPC: 0.14595 cumulative IPC: 0.09951 (Simulation time: 0 hr 24 min 13 sec) 
Heartbeat CPU  0 instructions:  402000003 cycles: 3118540018 heartbeat IPC: 0.08762 cumulative IPC: 0.09946 (Simulation time: 0 hr 24 min 18 sec) 
Heartbeat CPU  0 instructions:  403000000 cycles: 3131841574 heartbeat IPC: 0.07518 cumulative IPC: 0.09936 (Simulation time: 0 hr 24 min 23 sec) 
Heartbeat CPU  0 instructions:  404000000 cycles: 3139785899 heartbeat IPC: 0.12588 cumulative IPC: 0.09942 (Simulation time: 0 hr 24 min 27 sec) 
Heartbeat CPU  0 instructions:  405000001 cycles: 3149339129 heartbeat IPC: 0.10468 cumulative IPC: 0.09944 (Simulation time: 0 hr 24 min 31 sec) 
Heartbeat CPU  0 instructions:  406000003 cycles: 3161933404 heartbeat IPC: 0.07940 cumulative IPC: 0.09936 (Simulation time: 0 hr 24 min 37 sec) 
Heartbeat CPU  0 instructions:  407000001 cycles: 3174155467 heartbeat IPC: 0.08182 cumulative IPC: 0.09929 (Simulation time: 0 hr 24 min 42 sec) 
Heartbeat CPU  0 instructions:  408000000 cycles: 3181216063 heartbeat IPC: 0.14163 cumulative IPC: 0.09939 (Simulation time: 0 hr 24 min 46 sec) 
Heartbeat CPU  0 instructions:  409000000 cycles: 3190326673 heartbeat IPC: 0.10976 cumulative IPC: 0.09942 (Simulation time: 0 hr 24 min 50 sec) 
Heartbeat CPU  0 instructions:  410000003 cycles: 3205040369 heartbeat IPC: 0.06796 cumulative IPC: 0.09927 (Simulation time: 0 hr 24 min 56 sec) 
Heartbeat CPU  0 instructions:  411000000 cycles: 3215042424 heartbeat IPC: 0.09998 cumulative IPC: 0.09927 (Simulation time: 0 hr 25 min 0 sec) 
Heartbeat CPU  0 instructions:  412000000 cycles: 3221953250 heartbeat IPC: 0.14470 cumulative IPC: 0.09937 (Simulation time: 0 hr 25 min 4 sec) 
Heartbeat CPU  0 instructions:  413000003 cycles: 3231284434 heartbeat IPC: 0.10717 cumulative IPC: 0.09939 (Simulation time: 0 hr 25 min 8 sec) 
Heartbeat CPU  0 instructions:  414000003 cycles: 3246419301 heartbeat IPC: 0.06607 cumulative IPC: 0.09923 (Simulation time: 0 hr 25 min 14 sec) 
Heartbeat CPU  0 instructions:  415000000 cycles: 3253761613 heartbeat IPC: 0.13620 cumulative IPC: 0.09932 (Simulation time: 0 hr 25 min 18 sec) 
Heartbeat CPU  0 instructions:  416000000 cycles: 3260535602 heartbeat IPC: 0.14762 cumulative IPC: 0.09942 (Simulation time: 0 hr 25 min 22 sec) 
Heartbeat CPU  0 instructions:  417000000 cycles: 3273859534 heartbeat IPC: 0.07505 cumulative IPC: 0.09932 (Simulation time: 0 hr 25 min 27 sec) 
Heartbeat CPU  0 instructions:  418000001 cycles: 3285473030 heartbeat IPC: 0.08611 cumulative IPC: 0.09927 (Simulation time: 0 hr 25 min 32 sec) 
Heartbeat CPU  0 instructions:  419000000 cycles: 3295384124 heartbeat IPC: 0.10090 cumulative IPC: 0.09928 (Simulation time: 0 hr 25 min 37 sec) 
Heartbeat CPU  0 instructions:  420000000 cycles: 3308405538 heartbeat IPC: 0.07680 cumulative IPC: 0.09919 (Simulation time: 0 hr 25 min 42 sec) 
Heartbeat CPU  0 instructions:  421000003 cycles: 3320323457 heartbeat IPC: 0.08391 cumulative IPC: 0.09913 (Simulation time: 0 hr 25 min 47 sec) 
Heartbeat CPU  0 instructions:  422000002 cycles: 3336413720 heartbeat IPC: 0.06215 cumulative IPC: 0.09895 (Simulation time: 0 hr 25 min 53 sec) 
Heartbeat CPU  0 instructions:  423000002 cycles: 3343655314 heartbeat IPC: 0.13809 cumulative IPC: 0.09904 (Simulation time: 0 hr 25 min 57 sec) 
Heartbeat CPU  0 instructions:  424000000 cycles: 3358925405 heartbeat IPC: 0.06549 cumulative IPC: 0.09888 (Simulation time: 0 hr 26 min 3 sec) 
Heartbeat CPU  0 instructions:  425000002 cycles: 3365844799 heartbeat IPC: 0.14452 cumulative IPC: 0.09898 (Simulation time: 0 hr 26 min 7 sec) 
Heartbeat CPU  0 instructions:  426000000 cycles: 3382044016 heartbeat IPC: 0.06173 cumulative IPC: 0.09879 (Simulation time: 0 hr 26 min 13 sec) 
Heartbeat CPU  0 instructions:  427000002 cycles: 3390801466 heartbeat IPC: 0.11419 cumulative IPC: 0.09883 (Simulation time: 0 hr 26 min 17 sec) 
Heartbeat CPU  0 instructions:  428000000 cycles: 3397575614 heartbeat IPC: 0.14762 cumulative IPC: 0.09893 (Simulation time: 0 hr 26 min 21 sec) 
Heartbeat CPU  0 instructions:  429000001 cycles: 3408305692 heartbeat IPC: 0.09320 cumulative IPC: 0.09891 (Simulation time: 0 hr 26 min 25 sec) 
Heartbeat CPU  0 instructions:  430000002 cycles: 3421988429 heartbeat IPC: 0.07308 cumulative IPC: 0.09881 (Simulation time: 0 hr 26 min 31 sec) 
Heartbeat CPU  0 instructions:  431000003 cycles: 3434225965 heartbeat IPC: 0.08172 cumulative IPC: 0.09875 (Simulation time: 0 hr 26 min 36 sec) 
Heartbeat CPU  0 instructions:  432000000 cycles: 3440862599 heartbeat IPC: 0.15068 cumulative IPC: 0.09885 (Simulation time: 0 hr 26 min 39 sec) 
Heartbeat CPU  0 instructions:  433000001 cycles: 3447504838 heartbeat IPC: 0.15055 cumulative IPC: 0.09895 (Simulation time: 0 hr 26 min 42 sec) 
Heartbeat CPU  0 instructions:  434000000 cycles: 3459173394 heartbeat IPC: 0.08570 cumulative IPC: 0.09891 (Simulation time: 0 hr 26 min 47 sec) 
Heartbeat CPU  0 instructions:  435000003 cycles: 3471841203 heartbeat IPC: 0.07894 cumulative IPC: 0.09883 (Simulation time: 0 hr 26 min 52 sec) 
Heartbeat CPU  0 instructions:  436000000 cycles: 3478519490 heartbeat IPC: 0.14974 cumulative IPC: 0.09893 (Simulation time: 0 hr 26 min 55 sec) 
Heartbeat CPU  0 instructions:  437000001 cycles: 3485030374 heartbeat IPC: 0.15359 cumulative IPC: 0.09904 (Simulation time: 0 hr 26 min 59 sec) 
Heartbeat CPU  0 instructions:  438000002 cycles: 3496039394 heartbeat IPC: 0.09083 cumulative IPC: 0.09901 (Simulation time: 0 hr 27 min 3 sec) 
Heartbeat CPU  0 instructions:  439000000 cycles: 3509213891 heartbeat IPC: 0.07590 cumulative IPC: 0.09892 (Simulation time: 0 hr 27 min 9 sec) 
Heartbeat CPU  0 instructions:  440000000 cycles: 3516330031 heartbeat IPC: 0.14053 cumulative IPC: 0.09901 (Simulation time: 0 hr 27 min 12 sec) 
Heartbeat CPU  0 instructions:  441000000 cycles: 3522883793 heartbeat IPC: 0.15258 cumulative IPC: 0.09911 (Simulation time: 0 hr 27 min 15 sec) 
Heartbeat CPU  0 instructions:  442000000 cycles: 3533097172 heartbeat IPC: 0.09791 cumulative IPC: 0.09910 (Simulation time: 0 hr 27 min 20 sec) 
Heartbeat CPU  0 instructions:  443000001 cycles: 3547089370 heartbeat IPC: 0.07147 cumulative IPC: 0.09899 (Simulation time: 0 hr 27 min 25 sec) 
Heartbeat CPU  0 instructions:  444000000 cycles: 3553969752 heartbeat IPC: 0.14534 cumulative IPC: 0.09909 (Simulation time: 0 hr 27 min 29 sec) 
Heartbeat CPU  0 instructions:  445000003 cycles: 3560493639 heartbeat IPC: 0.15328 cumulative IPC: 0.09919 (Simulation time: 0 hr 27 min 32 sec) 
Heartbeat CPU  0 instructions:  446000001 cycles: 3570327679 heartbeat IPC: 0.10169 cumulative IPC: 0.09919 (Simulation time: 0 hr 27 min 36 sec) 
Heartbeat CPU  0 instructions:  447000000 cycles: 3584925378 heartbeat IPC: 0.06850 cumulative IPC: 0.09907 (Simulation time: 0 hr 27 min 42 sec) 
Heartbeat CPU  0 instructions:  448000000 cycles: 3591901428 heartbeat IPC: 0.14335 cumulative IPC: 0.09915 (Simulation time: 0 hr 27 min 46 sec) 
Heartbeat CPU  0 instructions:  449000001 cycles: 3598420723 heartbeat IPC: 0.15339 cumulative IPC: 0.09925 (Simulation time: 0 hr 27 min 49 sec) 
Heartbeat CPU  0 instructions:  450000000 cycles: 3608214850 heartbeat IPC: 0.10210 cumulative IPC: 0.09926 (Simulation time: 0 hr 27 min 54 sec) 
Heartbeat CPU  0 instructions:  451000001 cycles: 3622515713 heartbeat IPC: 0.06993 cumulative IPC: 0.09914 (Simulation time: 0 hr 27 min 59 sec) 
Heartbeat CPU  0 instructions:  452000000 cycles: 3629441493 heartbeat IPC: 0.14439 cumulative IPC: 0.09923 (Simulation time: 0 hr 28 min 3 sec) 
Heartbeat CPU  0 instructions:  453000000 cycles: 3635995767 heartbeat IPC: 0.15257 cumulative IPC: 0.09933 (Simulation time: 0 hr 28 min 6 sec) 
Heartbeat CPU  0 instructions:  454000000 cycles: 3646437951 heartbeat IPC: 0.09577 cumulative IPC: 0.09932 (Simulation time: 0 hr 28 min 11 sec) 
Heartbeat CPU  0 instructions:  455000003 cycles: 3660127615 heartbeat IPC: 0.07305 cumulative IPC: 0.09922 (Simulation time: 0 hr 28 min 16 sec) 
Heartbeat CPU  0 instructions:  456000000 cycles: 3666973505 heartbeat IPC: 0.14607 cumulative IPC: 0.09931 (Simulation time: 0 hr 28 min 20 sec) 
Heartbeat CPU  0 instructions:  457000000 cycles: 3673444509 heartbeat IPC: 0.15454 cumulative IPC: 0.09941 (Simulation time: 0 hr 28 min 24 sec) 
Heartbeat CPU  0 instructions:  458000001 cycles: 3684518100 heartbeat IPC: 0.09031 cumulative IPC: 0.09938 (Simulation time: 0 hr 28 min 28 sec) 
Heartbeat CPU  0 instructions:  459000002 cycles: 3697712067 heartbeat IPC: 0.07579 cumulative IPC: 0.09929 (Simulation time: 0 hr 28 min 34 sec) 
Heartbeat CPU  0 instructions:  460000000 cycles: 3704471448 heartbeat IPC: 0.14794 cumulative IPC: 0.09939 (Simulation time: 0 hr 28 min 37 sec) 
Heartbeat CPU  0 instructions:  461000001 cycles: 3711312677 heartbeat IPC: 0.14617 cumulative IPC: 0.09947 (Simulation time: 0 hr 28 min 41 sec) 
Heartbeat CPU  0 instructions:  462000001 cycles: 3723396116 heartbeat IPC: 0.08276 cumulative IPC: 0.09942 (Simulation time: 0 hr 28 min 46 sec) 
Heartbeat CPU  0 instructions:  463000002 cycles: 3736190776 heartbeat IPC: 0.07816 cumulative IPC: 0.09934 (Simulation time: 0 hr 28 min 51 sec) 
Heartbeat CPU  0 instructions:  464000000 cycles: 3743148038 heartbeat IPC: 0.14373 cumulative IPC: 0.09943 (Simulation time: 0 hr 28 min 55 sec) 
Heartbeat CPU  0 instructions:  465000000 cycles: 3758464075 heartbeat IPC: 0.06529 cumulative IPC: 0.09929 (Simulation time: 0 hr 29 min 1 sec) 
Heartbeat CPU  0 instructions:  466000000 cycles: 3769770720 heartbeat IPC: 0.08844 cumulative IPC: 0.09925 (Simulation time: 0 hr 29 min 6 sec) 
Heartbeat CPU  0 instructions:  467000002 cycles: 3784724154 heartbeat IPC: 0.06687 cumulative IPC: 0.09912 (Simulation time: 0 hr 29 min 11 sec) 
Heartbeat CPU  0 instructions:  468000000 cycles: 3792814278 heartbeat IPC: 0.12361 cumulative IPC: 0.09918 (Simulation time: 0 hr 29 min 15 sec) 
Heartbeat CPU  0 instructions:  469000000 cycles: 3807674049 heartbeat IPC: 0.06730 cumulative IPC: 0.09905 (Simulation time: 0 hr 29 min 21 sec) 
Heartbeat CPU  0 instructions:  470000000 cycles: 3815964394 heartbeat IPC: 0.12062 cumulative IPC: 0.09910 (Simulation time: 0 hr 29 min 25 sec) 
Heartbeat CPU  0 instructions:  471000000 cycles: 3833045906 heartbeat IPC: 0.05854 cumulative IPC: 0.09891 (Simulation time: 0 hr 29 min 31 sec) 
Heartbeat CPU  0 instructions:  472000000 cycles: 3843642575 heartbeat IPC: 0.09437 cumulative IPC: 0.09890 (Simulation time: 0 hr 29 min 36 sec) 
Heartbeat CPU  0 instructions:  473000001 cycles: 3856150072 heartbeat IPC: 0.07995 cumulative IPC: 0.09884 (Simulation time: 0 hr 29 min 41 sec) 
Heartbeat CPU  0 instructions:  474000001 cycles: 3863125246 heartbeat IPC: 0.14337 cumulative IPC: 0.09892 (Simulation time: 0 hr 29 min 45 sec) 
Heartbeat CPU  0 instructions:  475000003 cycles: 3877523177 heartbeat IPC: 0.06945 cumulative IPC: 0.09881 (Simulation time: 0 hr 29 min 50 sec) 
Heartbeat CPU  0 instructions:  476000000 cycles: 3896220371 heartbeat IPC: 0.05348 cumulative IPC: 0.09858 (Simulation time: 0 hr 29 min 57 sec) 
Heartbeat CPU  0 instructions:  477000000 cycles: 3910793388 heartbeat IPC: 0.06862 cumulative IPC: 0.09847 (Simulation time: 0 hr 30 min 3 sec) 
Heartbeat CPU  0 instructions:  478000000 cycles: 3921286290 heartbeat IPC: 0.09530 cumulative IPC: 0.09846 (Simulation time: 0 hr 30 min 7 sec) 
Heartbeat CPU  0 instructions:  479000000 cycles: 3928719253 heartbeat IPC: 0.13454 cumulative IPC: 0.09853 (Simulation time: 0 hr 30 min 11 sec) 
Heartbeat CPU  0 instructions:  480000000 cycles: 3945185090 heartbeat IPC: 0.06073 cumulative IPC: 0.09837 (Simulation time: 0 hr 30 min 17 sec) 
Heartbeat CPU  0 instructions:  481000000 cycles: 3954893429 heartbeat IPC: 0.10300 cumulative IPC: 0.09838 (Simulation time: 0 hr 30 min 21 sec) 
Heartbeat CPU  0 instructions:  482000000 cycles: 3962563303 heartbeat IPC: 0.13038 cumulative IPC: 0.09844 (Simulation time: 0 hr 30 min 25 sec) 
Heartbeat CPU  0 instructions:  483000002 cycles: 3969724534 heartbeat IPC: 0.13964 cumulative IPC: 0.09852 (Simulation time: 0 hr 30 min 28 sec) 
Heartbeat CPU  0 instructions:  484000000 cycles: 3986683623 heartbeat IPC: 0.05897 cumulative IPC: 0.09835 (Simulation time: 0 hr 30 min 34 sec) 
Heartbeat CPU  0 instructions:  485000000 cycles: 3995002820 heartbeat IPC: 0.12020 cumulative IPC: 0.09840 (Simulation time: 0 hr 30 min 38 sec) 
Heartbeat CPU  0 instructions:  486000000 cycles: 4003406941 heartbeat IPC: 0.11899 cumulative IPC: 0.09844 (Simulation time: 0 hr 30 min 42 sec) 
Heartbeat CPU  0 instructions:  487000002 cycles: 4010646673 heartbeat IPC: 0.13813 cumulative IPC: 0.09851 (Simulation time: 0 hr 30 min 46 sec) 
Heartbeat CPU  0 instructions:  488000000 cycles: 4027810143 heartbeat IPC: 0.05826 cumulative IPC: 0.09834 (Simulation time: 0 hr 30 min 52 sec) 
Heartbeat CPU  0 instructions:  489000000 cycles: 4035230379 heartbeat IPC: 0.13477 cumulative IPC: 0.09841 (Simulation time: 0 hr 30 min 56 sec) 
Heartbeat CPU  0 instructions:  490000000 cycles: 4041861573 heartbeat IPC: 0.15080 cumulative IPC: 0.09849 (Simulation time: 0 hr 30 min 59 sec) 
Heartbeat CPU  0 instructions:  491000000 cycles: 4050479266 heartbeat IPC: 0.11604 cumulative IPC: 0.09853 (Simulation time: 0 hr 31 min 3 sec) 
Heartbeat CPU  0 instructions:  492000000 cycles: 4066008275 heartbeat IPC: 0.06440 cumulative IPC: 0.09840 (Simulation time: 0 hr 31 min 9 sec) 
Heartbeat CPU  0 instructions:  493000001 cycles: 4073258354 heartbeat IPC: 0.13793 cumulative IPC: 0.09847 (Simulation time: 0 hr 31 min 13 sec) 
Heartbeat CPU  0 instructions:  494000002 cycles: 4082852178 heartbeat IPC: 0.10423 cumulative IPC: 0.09848 (Simulation time: 0 hr 31 min 17 sec) 
Heartbeat CPU  0 instructions:  495000002 cycles: 4091126051 heartbeat IPC: 0.12086 cumulative IPC: 0.09853 (Simulation time: 0 hr 31 min 21 sec) 
Heartbeat CPU  0 instructions:  496000000 cycles: 4107023218 heartbeat IPC: 0.06290 cumulative IPC: 0.09839 (Simulation time: 0 hr 31 min 27 sec) 
Heartbeat CPU  0 instructions:  497000002 cycles: 4114068033 heartbeat IPC: 0.14195 cumulative IPC: 0.09847 (Simulation time: 0 hr 31 min 30 sec) 
Heartbeat CPU  0 instructions:  498000000 cycles: 4120665492 heartbeat IPC: 0.15157 cumulative IPC: 0.09855 (Simulation time: 0 hr 31 min 33 sec) 
Heartbeat CPU  0 instructions:  499000003 cycles: 4130298660 heartbeat IPC: 0.10381 cumulative IPC: 0.09856 (Simulation time: 0 hr 31 min 38 sec) 
Heartbeat CPU  0 instructions:  500000000 cycles: 4144778849 heartbeat IPC: 0.06906 cumulative IPC: 0.09846 (Simulation time: 0 hr 31 min 43 sec) 
Heartbeat CPU  0 instructions:  501000002 cycles: 4151779541 heartbeat IPC: 0.14284 cumulative IPC: 0.09854 (Simulation time: 0 hr 31 min 47 sec) 
Heartbeat CPU  0 instructions:  502000000 cycles: 4159020115 heartbeat IPC: 0.13811 cumulative IPC: 0.09861 (Simulation time: 0 hr 31 min 50 sec) 
Heartbeat CPU  0 instructions:  503000003 cycles: 4170599262 heartbeat IPC: 0.08636 cumulative IPC: 0.09857 (Simulation time: 0 hr 31 min 55 sec) 
Heartbeat CPU  0 instructions:  504000000 cycles: 4183724562 heartbeat IPC: 0.07619 cumulative IPC: 0.09850 (Simulation time: 0 hr 32 min 0 sec) 
Heartbeat CPU  0 instructions:  505000002 cycles: 4190943330 heartbeat IPC: 0.13853 cumulative IPC: 0.09857 (Simulation time: 0 hr 32 min 3 sec) 
Heartbeat CPU  0 instructions:  506000001 cycles: 4198201547 heartbeat IPC: 0.13777 cumulative IPC: 0.09864 (Simulation time: 0 hr 32 min 7 sec) 
Heartbeat CPU  0 instructions:  507000001 cycles: 4211283901 heartbeat IPC: 0.07644 cumulative IPC: 0.09857 (Simulation time: 0 hr 32 min 12 sec) 
Heartbeat CPU  0 instructions:  508000000 cycles: 4223947040 heartbeat IPC: 0.07897 cumulative IPC: 0.09851 (Simulation time: 0 hr 32 min 17 sec) 
Heartbeat CPU  0 instructions:  509000000 cycles: 4230972268 heartbeat IPC: 0.14234 cumulative IPC: 0.09858 (Simulation time: 0 hr 32 min 20 sec) 
Heartbeat CPU  0 instructions:  510000000 cycles: 4237868340 heartbeat IPC: 0.14501 cumulative IPC: 0.09866 (Simulation time: 0 hr 32 min 24 sec) 
Heartbeat CPU  0 instructions:  511000001 cycles: 4251925984 heartbeat IPC: 0.07114 cumulative IPC: 0.09857 (Simulation time: 0 hr 32 min 29 sec) 
Heartbeat CPU  0 instructions:  512000000 cycles: 4262928739 heartbeat IPC: 0.09089 cumulative IPC: 0.09855 (Simulation time: 0 hr 32 min 34 sec) 
Heartbeat CPU  0 instructions:  513000000 cycles: 4270206586 heartbeat IPC: 0.13740 cumulative IPC: 0.09862 (Simulation time: 0 hr 32 min 37 sec) 
Heartbeat CPU  0 instructions:  514000000 cycles: 4277024310 heartbeat IPC: 0.14668 cumulative IPC: 0.09869 (Simulation time: 0 hr 32 min 41 sec) 
Heartbeat CPU  0 instructions:  515000000 cycles: 4292464053 heartbeat IPC: 0.06477 cumulative IPC: 0.09857 (Simulation time: 0 hr 32 min 47 sec) 
Heartbeat CPU  0 instructions:  516000000 cycles: 4302241053 heartbeat IPC: 0.10228 cumulative IPC: 0.09858 (Simulation time: 0 hr 32 min 51 sec) 
Heartbeat CPU  0 instructions:  517000000 cycles: 4309171442 heartbeat IPC: 0.14429 cumulative IPC: 0.09865 (Simulation time: 0 hr 32 min 55 sec) 
Heartbeat CPU  0 instructions:  518000001 cycles: 4316101484 heartbeat IPC: 0.14430 cumulative IPC: 0.09873 (Simulation time: 0 hr 32 min 58 sec) 
Heartbeat CPU  0 instructions:  519000000 cycles: 4333259161 heartbeat IPC: 0.05828 cumulative IPC: 0.09856 (Simulation time: 0 hr 33 min 4 sec) 
Heartbeat CPU  0 instructions:  520000000 cycles: 4340698687 heartbeat IPC: 0.13442 cumulative IPC: 0.09863 (Simulation time: 0 hr 33 min 8 sec) 
Heartbeat CPU  0 instructions:  521000002 cycles: 4347738753 heartbeat IPC: 0.14204 cumulative IPC: 0.09870 (Simulation time: 0 hr 33 min 12 sec) 
Heartbeat CPU  0 instructions:  522000002 cycles: 4355661856 heartbeat IPC: 0.12621 cumulative IPC: 0.09875 (Simulation time: 0 hr 33 min 15 sec) 
Heartbeat CPU  0 instructions:  523000002 cycles: 4372470764 heartbeat IPC: 0.05949 cumulative IPC: 0.09860 (Simulation time: 0 hr 33 min 22 sec) 
Heartbeat CPU  0 instructions:  524000000 cycles: 4379781547 heartbeat IPC: 0.13678 cumulative IPC: 0.09866 (Simulation time: 0 hr 33 min 25 sec) 
Heartbeat CPU  0 instructions:  525000002 cycles: 4386456006 heartbeat IPC: 0.14983 cumulative IPC: 0.09874 (Simulation time: 0 hr 33 min 29 sec) 
Heartbeat CPU  0 instructions:  526000000 cycles: 4394271771 heartbeat IPC: 0.12795 cumulative IPC: 0.09879 (Simulation time: 0 hr 33 min 32 sec) 
Heartbeat CPU  0 instructions:  527000000 cycles: 4410528704 heartbeat IPC: 0.06151 cumulative IPC: 0.09865 (Simulation time: 0 hr 33 min 38 sec) 
Heartbeat CPU  0 instructions:  528000000 cycles: 4417667377 heartbeat IPC: 0.14008 cumulative IPC: 0.09872 (Simulation time: 0 hr 33 min 42 sec) 
[...]
Heartbeat CPU  0 instructions:  548000000 cycles: 4614251897 heartbeat IPC: 0.07172 cumulative IPC: 0.09885 (Simulation time: 0 hr 35 min 7 sec) 
Heartbeat CPU  0 instructions:  549000000 cycles: 4621204547 heartbeat IPC: 0.14383 cumulative IPC: 0.09892 (Simulation time: 0 hr 35 min 10 sec) 
Heartbeat CPU  0 instructions:  550000000 cycles: 4628000225 heartbeat IPC: 0.14715 cumulative IPC: 0.09899 (Simulation time: 0 hr 35 min 14 sec) 
Heartbeat CPU  0 instructions:  551000002 cycles: 4637999413 heartbeat IPC: 0.10001 cumulative IPC: 0.09899 (Simulation time: 0 hr 35 min 18 sec) 
Heartbeat CPU  0 instructions:  552000000 cycles: 4652238839 heartbeat IPC: 0.07023 cumulative IPC: 0.09891 (Simulation time: 0 hr 35 min 24 sec) 
Heartbeat CPU  0 instructions:  553000001 cycles: 4659141636 heartbeat IPC: 0.14487 cumulative IPC: 0.09897 (Simulation time: 0 hr 35 min 27 sec) 
Heartbeat CPU  0 instructions:  554000000 cycles: 4666097053 heartbeat IPC: 0.14377 cumulative IPC: 0.09904 (Simulation time: 0 hr 35 min 31 sec) 
Heartbeat CPU  0 instructions:  555000003 cycles: 4674516634 heartbeat IPC: 0.11877 cumulative IPC: 0.09908 (Simulation time: 0 hr 35 min 35 sec) 
Heartbeat CPU  0 instructions:  556000000 cycles: 4690079126 heartbeat IPC: 0.06426 cumulative IPC: 0.09896 (Simulation time: 0 hr 35 min 40 sec) 
Heartbeat CPU  0 instructions:  557000002 cycles: 4697010077 heartbeat IPC: 0.14428 cumulative IPC: 0.09903 (Simulation time: 0 hr 35 min 44 sec) 
Heartbeat CPU  0 instructions:  558000000 cycles: 4703548399 heartbeat IPC: 0.15294 cumulative IPC: 0.09911 (Simulation time: 0 hr 35 min 47 sec) 
Heartbeat CPU  0 instructions:  559000000 cycles: 4709882757 heartbeat IPC: 0.15787 cumulative IPC: 0.09919 (Simulation time: 0 hr 35 min 50 sec) 
Heartbeat CPU  0 instructions:  560000000 cycles: 4725806228 heartbeat IPC: 0.06280 cumulative IPC: 0.09906 (Simulation time: 0 hr 35 min 56 sec) 
Heartbeat CPU  0 instructions:  561000002 cycles: 4734085369 heartbeat IPC: 0.12079 cumulative IPC: 0.09910 (Simulation time: 0 hr 36 min 0 sec) 
Heartbeat CPU  0 instructions:  562000002 cycles: 4740296536 heartbeat IPC: 0.16100 cumulative IPC: 0.09918 (Simulation time: 0 hr 36 min 3 sec) 
Heartbeat CPU  0 instructions:  563000002 cycles: 4746408746 heartbeat IPC: 0.16361 cumulative IPC: 0.09927 (Simulation time: 0 hr 36 min 7 sec) 
Heartbeat CPU  0 instructions:  564000000 cycles: 4758603699 heartbeat IPC: 0.08200 cumulative IPC: 0.09922 (Simulation time: 0 hr 36 min 12 sec) 
Heartbeat CPU  0 instructions:  565000000 cycles: 4770616154 heartbeat IPC: 0.08325 cumulative IPC: 0.09918 (Simulation time: 0 hr 36 min 16 sec) 
Heartbeat CPU  0 instructions:  566000001 cycles: 4776944246 heartbeat IPC: 0.15803 cumulative IPC: 0.09926 (Simulation time: 0 hr 36 min 20 sec) 
Heartbeat CPU  0 instructions:  567000001 cycles: 4783269482 heartbeat IPC: 0.15810 cumulative IPC: 0.09934 (Simulation time: 0 hr 36 min 23 sec) 
Heartbeat CPU  0 instructions:  568000000 cycles: 4792753805 heartbeat IPC: 0.10544 cumulative IPC: 0.09935 (Simulation time: 0 hr 36 min 27 sec) 
Heartbeat CPU  0 instructions:  569000000 cycles: 4807976828 heartbeat IPC: 0.06569 cumulative IPC: 0.09924 (Simulation time: 0 hr 36 min 33 sec) 
Heartbeat CPU  0 instructions:  570000000 cycles: 4815288532 heartbeat IPC: 0.13677 cumulative IPC: 0.09930 (Simulation time: 0 hr 36 min 37 sec) 
Heartbeat CPU  0 instructions:  571000000 cycles: 4821790707 heartbeat IPC: 0.15379 cumulative IPC: 0.09938 (Simulation time: 0 hr 36 min 40 sec) 
Heartbeat CPU  0 instructions:  572000000 cycles: 4828511955 heartbeat IPC: 0.14878 cumulative IPC: 0.09945 (Simulation time: 0 hr 36 min 43 sec) 
Heartbeat CPU  0 instructions:  573000003 cycles: 4845886855 heartbeat IPC: 0.05755 cumulative IPC: 0.09929 (Simulation time: 0 hr 36 min 50 sec) 
Heartbeat CPU  0 instructions:  574000001 cycles: 4852976388 heartbeat IPC: 0.14105 cumulative IPC: 0.09935 (Simulation time: 0 hr 36 min 53 sec) 
Heartbeat CPU  0 instructions:  575000002 cycles: 4859217086 heartbeat IPC: 0.16024 cumulative IPC: 0.09943 (Simulation time: 0 hr 36 min 56 sec) 
Heartbeat CPU  0 instructions:  576000000 cycles: 4866717558 heartbeat IPC: 0.13332 cumulative IPC: 0.09949 (Simulation time: 0 hr 37 min 0 sec) 
Heartbeat CPU  0 instructions:  577000003 cycles: 4880240045 heartbeat IPC: 0.07395 cumulative IPC: 0.09942 (Simulation time: 0 hr 37 min 5 sec) 
Heartbeat CPU  0 instructions:  578000000 cycles: 4891237724 heartbeat IPC: 0.09093 cumulative IPC: 0.09940 (Simulation time: 0 hr 37 min 10 sec) 
Heartbeat CPU  0 instructions:  579000000 cycles: 4897755469 heartbeat IPC: 0.15343 cumulative IPC: 0.09947 (Simulation time: 0 hr 37 min 13 sec) 
Heartbeat CPU  0 instructions:  580000000 cycles: 4904458626 heartbeat IPC: 0.14918 cumulative IPC: 0.09954 (Simulation time: 0 hr 37 min 17 sec) 
Heartbeat CPU  0 instructions:  581000001 cycles: 4914423016 heartbeat IPC: 0.10036 cumulative IPC: 0.09954 (Simulation time: 0 hr 37 min 21 sec) 
Heartbeat CPU  0 instructions:  582000003 cycles: 4928538402 heartbeat IPC: 0.07084 cumulative IPC: 0.09946 (Simulation time: 0 hr 37 min 26 sec) 
Heartbeat CPU  0 instructions:  583000000 cycles: 4935265004 heartbeat IPC: 0.14866 cumulative IPC: 0.09952 (Simulation time: 0 hr 37 min 30 sec) 
Heartbeat CPU  0 instructions:  584000000 cycles: 4941601318 heartbeat IPC: 0.15782 cumulative IPC: 0.09960 (Simulation time: 0 hr 37 min 33 sec) 
Heartbeat CPU  0 instructions:  585000002 cycles: 4948161756 heartbeat IPC: 0.15243 cumulative IPC: 0.09967 (Simulation time: 0 hr 37 min 36 sec) 
Heartbeat CPU  0 instructions:  586000001 cycles: 4965277316 heartbeat IPC: 0.05843 cumulative IPC: 0.09953 (Simulation time: 0 hr 37 min 43 sec) 
Heartbeat CPU  0 instructions:  587000001 cycles: 4972665512 heartbeat IPC: 0.13535 cumulative IPC: 0.09958 (Simulation time: 0 hr 37 min 46 sec) 
Heartbeat CPU  0 instructions:  588000000 cycles: 4979281167 heartbeat IPC: 0.15116 cumulative IPC: 0.09965 (Simulation time: 0 hr 37 min 50 sec) 
Heartbeat CPU  0 instructions:  589000002 cycles: 4992363031 heartbeat IPC: 0.07644 cumulative IPC: 0.09959 (Simulation time: 0 hr 37 min 54 sec) 
Heartbeat CPU  0 instructions:  590000001 cycles: 5003564489 heartbeat IPC: 0.08927 cumulative IPC: 0.09957 (Simulation time: 0 hr 37 min 59 sec) 
Heartbeat CPU  0 instructions:  591000001 cycles: 5019939816 heartbeat IPC: 0.06107 cumulative IPC: 0.09944 (Simulation time: 0 hr 38 min 5 sec) 
Heartbeat CPU  0 instructions:  592000000 cycles: 5027032784 heartbeat IPC: 0.14098 cumulative IPC: 0.09950 (Simulation time: 0 hr 38 min 9 sec) 
Heartbeat CPU  0 instructions:  593000001 cycles: 5033464972 heartbeat IPC: 0.15547 cumulative IPC: 0.09957 (Simulation time: 0 hr 38 min 12 sec) 
Heartbeat CPU  0 instructions:  594000000 cycles: 5039873148 heartbeat IPC: 0.15605 cumulative IPC: 0.09964 (Simulation time: 0 hr 38 min 16 sec) 
Heartbeat CPU  0 instructions:  595000001 cycles: 5055238864 heartbeat IPC: 0.06508 cumulative IPC: 0.09954 (Simulation time: 0 hr 38 min 21 sec) 
Heartbeat CPU  0 instructions:  596000000 cycles: 5064383378 heartbeat IPC: 0.10936 cumulative IPC: 0.09955 (Simulation time: 0 hr 38 min 26 sec) 
Heartbeat CPU  0 instructions:  597000001 cycles: 5071220541 heartbeat IPC: 0.14626 cumulative IPC: 0.09962 (Simulation time: 0 hr 38 min 29 sec) 
Heartbeat CPU  0 instructions:  598000001 cycles: 5077854455 heartbeat IPC: 0.15074 cumulative IPC: 0.09969 (Simulation time: 0 hr 38 min 32 sec) 
Heartbeat CPU  0 instructions:  599000002 cycles: 5092474987 heartbeat IPC: 0.06840 cumulative IPC: 0.09960 (Simulation time: 0 hr 38 min 38 sec) 
Heartbeat CPU  0 instructions:  600000000 cycles: 5102489842 heartbeat IPC: 0.09985 cumulative IPC: 0.09960 (Simulation time: 0 hr 38 min 42 sec) 
Finished CPU 0 instructions: 500000000 cycles: 5020286285 cumulative IPC: 0.09960 (Simulation time: 0 hr 38 min 42 sec) 

ChampSim completed all CPUs

[ROI Statistics]
Core_0_instructions 500000000
Core_0_cycles 5020286285
Core_0_IPC 0.09960

Core_0_branch_prediction_accuracy 93.75037
Core_0_branch_MPKI 14.79093
Core_0_average_ROB_occupancy_at_mispredict 56.48008

Core_0_L1D_total_access 126428265
Core_0_L1D_total_hit 74208297
Core_0_L1D_total_miss 52219968
Core_0_L1D_loads 103805091
Core_0_L1D_load_hit 53479273
Core_0_L1D_load_miss 50325818
Core_0_L1D_RFOs 22623174
Core_0_L1D_RFO_hit 20729024
Core_0_L1D_RFO_miss 1894150
Core_0_L1D_prefetches 0
Core_0_L1D_prefetch_hit 0
Core_0_L1D_prefetch_miss 0
Core_0_L1D_writebacks 0
Core_0_L1D_writeback_hit 0
Core_0_L1D_writeback_miss 0
Core_0_L1D_prefetch_requested 0
Core_0_L1D_prefetch_dropped 0
Core_0_L1D_prefetch_issued 0
Core_0_L1D_prefetch_filled 0
Core_0_L1D_prefetch_useful 0
Core_0_L1D_prefetch_useless 0
Core_0_L1D_prefetch_late 0
Core_0_L1D_average_miss_latency 193.63890

Core_0_L1D_rq_access 158689910
Core_0_L1D_rq_forward 0
Core_0_L1D_rq_merged 54389093
Core_0_L1D_rq_to_cache 104300815
Core_0_L1D_rq_full 0

Core_0_L1D_wq_access 26393734
Core_0_L1D_wq_forward 2
Core_0_L1D_wq_merged 2415006
Core_0_L1D_wq_to_cache 23978728
Core_0_L1D_wq_full 0

Core_0_L1D_pq_access 0
Core_0_L1D_pq_forward 0
Core_0_L1D_pq_merged 0
Core_0_L1D_pq_to_cache 0
Core_0_L1D_pq_full 0

Core_0_L1D_acc_epochs 4454260
Core_0_L1D_acc_level_0 4454260
Core_0_L1D_acc_level_1 0
Core_0_L1D_acc_level_2 0
Core_0_L1D_acc_level_3 0
Core_0_L1D_acc_level_4 0
Core_0_L1D_acc_level_5 0
Core_0_L1D_acc_level_6 0
Core_0_L1D_acc_level_7 0
Core_0_L1D_acc_level_8 0
Core_0_L1D_acc_level_9 0

Core_0_L1I_total_access 108730717
Core_0_L1I_total_hit 108730717
Core_0_L1I_total_miss 0
Core_0_L1I_loads 108730717
Core_0_L1I_load_hit 108730717
Core_0_L1I_load_miss 0
Core_0_L1I_RFOs 0
Core_0_L1I_RFO_hit 0
Core_0_L1I_RFO_miss 0
Core_0_L1I_prefetches 0
Core_0_L1I_prefetch_hit 0
Core_0_L1I_prefetch_miss 0
Core_0_L1I_writebacks 0
Core_0_L1I_writeback_hit 0
Core_0_L1I_writeback_miss 0
Core_0_L1I_prefetch_requested 0
Core_0_L1I_prefetch_dropped 0
Core_0_L1I_prefetch_issued 0
Core_0_L1I_prefetch_filled 0
Core_0_L1I_prefetch_useful 0
Core_0_L1I_prefetch_useless 0
Core_0_L1I_prefetch_late 0
Core_0_L1I_average_miss_latency -nan

Core_0_L1I_rq_access 499999764
Core_0_L1I_rq_forward 0
Core_0_L1I_rq_merged 391269047
Core_0_L1I_rq_to_cache 108730717
Core_0_L1I_rq_full 0

Core_0_L1I_wq_access 0
Core_0_L1I_wq_forward 0
Core_0_L1I_wq_merged 0
Core_0_L1I_wq_to_cache 0
Core_0_L1I_wq_full 0

Core_0_L1I_pq_access 0
Core_0_L1I_pq_forward 0
Core_0_L1I_pq_merged 0
Core_0_L1I_pq_to_cache 0
Core_0_L1I_pq_full 0

Core_0_L1I_acc_epochs 4454260
Core_0_L1I_acc_level_0 4454260
Core_0_L1I_acc_level_1 0
Core_0_L1I_acc_level_2 0
Core_0_L1I_acc_level_3 0
Core_0_L1I_acc_level_4 0
Core_0_L1I_acc_level_5 0
Core_0_L1I_acc_level_6 0
Core_0_L1I_acc_level_7 0
Core_0_L1I_acc_level_8 0
Core_0_L1I_acc_level_9 0

Core_0_L2C_total_access 65422659
Core_0_L2C_total_hit 27032105
Core_0_L2C_total_miss 38390554
Core_0_L2C_loads 50324838
Core_0_L2C_load_hit 12780490
Core_0_L2C_load_miss 37544348
Core_0_L2C_RFOs 1894111
Core_0_L2C_RFO_hit 1062932
Core_0_L2C_RFO_miss 831179
Core_0_L2C_prefetches 820404
Core_0_L2C_prefetch_hit 808877
Core_0_L2C_prefetch_miss 11527
Core_0_L2C_writebacks 12383306
Core_0_L2C_writeback_hit 12379806
Core_0_L2C_writeback_miss 3500
Core_0_L2C_prefetch_requested 6657015
Core_0_L2C_prefetch_dropped 0
Core_0_L2C_prefetch_issued 6657015
Core_0_L2C_prefetch_filled 14359
Core_0_L2C_prefetch_useful 944
Core_0_L2C_prefetch_useless 13411
Core_0_L2C_prefetch_late 97
Core_0_L2C_average_miss_latency 236.86074

Core_0_L2C_rq_access 52219968
Core_0_L2C_rq_forward 0
Core_0_L2C_rq_merged 0
Core_0_L2C_rq_to_cache 52218949
Core_0_L2C_rq_full 0

Core_0_L2C_wq_access 12383306
Core_0_L2C_wq_forward 1048
Core_0_L2C_wq_merged 0
Core_0_L2C_wq_to_cache 12383306
Core_0_L2C_wq_full 0

Core_0_L2C_pq_access 6657015
Core_0_L2C_pq_forward 0
Core_0_L2C_pq_merged 30451
Core_0_L2C_pq_to_cache 6626535
Core_0_L2C_pq_full 0

Core_0_L2C_acc_epochs 4454260
Core_0_L2C_acc_level_0 4453203
Core_0_L2C_acc_level_1 355
Core_0_L2C_acc_level_2 354
Core_0_L2C_acc_level_3 4
Core_0_L2C_acc_level_4 0
Core_0_L2C_acc_level_5 342
Core_0_L2C_acc_level_6 2
Core_0_L2C_acc_level_7 0
Core_0_L2C_acc_level_8 0
Core_0_L2C_acc_level_9 0

Core_0_LLC_total_access 50282527
Core_0_LLC_total_hit 19780920
Core_0_LLC_total_miss 30501607
Core_0_LLC_loads 37544147
Core_0_LLC_load_hit 12853473
Core_0_LLC_load_miss 24690674
Core_0_LLC_RFOs 831178
Core_0_LLC_RFO_hit 356536
Core_0_LLC_RFO_miss 474642
Core_0_LLC_prefetches 3331872
Core_0_LLC_prefetch_hit 1269590
Core_0_LLC_prefetch_miss 2062282
Core_0_LLC_writebacks 8575330
Core_0_LLC_writeback_hit 5301321
Core_0_LLC_writeback_miss 3274009
Core_0_LLC_prefetch_requested 0
Core_0_LLC_prefetch_dropped 0
Core_0_LLC_prefetch_issued 0
Core_0_LLC_prefetch_filled 2527853
Core_0_LLC_prefetch_useful 451034
Core_0_LLC_prefetch_useless 2076182
Core_0_LLC_prefetch_late 8863
Core_0_LLC_average_miss_latency 271.82243

Core_0_LLC_rq_access 38375483
Core_0_LLC_rq_forward 0
Core_0_LLC_rq_merged 0
Core_0_LLC_rq_to_cache 38375325
Core_0_LLC_rq_full 0

Core_0_LLC_wq_access 8575330
Core_0_LLC_wq_forward 159
Core_0_LLC_wq_merged 0
Core_0_LLC_wq_to_cache 8575330
Core_0_LLC_wq_full 0

Core_0_LLC_pq_access 4111023
Core_0_LLC_pq_forward 0
Core_0_LLC_pq_merged 7
Core_0_LLC_pq_to_cache 4111015
Core_0_LLC_pq_full 0

Core_0_LLC_acc_epochs 4982901
Core_0_LLC_acc_level_0 4541666
Core_0_LLC_acc_level_1 149417
Core_0_LLC_acc_level_2 127194
Core_0_LLC_acc_level_3 25890
Core_0_LLC_acc_level_4 6110
Core_0_LLC_acc_level_5 96706
Core_0_LLC_acc_level_6 11530
Core_0_LLC_acc_level_7 8032
Core_0_LLC_acc_level_8 2728
Core_0_LLC_acc_level_9 13628

Core_0_major_page_fault 0
Core_0_minor_page_fault 158560

spp.pref.total 6657015
spp.pref.at_L2 29620
spp.pref.at_LLC 6627395

spp.depth.max 5
spp.depth.min 0
spp.depth.avg 0

spp.breadth.max 2
spp.breadth.min 0
spp.breadth.avg 0

delta_1 5819155
delta_-2 679072
delta_-1 563733
delta_33 25310
delta_2 15863
delta_5 5448
delta_-4 4562
delta_9 3781
delta_-3 3306
delta_-30 3190
delta_-16 3186
delta_-10 2776
delta_-7 2759
delta_-9 2674
delta_6 2459
delta_4 2371
delta_-15 2058
delta_-28 1932
delta_13 1884
delta_3 1867
delta_23 1821
delta_11 1713
delta_-8 1685
delta_-19 1517
delta_-33 1474
delta_-5 1447
delta_-13 1256
delta_7 1201
delta_20 1159
delta_14 1128
delta_26 1025
delta_10 998
delta_-6 969
delta_-26 905
delta_15 896
delta_35 878
delta_-21 875
delta_-12 863
delta_8 838
delta_-23 816
delta_31 803
delta_-29 768
delta_21 768
delta_-25 767
delta_24 762
delta_19 755
delta_16 739
delta_-35 718
delta_12 688
delta_-18 685
delta_-37 676
delta_-22 664
delta_-32 630
delta_27 617
delta_22 591
delta_29 580
delta_-27 570
delta_-31 556
delta_-20 541
delta_-11 529
delta_-17 522
delta_-14 519
delta_17 496
delta_-42 488
delta_-34 447
delta_36 445
delta_30 440
delta_18 419
delta_25 415
delta_-24 409
delta_42 373
delta_32 362
delta_39 355
delta_53 350
delta_49 341
delta_34 335
delta_28 304
delta_-49 300
delta_-38 256
delta_50 230
delta_38 230
delta_-44 227
delta_-39 226
delta_41 205
delta_-47 189
delta_-40 186
delta_-53 175
delta_45 175
delta_-50 168
delta_-55 167
delta_51 167
delta_46 165
delta_48 162
delta_40 158
delta_-54 150
delta_52 149
delta_57 148
delta_-36 134
delta_-41 129
delta_-45 128
delta_-43 116
delta_-46 111
delta_44 96
delta_37 81
delta_43 79
delta_-58 78
delta_-57 72
delta_62 61
delta_54 56
delta_-48 40
delta_-61 32
delta_-56 30
delta_-60 25
delta_47 24
delta_59 20
delta_58 19
delta_-51 18
delta_-59 16
delta_-52 16
delta_60 3
delta_55 1

depth_1_delta_1 5765393
depth_1_delta_-2 673543
depth_1_delta_-1 557830
depth_1_delta_33 25310
depth_1_delta_2 15106
depth_1_delta_5 5354
depth_1_delta_-4 4345
depth_1_delta_-3 3272
depth_1_delta_9 3178
depth_1_delta_-16 2817
depth_1_delta_-7 2483
depth_1_delta_-30 2462
depth_1_delta_4 2367
depth_1_delta_6 2356
depth_1_delta_-10 2353
depth_1_delta_-9 2348
depth_1_delta_-28 1919
depth_1_delta_-15 1818
depth_1_delta_23 1816
depth_1_delta_13 1798
depth_1_delta_3 1791
depth_1_delta_-8 1651
depth_1_delta_11 1648
depth_1_delta_-19 1513
depth_1_delta_-33 1457
depth_1_delta_-5 1447
depth_1_delta_-13 1254
depth_1_delta_7 1193
depth_1_delta_14 1117
depth_1_delta_20 1019
depth_1_delta_10 998
depth_1_delta_26 995
depth_1_delta_-6 952
depth_1_delta_-26 904
depth_1_delta_-12 842
depth_1_delta_35 841
depth_1_delta_15 835
depth_1_delta_8 829
depth_1_delta_-23 816
depth_1_delta_31 803
depth_1_delta_-21 777
depth_1_delta_-29 767
depth_1_delta_21 760
depth_1_delta_24 757
depth_1_delta_19 755
depth_1_delta_-25 753
depth_1_delta_16 738
depth_1_delta_-37 676
depth_1_delta_-18 671
depth_1_delta_12 665
depth_1_delta_-22 629
depth_1_delta_-32 623
depth_1_delta_-35 598
depth_1_delta_29 580
depth_1_delta_22 572
depth_1_delta_-31 556
depth_1_delta_27 555
depth_1_delta_-27 547
depth_1_delta_-20 541
depth_1_delta_-11 529
depth_1_delta_-17 522
depth_1_delta_-14 518
depth_1_delta_17 490
depth_1_delta_-42 488
depth_1_delta_-34 447
depth_1_delta_30 440
depth_1_delta_18 419
depth_1_delta_25 412
depth_1_delta_-24 409
depth_1_delta_36 404
depth_1_delta_32 359
depth_1_delta_39 354
depth_1_delta_53 349
depth_1_delta_34 335
depth_1_delta_42 324
depth_1_delta_49 310
depth_1_delta_28 304
depth_1_delta_-49 300
depth_1_delta_-38 256
depth_1_delta_50 230
depth_1_delta_38 230
depth_1_delta_-39 226
depth_1_delta_-44 224
depth_1_delta_41 205
depth_1_delta_-47 189
depth_1_delta_-40 186
depth_1_delta_45 175
depth_1_delta_-53 175
depth_1_delta_-55 167
depth_1_delta_46 163
depth_1_delta_48 162
depth_1_delta_40 158
depth_1_delta_51 157
depth_1_delta_52 149
depth_1_delta_-50 149
depth_1_delta_57 148
depth_1_delta_-54 133
depth_1_delta_-36 131
depth_1_delta_-41 129
depth_1_delta_-45 123
depth_1_delta_-43 116
depth_1_delta_44 96
depth_1_delta_-46 88
depth_1_delta_43 79
depth_1_delta_-58 78
depth_1_delta_37 75
depth_1_delta_-57 72
depth_1_delta_62 61
depth_1_delta_54 56
depth_1_delta_-48 40
depth_1_delta_-61 32
depth_1_delta_-56 30
depth_1_delta_-60 25
depth_1_delta_47 24
depth_1_delta_59 20
depth_1_delta_58 19
depth_1_delta_-51 18
depth_1_delta_-59 16
depth_1_delta_-52 16
depth_1_delta_60 3
depth_1_delta_55 1
depth_2_delta_1 52906
depth_2_delta_-1 5846
depth_2_delta_-2 5510
depth_2_delta_2 748
depth_2_delta_-30 672
depth_2_delta_9 603
depth_2_delta_-10 423
depth_2_delta_-16 365
depth_2_delta_-9 326
depth_2_delta_-7 276
depth_2_delta_-15 240
depth_2_delta_-4 217
depth_2_delta_20 140
depth_2_delta_-35 120
depth_2_delta_-21 98
depth_2_delta_6 96
depth_2_delta_5 94
depth_2_delta_13 86
depth_2_delta_3 76
depth_2_delta_11 65
depth_2_delta_27 62
depth_2_delta_15 61
depth_2_delta_42 49
depth_2_delta_36 41
depth_2_delta_35 37
depth_2_delta_-22 35
depth_2_delta_-8 34
depth_2_delta_49 31
depth_2_delta_-3 31
depth_2_delta_26 30
depth_2_delta_-27 23
depth_2_delta_12 23
depth_2_delta_-46 23
depth_2_delta_-12 21
depth_2_delta_-50 19
depth_2_delta_22 19
depth_2_delta_-6 17
depth_2_delta_-33 17
depth_2_delta_-54 17
depth_2_delta_-25 14
depth_2_delta_-18 14
depth_2_delta_-28 13
depth_2_delta_14 11
depth_2_delta_51 10
depth_2_delta_8 9
depth_2_delta_21 8
depth_2_delta_7 8
depth_2_delta_-32 7
depth_2_delta_37 6
depth_2_delta_17 6
depth_2_delta_23 5
depth_2_delta_24 5
depth_2_delta_-45 5
depth_2_delta_4 4
depth_2_delta_-19 4
depth_2_delta_25 3
depth_2_delta_32 3
depth_2_delta_-44 3
depth_2_delta_-36 3
depth_2_delta_46 2
depth_2_delta_-13 2
depth_2_delta_-26 1
depth_2_delta_16 1
depth_2_delta_53 1
depth_2_delta_-14 1
depth_2_delta_39 1
depth_2_delta_-29 1
depth_3_delta_1 786
depth_3_delta_-1 57
depth_3_delta_-30 56
depth_3_delta_-2 19
depth_3_delta_2 9
depth_3_delta_6 7
depth_3_delta_-16 4
depth_3_delta_-3 3
depth_4_delta_1 65
depth_5_delta_1 5

Channel_0_RQ_row_buffer_hit 425039
Channel_0_RQ_row_buffer_miss 26801069
Channel_0_WQ_row_buffer_hit 1669270
Channel_0_WQ_row_buffer_miss 4603779
Channel_0_WQ_full 0
Channel_0_dbus_congested 4941712

avg_congested_cycle 1

DRAM_bw_pochs 19931601
DRAM_bw_level_0 19931601
DRAM_bw_level_1 0
DRAM_bw_level_2 0
DRAM_bw_level_3 0
