*************************************************
   ChampSim Multicore Out-of-Order Simulator
   Last compiled: Dec 11 2024 17:59:53
*************************************************
parsing config file: /home/functionmain/桌面/Pythia/config/mlop.ini

trace_0 /home/functionmain/桌面/Pythia/traces/429.mcf-51B.champsimtrace.xz
adding L2C_PREFETCHER: MLOP
Initialize SHIP state
warmup_instructions 100000000
simulation_instructions 500000000
champsim_seed 168
measure_ipc 0
measure_ipc_epoch 1000
measure_dram_bw 1
measure_dram_bw_epoch 256
measure_cache_acc 1
measure_cache_acc_epoch 1024
l1d_perfect 0
l2c_perfect 0
llc_perfect 0
l1d_semi_perfect 0
l2c_semi_perfect 0
llc_semi_perfect 0
semi_perfect_cache_page_buffer_size 64

num_cpus 1
cpu_freq 4000
dram_io_freq 4800
page_size 4096
block_size 64
max_read_per_cycle 8
max_fill_per_cycle 1
dram_channels 1
log2_dram_channels 0
dram_ranks 1
dram_banks 8
dram_rows 65536
dram_columns 128
dram_row_size 8
dram_size 4096
dram_pages 1048576

fetch_width 6
decode_width 6
exec_width 4
lq_width 2
sq_width 2
retire_width 4
scheduler_size 128
branch_mispredict_penalty 20
rob_size 256
lq_size 72
sq_size 56
num_instr_destinations_sparc 4
num_instr_destinations 2
num_instr_sources 4

itlb_set 16
itlb_way 8
itlb_rq_size 16
itlb_wq_size 16
itlb_pq_size 0
itlb_mshr_size 8
itlb_latency 1

dtlb_set 16
dtlb_way 4
dtlb_rq_size 16
dtlb_wq_size 16
dtlb_pq_size 0
dtlb_mshr_size 8
dtlb_latency 1

stlb_set 128
stlb_way 12
stlb_rq_size 32
stlb_wq_size 32
stlb_pq_size 0
stlb_mshr_size 16
stlb_latency 8

l1i_size 32
l1i_set 64
l1i_way 8
l1i_rq_size 64
l1i_wq_size 64
l1i_pq_size 8
l1i_mshr_size 8
l1i_latency 1

l1d_size 32
l1d_set 64
l1d_way 8
l1d_rq_size 64
l1d_wq_size 64
l1d_pq_size 8
l1d_mshr_size 16
l1d_latency 4

l2c_size 256
l2c_set 512
l2c_way 8
l2c_rq_size 32
l2c_wq_size 32
l2c_pq_size 32
l2c_mshr_size 32
l2c_latency 10

llc_size 2048
llc_set 2048
llc_way 16
llc_rq_size 32
llc_wq_size 32
llc_pq_size 32
llc_mshr_size 64
llc_latency 20

dram_channel_width 8
dram_wq_size 64
dram_rq_size 64
tRP 15
tRCD 15
tCAS 12.5
dram_dbus_turn_around_time 30
dram_write_high_wm 56
dram_write_low_wm 48
min_dram_writes_per_switch 16
dram_mtps 4800
dram_dbus_return_time 6

mlop_pref_degree 16
mlop_num_updates 500
mlop_l1d_thresh 2
mlop_l2c_thresh 0.75
mlop_llc_thresh 0.3
mlop_debug_level 0
mlop_blocks_in_cache 4096
mlop_blocks_in_zone 64
mlop_amt_size 2048
mlop_PF_DEGREE 16
mlop_NUM_UPDATES 500
mlop_L1D_THRESH 1000
mlop_L2C_THRESH 375
mlop_LLC_THRESH 150
mlop_ORIGIN 63
mlop_MAX_OFFSET 63
mlop_MIN_OFFSET -63
mlop_ORIGIN 63
mlop_NUM_OFFSETS 127


Heartbeat CPU  0 instructions:    1000003 cycles:     854260 heartbeat IPC: 1.17061 cumulative IPC: 1.17061 (Simulation time: 0 hr 0 min 2 sec) 
Heartbeat CPU  0 instructions:    2000000 cycles:    1632914 heartbeat IPC: 1.28426 cumulative IPC: 1.22480 (Simulation time: 0 hr 0 min 4 sec) 
Heartbeat CPU  0 instructions:    3000002 cycles:    2424148 heartbeat IPC: 1.26385 cumulative IPC: 1.23755 (Simulation time: 0 hr 0 min 6 sec) 
Heartbeat CPU  0 instructions:    4000000 cycles:    3243315 heartbeat IPC: 1.22075 cumulative IPC: 1.23331 (Simulation time: 0 hr 0 min 8 sec) 
Heartbeat CPU  0 instructions:    5000002 cycles:    4025747 heartbeat IPC: 1.27807 cumulative IPC: 1.24201 (Simulation time: 0 hr 0 min 9 sec) 
Heartbeat CPU  0 instructions:    6000001 cycles:    4798090 heartbeat IPC: 1.29476 cumulative IPC: 1.25050 (Simulation time: 0 hr 0 min 11 sec) 
Heartbeat CPU  0 instructions:    7000000 cycles:    5575486 heartbeat IPC: 1.28634 cumulative IPC: 1.25550 (Simulation time: 0 hr 0 min 13 sec) 
Heartbeat CPU  0 instructions:    8000000 cycles:    6423861 heartbeat IPC: 1.17872 cumulative IPC: 1.24536 (Simulation time: 0 hr 0 min 14 sec) 
Heartbeat CPU  0 instructions:    9000001 cycles:    7217760 heartbeat IPC: 1.25961 cumulative IPC: 1.24692 (Simulation time: 0 hr 0 min 16 sec) 
Heartbeat CPU  0 instructions:   10000000 cycles:    8021977 heartbeat IPC: 1.24344 cumulative IPC: 1.24658 (Simulation time: 0 hr 0 min 18 sec) 
Heartbeat CPU  0 instructions:   11000002 cycles:    8869744 heartbeat IPC: 1.17957 cumulative IPC: 1.24017 (Simulation time: 0 hr 0 min 20 sec) 
Heartbeat CPU  0 instructions:   12000000 cycles:    9720864 heartbeat IPC: 1.17492 cumulative IPC: 1.23446 (Simulation time: 0 hr 0 min 21 sec) 
Heartbeat CPU  0 instructions:   13000000 cycles:   10534230 heartbeat IPC: 1.22946 cumulative IPC: 1.23407 (Simulation time: 0 hr 0 min 23 sec) 
Heartbeat CPU  0 instructions:   14000002 cycles:   11305067 heartbeat IPC: 1.29729 cumulative IPC: 1.23838 (Simulation time: 0 hr 0 min 25 sec) 
Heartbeat CPU  0 instructions:   15000001 cycles:   12079200 heartbeat IPC: 1.29177 cumulative IPC: 1.24180 (Simulation time: 0 hr 0 min 26 sec) 
Heartbeat CPU  0 instructions:   16000000 cycles:   12871050 heartbeat IPC: 1.26286 cumulative IPC: 1.24310 (Simulation time: 0 hr 0 min 28 sec) 
Heartbeat CPU  0 instructions:   17000000 cycles:   13678717 heartbeat IPC: 1.23813 cumulative IPC: 1.24281 (Simulation time: 0 hr 0 min 30 sec) 
Heartbeat CPU  0 instructions:   18000002 cycles:   14453924 heartbeat IPC: 1.28998 cumulative IPC: 1.24534 (Simulation time: 0 hr 0 min 32 sec) 
Heartbeat CPU  0 instructions:   19000000 cycles:   15277004 heartbeat IPC: 1.21495 cumulative IPC: 1.24370 (Simulation time: 0 hr 0 min 34 sec) 
Heartbeat CPU  0 instructions:   20000000 cycles:   16119112 heartbeat IPC: 1.18750 cumulative IPC: 1.24076 (Simulation time: 0 hr 0 min 36 sec) 
Heartbeat CPU  0 instructions:   21000001 cycles:   16918953 heartbeat IPC: 1.25025 cumulative IPC: 1.24121 (Simulation time: 0 hr 0 min 39 sec) 
Heartbeat CPU  0 instructions:   22000000 cycles:   17709682 heartbeat IPC: 1.26465 cumulative IPC: 1.24226 (Simulation time: 0 hr 0 min 41 sec) 
Heartbeat CPU  0 instructions:   23000001 cycles:   18517385 heartbeat IPC: 1.23808 cumulative IPC: 1.24208 (Simulation time: 0 hr 0 min 43 sec) 
Heartbeat CPU  0 instructions:   24000000 cycles:   19312333 heartbeat IPC: 1.25794 cumulative IPC: 1.24273 (Simulation time: 0 hr 0 min 45 sec) 
Heartbeat CPU  0 instructions:   25000003 cycles:   20118604 heartbeat IPC: 1.24028 cumulative IPC: 1.24263 (Simulation time: 0 hr 0 min 47 sec) 
Heartbeat CPU  0 instructions:   26000002 cycles:   20922824 heartbeat IPC: 1.24344 cumulative IPC: 1.24266 (Simulation time: 0 hr 0 min 49 sec) 
Heartbeat CPU  0 instructions:   27000000 cycles:   21736680 heartbeat IPC: 1.22872 cumulative IPC: 1.24214 (Simulation time: 0 hr 0 min 51 sec) 
Heartbeat CPU  0 instructions:   28000000 cycles:   22582538 heartbeat IPC: 1.18223 cumulative IPC: 1.23990 (Simulation time: 0 hr 0 min 53 sec) 
Heartbeat CPU  0 instructions:   29000000 cycles:   23360563 heartbeat IPC: 1.28531 cumulative IPC: 1.24141 (Simulation time: 0 hr 0 min 55 sec) 
Heartbeat CPU  0 instructions:   30000000 cycles:   24181482 heartbeat IPC: 1.21815 cumulative IPC: 1.24062 (Simulation time: 0 hr 0 min 57 sec) 
Heartbeat CPU  0 instructions:   31000002 cycles:   25040572 heartbeat IPC: 1.16402 cumulative IPC: 1.23799 (Simulation time: 0 hr 0 min 59 sec) 
Heartbeat CPU  0 instructions:   32000000 cycles:   25903505 heartbeat IPC: 1.15884 cumulative IPC: 1.23535 (Simulation time: 0 hr 1 min 1 sec) 
Heartbeat CPU  0 instructions:   33000002 cycles:   26665375 heartbeat IPC: 1.31256 cumulative IPC: 1.23756 (Simulation time: 0 hr 1 min 3 sec) 
Heartbeat CPU  0 instructions:   34000003 cycles:   27525957 heartbeat IPC: 1.16201 cumulative IPC: 1.23520 (Simulation time: 0 hr 1 min 5 sec) 
Heartbeat CPU  0 instructions:   35000001 cycles:   28383656 heartbeat IPC: 1.16591 cumulative IPC: 1.23310 (Simulation time: 0 hr 1 min 7 sec) 
Heartbeat CPU  0 instructions:   36000000 cycles:   29208140 heartbeat IPC: 1.21288 cumulative IPC: 1.23253 (Simulation time: 0 hr 1 min 9 sec) 
Heartbeat CPU  0 instructions:   37000003 cycles:   29983672 heartbeat IPC: 1.28944 cumulative IPC: 1.23401 (Simulation time: 0 hr 1 min 11 sec) 
Heartbeat CPU  0 instructions:   38000003 cycles:   30789238 heartbeat IPC: 1.24136 cumulative IPC: 1.23420 (Simulation time: 0 hr 1 min 13 sec) 
Heartbeat CPU  0 instructions:   39000000 cycles:   31509259 heartbeat IPC: 1.38884 cumulative IPC: 1.23773 (Simulation time: 0 hr 1 min 14 sec) 
Heartbeat CPU  0 instructions:   40000000 cycles:   32216280 heartbeat IPC: 1.41439 cumulative IPC: 1.24161 (Simulation time: 0 hr 1 min 16 sec) 
Heartbeat CPU  0 instructions:   41000003 cycles:   32972197 heartbeat IPC: 1.32290 cumulative IPC: 1.24347 (Simulation time: 0 hr 1 min 18 sec) 
Heartbeat CPU  0 instructions:   42000001 cycles:   33652539 heartbeat IPC: 1.46985 cumulative IPC: 1.24805 (Simulation time: 0 hr 1 min 21 sec) 
Heartbeat CPU  0 instructions:   43000000 cycles:   34342576 heartbeat IPC: 1.44920 cumulative IPC: 1.25209 (Simulation time: 0 hr 1 min 23 sec) 
Heartbeat CPU  0 instructions:   44000000 cycles:   35091955 heartbeat IPC: 1.33444 cumulative IPC: 1.25385 (Simulation time: 0 hr 1 min 24 sec) 
Heartbeat CPU  0 instructions:   45000000 cycles:   35949509 heartbeat IPC: 1.16611 cumulative IPC: 1.25176 (Simulation time: 0 hr 1 min 27 sec) 
Heartbeat CPU  0 instructions:   46000000 cycles:   36903790 heartbeat IPC: 1.04791 cumulative IPC: 1.24648 (Simulation time: 0 hr 1 min 28 sec) 
Heartbeat CPU  0 instructions:   47000001 cycles:   37929893 heartbeat IPC: 0.97456 cumulative IPC: 1.23913 (Simulation time: 0 hr 1 min 30 sec) 
Heartbeat CPU  0 instructions:   48000000 cycles:   38925679 heartbeat IPC: 1.00423 cumulative IPC: 1.23312 (Simulation time: 0 hr 1 min 32 sec) 
Heartbeat CPU  0 instructions:   49000001 cycles:   39819020 heartbeat IPC: 1.11939 cumulative IPC: 1.23057 (Simulation time: 0 hr 1 min 34 sec) 
Heartbeat CPU  0 instructions:   50000001 cycles:   40675070 heartbeat IPC: 1.16816 cumulative IPC: 1.22925 (Simulation time: 0 hr 1 min 36 sec) 
Heartbeat CPU  0 instructions:   51000001 cycles:   41664173 heartbeat IPC: 1.01102 cumulative IPC: 1.22407 (Simulation time: 0 hr 1 min 37 sec) 
Heartbeat CPU  0 instructions:   52000000 cycles:   42607987 heartbeat IPC: 1.05953 cumulative IPC: 1.22043 (Simulation time: 0 hr 1 min 39 sec) 
Heartbeat CPU  0 instructions:   53000002 cycles:   43500908 heartbeat IPC: 1.11992 cumulative IPC: 1.21837 (Simulation time: 0 hr 1 min 40 sec) 
Heartbeat CPU  0 instructions:   54000002 cycles:   44296769 heartbeat IPC: 1.25650 cumulative IPC: 1.21905 (Simulation time: 0 hr 1 min 43 sec) 
Heartbeat CPU  0 instructions:   55000001 cycles:   45184032 heartbeat IPC: 1.12706 cumulative IPC: 1.21724 (Simulation time: 0 hr 1 min 44 sec) 
Heartbeat CPU  0 instructions:   56000000 cycles:   46148534 heartbeat IPC: 1.03680 cumulative IPC: 1.21347 (Simulation time: 0 hr 1 min 46 sec) 
Heartbeat CPU  0 instructions:   57000001 cycles:   46994103 heartbeat IPC: 1.18264 cumulative IPC: 1.21292 (Simulation time: 0 hr 1 min 48 sec) 
Heartbeat CPU  0 instructions:   58000000 cycles:   47819101 heartbeat IPC: 1.21212 cumulative IPC: 1.21290 (Simulation time: 0 hr 1 min 50 sec) 
Heartbeat CPU  0 instructions:   59000001 cycles:   48600441 heartbeat IPC: 1.27985 cumulative IPC: 1.21398 (Simulation time: 0 hr 1 min 52 sec) 
Heartbeat CPU  0 instructions:   60000000 cycles:   49421996 heartbeat IPC: 1.21720 cumulative IPC: 1.21403 (Simulation time: 0 hr 1 min 53 sec) 
Heartbeat CPU  0 instructions:   61000002 cycles:   50285074 heartbeat IPC: 1.15865 cumulative IPC: 1.21308 (Simulation time: 0 hr 1 min 55 sec) 
Heartbeat CPU  0 instructions:   62000000 cycles:   51100784 heartbeat IPC: 1.22592 cumulative IPC: 1.21329 (Simulation time: 0 hr 1 min 57 sec) 
Heartbeat CPU  0 instructions:   63000001 cycles:   51862326 heartbeat IPC: 1.31313 cumulative IPC: 1.21475 (Simulation time: 0 hr 1 min 59 sec) 
Heartbeat CPU  0 instructions:   64000000 cycles:   52652828 heartbeat IPC: 1.26502 cumulative IPC: 1.21551 (Simulation time: 0 hr 2 min 1 sec) 
Heartbeat CPU  0 instructions:   65000000 cycles:   53447520 heartbeat IPC: 1.25835 cumulative IPC: 1.21615 (Simulation time: 0 hr 2 min 3 sec) 
Heartbeat CPU  0 instructions:   66000002 cycles:   54240866 heartbeat IPC: 1.26049 cumulative IPC: 1.21679 (Simulation time: 0 hr 2 min 5 sec) 
Heartbeat CPU  0 instructions:   67000003 cycles:   55077471 heartbeat IPC: 1.19531 cumulative IPC: 1.21647 (Simulation time: 0 hr 2 min 7 sec) 
Heartbeat CPU  0 instructions:   68000000 cycles:   55995366 heartbeat IPC: 1.08945 cumulative IPC: 1.21439 (Simulation time: 0 hr 2 min 9 sec) 
Heartbeat CPU  0 instructions:   69000000 cycles:   56886189 heartbeat IPC: 1.12256 cumulative IPC: 1.21295 (Simulation time: 0 hr 2 min 11 sec) 
Heartbeat CPU  0 instructions:   70000001 cycles:   57744576 heartbeat IPC: 1.16498 cumulative IPC: 1.21224 (Simulation time: 0 hr 2 min 13 sec) 
Heartbeat CPU  0 instructions:   71000000 cycles:   58555535 heartbeat IPC: 1.23311 cumulative IPC: 1.21252 (Simulation time: 0 hr 2 min 15 sec) 
Heartbeat CPU  0 instructions:   72000000 cycles:   59484867 heartbeat IPC: 1.07604 cumulative IPC: 1.21039 (Simulation time: 0 hr 2 min 17 sec) 
Heartbeat CPU  0 instructions:   73000000 cycles:   60399082 heartbeat IPC: 1.09383 cumulative IPC: 1.20863 (Simulation time: 0 hr 2 min 18 sec) 
Heartbeat CPU  0 instructions:   74000000 cycles:   61251317 heartbeat IPC: 1.17339 cumulative IPC: 1.20814 (Simulation time: 0 hr 2 min 20 sec) 
Heartbeat CPU  0 instructions:   75000002 cycles:   62078758 heartbeat IPC: 1.20855 cumulative IPC: 1.20814 (Simulation time: 0 hr 2 min 22 sec) 
Heartbeat CPU  0 instructions:   76000000 cycles:   63003161 heartbeat IPC: 1.08178 cumulative IPC: 1.20629 (Simulation time: 0 hr 2 min 24 sec) 
Heartbeat CPU  0 instructions:   77000003 cycles:   63935750 heartbeat IPC: 1.07229 cumulative IPC: 1.20433 (Simulation time: 0 hr 2 min 25 sec) 
Heartbeat CPU  0 instructions:   78000000 cycles:   64777686 heartbeat IPC: 1.18774 cumulative IPC: 1.20412 (Simulation time: 0 hr 2 min 27 sec) 
Heartbeat CPU  0 instructions:   79000002 cycles:   65598331 heartbeat IPC: 1.21856 cumulative IPC: 1.20430 (Simulation time: 0 hr 2 min 29 sec) 
Heartbeat CPU  0 instructions:   80000000 cycles:   66472306 heartbeat IPC: 1.14420 cumulative IPC: 1.20351 (Simulation time: 0 hr 2 min 31 sec) 
Heartbeat CPU  0 instructions:   81000001 cycles:   67311447 heartbeat IPC: 1.19170 cumulative IPC: 1.20336 (Simulation time: 0 hr 2 min 32 sec) 
Heartbeat CPU  0 instructions:   82000000 cycles:   68335426 heartbeat IPC: 0.97658 cumulative IPC: 1.19996 (Simulation time: 0 hr 2 min 34 sec) 
Heartbeat CPU  0 instructions:   83000003 cycles:   69102632 heartbeat IPC: 1.30343 cumulative IPC: 1.20111 (Simulation time: 0 hr 2 min 36 sec) 
Heartbeat CPU  0 instructions:   84000000 cycles:   69888260 heartbeat IPC: 1.27286 cumulative IPC: 1.20192 (Simulation time: 0 hr 2 min 38 sec) 
Heartbeat CPU  0 instructions:   85000001 cycles:   70657316 heartbeat IPC: 1.30030 cumulative IPC: 1.20299 (Simulation time: 0 hr 2 min 39 sec) 
Heartbeat CPU  0 instructions:   86000002 cycles:   71431741 heartbeat IPC: 1.29128 cumulative IPC: 1.20395 (Simulation time: 0 hr 2 min 41 sec) 
Heartbeat CPU  0 instructions:   87000000 cycles:   72198397 heartbeat IPC: 1.30436 cumulative IPC: 1.20501 (Simulation time: 0 hr 2 min 43 sec) 
Heartbeat CPU  0 instructions:   88000000 cycles:   72960793 heartbeat IPC: 1.31165 cumulative IPC: 1.20613 (Simulation time: 0 hr 2 min 45 sec) 
Heartbeat CPU  0 instructions:   89000002 cycles:   73719169 heartbeat IPC: 1.31861 cumulative IPC: 1.20728 (Simulation time: 0 hr 2 min 46 sec) 
Heartbeat CPU  0 instructions:   90000001 cycles:   74487125 heartbeat IPC: 1.30216 cumulative IPC: 1.20826 (Simulation time: 0 hr 2 min 48 sec) 
Heartbeat CPU  0 instructions:   91000001 cycles:   75255354 heartbeat IPC: 1.30170 cumulative IPC: 1.20922 (Simulation time: 0 hr 2 min 50 sec) 
Heartbeat CPU  0 instructions:   92000000 cycles:   75996291 heartbeat IPC: 1.34964 cumulative IPC: 1.21059 (Simulation time: 0 hr 2 min 51 sec) 
Heartbeat CPU  0 instructions:   93000000 cycles:   76782015 heartbeat IPC: 1.27271 cumulative IPC: 1.21122 (Simulation time: 0 hr 2 min 53 sec) 
Heartbeat CPU  0 instructions:   94000001 cycles:   77663177 heartbeat IPC: 1.13487 cumulative IPC: 1.21035 (Simulation time: 0 hr 2 min 54 sec) 
Heartbeat CPU  0 instructions:   95000003 cycles:   78448719 heartbeat IPC: 1.27301 cumulative IPC: 1.21098 (Simulation time: 0 hr 2 min 57 sec) 
Heartbeat CPU  0 instructions:   96000000 cycles:   79281232 heartbeat IPC: 1.20118 cumulative IPC: 1.21088 (Simulation time: 0 hr 2 min 59 sec) 
Heartbeat CPU  0 instructions:   97000001 cycles:   80018019 heartbeat IPC: 1.35725 cumulative IPC: 1.21223 (Simulation time: 0 hr 3 min 0 sec) 
Heartbeat CPU  0 instructions:   98000000 cycles:   80733349 heartbeat IPC: 1.39795 cumulative IPC: 1.21387 (Simulation time: 0 hr 3 min 2 sec) 
Heartbeat CPU  0 instructions:   99000003 cycles:   81463258 heartbeat IPC: 1.37004 cumulative IPC: 1.21527 (Simulation time: 0 hr 3 min 4 sec) 
Heartbeat CPU  0 instructions:  100000000 cycles:   82198934 heartbeat IPC: 1.35929 cumulative IPC: 1.21656 (Simulation time: 0 hr 3 min 6 sec) 

Warmup complete CPU  0 instructions:  100000001 cycles:   82198935 (Simulation time: 0 hr 3 min 6 sec) 

Heartbeat CPU  0 instructions:  101000003 cycles:   99278244 heartbeat IPC: 0.05855 cumulative IPC: 0.05855 (Simulation time: 0 hr 3 min 13 sec) 
Heartbeat CPU  0 instructions:  102000002 cycles:  105498611 heartbeat IPC: 0.16076 cumulative IPC: 0.08584 (Simulation time: 0 hr 3 min 17 sec) 
Heartbeat CPU  0 instructions:  103000002 cycles:  110502960 heartbeat IPC: 0.19983 cumulative IPC: 0.10599 (Simulation time: 0 hr 3 min 20 sec) 
Heartbeat CPU  0 instructions:  104000000 cycles:  126428487 heartbeat IPC: 0.06279 cumulative IPC: 0.09044 (Simulation time: 0 hr 3 min 27 sec) 
Heartbeat CPU  0 instructions:  105000003 cycles:  135385132 heartbeat IPC: 0.11165 cumulative IPC: 0.09401 (Simulation time: 0 hr 3 min 32 sec) 
Heartbeat CPU  0 instructions:  106000002 cycles:  141798157 heartbeat IPC: 0.15593 cumulative IPC: 0.10067 (Simulation time: 0 hr 3 min 36 sec) 
Heartbeat CPU  0 instructions:  107000000 cycles:  147056026 heartbeat IPC: 0.19019 cumulative IPC: 0.10793 (Simulation time: 0 hr 3 min 40 sec) 
Heartbeat CPU  0 instructions:  108000000 cycles:  160346741 heartbeat IPC: 0.07524 cumulative IPC: 0.10237 (Simulation time: 0 hr 3 min 47 sec) 
Heartbeat CPU  0 instructions:  109000000 cycles:  171865976 heartbeat IPC: 0.08681 cumulative IPC: 0.10037 (Simulation time: 0 hr 3 min 53 sec) 
Heartbeat CPU  0 instructions:  110000000 cycles:  177503977 heartbeat IPC: 0.17737 cumulative IPC: 0.10493 (Simulation time: 0 hr 3 min 56 sec) 
Heartbeat CPU  0 instructions:  111000002 cycles:  183004259 heartbeat IPC: 0.18181 cumulative IPC: 0.10912 (Simulation time: 0 hr 4 min 1 sec) 
Heartbeat CPU  0 instructions:  112000000 cycles:  193323672 heartbeat IPC: 0.09690 cumulative IPC: 0.10799 (Simulation time: 0 hr 4 min 6 sec) 
Heartbeat CPU  0 instructions:  113000000 cycles:  207310561 heartbeat IPC: 0.07150 cumulative IPC: 0.10391 (Simulation time: 0 hr 4 min 12 sec) 
Heartbeat CPU  0 instructions:  114000003 cycles:  214037731 heartbeat IPC: 0.14865 cumulative IPC: 0.10619 (Simulation time: 0 hr 4 min 16 sec) 
Heartbeat CPU  0 instructions:  115000003 cycles:  219592101 heartbeat IPC: 0.18004 cumulative IPC: 0.10918 (Simulation time: 0 hr 4 min 19 sec) 
Heartbeat CPU  0 instructions:  116000000 cycles:  227078419 heartbeat IPC: 0.13358 cumulative IPC: 0.11044 (Simulation time: 0 hr 4 min 23 sec) 
Heartbeat CPU  0 instructions:  117000002 cycles:  243508475 heartbeat IPC: 0.06086 cumulative IPC: 0.10539 (Simulation time: 0 hr 4 min 31 sec) 
Heartbeat CPU  0 instructions:  118000001 cycles:  249760339 heartbeat IPC: 0.15995 cumulative IPC: 0.10742 (Simulation time: 0 hr 4 min 34 sec) 
Heartbeat CPU  0 instructions:  119000000 cycles:  262196503 heartbeat IPC: 0.08041 cumulative IPC: 0.10556 (Simulation time: 0 hr 4 min 40 sec) 
Heartbeat CPU  0 instructions:  120000000 cycles:  267532884 heartbeat IPC: 0.18739 cumulative IPC: 0.10791 (Simulation time: 0 hr 4 min 43 sec) 
Heartbeat CPU  0 instructions:  121000002 cycles:  281572795 heartbeat IPC: 0.07123 cumulative IPC: 0.10533 (Simulation time: 0 hr 4 min 49 sec) 
Heartbeat CPU  0 instructions:  122000000 cycles:  296165218 heartbeat IPC: 0.06853 cumulative IPC: 0.10282 (Simulation time: 0 hr 4 min 55 sec) 
Heartbeat CPU  0 instructions:  123000000 cycles:  302378944 heartbeat IPC: 0.16093 cumulative IPC: 0.10446 (Simulation time: 0 hr 4 min 59 sec) 
Heartbeat CPU  0 instructions:  124000000 cycles:  307697275 heartbeat IPC: 0.18803 cumulative IPC: 0.10643 (Simulation time: 0 hr 5 min 2 sec) 
Heartbeat CPU  0 instructions:  125000000 cycles:  316644217 heartbeat IPC: 0.11177 cumulative IPC: 0.10663 (Simulation time: 0 hr 5 min 6 sec) 
Heartbeat CPU  0 instructions:  126000000 cycles:  331801476 heartbeat IPC: 0.06597 cumulative IPC: 0.10417 (Simulation time: 0 hr 5 min 13 sec) 
Heartbeat CPU  0 instructions:  127000001 cycles:  338013044 heartbeat IPC: 0.16099 cumulative IPC: 0.10555 (Simulation time: 0 hr 5 min 17 sec) 
Heartbeat CPU  0 instructions:  128000000 cycles:  343622531 heartbeat IPC: 0.17827 cumulative IPC: 0.10711 (Simulation time: 0 hr 5 min 20 sec) 
Heartbeat CPU  0 instructions:  129000001 cycles:  351532928 heartbeat IPC: 0.12642 cumulative IPC: 0.10767 (Simulation time: 0 hr 5 min 24 sec) 
Heartbeat CPU  0 instructions:  130000003 cycles:  367591505 heartbeat IPC: 0.06227 cumulative IPC: 0.10512 (Simulation time: 0 hr 5 min 31 sec) 
Heartbeat CPU  0 instructions:  131000002 cycles:  375263782 heartbeat IPC: 0.13034 cumulative IPC: 0.10578 (Simulation time: 0 hr 5 min 35 sec) 
Heartbeat CPU  0 instructions:  132000000 cycles:  380527778 heartbeat IPC: 0.18997 cumulative IPC: 0.10726 (Simulation time: 0 hr 5 min 39 sec) 
Heartbeat CPU  0 instructions:  133000000 cycles:  385893722 heartbeat IPC: 0.18636 cumulative IPC: 0.10866 (Simulation time: 0 hr 5 min 42 sec) 
Heartbeat CPU  0 instructions:  134000001 cycles:  400665905 heartbeat IPC: 0.06769 cumulative IPC: 0.10676 (Simulation time: 0 hr 5 min 48 sec) 
Heartbeat CPU  0 instructions:  135000000 cycles:  410704933 heartbeat IPC: 0.09961 cumulative IPC: 0.10654 (Simulation time: 0 hr 5 min 55 sec) 
Heartbeat CPU  0 instructions:  136000000 cycles:  416115627 heartbeat IPC: 0.18482 cumulative IPC: 0.10781 (Simulation time: 0 hr 5 min 59 sec) 
Heartbeat CPU  0 instructions:  137000002 cycles:  421130242 heartbeat IPC: 0.19942 cumulative IPC: 0.10917 (Simulation time: 0 hr 6 min 3 sec) 
Heartbeat CPU  0 instructions:  138000001 cycles:  434002487 heartbeat IPC: 0.07769 cumulative IPC: 0.10801 (Simulation time: 0 hr 6 min 10 sec) 
Heartbeat CPU  0 instructions:  139000000 cycles:  445712943 heartbeat IPC: 0.08539 cumulative IPC: 0.10729 (Simulation time: 0 hr 6 min 16 sec) 
Heartbeat CPU  0 instructions:  140000000 cycles:  451225713 heartbeat IPC: 0.18140 cumulative IPC: 0.10839 (Simulation time: 0 hr 6 min 20 sec) 
Heartbeat CPU  0 instructions:  141000000 cycles:  456319534 heartbeat IPC: 0.19632 cumulative IPC: 0.10959 (Simulation time: 0 hr 6 min 23 sec) 
Heartbeat CPU  0 instructions:  142000001 cycles:  467929391 heartbeat IPC: 0.08613 cumulative IPC: 0.10888 (Simulation time: 0 hr 6 min 29 sec) 
Heartbeat CPU  0 instructions:  143000003 cycles:  480848121 heartbeat IPC: 0.07741 cumulative IPC: 0.10786 (Simulation time: 0 hr 6 min 35 sec) 
Heartbeat CPU  0 instructions:  144000000 cycles:  486531216 heartbeat IPC: 0.17596 cumulative IPC: 0.10882 (Simulation time: 0 hr 6 min 38 sec) 
Heartbeat CPU  0 instructions:  145000002 cycles:  491593472 heartbeat IPC: 0.19754 cumulative IPC: 0.10992 (Simulation time: 0 hr 6 min 42 sec) 
Heartbeat CPU  0 instructions:  146000000 cycles:  502001437 heartbeat IPC: 0.09608 cumulative IPC: 0.10958 (Simulation time: 0 hr 6 min 47 sec) 
Heartbeat CPU  0 instructions:  147000003 cycles:  515971335 heartbeat IPC: 0.07158 cumulative IPC: 0.10835 (Simulation time: 0 hr 6 min 54 sec) 
Heartbeat CPU  0 instructions:  148000000 cycles:  521665474 heartbeat IPC: 0.17562 cumulative IPC: 0.10922 (Simulation time: 0 hr 6 min 59 sec) 
Heartbeat CPU  0 instructions:  149000003 cycles:  526806816 heartbeat IPC: 0.19450 cumulative IPC: 0.11021 (Simulation time: 0 hr 7 min 3 sec) 
Heartbeat CPU  0 instructions:  150000002 cycles:  536309584 heartbeat IPC: 0.10523 cumulative IPC: 0.11011 (Simulation time: 0 hr 7 min 8 sec) 
Heartbeat CPU  0 instructions:  151000001 cycles:  551034345 heartbeat IPC: 0.06791 cumulative IPC: 0.10878 (Simulation time: 0 hr 7 min 15 sec) 
Heartbeat CPU  0 instructions:  152000000 cycles:  556995130 heartbeat IPC: 0.16776 cumulative IPC: 0.10952 (Simulation time: 0 hr 7 min 20 sec) 
Heartbeat CPU  0 instructions:  153000000 cycles:  562218299 heartbeat IPC: 0.19145 cumulative IPC: 0.11041 (Simulation time: 0 hr 7 min 23 sec) 
Heartbeat CPU  0 instructions:  154000000 cycles:  569427854 heartbeat IPC: 0.13870 cumulative IPC: 0.11083 (Simulation time: 0 hr 7 min 28 sec) 
Heartbeat CPU  0 instructions:  155000000 cycles:  586201118 heartbeat IPC: 0.05962 cumulative IPC: 0.10913 (Simulation time: 0 hr 7 min 36 sec) 
Heartbeat CPU  0 instructions:  156000000 cycles:  592516483 heartbeat IPC: 0.15834 cumulative IPC: 0.10974 (Simulation time: 0 hr 7 min 40 sec) 
Heartbeat CPU  0 instructions:  157000000 cycles:  601064373 heartbeat IPC: 0.11699 cumulative IPC: 0.10986 (Simulation time: 0 hr 7 min 44 sec) 
Heartbeat CPU  0 instructions:  158000001 cycles:  606850865 heartbeat IPC: 0.17282 cumulative IPC: 0.11055 (Simulation time: 0 hr 7 min 47 sec) 
Heartbeat CPU  0 instructions:  159000000 cycles:  620951022 heartbeat IPC: 0.07092 cumulative IPC: 0.10951 (Simulation time: 0 hr 7 min 54 sec) 
Heartbeat CPU  0 instructions:  160000000 cycles:  632392344 heartbeat IPC: 0.08740 cumulative IPC: 0.10905 (Simulation time: 0 hr 7 min 59 sec) 
Heartbeat CPU  0 instructions:  161000003 cycles:  638754615 heartbeat IPC: 0.15718 cumulative IPC: 0.10960 (Simulation time: 0 hr 8 min 2 sec) 
Heartbeat CPU  0 instructions:  162000000 cycles:  647536340 heartbeat IPC: 0.11387 cumulative IPC: 0.10967 (Simulation time: 0 hr 8 min 7 sec) 
Heartbeat CPU  0 instructions:  163000000 cycles:  657924177 heartbeat IPC: 0.09627 cumulative IPC: 0.10943 (Simulation time: 0 hr 8 min 12 sec) 
Heartbeat CPU  0 instructions:  164000000 cycles:  671741722 heartbeat IPC: 0.07237 cumulative IPC: 0.10856 (Simulation time: 0 hr 8 min 19 sec) 
Heartbeat CPU  0 instructions:  165000002 cycles:  682426872 heartbeat IPC: 0.09359 cumulative IPC: 0.10829 (Simulation time: 0 hr 8 min 25 sec) 
Heartbeat CPU  0 instructions:  166000003 cycles:  688593309 heartbeat IPC: 0.16217 cumulative IPC: 0.10884 (Simulation time: 0 hr 8 min 29 sec) 
Heartbeat CPU  0 instructions:  167000000 cycles:  697026274 heartbeat IPC: 0.11858 cumulative IPC: 0.10897 (Simulation time: 0 hr 8 min 33 sec) 
Heartbeat CPU  0 instructions:  168000000 cycles:  712660678 heartbeat IPC: 0.06396 cumulative IPC: 0.10786 (Simulation time: 0 hr 8 min 41 sec) 
Heartbeat CPU  0 instructions:  169000000 cycles:  718585151 heartbeat IPC: 0.16879 cumulative IPC: 0.10842 (Simulation time: 0 hr 8 min 45 sec) 
Heartbeat CPU  0 instructions:  170000000 cycles:  723782859 heartbeat IPC: 0.19239 cumulative IPC: 0.10910 (Simulation time: 0 hr 8 min 48 sec) 
Heartbeat CPU  0 instructions:  171000003 cycles:  734029095 heartbeat IPC: 0.09760 cumulative IPC: 0.10892 (Simulation time: 0 hr 8 min 54 sec) 
Heartbeat CPU  0 instructions:  172000000 cycles:  748185035 heartbeat IPC: 0.07064 cumulative IPC: 0.10811 (Simulation time: 0 hr 9 min 0 sec) 
Heartbeat CPU  0 instructions:  173000000 cycles:  755061496 heartbeat IPC: 0.14542 cumulative IPC: 0.10849 (Simulation time: 0 hr 9 min 4 sec) 
Heartbeat CPU  0 instructions:  174000002 cycles:  761610768 heartbeat IPC: 0.15269 cumulative IPC: 0.10892 (Simulation time: 0 hr 9 min 8 sec) 
Heartbeat CPU  0 instructions:  175000003 cycles:  770626651 heartbeat IPC: 0.11092 cumulative IPC: 0.10894 (Simulation time: 0 hr 9 min 12 sec) 
Heartbeat CPU  0 instructions:  176000000 cycles:  785759960 heartbeat IPC: 0.06608 cumulative IPC: 0.10802 (Simulation time: 0 hr 9 min 19 sec) 
Heartbeat CPU  0 instructions:  177000002 cycles:  791710504 heartbeat IPC: 0.16805 cumulative IPC: 0.10853 (Simulation time: 0 hr 9 min 23 sec) 
Heartbeat CPU  0 instructions:  178000001 cycles:  796898337 heartbeat IPC: 0.19276 cumulative IPC: 0.10914 (Simulation time: 0 hr 9 min 26 sec) 
Heartbeat CPU  0 instructions:  179000000 cycles:  807082932 heartbeat IPC: 0.09819 cumulative IPC: 0.10898 (Simulation time: 0 hr 9 min 31 sec) 
Heartbeat CPU  0 instructions:  180000000 cycles:  821172514 heartbeat IPC: 0.07097 cumulative IPC: 0.10826 (Simulation time: 0 hr 9 min 37 sec) 
Heartbeat CPU  0 instructions:  181000002 cycles:  826829794 heartbeat IPC: 0.17676 cumulative IPC: 0.10878 (Simulation time: 0 hr 9 min 40 sec) 
Heartbeat CPU  0 instructions:  182000000 cycles:  832478502 heartbeat IPC: 0.17703 cumulative IPC: 0.10929 (Simulation time: 0 hr 9 min 44 sec) 
Heartbeat CPU  0 instructions:  183000002 cycles:  841709099 heartbeat IPC: 0.10834 cumulative IPC: 0.10928 (Simulation time: 0 hr 9 min 48 sec) 
Heartbeat CPU  0 instructions:  184000000 cycles:  856730867 heartbeat IPC: 0.06657 cumulative IPC: 0.10845 (Simulation time: 0 hr 9 min 55 sec) 
Heartbeat CPU  0 instructions:  185000001 cycles:  862776700 heartbeat IPC: 0.16540 cumulative IPC: 0.10889 (Simulation time: 0 hr 9 min 59 sec) 
Heartbeat CPU  0 instructions:  186000000 cycles:  868243605 heartbeat IPC: 0.18292 cumulative IPC: 0.10941 (Simulation time: 0 hr 10 min 3 sec) 
Heartbeat CPU  0 instructions:  187000001 cycles:  875864669 heartbeat IPC: 0.13122 cumulative IPC: 0.10962 (Simulation time: 0 hr 10 min 7 sec) 
Heartbeat CPU  0 instructions:  188000000 cycles:  892363595 heartbeat IPC: 0.06061 cumulative IPC: 0.10862 (Simulation time: 0 hr 10 min 15 sec) 
Heartbeat CPU  0 instructions:  189000001 cycles:  898866495 heartbeat IPC: 0.15378 cumulative IPC: 0.10898 (Simulation time: 0 hr 10 min 19 sec) 
Heartbeat CPU  0 instructions:  190000001 cycles:  906225400 heartbeat IPC: 0.13589 cumulative IPC: 0.10922 (Simulation time: 0 hr 10 min 23 sec) 
Heartbeat CPU  0 instructions:  191000000 cycles:  914070175 heartbeat IPC: 0.12747 cumulative IPC: 0.10939 (Simulation time: 0 hr 10 min 27 sec) 
Heartbeat CPU  0 instructions:  192000000 cycles:  928651125 heartbeat IPC: 0.06858 cumulative IPC: 0.10869 (Simulation time: 0 hr 10 min 34 sec) 
Heartbeat CPU  0 instructions:  193000001 cycles:  938989105 heartbeat IPC: 0.09673 cumulative IPC: 0.10854 (Simulation time: 0 hr 10 min 39 sec) 
Heartbeat CPU  0 instructions:  194000000 cycles:  944582242 heartbeat IPC: 0.17879 cumulative IPC: 0.10900 (Simulation time: 0 hr 10 min 43 sec) 
Heartbeat CPU  0 instructions:  195000000 cycles:  950325371 heartbeat IPC: 0.17412 cumulative IPC: 0.10943 (Simulation time: 0 hr 10 min 46 sec) 
Heartbeat CPU  0 instructions:  196000000 cycles:  964190647 heartbeat IPC: 0.07212 cumulative IPC: 0.10884 (Simulation time: 0 hr 10 min 53 sec) 
Heartbeat CPU  0 instructions:  197000000 cycles:  974933817 heartbeat IPC: 0.09308 cumulative IPC: 0.10865 (Simulation time: 0 hr 10 min 59 sec) 
Heartbeat CPU  0 instructions:  198000000 cycles:  980326316 heartbeat IPC: 0.18544 cumulative IPC: 0.10912 (Simulation time: 0 hr 11 min 2 sec) 
Heartbeat CPU  0 instructions:  199000000 cycles:  985316299 heartbeat IPC: 0.20040 cumulative IPC: 0.10962 (Simulation time: 0 hr 11 min 6 sec) 
Heartbeat CPU  0 instructions:  200000000 cycles: 1002232330 heartbeat IPC: 0.05912 cumulative IPC: 0.10869 (Simulation time: 0 hr 11 min 13 sec) 
Heartbeat CPU  0 instructions:  201000001 cycles: 1010128775 heartbeat IPC: 0.12664 cumulative IPC: 0.10884 (Simulation time: 0 hr 11 min 18 sec) 
Heartbeat CPU  0 instructions:  202000003 cycles: 1015401215 heartbeat IPC: 0.18967 cumulative IPC: 0.10930 (Simulation time: 0 hr 11 min 21 sec) 
Heartbeat CPU  0 instructions:  203000003 cycles: 1022490175 heartbeat IPC: 0.14106 cumulative IPC: 0.10954 (Simulation time: 0 hr 11 min 25 sec) 
Heartbeat CPU  0 instructions:  204000000 cycles: 1038950677 heartbeat IPC: 0.06075 cumulative IPC: 0.10870 (Simulation time: 0 hr 11 min 32 sec) 
Heartbeat CPU  0 instructions:  205000000 cycles: 1045802003 heartbeat IPC: 0.14596 cumulative IPC: 0.10897 (Simulation time: 0 hr 11 min 37 sec) 
Heartbeat CPU  0 instructions:  206000002 cycles: 1052294936 heartbeat IPC: 0.15401 cumulative IPC: 0.10927 (Simulation time: 0 hr 11 min 41 sec) 
Heartbeat CPU  0 instructions:  207000002 cycles: 1060768302 heartbeat IPC: 0.11802 cumulative IPC: 0.10934 (Simulation time: 0 hr 11 min 45 sec) 
Heartbeat CPU  0 instructions:  208000000 cycles: 1076437073 heartbeat IPC: 0.06382 cumulative IPC: 0.10863 (Simulation time: 0 hr 11 min 52 sec) 
Heartbeat CPU  0 instructions:  209000002 cycles: 1082656755 heartbeat IPC: 0.16078 cumulative IPC: 0.10895 (Simulation time: 0 hr 11 min 56 sec) 
Heartbeat CPU  0 instructions:  210000002 cycles: 1089193452 heartbeat IPC: 0.15298 cumulative IPC: 0.10924 (Simulation time: 0 hr 11 min 59 sec) 
Heartbeat CPU  0 instructions:  211000000 cycles: 1100257223 heartbeat IPC: 0.09038 cumulative IPC: 0.10903 (Simulation time: 0 hr 12 min 4 sec) 
Heartbeat CPU  0 instructions:  212000000 cycles: 1114038737 heartbeat IPC: 0.07256 cumulative IPC: 0.10854 (Simulation time: 0 hr 12 min 11 sec) 
Heartbeat CPU  0 instructions:  213000002 cycles: 1120075206 heartbeat IPC: 0.16566 cumulative IPC: 0.10888 (Simulation time: 0 hr 12 min 14 sec) 
Heartbeat CPU  0 instructions:  214000001 cycles: 1126258539 heartbeat IPC: 0.16172 cumulative IPC: 0.10919 (Simulation time: 0 hr 12 min 18 sec) 
Heartbeat CPU  0 instructions:  215000000 cycles: 1139951082 heartbeat IPC: 0.07303 cumulative IPC: 0.10872 (Simulation time: 0 hr 12 min 23 sec) 
Heartbeat CPU  0 instructions:  216000000 cycles: 1152199433 heartbeat IPC: 0.08164 cumulative IPC: 0.10841 (Simulation time: 0 hr 12 min 29 sec) 
Heartbeat CPU  0 instructions:  217000000 cycles: 1160617851 heartbeat IPC: 0.11879 cumulative IPC: 0.10849 (Simulation time: 0 hr 12 min 33 sec) 
Heartbeat CPU  0 instructions:  218000001 cycles: 1166161014 heartbeat IPC: 0.18040 cumulative IPC: 0.10886 (Simulation time: 0 hr 12 min 37 sec) 
Heartbeat CPU  0 instructions:  219000003 cycles: 1179583558 heartbeat IPC: 0.07450 cumulative IPC: 0.10844 (Simulation time: 0 hr 12 min 44 sec) 
Heartbeat CPU  0 instructions:  220000000 cycles: 1191502661 heartbeat IPC: 0.08390 cumulative IPC: 0.10818 (Simulation time: 0 hr 12 min 51 sec) 
Heartbeat CPU  0 instructions:  221000003 cycles: 1197391807 heartbeat IPC: 0.16980 cumulative IPC: 0.10850 (Simulation time: 0 hr 12 min 55 sec) 
Heartbeat CPU  0 instructions:  222000002 cycles: 1202645371 heartbeat IPC: 0.19035 cumulative IPC: 0.10889 (Simulation time: 0 hr 12 min 59 sec) 
Heartbeat CPU  0 instructions:  223000001 cycles: 1220508009 heartbeat IPC: 0.05598 cumulative IPC: 0.10806 (Simulation time: 0 hr 13 min 8 sec) 
Heartbeat CPU  0 instructions:  224000000 cycles: 1227660759 heartbeat IPC: 0.13981 cumulative IPC: 0.10825 (Simulation time: 0 hr 13 min 13 sec) 
Heartbeat CPU  0 instructions:  225000000 cycles: 1232785531 heartbeat IPC: 0.19513 cumulative IPC: 0.10864 (Simulation time: 0 hr 13 min 17 sec) 
Heartbeat CPU  0 instructions:  226000003 cycles: 1241828942 heartbeat IPC: 0.11058 cumulative IPC: 0.10866 (Simulation time: 0 hr 13 min 23 sec) 
Heartbeat CPU  0 instructions:  227000001 cycles: 1257015343 heartbeat IPC: 0.06585 cumulative IPC: 0.10810 (Simulation time: 0 hr 13 min 31 sec) 
Heartbeat CPU  0 instructions:  228000000 cycles: 1262805785 heartbeat IPC: 0.17270 cumulative IPC: 0.10842 (Simulation time: 0 hr 13 min 34 sec) 
Heartbeat CPU  0 instructions:  229000000 cycles: 1268024888 heartbeat IPC: 0.19160 cumulative IPC: 0.10878 (Simulation time: 0 hr 13 min 38 sec) 
Heartbeat CPU  0 instructions:  230000002 cycles: 1281508321 heartbeat IPC: 0.07417 cumulative IPC: 0.10840 (Simulation time: 0 hr 13 min 44 sec) 
Heartbeat CPU  0 instructions:  231000001 cycles: 1292871750 heartbeat IPC: 0.08800 cumulative IPC: 0.10820 (Simulation time: 0 hr 13 min 50 sec) 
Heartbeat CPU  0 instructions:  232000000 cycles: 1298314418 heartbeat IPC: 0.18373 cumulative IPC: 0.10854 (Simulation time: 0 hr 13 min 54 sec) 
Heartbeat CPU  0 instructions:  233000002 cycles: 1304017823 heartbeat IPC: 0.17533 cumulative IPC: 0.10885 (Simulation time: 0 hr 13 min 59 sec) 
Heartbeat CPU  0 instructions:  234000000 cycles: 1321869014 heartbeat IPC: 0.05602 cumulative IPC: 0.10809 (Simulation time: 0 hr 14 min 8 sec) 
Heartbeat CPU  0 instructions:  235000000 cycles: 1329198828 heartbeat IPC: 0.13643 cumulative IPC: 0.10826 (Simulation time: 0 hr 14 min 13 sec) 
Heartbeat CPU  0 instructions:  236000000 cycles: 1335329947 heartbeat IPC: 0.16310 cumulative IPC: 0.10853 (Simulation time: 0 hr 14 min 18 sec) 
Heartbeat CPU  0 instructions:  237000003 cycles: 1343963787 heartbeat IPC: 0.11582 cumulative IPC: 0.10858 (Simulation time: 0 hr 14 min 23 sec) 
Heartbeat CPU  0 instructions:  238000003 cycles: 1359245562 heartbeat IPC: 0.06544 cumulative IPC: 0.10806 (Simulation time: 0 hr 14 min 29 sec) 
Heartbeat CPU  0 instructions:  239000000 cycles: 1364970772 heartbeat IPC: 0.17467 cumulative IPC: 0.10836 (Simulation time: 0 hr 14 min 33 sec) 
Heartbeat CPU  0 instructions:  240000000 cycles: 1369853948 heartbeat IPC: 0.20478 cumulative IPC: 0.10872 (Simulation time: 0 hr 14 min 36 sec) 
Heartbeat CPU  0 instructions:  241000001 cycles: 1382904418 heartbeat IPC: 0.07663 cumulative IPC: 0.10840 (Simulation time: 0 hr 14 min 42 sec) 
Heartbeat CPU  0 instructions:  242000000 cycles: 1395256182 heartbeat IPC: 0.08096 cumulative IPC: 0.10814 (Simulation time: 0 hr 14 min 48 sec) 
Heartbeat CPU  0 instructions:  243000003 cycles: 1409491842 heartbeat IPC: 0.07025 cumulative IPC: 0.10774 (Simulation time: 0 hr 14 min 55 sec) 
Heartbeat CPU  0 instructions:  244000000 cycles: 1414648419 heartbeat IPC: 0.19393 cumulative IPC: 0.10807 (Simulation time: 0 hr 14 min 58 sec) 
Heartbeat CPU  0 instructions:  245000003 cycles: 1424460644 heartbeat IPC: 0.10191 cumulative IPC: 0.10803 (Simulation time: 0 hr 15 min 3 sec) 
Heartbeat CPU  0 instructions:  246000001 cycles: 1438945131 heartbeat IPC: 0.06904 cumulative IPC: 0.10761 (Simulation time: 0 hr 15 min 10 sec) 
Heartbeat CPU  0 instructions:  247000000 cycles: 1444636925 heartbeat IPC: 0.17569 cumulative IPC: 0.10789 (Simulation time: 0 hr 15 min 14 sec) 
Heartbeat CPU  0 instructions:  248000000 cycles: 1449647446 heartbeat IPC: 0.19958 cumulative IPC: 0.10823 (Simulation time: 0 hr 15 min 18 sec) 
Heartbeat CPU  0 instructions:  249000000 cycles: 1463021185 heartbeat IPC: 0.07477 cumulative IPC: 0.10791 (Simulation time: 0 hr 15 min 24 sec) 
Heartbeat CPU  0 instructions:  250000003 cycles: 1474651356 heartbeat IPC: 0.08598 cumulative IPC: 0.10772 (Simulation time: 0 hr 15 min 29 sec) 
Heartbeat CPU  0 instructions:  251000002 cycles: 1480055641 heartbeat IPC: 0.18504 cumulative IPC: 0.10802 (Simulation time: 0 hr 15 min 33 sec) 
Heartbeat CPU  0 instructions:  252000000 cycles: 1485064064 heartbeat IPC: 0.19966 cumulative IPC: 0.10835 (Simulation time: 0 hr 15 min 37 sec) 
Heartbeat CPU  0 instructions:  253000002 cycles: 1502126305 heartbeat IPC: 0.05861 cumulative IPC: 0.10775 (Simulation time: 0 hr 15 min 44 sec) 
Heartbeat CPU  0 instructions:  254000000 cycles: 1509927789 heartbeat IPC: 0.12818 cumulative IPC: 0.10786 (Simulation time: 0 hr 15 min 49 sec) 
Heartbeat CPU  0 instructions:  255000000 cycles: 1520639828 heartbeat IPC: 0.09335 cumulative IPC: 0.10776 (Simulation time: 0 hr 15 min 54 sec) 
Heartbeat CPU  0 instructions:  256000000 cycles: 1537014721 heartbeat IPC: 0.06107 cumulative IPC: 0.10723 (Simulation time: 0 hr 16 min 1 sec) 
Heartbeat CPU  0 instructions:  257000000 cycles: 1548662762 heartbeat IPC: 0.08585 cumulative IPC: 0.10706 (Simulation time: 0 hr 16 min 6 sec) 
Heartbeat CPU  0 instructions:  258000002 cycles: 1564099165 heartbeat IPC: 0.06478 cumulative IPC: 0.10662 (Simulation time: 0 hr 16 min 13 sec) 
Heartbeat CPU  0 instructions:  259000002 cycles: 1571385131 heartbeat IPC: 0.13725 cumulative IPC: 0.10677 (Simulation time: 0 hr 16 min 18 sec) 
Heartbeat CPU  0 instructions:  260000000 cycles: 1577828001 heartbeat IPC: 0.15521 cumulative IPC: 0.10698 (Simulation time: 0 hr 16 min 22 sec) 
Heartbeat CPU  0 instructions:  261000002 cycles: 1588996165 heartbeat IPC: 0.08954 cumulative IPC: 0.10685 (Simulation time: 0 hr 16 min 27 sec) 
Heartbeat CPU  0 instructions:  262000002 cycles: 1603134611 heartbeat IPC: 0.07073 cumulative IPC: 0.10651 (Simulation time: 0 hr 16 min 34 sec) 
Heartbeat CPU  0 instructions:  263000002 cycles: 1608639855 heartbeat IPC: 0.18164 cumulative IPC: 0.10678 (Simulation time: 0 hr 16 min 37 sec) 
Heartbeat CPU  0 instructions:  264000000 cycles: 1613725218 heartbeat IPC: 0.19664 cumulative IPC: 0.10708 (Simulation time: 0 hr 16 min 41 sec) 
Heartbeat CPU  0 instructions:  265000002 cycles: 1627772104 heartbeat IPC: 0.07119 cumulative IPC: 0.10676 (Simulation time: 0 hr 16 min 47 sec) 
Heartbeat CPU  0 instructions:  266000000 cycles: 1641984261 heartbeat IPC: 0.07036 cumulative IPC: 0.10642 (Simulation time: 0 hr 16 min 53 sec) 
Heartbeat CPU  0 instructions:  267000001 cycles: 1651982900 heartbeat IPC: 0.10001 cumulative IPC: 0.10638 (Simulation time: 0 hr 16 min 58 sec) 
Heartbeat CPU  0 instructions:  268000000 cycles: 1656611729 heartbeat IPC: 0.21604 cumulative IPC: 0.10671 (Simulation time: 0 hr 17 min 2 sec) 
Heartbeat CPU  0 instructions:  269000002 cycles: 1666438747 heartbeat IPC: 0.10176 cumulative IPC: 0.10668 (Simulation time: 0 hr 17 min 7 sec) 
Heartbeat CPU  0 instructions:  270000001 cycles: 1680544648 heartbeat IPC: 0.07089 cumulative IPC: 0.10636 (Simulation time: 0 hr 17 min 13 sec) 
Heartbeat CPU  0 instructions:  271000002 cycles: 1690073104 heartbeat IPC: 0.10495 cumulative IPC: 0.10635 (Simulation time: 0 hr 17 min 18 sec) 
Heartbeat CPU  0 instructions:  272000000 cycles: 1699410680 heartbeat IPC: 0.10709 cumulative IPC: 0.10636 (Simulation time: 0 hr 17 min 24 sec) 
Heartbeat CPU  0 instructions:  273000003 cycles: 1706400574 heartbeat IPC: 0.14306 cumulative IPC: 0.10651 (Simulation time: 0 hr 17 min 29 sec) 
Heartbeat CPU  0 instructions:  274000000 cycles: 1723118935 heartbeat IPC: 0.05981 cumulative IPC: 0.10604 (Simulation time: 0 hr 17 min 36 sec) 
Heartbeat CPU  0 instructions:  275000002 cycles: 1729729539 heartbeat IPC: 0.15127 cumulative IPC: 0.10622 (Simulation time: 0 hr 17 min 41 sec) 
Heartbeat CPU  0 instructions:  276000000 cycles: 1735395624 heartbeat IPC: 0.17649 cumulative IPC: 0.10646 (Simulation time: 0 hr 17 min 45 sec) 
Heartbeat CPU  0 instructions:  277000002 cycles: 1744370555 heartbeat IPC: 0.11142 cumulative IPC: 0.10649 (Simulation time: 0 hr 17 min 49 sec) 
Heartbeat CPU  0 instructions:  278000001 cycles: 1759647688 heartbeat IPC: 0.06546 cumulative IPC: 0.10611 (Simulation time: 0 hr 17 min 56 sec) 
Heartbeat CPU  0 instructions:  279000000 cycles: 1765298976 heartbeat IPC: 0.17695 cumulative IPC: 0.10635 (Simulation time: 0 hr 18 min 0 sec) 
Heartbeat CPU  0 instructions:  280000000 cycles: 1770383198 heartbeat IPC: 0.19669 cumulative IPC: 0.10662 (Simulation time: 0 hr 18 min 4 sec) 
Heartbeat CPU  0 instructions:  281000002 cycles: 1782483607 heartbeat IPC: 0.08264 cumulative IPC: 0.10645 (Simulation time: 0 hr 18 min 9 sec) 
Heartbeat CPU  0 instructions:  282000000 cycles: 1794921486 heartbeat IPC: 0.08040 cumulative IPC: 0.10626 (Simulation time: 0 hr 18 min 15 sec) 
Heartbeat CPU  0 instructions:  283000003 cycles: 1800402005 heartbeat IPC: 0.18247 cumulative IPC: 0.10651 (Simulation time: 0 hr 18 min 19 sec) 
Heartbeat CPU  0 instructions:  284000000 cycles: 1805774608 heartbeat IPC: 0.18613 cumulative IPC: 0.10675 (Simulation time: 0 hr 18 min 23 sec) 
Heartbeat CPU  0 instructions:  285000003 cycles: 1821049771 heartbeat IPC: 0.06547 cumulative IPC: 0.10639 (Simulation time: 0 hr 18 min 29 sec) 
Heartbeat CPU  0 instructions:  286000001 cycles: 1830640167 heartbeat IPC: 0.10427 cumulative IPC: 0.10638 (Simulation time: 0 hr 18 min 35 sec) 
Heartbeat CPU  0 instructions:  287000003 cycles: 1836299228 heartbeat IPC: 0.17671 cumulative IPC: 0.10661 (Simulation time: 0 hr 18 min 38 sec) 
Heartbeat CPU  0 instructions:  288000000 cycles: 1841490234 heartbeat IPC: 0.19264 cumulative IPC: 0.10686 (Simulation time: 0 hr 18 min 42 sec) 
Heartbeat CPU  0 instructions:  289000002 cycles: 1859590705 heartbeat IPC: 0.05525 cumulative IPC: 0.10634 (Simulation time: 0 hr 18 min 49 sec) 
Heartbeat CPU  0 instructions:  290000002 cycles: 1866445115 heartbeat IPC: 0.14589 cumulative IPC: 0.10649 (Simulation time: 0 hr 18 min 54 sec) 
Heartbeat CPU  0 instructions:  291000000 cycles: 1871732147 heartbeat IPC: 0.18914 cumulative IPC: 0.10673 (Simulation time: 0 hr 18 min 57 sec) 
Heartbeat CPU  0 instructions:  292000000 cycles: 1879812104 heartbeat IPC: 0.12376 cumulative IPC: 0.10681 (Simulation time: 0 hr 19 min 1 sec) 
Heartbeat CPU  0 instructions:  293000000 cycles: 1895881153 heartbeat IPC: 0.06223 cumulative IPC: 0.10641 (Simulation time: 0 hr 19 min 8 sec) 
Heartbeat CPU  0 instructions:  294000000 cycles: 1901969850 heartbeat IPC: 0.16424 cumulative IPC: 0.10661 (Simulation time: 0 hr 19 min 12 sec) 
Heartbeat CPU  0 instructions:  295000001 cycles: 1907139282 heartbeat IPC: 0.19345 cumulative IPC: 0.10685 (Simulation time: 0 hr 19 min 15 sec) 
Heartbeat CPU  0 instructions:  296000000 cycles: 1917800100 heartbeat IPC: 0.09380 cumulative IPC: 0.10678 (Simulation time: 0 hr 19 min 21 sec) 
Heartbeat CPU  0 instructions:  297000000 cycles: 1931758278 heartbeat IPC: 0.07164 cumulative IPC: 0.10651 (Simulation time: 0 hr 19 min 27 sec) 
Heartbeat CPU  0 instructions:  298000001 cycles: 1937489000 heartbeat IPC: 0.17450 cumulative IPC: 0.10672 (Simulation time: 0 hr 19 min 31 sec) 
Heartbeat CPU  0 instructions:  299000002 cycles: 1942902277 heartbeat IPC: 0.18473 cumulative IPC: 0.10695 (Simulation time: 0 hr 19 min 34 sec) 
Heartbeat CPU  0 instructions:  300000000 cycles: 1955405845 heartbeat IPC: 0.07998 cumulative IPC: 0.10677 (Simulation time: 0 hr 19 min 40 sec) 
Heartbeat CPU  0 instructions:  301000003 cycles: 1967497424 heartbeat IPC: 0.08270 cumulative IPC: 0.10661 (Simulation time: 0 hr 19 min 46 sec) 
Heartbeat CPU  0 instructions:  302000003 cycles: 1973078281 heartbeat IPC: 0.17918 cumulative IPC: 0.10683 (Simulation time: 0 hr 19 min 49 sec) 
Heartbeat CPU  0 instructions:  303000000 cycles: 1978452102 heartbeat IPC: 0.18609 cumulative IPC: 0.10705 (Simulation time: 0 hr 19 min 53 sec) 
Heartbeat CPU  0 instructions:  304000000 cycles: 1991639844 heartbeat IPC: 0.07583 cumulative IPC: 0.10684 (Simulation time: 0 hr 19 min 59 sec) 
Heartbeat CPU  0 instructions:  305000002 cycles: 2003076123 heartbeat IPC: 0.08744 cumulative IPC: 0.10672 (Simulation time: 0 hr 20 min 4 sec) 
Heartbeat CPU  0 instructions:  306000000 cycles: 2008728541 heartbeat IPC: 0.17692 cumulative IPC: 0.10693 (Simulation time: 0 hr 20 min 8 sec) 
Heartbeat CPU  0 instructions:  307000001 cycles: 2014479953 heartbeat IPC: 0.17387 cumulative IPC: 0.10713 (Simulation time: 0 hr 20 min 11 sec) 
Heartbeat CPU  0 instructions:  308000000 cycles: 2027840632 heartbeat IPC: 0.07485 cumulative IPC: 0.10691 (Simulation time: 0 hr 20 min 18 sec) 
Heartbeat CPU  0 instructions:  309000000 cycles: 2045693178 heartbeat IPC: 0.05601 cumulative IPC: 0.10644 (Simulation time: 0 hr 20 min 25 sec) 
Heartbeat CPU  0 instructions:  310000000 cycles: 2052839242 heartbeat IPC: 0.13994 cumulative IPC: 0.10656 (Simulation time: 0 hr 20 min 30 sec) 
Heartbeat CPU  0 instructions:  311000001 cycles: 2057826165 heartbeat IPC: 0.20052 cumulative IPC: 0.10680 (Simulation time: 0 hr 20 min 33 sec) 
Heartbeat CPU  0 instructions:  312000000 cycles: 2066251902 heartbeat IPC: 0.11868 cumulative IPC: 0.10685 (Simulation time: 0 hr 20 min 39 sec) 
Heartbeat CPU  0 instructions:  313000002 cycles: 2082773313 heartbeat IPC: 0.06053 cumulative IPC: 0.10647 (Simulation time: 0 hr 20 min 46 sec) 
Heartbeat CPU  0 instructions:  314000001 cycles: 2088872895 heartbeat IPC: 0.16395 cumulative IPC: 0.10664 (Simulation time: 0 hr 20 min 50 sec) 
Heartbeat CPU  0 instructions:  315000001 cycles: 2094034087 heartbeat IPC: 0.19375 cumulative IPC: 0.10687 (Simulation time: 0 hr 20 min 54 sec) 
Heartbeat CPU  0 instructions:  316000000 cycles: 2104761640 heartbeat IPC: 0.09322 cumulative IPC: 0.10680 (Simulation time: 0 hr 20 min 59 sec) 
Heartbeat CPU  0 instructions:  317000002 cycles: 2121826176 heartbeat IPC: 0.05860 cumulative IPC: 0.10639 (Simulation time: 0 hr 21 min 7 sec) 
Heartbeat CPU  0 instructions:  318000003 cycles: 2129602150 heartbeat IPC: 0.12860 cumulative IPC: 0.10648 (Simulation time: 0 hr 21 min 11 sec) 
Heartbeat CPU  0 instructions:  319000001 cycles: 2135206173 heartbeat IPC: 0.17844 cumulative IPC: 0.10667 (Simulation time: 0 hr 21 min 15 sec) 
Heartbeat CPU  0 instructions:  320000000 cycles: 2147912742 heartbeat IPC: 0.07870 cumulative IPC: 0.10650 (Simulation time: 0 hr 21 min 20 sec) 
Heartbeat CPU  0 instructions:  321000001 cycles: 2163025004 heartbeat IPC: 0.06617 cumulative IPC: 0.10621 (Simulation time: 0 hr 21 min 28 sec) 
Heartbeat CPU  0 instructions:  322000000 cycles: 2180724163 heartbeat IPC: 0.05650 cumulative IPC: 0.10579 (Simulation time: 0 hr 21 min 36 sec) 
Heartbeat CPU  0 instructions:  323000000 cycles: 2187716215 heartbeat IPC: 0.14302 cumulative IPC: 0.10591 (Simulation time: 0 hr 21 min 40 sec) 
Heartbeat CPU  0 instructions:  324000000 cycles: 2193597228 heartbeat IPC: 0.17004 cumulative IPC: 0.10609 (Simulation time: 0 hr 21 min 44 sec) 
Heartbeat CPU  0 instructions:  325000002 cycles: 2198939207 heartbeat IPC: 0.18720 cumulative IPC: 0.10630 (Simulation time: 0 hr 21 min 47 sec) 
Heartbeat CPU  0 instructions:  326000002 cycles: 2213724511 heartbeat IPC: 0.06763 cumulative IPC: 0.10603 (Simulation time: 0 hr 21 min 53 sec) 
Heartbeat CPU  0 instructions:  327000000 cycles: 2223571343 heartbeat IPC: 0.10156 cumulative IPC: 0.10601 (Simulation time: 0 hr 21 min 58 sec) 
Heartbeat CPU  0 instructions:  328000000 cycles: 2229216139 heartbeat IPC: 0.17715 cumulative IPC: 0.10619 (Simulation time: 0 hr 22 min 2 sec) 
Heartbeat CPU  0 instructions:  329000000 cycles: 2234555733 heartbeat IPC: 0.18728 cumulative IPC: 0.10639 (Simulation time: 0 hr 22 min 5 sec) 
Heartbeat CPU  0 instructions:  330000001 cycles: 2246490827 heartbeat IPC: 0.08379 cumulative IPC: 0.10627 (Simulation time: 0 hr 22 min 10 sec) 
Heartbeat CPU  0 instructions:  331000001 cycles: 2259252582 heartbeat IPC: 0.07836 cumulative IPC: 0.10611 (Simulation time: 0 hr 22 min 16 sec) 
Heartbeat CPU  0 instructions:  332000000 cycles: 2265352511 heartbeat IPC: 0.16394 cumulative IPC: 0.10627 (Simulation time: 0 hr 22 min 20 sec) 
Heartbeat CPU  0 instructions:  333000000 cycles: 2270696358 heartbeat IPC: 0.18713 cumulative IPC: 0.10647 (Simulation time: 0 hr 22 min 24 sec) 
Heartbeat CPU  0 instructions:  334000001 cycles: 2281415853 heartbeat IPC: 0.09329 cumulative IPC: 0.10640 (Simulation time: 0 hr 22 min 29 sec) 
Heartbeat CPU  0 instructions:  335000000 cycles: 2295232856 heartbeat IPC: 0.07237 cumulative IPC: 0.10619 (Simulation time: 0 hr 22 min 35 sec) 
Heartbeat CPU  0 instructions:  336000000 cycles: 2304824815 heartbeat IPC: 0.10425 cumulative IPC: 0.10618 (Simulation time: 0 hr 22 min 40 sec) 
Heartbeat CPU  0 instructions:  337000000 cycles: 2310138299 heartbeat IPC: 0.18820 cumulative IPC: 0.10638 (Simulation time: 0 hr 22 min 43 sec) 
Heartbeat CPU  0 instructions:  338000000 cycles: 2318270871 heartbeat IPC: 0.12296 cumulative IPC: 0.10644 (Simulation time: 0 hr 22 min 48 sec) 
Heartbeat CPU  0 instructions:  339000002 cycles: 2334176374 heartbeat IPC: 0.06287 cumulative IPC: 0.10613 (Simulation time: 0 hr 22 min 54 sec) 
Heartbeat CPU  0 instructions:  340000000 cycles: 2340345061 heartbeat IPC: 0.16211 cumulative IPC: 0.10628 (Simulation time: 0 hr 22 min 58 sec) 
Heartbeat CPU  0 instructions:  341000001 cycles: 2345844829 heartbeat IPC: 0.18183 cumulative IPC: 0.10647 (Simulation time: 0 hr 23 min 2 sec) 
Heartbeat CPU  0 instructions:  342000000 cycles: 2355241573 heartbeat IPC: 0.10642 cumulative IPC: 0.10647 (Simulation time: 0 hr 23 min 6 sec) 
Heartbeat CPU  0 instructions:  343000003 cycles: 2370059715 heartbeat IPC: 0.06749 cumulative IPC: 0.10621 (Simulation time: 0 hr 23 min 13 sec) 
Heartbeat CPU  0 instructions:  344000000 cycles: 2375955677 heartbeat IPC: 0.16961 cumulative IPC: 0.10638 (Simulation time: 0 hr 23 min 17 sec) 
Heartbeat CPU  0 instructions:  345000000 cycles: 2380994413 heartbeat IPC: 0.19846 cumulative IPC: 0.10658 (Simulation time: 0 hr 23 min 20 sec) 
Heartbeat CPU  0 instructions:  346000002 cycles: 2391356706 heartbeat IPC: 0.09650 cumulative IPC: 0.10653 (Simulation time: 0 hr 23 min 25 sec) 
Heartbeat CPU  0 instructions:  347000001 cycles: 2405209798 heartbeat IPC: 0.07219 cumulative IPC: 0.10633 (Simulation time: 0 hr 23 min 32 sec) 
Heartbeat CPU  0 instructions:  348000000 cycles: 2411268547 heartbeat IPC: 0.16505 cumulative IPC: 0.10648 (Simulation time: 0 hr 23 min 35 sec) 
Heartbeat CPU  0 instructions:  349000001 cycles: 2416598198 heartbeat IPC: 0.18763 cumulative IPC: 0.10667 (Simulation time: 0 hr 23 min 39 sec) 
Heartbeat CPU  0 instructions:  350000000 cycles: 2428241232 heartbeat IPC: 0.08589 cumulative IPC: 0.10656 (Simulation time: 0 hr 23 min 44 sec) 
Heartbeat CPU  0 instructions:  351000003 cycles: 2441151920 heartbeat IPC: 0.07746 cumulative IPC: 0.10640 (Simulation time: 0 hr 23 min 50 sec) 
Heartbeat CPU  0 instructions:  352000000 cycles: 2446543087 heartbeat IPC: 0.18549 cumulative IPC: 0.10658 (Simulation time: 0 hr 23 min 54 sec) 
Heartbeat CPU  0 instructions:  353000001 cycles: 2451628734 heartbeat IPC: 0.19663 cumulative IPC: 0.10678 (Simulation time: 0 hr 23 min 57 sec) 
Heartbeat CPU  0 instructions:  354000003 cycles: 2464651676 heartbeat IPC: 0.07679 cumulative IPC: 0.10661 (Simulation time: 0 hr 24 min 4 sec) 
Heartbeat CPU  0 instructions:  355000001 cycles: 2476295361 heartbeat IPC: 0.08588 cumulative IPC: 0.10651 (Simulation time: 0 hr 24 min 9 sec) 
Heartbeat CPU  0 instructions:  356000000 cycles: 2482231109 heartbeat IPC: 0.16847 cumulative IPC: 0.10667 (Simulation time: 0 hr 24 min 13 sec) 
Heartbeat CPU  0 instructions:  357000001 cycles: 2487206237 heartbeat IPC: 0.20100 cumulative IPC: 0.10686 (Simulation time: 0 hr 24 min 16 sec) 
Heartbeat CPU  0 instructions:  358000002 cycles: 2502277651 heartbeat IPC: 0.06635 cumulative IPC: 0.10661 (Simulation time: 0 hr 24 min 23 sec) 
Heartbeat CPU  0 instructions:  359000000 cycles: 2511808886 heartbeat IPC: 0.10492 cumulative IPC: 0.10660 (Simulation time: 0 hr 24 min 28 sec) 
Heartbeat CPU  0 instructions:  360000000 cycles: 2517173619 heartbeat IPC: 0.18640 cumulative IPC: 0.10678 (Simulation time: 0 hr 24 min 32 sec) 
Heartbeat CPU  0 instructions:  361000003 cycles: 2522147819 heartbeat IPC: 0.20104 cumulative IPC: 0.10697 (Simulation time: 0 hr 24 min 35 sec) 
Heartbeat CPU  0 instructions:  362000001 cycles: 2539885746 heartbeat IPC: 0.05638 cumulative IPC: 0.10660 (Simulation time: 0 hr 24 min 43 sec) 
Heartbeat CPU  0 instructions:  363000000 cycles: 2546699988 heartbeat IPC: 0.14675 cumulative IPC: 0.10672 (Simulation time: 0 hr 24 min 47 sec) 
Heartbeat CPU  0 instructions:  364000000 cycles: 2552438270 heartbeat IPC: 0.17427 cumulative IPC: 0.10687 (Simulation time: 0 hr 24 min 51 sec) 
Heartbeat CPU  0 instructions:  365000000 cycles: 2559922865 heartbeat IPC: 0.13361 cumulative IPC: 0.10695 (Simulation time: 0 hr 24 min 55 sec) 
Heartbeat CPU  0 instructions:  366000000 cycles: 2576249392 heartbeat IPC: 0.06125 cumulative IPC: 0.10665 (Simulation time: 0 hr 25 min 2 sec) 
Heartbeat CPU  0 instructions:  367000000 cycles: 2582314189 heartbeat IPC: 0.16489 cumulative IPC: 0.10680 (Simulation time: 0 hr 25 min 6 sec) 
Heartbeat CPU  0 instructions:  368000000 cycles: 2587702650 heartbeat IPC: 0.18558 cumulative IPC: 0.10696 (Simulation time: 0 hr 25 min 10 sec) 
Heartbeat CPU  0 instructions:  369000003 cycles: 2598009329 heartbeat IPC: 0.09702 cumulative IPC: 0.10692 (Simulation time: 0 hr 25 min 15 sec) 
Heartbeat CPU  0 instructions:  370000003 cycles: 2611962642 heartbeat IPC: 0.07167 cumulative IPC: 0.10673 (Simulation time: 0 hr 25 min 21 sec) 
Heartbeat CPU  0 instructions:  371000002 cycles: 2617554524 heartbeat IPC: 0.17883 cumulative IPC: 0.10689 (Simulation time: 0 hr 25 min 25 sec) 
Heartbeat CPU  0 instructions:  372000000 cycles: 2622517637 heartbeat IPC: 0.20149 cumulative IPC: 0.10707 (Simulation time: 0 hr 25 min 29 sec) 
Heartbeat CPU  0 instructions:  373000002 cycles: 2636833678 heartbeat IPC: 0.06985 cumulative IPC: 0.10686 (Simulation time: 0 hr 25 min 35 sec) 
Heartbeat CPU  0 instructions:  374000001 cycles: 2647033474 heartbeat IPC: 0.09804 cumulative IPC: 0.10683 (Simulation time: 0 hr 25 min 41 sec) 
Heartbeat CPU  0 instructions:  375000002 cycles: 2652275406 heartbeat IPC: 0.19077 cumulative IPC: 0.10700 (Simulation time: 0 hr 25 min 44 sec) 
Heartbeat CPU  0 instructions:  376000000 cycles: 2658814112 heartbeat IPC: 0.15294 cumulative IPC: 0.10712 (Simulation time: 0 hr 25 min 48 sec) 
Heartbeat CPU  0 instructions:  377000000 cycles: 2675757856 heartbeat IPC: 0.05902 cumulative IPC: 0.10680 (Simulation time: 0 hr 25 min 56 sec) 
Heartbeat CPU  0 instructions:  378000000 cycles: 2682211508 heartbeat IPC: 0.15495 cumulative IPC: 0.10692 (Simulation time: 0 hr 26 min 0 sec) 
Heartbeat CPU  0 instructions:  379000002 cycles: 2687277369 heartbeat IPC: 0.19740 cumulative IPC: 0.10710 (Simulation time: 0 hr 26 min 3 sec) 
Heartbeat CPU  0 instructions:  380000000 cycles: 2698429610 heartbeat IPC: 0.08967 cumulative IPC: 0.10702 (Simulation time: 0 hr 26 min 9 sec) 
Heartbeat CPU  0 instructions:  381000000 cycles: 2711517653 heartbeat IPC: 0.07641 cumulative IPC: 0.10687 (Simulation time: 0 hr 26 min 15 sec) 
Heartbeat CPU  0 instructions:  382000002 cycles: 2717059226 heartbeat IPC: 0.18045 cumulative IPC: 0.10703 (Simulation time: 0 hr 26 min 19 sec) 
Heartbeat CPU  0 instructions:  383000001 cycles: 2722226836 heartbeat IPC: 0.19351 cumulative IPC: 0.10720 (Simulation time: 0 hr 26 min 23 sec) 
Heartbeat CPU  0 instructions:  384000000 cycles: 2737979254 heartbeat IPC: 0.06348 cumulative IPC: 0.10694 (Simulation time: 0 hr 26 min 30 sec) 
Heartbeat CPU  0 instructions:  385000001 cycles: 2747152917 heartbeat IPC: 0.10901 cumulative IPC: 0.10694 (Simulation time: 0 hr 26 min 35 sec) 
Heartbeat CPU  0 instructions:  386000002 cycles: 2752356934 heartbeat IPC: 0.19216 cumulative IPC: 0.10711 (Simulation time: 0 hr 26 min 39 sec) 
Heartbeat CPU  0 instructions:  387000003 cycles: 2759896959 heartbeat IPC: 0.13263 cumulative IPC: 0.10718 (Simulation time: 0 hr 26 min 43 sec) 
Heartbeat CPU  0 instructions:  388000000 cycles: 2776183225 heartbeat IPC: 0.06140 cumulative IPC: 0.10690 (Simulation time: 0 hr 26 min 50 sec) 
Heartbeat CPU  0 instructions:  389000001 cycles: 2782289258 heartbeat IPC: 0.16377 cumulative IPC: 0.10703 (Simulation time: 0 hr 26 min 54 sec) 
Heartbeat CPU  0 instructions:  390000000 cycles: 2787300416 heartbeat IPC: 0.19955 cumulative IPC: 0.10720 (Simulation time: 0 hr 26 min 57 sec) 
Heartbeat CPU  0 instructions:  391000002 cycles: 2798526176 heartbeat IPC: 0.08908 cumulative IPC: 0.10713 (Simulation time: 0 hr 27 min 3 sec) 
Heartbeat CPU  0 instructions:  392000000 cycles: 2811598553 heartbeat IPC: 0.07650 cumulative IPC: 0.10698 (Simulation time: 0 hr 27 min 9 sec) 
Heartbeat CPU  0 instructions:  393000000 cycles: 2817023916 heartbeat IPC: 0.18432 cumulative IPC: 0.10714 (Simulation time: 0 hr 27 min 13 sec) 
Heartbeat CPU  0 instructions:  394000001 cycles: 2822401821 heartbeat IPC: 0.18595 cumulative IPC: 0.10729 (Simulation time: 0 hr 27 min 16 sec) 
Heartbeat CPU  0 instructions:  395000000 cycles: 2837475124 heartbeat IPC: 0.06634 cumulative IPC: 0.10707 (Simulation time: 0 hr 27 min 23 sec) 
Heartbeat CPU  0 instructions:  396000000 cycles: 2846847397 heartbeat IPC: 0.10670 cumulative IPC: 0.10707 (Simulation time: 0 hr 27 min 28 sec) 
Heartbeat CPU  0 instructions:  397000000 cycles: 2852526789 heartbeat IPC: 0.17608 cumulative IPC: 0.10721 (Simulation time: 0 hr 27 min 32 sec) 
Heartbeat CPU  0 instructions:  398000001 cycles: 2858860206 heartbeat IPC: 0.15789 cumulative IPC: 0.10732 (Simulation time: 0 hr 27 min 36 sec) 
Heartbeat CPU  0 instructions:  399000001 cycles: 2876087667 heartbeat IPC: 0.05805 cumulative IPC: 0.10702 (Simulation time: 0 hr 27 min 43 sec) 
Heartbeat CPU  0 instructions:  400000000 cycles: 2882574407 heartbeat IPC: 0.15416 cumulative IPC: 0.10713 (Simulation time: 0 hr 27 min 47 sec) 
Heartbeat CPU  0 instructions:  401000002 cycles: 2887806104 heartbeat IPC: 0.19114 cumulative IPC: 0.10729 (Simulation time: 0 hr 27 min 51 sec) 
Heartbeat CPU  0 instructions:  402000003 cycles: 2898709615 heartbeat IPC: 0.09171 cumulative IPC: 0.10722 (Simulation time: 0 hr 27 min 56 sec) 
Heartbeat CPU  0 instructions:  403000000 cycles: 2912326340 heartbeat IPC: 0.07344 cumulative IPC: 0.10706 (Simulation time: 0 hr 28 min 3 sec) 
Heartbeat CPU  0 instructions:  404000000 cycles: 2919133418 heartbeat IPC: 0.14691 cumulative IPC: 0.10716 (Simulation time: 0 hr 28 min 7 sec) 
Heartbeat CPU  0 instructions:  405000001 cycles: 2927895643 heartbeat IPC: 0.11413 cumulative IPC: 0.10718 (Simulation time: 0 hr 28 min 11 sec) 
Heartbeat CPU  0 instructions:  406000003 cycles: 2940239084 heartbeat IPC: 0.08101 cumulative IPC: 0.10707 (Simulation time: 0 hr 28 min 17 sec) 
Heartbeat CPU  0 instructions:  407000001 cycles: 2952360699 heartbeat IPC: 0.08250 cumulative IPC: 0.10696 (Simulation time: 0 hr 28 min 23 sec) 
Heartbeat CPU  0 instructions:  408000000 cycles: 2958017173 heartbeat IPC: 0.17679 cumulative IPC: 0.10710 (Simulation time: 0 hr 28 min 27 sec) 
Heartbeat CPU  0 instructions:  409000000 cycles: 2966145383 heartbeat IPC: 0.12303 cumulative IPC: 0.10714 (Simulation time: 0 hr 28 min 31 sec) 
Heartbeat CPU  0 instructions:  410000003 cycles: 2981513110 heartbeat IPC: 0.06507 cumulative IPC: 0.10692 (Simulation time: 0 hr 28 min 38 sec) 
Heartbeat CPU  0 instructions:  411000000 cycles: 2990885521 heartbeat IPC: 0.10670 cumulative IPC: 0.10692 (Simulation time: 0 hr 28 min 43 sec) 
Heartbeat CPU  0 instructions:  412000000 cycles: 2996176200 heartbeat IPC: 0.18901 cumulative IPC: 0.10707 (Simulation time: 0 hr 28 min 47 sec) 
Heartbeat CPU  0 instructions:  413000003 cycles: 3004491465 heartbeat IPC: 0.12026 cumulative IPC: 0.10711 (Simulation time: 0 hr 28 min 52 sec) 
Heartbeat CPU  0 instructions:  414000003 cycles: 3020243196 heartbeat IPC: 0.06349 cumulative IPC: 0.10687 (Simulation time: 0 hr 28 min 59 sec) 
Heartbeat CPU  0 instructions:  415000000 cycles: 3026290376 heartbeat IPC: 0.16537 cumulative IPC: 0.10699 (Simulation time: 0 hr 29 min 3 sec) 
Heartbeat CPU  0 instructions:  416000000 cycles: 3031475546 heartbeat IPC: 0.19286 cumulative IPC: 0.10714 (Simulation time: 0 hr 29 min 6 sec) 
Heartbeat CPU  0 instructions:  417000000 cycles: 3044888090 heartbeat IPC: 0.07456 cumulative IPC: 0.10700 (Simulation time: 0 hr 29 min 12 sec) 
Heartbeat CPU  0 instructions:  418000001 cycles: 3056303589 heartbeat IPC: 0.08760 cumulative IPC: 0.10692 (Simulation time: 0 hr 29 min 18 sec) 
Heartbeat CPU  0 instructions:  419000000 cycles: 3065823811 heartbeat IPC: 0.10504 cumulative IPC: 0.10692 (Simulation time: 0 hr 29 min 23 sec) 
Heartbeat CPU  0 instructions:  420000000 cycles: 3079336411 heartbeat IPC: 0.07401 cumulative IPC: 0.10677 (Simulation time: 0 hr 29 min 29 sec) 
Heartbeat CPU  0 instructions:  421000003 cycles: 3089694745 heartbeat IPC: 0.09654 cumulative IPC: 0.10673 (Simulation time: 0 hr 29 min 34 sec) 
Heartbeat CPU  0 instructions:  422000002 cycles: 3105916665 heartbeat IPC: 0.06164 cumulative IPC: 0.10649 (Simulation time: 0 hr 29 min 41 sec) 
Heartbeat CPU  0 instructions:  423000002 cycles: 3112121003 heartbeat IPC: 0.16118 cumulative IPC: 0.10660 (Simulation time: 0 hr 29 min 45 sec) 
Heartbeat CPU  0 instructions:  424000000 cycles: 3126710316 heartbeat IPC: 0.06854 cumulative IPC: 0.10642 (Simulation time: 0 hr 29 min 52 sec) 
Heartbeat CPU  0 instructions:  425000002 cycles: 3131623475 heartbeat IPC: 0.20354 cumulative IPC: 0.10658 (Simulation time: 0 hr 29 min 55 sec) 
Heartbeat CPU  0 instructions:  426000000 cycles: 3148059634 heartbeat IPC: 0.06084 cumulative IPC: 0.10633 (Simulation time: 0 hr 30 min 2 sec) 
Heartbeat CPU  0 instructions:  427000002 cycles: 3156249778 heartbeat IPC: 0.12210 cumulative IPC: 0.10637 (Simulation time: 0 hr 30 min 7 sec) 
Heartbeat CPU  0 instructions:  428000000 cycles: 3161779886 heartbeat IPC: 0.18083 cumulative IPC: 0.10651 (Simulation time: 0 hr 30 min 11 sec) 
Heartbeat CPU  0 instructions:  429000001 cycles: 3171840692 heartbeat IPC: 0.09940 cumulative IPC: 0.10648 (Simulation time: 0 hr 30 min 15 sec) 
Heartbeat CPU  0 instructions:  430000002 cycles: 3185125400 heartbeat IPC: 0.07527 cumulative IPC: 0.10635 (Simulation time: 0 hr 30 min 22 sec) 
Heartbeat CPU  0 instructions:  431000003 cycles: 3197281871 heartbeat IPC: 0.08226 cumulative IPC: 0.10626 (Simulation time: 0 hr 30 min 27 sec) 
Heartbeat CPU  0 instructions:  432000000 cycles: 3202631562 heartbeat IPC: 0.18693 cumulative IPC: 0.10640 (Simulation time: 0 hr 30 min 31 sec) 
Heartbeat CPU  0 instructions:  433000001 cycles: 3207755428 heartbeat IPC: 0.19517 cumulative IPC: 0.10654 (Simulation time: 0 hr 30 min 34 sec) 
Heartbeat CPU  0 instructions:  434000000 cycles: 3219203521 heartbeat IPC: 0.08735 cumulative IPC: 0.10647 (Simulation time: 0 hr 30 min 40 sec) 
Heartbeat CPU  0 instructions:  435000003 cycles: 3231980369 heartbeat IPC: 0.07827 cumulative IPC: 0.10636 (Simulation time: 0 hr 30 min 46 sec) 
Heartbeat CPU  0 instructions:  436000000 cycles: 3237519266 heartbeat IPC: 0.18054 cumulative IPC: 0.10649 (Simulation time: 0 hr 30 min 49 sec) 
Heartbeat CPU  0 instructions:  437000001 cycles: 3242502161 heartbeat IPC: 0.20069 cumulative IPC: 0.10664 (Simulation time: 0 hr 30 min 52 sec) 
Heartbeat CPU  0 instructions:  438000002 cycles: 3253178825 heartbeat IPC: 0.09366 cumulative IPC: 0.10659 (Simulation time: 0 hr 30 min 57 sec) 
Heartbeat CPU  0 instructions:  439000000 cycles: 3266560159 heartbeat IPC: 0.07473 cumulative IPC: 0.10646 (Simulation time: 0 hr 31 min 4 sec) 
Heartbeat CPU  0 instructions:  440000000 cycles: 3272670342 heartbeat IPC: 0.16366 cumulative IPC: 0.10657 (Simulation time: 0 hr 31 min 7 sec) 
Heartbeat CPU  0 instructions:  441000002 cycles: 3277824466 heartbeat IPC: 0.19402 cumulative IPC: 0.10671 (Simulation time: 0 hr 31 min 11 sec) 
Heartbeat CPU  0 instructions:  442000000 cycles: 3287458979 heartbeat IPC: 0.10379 cumulative IPC: 0.10670 (Simulation time: 0 hr 31 min 15 sec) 
Heartbeat CPU  0 instructions:  443000000 cycles: 3301810670 heartbeat IPC: 0.06968 cumulative IPC: 0.10653 (Simulation time: 0 hr 31 min 22 sec) 
Heartbeat CPU  0 instructions:  444000000 cycles: 3307648497 heartbeat IPC: 0.17130 cumulative IPC: 0.10665 (Simulation time: 0 hr 31 min 26 sec) 
Heartbeat CPU  0 instructions:  445000003 cycles: 3312706874 heartbeat IPC: 0.19769 cumulative IPC: 0.10679 (Simulation time: 0 hr 31 min 29 sec) 
Heartbeat CPU  0 instructions:  446000001 cycles: 3321864694 heartbeat IPC: 0.10920 cumulative IPC: 0.10680 (Simulation time: 0 hr 31 min 34 sec) 
Heartbeat CPU  0 instructions:  447000000 cycles: 3337040619 heartbeat IPC: 0.06589 cumulative IPC: 0.10661 (Simulation time: 0 hr 31 min 40 sec) 
Heartbeat CPU  0 instructions:  448000000 cycles: 3342980689 heartbeat IPC: 0.16835 cumulative IPC: 0.10672 (Simulation time: 0 hr 31 min 44 sec) 
Heartbeat CPU  0 instructions:  449000001 cycles: 3348011966 heartbeat IPC: 0.19876 cumulative IPC: 0.10686 (Simulation time: 0 hr 31 min 48 sec) 
Heartbeat CPU  0 instructions:  450000000 cycles: 3357059501 heartbeat IPC: 0.11053 cumulative IPC: 0.10687 (Simulation time: 0 hr 31 min 52 sec) 
Heartbeat CPU  0 instructions:  451000001 cycles: 3371951956 heartbeat IPC: 0.06715 cumulative IPC: 0.10669 (Simulation time: 0 hr 31 min 59 sec) 
Heartbeat CPU  0 instructions:  452000000 cycles: 3377653305 heartbeat IPC: 0.17540 cumulative IPC: 0.10681 (Simulation time: 0 hr 32 min 3 sec) 
Heartbeat CPU  0 instructions:  453000000 cycles: 3382715827 heartbeat IPC: 0.19753 cumulative IPC: 0.10695 (Simulation time: 0 hr 32 min 6 sec) 
Heartbeat CPU  0 instructions:  454000000 cycles: 3392509006 heartbeat IPC: 0.10211 cumulative IPC: 0.10694 (Simulation time: 0 hr 32 min 11 sec) 
Heartbeat CPU  0 instructions:  455000003 cycles: 3406754572 heartbeat IPC: 0.07020 cumulative IPC: 0.10678 (Simulation time: 0 hr 32 min 18 sec) 
Heartbeat CPU  0 instructions:  456000000 cycles: 3412375470 heartbeat IPC: 0.17791 cumulative IPC: 0.10690 (Simulation time: 0 hr 32 min 22 sec) 
Heartbeat CPU  0 instructions:  457000000 cycles: 3417403796 heartbeat IPC: 0.19887 cumulative IPC: 0.10704 (Simulation time: 0 hr 32 min 25 sec) 
Heartbeat CPU  0 instructions:  458000001 cycles: 3428037345 heartbeat IPC: 0.09404 cumulative IPC: 0.10700 (Simulation time: 0 hr 32 min 30 sec) 
Heartbeat CPU  0 instructions:  459000002 cycles: 3441557053 heartbeat IPC: 0.07397 cumulative IPC: 0.10687 (Simulation time: 0 hr 32 min 37 sec) 
Heartbeat CPU  0 instructions:  460000000 cycles: 3447060335 heartbeat IPC: 0.18171 cumulative IPC: 0.10699 (Simulation time: 0 hr 32 min 40 sec) 
Heartbeat CPU  0 instructions:  461000003 cycles: 3452542404 heartbeat IPC: 0.18241 cumulative IPC: 0.10711 (Simulation time: 0 hr 32 min 44 sec) 
Heartbeat CPU  0 instructions:  462000001 cycles: 3464453483 heartbeat IPC: 0.08396 cumulative IPC: 0.10703 (Simulation time: 0 hr 32 min 50 sec) 
Heartbeat CPU  0 instructions:  463000002 cycles: 3477242300 heartbeat IPC: 0.07819 cumulative IPC: 0.10692 (Simulation time: 0 hr 32 min 56 sec) 
Heartbeat CPU  0 instructions:  464000000 cycles: 3482813520 heartbeat IPC: 0.17949 cumulative IPC: 0.10704 (Simulation time: 0 hr 33 min 0 sec) 
Heartbeat CPU  0 instructions:  465000000 cycles: 3497739805 heartbeat IPC: 0.06700 cumulative IPC: 0.10686 (Simulation time: 0 hr 33 min 6 sec) 
Heartbeat CPU  0 instructions:  466000003 cycles: 3507824475 heartbeat IPC: 0.09916 cumulative IPC: 0.10684 (Simulation time: 0 hr 33 min 12 sec) 
Heartbeat CPU  0 instructions:  467000002 cycles: 3523018913 heartbeat IPC: 0.06581 cumulative IPC: 0.10666 (Simulation time: 0 hr 33 min 19 sec) 
Heartbeat CPU  0 instructions:  468000000 cycles: 3529955579 heartbeat IPC: 0.14416 cumulative IPC: 0.10674 (Simulation time: 0 hr 33 min 23 sec) 
Heartbeat CPU  0 instructions:  469000000 cycles: 3544365009 heartbeat IPC: 0.06940 cumulative IPC: 0.10658 (Simulation time: 0 hr 33 min 29 sec) 
Heartbeat CPU  0 instructions:  470000000 cycles: 3550793988 heartbeat IPC: 0.15555 cumulative IPC: 0.10667 (Simulation time: 0 hr 33 min 33 sec) 
Heartbeat CPU  0 instructions:  471000000 cycles: 3568216511 heartbeat IPC: 0.05740 cumulative IPC: 0.10643 (Simulation time: 0 hr 33 min 41 sec) 
Heartbeat CPU  0 instructions:  472000000 cycles: 3578067691 heartbeat IPC: 0.10151 cumulative IPC: 0.10641 (Simulation time: 0 hr 33 min 46 sec) 
Heartbeat CPU  0 instructions:  473000001 cycles: 3589486090 heartbeat IPC: 0.08758 cumulative IPC: 0.10635 (Simulation time: 0 hr 33 min 51 sec) 
Heartbeat CPU  0 instructions:  474000001 cycles: 3594520696 heartbeat IPC: 0.19863 cumulative IPC: 0.10648 (Simulation time: 0 hr 33 min 55 sec) 
Heartbeat CPU  0 instructions:  475000003 cycles: 3608989388 heartbeat IPC: 0.06911 cumulative IPC: 0.10633 (Simulation time: 0 hr 34 min 1 sec) 
Heartbeat CPU  0 instructions:  476000000 cycles: 3625753310 heartbeat IPC: 0.05965 cumulative IPC: 0.10611 (Simulation time: 0 hr 34 min 9 sec) 
Heartbeat CPU  0 instructions:  477000000 cycles: 3639733590 heartbeat IPC: 0.07153 cumulative IPC: 0.10597 (Simulation time: 0 hr 34 min 15 sec) 
Heartbeat CPU  0 instructions:  478000000 cycles: 3648565281 heartbeat IPC: 0.11323 cumulative IPC: 0.10599 (Simulation time: 0 hr 34 min 19 sec) 
Heartbeat CPU  0 instructions:  479000000 cycles: 3653951126 heartbeat IPC: 0.18567 cumulative IPC: 0.10611 (Simulation time: 0 hr 34 min 23 sec) 
Heartbeat CPU  0 instructions:  480000000 cycles: 3670909589 heartbeat IPC: 0.05897 cumulative IPC: 0.10589 (Simulation time: 0 hr 34 min 30 sec) 
Heartbeat CPU  0 instructions:  481000000 cycles: 3680006469 heartbeat IPC: 0.10993 cumulative IPC: 0.10590 (Simulation time: 0 hr 34 min 35 sec) 
Heartbeat CPU  0 instructions:  482000000 cycles: 3686337880 heartbeat IPC: 0.15794 cumulative IPC: 0.10599 (Simulation time: 0 hr 34 min 39 sec) 
Heartbeat CPU  0 instructions:  483000002 cycles: 3691924244 heartbeat IPC: 0.17901 cumulative IPC: 0.10610 (Simulation time: 0 hr 34 min 42 sec) 
Heartbeat CPU  0 instructions:  484000000 cycles: 3709717288 heartbeat IPC: 0.05620 cumulative IPC: 0.10586 (Simulation time: 0 hr 34 min 50 sec) 
Heartbeat CPU  0 instructions:  485000000 cycles: 3717370081 heartbeat IPC: 0.13067 cumulative IPC: 0.10591 (Simulation time: 0 hr 34 min 54 sec) 
Heartbeat CPU  0 instructions:  486000000 cycles: 3725377752 heartbeat IPC: 0.12488 cumulative IPC: 0.10595 (Simulation time: 0 hr 34 min 59 sec) 
Heartbeat CPU  0 instructions:  487000002 cycles: 3731283508 heartbeat IPC: 0.16933 cumulative IPC: 0.10605 (Simulation time: 0 hr 35 min 2 sec) 
Heartbeat CPU  0 instructions:  488000000 cycles: 3748988858 heartbeat IPC: 0.05648 cumulative IPC: 0.10581 (Simulation time: 0 hr 35 min 11 sec) 
Heartbeat CPU  0 instructions:  489000001 cycles: 3755545477 heartbeat IPC: 0.15252 cumulative IPC: 0.10590 (Simulation time: 0 hr 35 min 15 sec) 
Heartbeat CPU  0 instructions:  490000002 cycles: 3760631919 heartbeat IPC: 0.19660 cumulative IPC: 0.10602 (Simulation time: 0 hr 35 min 19 sec) 
Heartbeat CPU  0 instructions:  491000000 cycles: 3768185401 heartbeat IPC: 0.13239 cumulative IPC: 0.10608 (Simulation time: 0 hr 35 min 23 sec) 
Heartbeat CPU  0 instructions:  492000000 cycles: 3784274267 heartbeat IPC: 0.06215 cumulative IPC: 0.10589 (Simulation time: 0 hr 35 min 30 sec) 
Heartbeat CPU  0 instructions:  493000001 cycles: 3790257114 heartbeat IPC: 0.16714 cumulative IPC: 0.10599 (Simulation time: 0 hr 35 min 34 sec) 
Heartbeat CPU  0 instructions:  494000002 cycles: 3799136025 heartbeat IPC: 0.11263 cumulative IPC: 0.10600 (Simulation time: 0 hr 35 min 38 sec) 
Heartbeat CPU  0 instructions:  495000002 cycles: 3805886972 heartbeat IPC: 0.14813 cumulative IPC: 0.10608 (Simulation time: 0 hr 35 min 42 sec) 
Heartbeat CPU  0 instructions:  496000000 cycles: 3822375294 heartbeat IPC: 0.06065 cumulative IPC: 0.10588 (Simulation time: 0 hr 35 min 49 sec) 
Heartbeat CPU  0 instructions:  497000002 cycles: 3828412922 heartbeat IPC: 0.16563 cumulative IPC: 0.10597 (Simulation time: 0 hr 35 min 53 sec) 
Heartbeat CPU  0 instructions:  498000001 cycles: 3833409493 heartbeat IPC: 0.20014 cumulative IPC: 0.10610 (Simulation time: 0 hr 35 min 56 sec) 
Heartbeat CPU  0 instructions:  499000003 cycles: 3842073919 heartbeat IPC: 0.11541 cumulative IPC: 0.10612 (Simulation time: 0 hr 36 min 1 sec) 
Heartbeat CPU  0 instructions:  500000000 cycles: 3857183387 heartbeat IPC: 0.06618 cumulative IPC: 0.10596 (Simulation time: 0 hr 36 min 7 sec) 
Heartbeat CPU  0 instructions:  501000002 cycles: 3862998139 heartbeat IPC: 0.17198 cumulative IPC: 0.10606 (Simulation time: 0 hr 36 min 11 sec) 
Heartbeat CPU  0 instructions:  502000000 cycles: 3868659384 heartbeat IPC: 0.17664 cumulative IPC: 0.10617 (Simulation time: 0 hr 36 min 14 sec) 
Heartbeat CPU  0 instructions:  503000003 cycles: 3879734781 heartbeat IPC: 0.09029 cumulative IPC: 0.10612 (Simulation time: 0 hr 36 min 19 sec) 
Heartbeat CPU  0 instructions:  504000000 cycles: 3893205191 heartbeat IPC: 0.07424 cumulative IPC: 0.10601 (Simulation time: 0 hr 36 min 26 sec) 
Heartbeat CPU  0 instructions:  505000002 cycles: 3899075744 heartbeat IPC: 0.17034 cumulative IPC: 0.10611 (Simulation time: 0 hr 36 min 30 sec) 
Heartbeat CPU  0 instructions:  506000001 cycles: 3904817775 heartbeat IPC: 0.17415 cumulative IPC: 0.10621 (Simulation time: 0 hr 36 min 33 sec) 
Heartbeat CPU  0 instructions:  507000000 cycles: 3917950160 heartbeat IPC: 0.07615 cumulative IPC: 0.10611 (Simulation time: 0 hr 36 min 39 sec) 
Heartbeat CPU  0 instructions:  508000000 cycles: 3930654607 heartbeat IPC: 0.07871 cumulative IPC: 0.10602 (Simulation time: 0 hr 36 min 45 sec) 
Heartbeat CPU  0 instructions:  509000000 cycles: 3936288416 heartbeat IPC: 0.17750 cumulative IPC: 0.10612 (Simulation time: 0 hr 36 min 48 sec) 
Heartbeat CPU  0 instructions:  510000000 cycles: 3941584581 heartbeat IPC: 0.18882 cumulative IPC: 0.10623 (Simulation time: 0 hr 36 min 52 sec) 
Heartbeat CPU  0 instructions:  511000001 cycles: 3955817882 heartbeat IPC: 0.07026 cumulative IPC: 0.10610 (Simulation time: 0 hr 36 min 58 sec) 
Heartbeat CPU  0 instructions:  512000000 cycles: 3966418422 heartbeat IPC: 0.09433 cumulative IPC: 0.10607 (Simulation time: 0 hr 37 min 3 sec) 
Heartbeat CPU  0 instructions:  513000000 cycles: 3972299371 heartbeat IPC: 0.17004 cumulative IPC: 0.10617 (Simulation time: 0 hr 37 min 7 sec) 
Heartbeat CPU  0 instructions:  514000000 cycles: 3977470507 heartbeat IPC: 0.19338 cumulative IPC: 0.10628 (Simulation time: 0 hr 37 min 11 sec) 
Heartbeat CPU  0 instructions:  515000000 cycles: 3993302922 heartbeat IPC: 0.06316 cumulative IPC: 0.10611 (Simulation time: 0 hr 37 min 18 sec) 
Heartbeat CPU  0 instructions:  516000000 cycles: 4002415124 heartbeat IPC: 0.10974 cumulative IPC: 0.10612 (Simulation time: 0 hr 37 min 22 sec) 
Heartbeat CPU  0 instructions:  517000000 cycles: 4007909557 heartbeat IPC: 0.18200 cumulative IPC: 0.10622 (Simulation time: 0 hr 37 min 26 sec) 
Heartbeat CPU  0 instructions:  518000001 cycles: 4013343653 heartbeat IPC: 0.18402 cumulative IPC: 0.10633 (Simulation time: 0 hr 37 min 29 sec) 
Heartbeat CPU  0 instructions:  519000000 cycles: 4031170586 heartbeat IPC: 0.05609 cumulative IPC: 0.10610 (Simulation time: 0 hr 37 min 37 sec) 
Heartbeat CPU  0 instructions:  520000000 cycles: 4037961932 heartbeat IPC: 0.14725 cumulative IPC: 0.10617 (Simulation time: 0 hr 37 min 41 sec) 
Heartbeat CPU  0 instructions:  521000002 cycles: 4043585964 heartbeat IPC: 0.17781 cumulative IPC: 0.10628 (Simulation time: 0 hr 37 min 45 sec) 
Heartbeat CPU  0 instructions:  522000002 cycles: 4050394313 heartbeat IPC: 0.14688 cumulative IPC: 0.10635 (Simulation time: 0 hr 37 min 48 sec) 
Heartbeat CPU  0 instructions:  523000002 cycles: 4067662313 heartbeat IPC: 0.05791 cumulative IPC: 0.10614 (Simulation time: 0 hr 37 min 56 sec) 
Heartbeat CPU  0 instructions:  524000000 cycles: 4074120390 heartbeat IPC: 0.15484 cumulative IPC: 0.10621 (Simulation time: 0 hr 38 min 0 sec) 
Heartbeat CPU  0 instructions:  525000002 cycles: 4079296945 heartbeat IPC: 0.19318 cumulative IPC: 0.10633 (Simulation time: 0 hr 38 min 3 sec) 
Heartbeat CPU  0 instructions:  526000000 cycles: 4085886340 heartbeat IPC: 0.15176 cumulative IPC: 0.10640 (Simulation time: 0 hr 38 min 7 sec) 
Heartbeat CPU  0 instructions:  527000000 cycles: 4102720320 heartbeat IPC: 0.05940 cumulative IPC: 0.10621 (Simulation time: 0 hr 38 min 14 sec) 
[...]
IIIIIIAA444444444A44A444444444IIIIIIIIIIIIIIIIIIIIIIIIIIIIIIIIII
IIIIIIAA444444444A44A4444444444IIIIIIIIIIIIIIIIIIIIIIIIIIIIIIIII
IIIIIIAA444444444A44A44444444444IIIIIIIIIIIIIIIIIIIIIIIIIIIIIIII
IIIIIIAA444444444A44A44444444444I4IIIIIIIIIIIIIIIIIIIIIIIIIIIIII
IIIIIIAA444444444A44A44444444444444IIIIIIIIIIIIIIIIIIIIIIIIIIIII
IIIIIIAA444444444A44A444444444444444IIIIIIIIIIIIIIIIIIIIIIIIIIII
IIIIIIAA444444444A44A4444444444444444IIIIIIIIIIIIIIIIIIIIIIIIIII
IIIIIIAA444444444A44A4444444444444444I4IIIIIIIIIIIIIIIIIIIIIIIII
IIIIIIAA444444444A44A4424444444444444I4IIIIIIIIIIIIIIIIIIIIIIIII
IIIIIIAA424444444A44A4424444444444444I4IIIIIIIIIIIIIIIIIIIIIIIII
IIIIIIAA422444444A44A4424444444444444I4IIIIIIIIIIIIIIIIIIIIIIIII
IIIIIIAA422444444A44A442444444444444444IIIIIIIIIIIIIIIIIIIIIIIII
IIIIIIAA422444444A44A4424444444444444444IIIIIIIIIIIIIIIIIIIIIIII
IIIIIIAA222444444A44A4424444444444444444IIIIIIIIIIIIIIIIIIIIIIII
IIIIIIAA222444444A42A4424444444444444444IIIIIIIIIIIIIIIIIIIIIIII
IIIIIIAA222444444A42A4224444444444444444IIIIIIIIIIIIIIIIIIIIIIII
IIIIIIAA222444444A42A4224444444444444444I4IIIIIIIIIIIIIIIIIIIIII
IIIIIIAA222444444A4IA4224444444444444444I4IIIIIIIIIIIIIIIIIIIIII
IIIIIIAA222444444A2IA4224444444444444444I4IIIIIIIIIIIIIIIIIIIIII
IIIIIIAA222444444A2IA2224444444444444444I4IIIIIIIIIIIIIIIIIIIIII
IIIIIIAA222444444A24A2224444444444444444I4IIIIIIIIIIIIIIIIIIIIII
IIIIIIAA222444444AI4A2224444444444444444I4IIIIIIIIIIIIIIIIIIIIII
IIIIIIAA222444444A44A2224444444444444444I4IIIIIIIIIIIIIIIIIIIIII
IIIIIIAA222444444A24A2224444444444444444I4IIIIIIIIIIIIIIIIIIIIII
IIIIIIAA222444444A24I2224444444444444444I4IIIIIIIIIIIIIIIIIIIIII
IIIIIIAA222444444A2442224444444444444444I4IIIIIIIIIIIIIIIIIIIIII
IIIIIIAA222444444A24A2224444444444444444I4IIIIIIIIIIIIIIIIIIIIII
IIIIIIAA222444444A24A222444444444444444444IIIIIIIIIIIIIIIIIIIIII
IIIIIIAA222444444A24A222444444444444444444I4IIIIIIIIIIIIIIIIIIII
IIIIIIAA222444444A24A222444444444444444444I4II4IIIIIIIIIIIIIIIII
IIIIIIAA222444444A22A222444444444444444444I4II4IIIIIIIIIIIIIIIII
IIIIIIAA222444444A22A22244444444444444444444II4IIIIIIIIIIIIIIIII
IIIIIIAI222444444A22A22244444444444444444444II4IIIIIIIIIIIIIIIII
IIIIIIAA222444444A22A22244444444444444444444II4IIIIIIIIIIIIIIIII
IIIIIIAA222444444A22I22244444444444444444444II4IIIIIIIIIIIIIIIII
IIIIIIAA222444444A22A22244444444444444444444II4IIIIIIIIIIIIIIIII
IIIIIIAI222444444A22A22244444444444444444444II4IIIIIIIIIIIIIIIII
IIIIIIAA222444444A22A22244444444444444444444II4IIIIIIIIIIIIIIIII
IIIIIIAI222444444A22A22244444444444444444444II4IIIIIIIIIIIIIIIII
IIIIIIAA222444444A22A22244444444444444444444II4IIIIIIIIIIIIIIIII
IIIIIIAI222444444A22A22244444444444444444444II4IIIIIIIIIIIIIIIII
IIIIIIAA222444444A22A22244444444444444444444II4IIIIIIIIIIIIIIIII
IIIIIIAA222444444A22A222A2444444444444444444II4IIIIIIIIIIIIIIIII
IIIIIIAA222444444A22A222I2444444444444444444II4IIIIIIIIIIIIIIIII
IIIIIIAA222444444A22A22242444444444444444444II4IIIIIIIIIIIIIIIII
IIIIIIAA222444444A22A2224I444444444444444444II4IIIIIIIIIIIIIIIII
IIIIIIAA222444444A22A22244444444444444444444II4IIIIIIIIIIIIIIIII
IIIIIIAI222444444A22A22244444444444444444444II4IIIIIIIIIIIIIIIII
IIIIIIAA222444444A22A22244444444444444444444II4IIIIIIIIIIIIIIIII
IIIIIIAI222444444A22A22244444444444444444444II4IIIIIIIIIIIIIIIII
IIIIIIII222444444A22A22244444444444444444444II4IIIIIIIIIIIIIIIII
IIIIIIIA222444444A22A22244444444444444444444II4IIIIIIIIIIIIIIIII
IIIIIIAA222444444A22A22244444444444444444444II4IIIIIIIIIIIIIIIII
IIIIIIAA222444444A22A22244444444444444444444IA424I4II4I44IIIIII4
IIIIIIAA222444444A22A22244444444444444444444IA4I4I4II4I44IIIIII4
IIIIIIIA222444444A22A22244444444444444444444IA4I4I4II4I44IIIIII4
IIIIIIII222444444A22A22244444444444444444444IA4I4I4II4I44IIIIII4
IIIIIIIA222444444A22A22244444444444444444444IA4I4I4II4I44IIIIII4
IIIIIIAA222444444A22A22244444444444444444444IA4I4I4II4I44IIIIII4
IIIIIIAA222444444A22I22244444444444444444444IA4I4I4II4I44IIIIII4
IIIIIIAA222444444A22422244444444444444444444IA4I4I4II4I44IIIIII4
IIIIIIAA222444444A22A22244444444444444444444IA4I4I4II4I44IIIIII4
IIIIIIAI222444444A22A22244444444444444444444IA4I4I4II4I44IIIIII4
IIIIIIAA222444444A22A22244444444444444444444IA4I4I4II4I44IIIIII4
IIIIIIAA222444444A22A22244444444444444444444IA4I4I4II4I44IA4III4
IIIIIIAA222444444A22A22244444444444444444444IA4I4I4II4I44IAA4II4
IIIIIIIIIIIIIIIIIIIIIIIIIIIIIIIIIIIIIIIIIIIII4IA44IIIIIIIIIIIIII
IIIIIIIIIIIIIIIIIIIIIIIIIIIIIIIIIIIIIIIIA4III4IA44IIIIIIIIIIIIII
IIIIIIIIIIIIIIIIIIIIIIIIIIIIIIIIIIIIIIIIAA4II4IA44IIIIIIIIIIIIII
IIIIIIIIIIIIA4IIIIIIIIIIIIIIIIIIIIIIIIIIAA4II4IA44IIIIIIIIIIIIII
IIIIIIIIIIIIAA4IIIIIIIIIIIIIIIIIIIIIIIIIAA4II4IA44IIIIIIIIIIIIII
IIIIIIIIIIIA4IIIIIIIIIIIIIIIIIIIIIIIIIIIIIIIIIIIIIIIIIIIIIIIIIII
IIIIIIIIIIIA4IIIIIIA4IIIIIIIIIIIIIIIIIIIIIIIIIIIIIIIIIIIIIIIIIII
IIIIIIIIIIIA4IIIIIIAA4IIIIIIIIIIIIIIIIIIIIIIIIIIIIIIIIIIIIIIIIII
IIIIIIIIIIIIIIIIIIIIIIIIIIIIIIA4IIIIIIIIIIIIIIIIIIIIIIIIIIIIIIII
IIIIIIIIIIIIIIIIIIIIIIIIIIIIIIAA4IIIIIIIIIIIIIIIIIIIIIIIIIIIIIII
IIIIIIIIIIIIIIIIIIIIIIIIIIIIIAAA4IIIIIIIIIIIIIIIIIIIIIIIIIIIIIII
IIIIIIIIIIIIIIIIIIIIIIIIIIIIIAAA4IIIIIIIIIIIIIIIIIIIIIIIA4IIIIII
IIIIIIIIIIIIIIIIIIIIIIIIIIIIIAAA4IIIIIIIIIIIIIIIIIIIIIIIAA4IIIII
IIIIIIA4IIIIIIIIIIIIIIIIIIIIIAAA4IIIIIIIIIIIIIIIIIIIIIIIAA4IIIII
IIIIIIA4IIIIIIIIIIIIIIIIIA4IIAAA4IIIIIIIIIIIIIIIIIIIIIIIAA4IIIII
IIIIIIA4IIIIIIIIIIIIIIIIIAA4IAAA4IIIIIIIIIIIIIIIIIIIIIIIAA4IIIII
IIIIIIA4IIIIIIIIIIIIIIIIIAAA4AAA4IIIIIIIIIIIIIIIIIIIIIIIAA4IIIII
IIIIIIA4IIIIIIIIIIIIIIIIIAAAAAAA4IIIIIIIIIIIIIIIIIIIIIIIAA4IIIII
IIIIIIA4IIIIIIIIIIIIIIIIIAAAAAAA4IIIIIIIIIIIIIIIIIA4IIIIAA4IIIII
IIIA4IA4IIIIIIIIIIIIIIIIIAAAAAAA4IIIIIIIIIIIIIIIIIA4IIIIAA4IIIII
IIIA4IA4IIIIIIIIIIIIIIIIIAAAAAAA4IIIIIA4IIIIIIIIIIA4IIIIAA4IIIII
IIIA4IA4IIIIIIIIIIIIIIIIIAAAAAAA4IIIIIAA4IIIIIIIIIA4IIIIAA4IIIII
IIIA4IA4IIIIIIIIIIIIIIIIIAAAAAAA4IIIIIAA4IIIIIIIIIA4IA4IAA4IIIII
IIIA4IA4IIIIIIIIIIIIIIIIIAAAAAAA4IIIIIAA4IIIIIIIIIA4IAA4AA4IIIII
IIIA4IA4IIIIIIIIIIIIIA4IIAAAAAAA4IIIIIAA4IIIIIIIIIA4IAA4AA4IIIII
IIIA4IA4IIIIIIIIIIIIIA4IIAAAAAAA4IIIIIAA4IIIIIIIIIA4IAA4AA4IIA4I
IIIA4IA4IIIIIIIIIIIIIA4IIAAAAAAA4IIIIIAA4IIIIIIIIIA4IAA4AA4IIAA4
IIIA4IA4IIIIIIIIIIIIIA4IIAAAAAAA4IIIIIAA4IIIIIIIIIA4IAAAAA4IIAA4
IIIAA4A4IIIIIIIIIIIIIA4IIAAAAAAA4IIIIIAA4IIIIIIIIIA4IAAAAA4IIAA4
IIIAAAA4IIIIIIIIIIIIIA4IIAAAAAAA4IIIIIAA4IIIIIIIIIA4IAAAAA4IIAA4
IIIAAAA4IIIIIIIIIIIIIA4IIAAAAAAA4IIA4IAA4IIIIIIIIIA4IAAAAA4IIAA4
IIIAAAA4IIIIIIIIIIIIIA4IIAAAAAAA4IIAA4AA4IIIIIIIIIA4IAAAAA4IIAA4
A4IAAAA4IIIIIIIIIIIIIA4IIAAAAAAA4IIAA4AA4IIIIIIIIIA4IAAAAA4IIAA4
A4IAAAA4IIIIIIIIIIIIIA4IIAAAAAAAA4IAA4AA4IIIIIIIIIA4IAAAAA4IIAA4
A4IAAAA4IIIIIIIIIIIIIA4IIAAAAAAAAA4AA4AA4IIIIIIIIIA4IAAAAA4IIAA4
A4IAAAA4IIIIIIIIIIIIIA4IIAAAAAAAAA4AA4AA4IA4IIIIIIA4IAAAAA4IIAA4
A4IAAAA4IIIIIIA4IIIIIA4IIAAAAAAAAA4AA4AA4IA4IIIIIIA4IAAAAA4IIAA4
A4IAAAA4IIIIIIAA4IIIIA4IIAAAAAAAAA4AA4AA4IA4IIIIIIA4IAAAAA4IIAA4
A4IAAAA4III4IIAA4A4IIA4IIAAAAAAAAA4AA4AA4IA4IIIIIIA4IAAAAA4IIAA4
A4IAAAA4III44IAA4AA4IA4IIAAAAAAAAA4AA4AA4IA4IIIIIIA4IAAAAA4IIAA4
AA4AAAA4III44IAA4AA4IA4IIAAAAAAAAA4AA4AA4IA4IIIIIIA4IAAAAA4IIAA4
AAAAAAA4III44IAA4AA4IA4IIAAAAAAAAA4AA4AA4IA4IIIIIIA4IAAAAA4IIAA4
AAAAAAA4III44IAA4AA4IA4IIAAAAAAAAA4AA4AA4IA4IIIIA4A4IAAAAA4IIAA4
AAAAAAA4III44IAA4AA4IA4IIAAAAAAAAA4AA4AA4IA4IIIIAAA4IAAAAA4IIAA4
AAAAAAA4III44IAA4AA4IA4IIAAAAAAAAA4AA4AA4IA4IIIIAAAA4AAAAA4IIAA4
AAAAAAA4III44IAA4AA4IA4IIAAAAAAAAA4AA4AA4IA4IIIIAAAAAAAAAA4IIAA4
AAAAAAA4III44IAA4AA4IA4IIAAAAAAAAA4AA4AA4IA4IIIIAAAAAAAAAA4IIAAA
AAAAAAA4III44IAA4AA4IA4IAAAAAAAAAA4AA4AA4IA4IIIIAAAAAAAAAA4IIAAA
AAAAAAA4III44IAA4AA4IA4IAAAAAAAAAA4AAAAA4IA4IIIIAAAAAAAAAA4IIAAA
AAAAAAA4A4I44IAA4AA4IA4IAAAAAAAAAA4AAAAA4IA4IIIIAAAAAAAAAA4IIAAA
AAAAAAA4A4I44IAA4AA4IA4IAAAAAAAAAAAAAAAA4IA4IIIIAAAAAAAAAA4IIAAA
AAAAAAA4A4I44IAA4AA4IA4IAAAAAAAAAAAAAAAA4IAA44IIAAAAAAAAAA4IIAAA
AAAAAAA4A4I44IAA4AA4IA4IAAAAAAAAAAAAAAAA4IAAA44IAAAAAAAAAA4IIAAA
AAAAAAA4A4I44IAA4AA4IAA4AAAAAAAAAAAAAAAA4IAAA44IAAAAAAAAAA4IIAAA
AAAAAAA4A4I44IAA4AA4IAAAAAAAAAAAAAAAAAAA4IAAA44IAAAAAAAAAA4IIAAA
AAAAAAA4A4I44IAA4AA4IAAAAAAAAAAAAAAAAAAA4IAAA44IAAAAAAAAAA4IAAAA
AAAAAAA4A4I44IAA4AA4IAAAAAAAAAAAAAAAAAAA44AAAA4IAAAAAAAAAA4IAAAA
AAAAAAA4A4I44IAA4AA4IAAAAAAAAAAAAAAAAAAA44AAAAA4AAAAAAAAAA4IAAAA
AAAAAAA4A4I44IAAAAA4IAAAAAAAAAAAAAAAAAAA44AAAAA4AAAAAAAAAA4IAAAA
IIIIIIIIIA4IIIIIIIIIIIIIIIIIIIIIIIIIIIIIIIIIIIIIIIIIIIIIIIIIIIII
IIIIIIIIIAA4IIIIIIIIIIIIIIIIIIIIIIIIIIIIIIIIIIIIIIIIIIIIIIIIIIII
IIIIIIIIIIIII4I4IA44IIIIIIIIIIIIIIIIIIIIIIIIIIIIIIIIIIIIIIIIIIII
III4I4IA44III4I4IA44IIIIIIIIIIIIIIIIIIIIIIIIIIIIIIIIIIIIIIIIIIII
II4444AA44III4I4IA44IIIIIIIIIIIIIIIIIIIIIIIIIIIIIIIIIIIIIIIIIIII
II4444AA44III4I4IA44A4IIIIIIIIIIIIIIIIIIIIIIIIIIIIIIIIIIIIIIIIII
II4444AA44III4I4IA44A44IIIIIIIIIIIIIIIIIIIIIIIIIIIIIIIIIIIIIIIII
II4444AA444II4I4IA44A44IIIIIIIIIIIIIIIIIIIIIIIIIIIIIIIIIIIIIIIII
II4444AA4444I4I4IA44A44IIIIIIIIIIIIIIIIIIIIIIIIIIIIIIIIIIIIIIIII
II4444AA4444I4I4IA44A4444IIIIIIIIIIIIIIIIIIIIIIIIIIIIIIIIIIIIIII
II4444AA444444I4IA44A4444IIIIIIIIIIIIIIIIIIIIIIIIIIIIIIIIIIIIIII
II4444AA444444I4IA44A44444IIIIIIIIIIIIIIIIIIIIIIIIIIIIIIIIIIIIII
II4444AA444444I4IA44A444444IIIIIIIIIIIIIIIIIIIIIIIIIIIIIIIIIIIII
II4444AA44444444IA44A444444IIIIIIIIIIIIIIIIIIIIIIIIIIIIIIIIIIIII
II4444AA44444444IA44A4444444IIIIIIIIIIIIIIIIIIIIIIIIIIIIIIIIIIII
II4444AA44444444IA44A44444444IIIIIIIIIIIIIIIIIIIIIIIIIIIIIIIIIII
II4444AA444444444A44A44444444IIIIIIIIIIIIIIIIIIIIIIIIIIIIIIIIIII
II4444AA444444444A44A444444444IIIIIIIIIIIIIIIIIIIIIIIIIIIIIIIIII
II4444AA444444444A44A44444444444IIIIIIIIIIIIIIIIIIIIIIIIIIIIIIII
II4444AA444444444A44A444444444444IIIIIIIIIIIIIIIIIIIIIIIIIIIIIII
II4444AA444444444A44A4444444444444IIIIIIIIIIIIIIIIIIIIIIIIIIIIII
II4444AA444444444A44A44444444444444IIIIIIIIIIIIIIIIIIIIIIIIIIIII
II4444AA444444444A44A4444444444444444IIIIIIIIIIIIIIIIIIIIIIIIIII
II4444AA444444444A44A4444444444444444I4IIIIIIIIIIIIIIIIIIIIIIIII
II4444AA444444444A44A4444444444444444I4II4IIIIIIIIIIIIIIIIIIIIII
II4444AA444444444A44A4424444444444444I4II4IIIIIIIIIIIIIIIIIIIIII
II4444AA442444444A44A4424444444444444I4II4IIIIIIIIIIIIIIIIIIIIII
II4444AA422444444A44A4424444444444444I4II4IIIIIIIIIIIIIIIIIIIIII
II4444AA222444444A44A4424444444444444I4II4IIIIIIIIIIIIIIIIIIIIII
II4444AA222444444A42A4424444444444444I4II4IIIIIIIIIIIIIIIIIIIIII
II4444AA222444444A42A4224444444444444I4II4II4IIIIIIIIIIIIIIIIIII
II4444AA222444444A42A4224444444444444I4II4II4IIIIIIIIIIIIIIIIAII
II4444AA222444444A42A4224444444444444I4II4II4IIIIIIIIIIIIIIIAAI4
II4444AA222444444A4IA4224444444444444I4II4II4IIIIIIIIIIIIIIIAAI4
II4444AA222444444A44A4224444444444444I4II4II4IIIIIIIIIIIIIIIAAI4
II4444AA222444444A24A4224444444444444I4II4II4IIIIIIIIIIIIIIIAAI4
II4444AA222444444A24A422444444444444444II4II4IIIIIIIIIIIIIIIAAI4
II4444AA222444444A22A422444444444444444II4II4IIIIIIIIIIIIIIIAAI4
II4444AA222444444A22A222444444444444444II4II4IIIIIIIIIIIIIIIAAI4
II4444AA222444444A22A2224444444444444444I4II4IIIIIIIIIIIIIIIAAI4
II4444AA222444444A22A2A24444444444444444I4II4IIIIIIIIIIIIIIIAAI4
II4444AA222444444A22I2A24444444444444444I4II4IIIIIIIIIIIIIIIAAI4
II4444AA222444444A2242A24444444444444444I4II4IIIIIIIIIIIIIIIAAI4
II4444AA222444444A22A2A24444444444444444I4II4IIIIIIIIIIIIIIIAAI4
II4444AI222444444A22A2A24444444444444444I4II4IIIIIIIIIIIIIIIAAI4
II4444AA222444444A22A2A24444444444444444I4II4IIIIIIIIIIIIIIIAAI4
II4444AA222444444A22A2A24444444444444444I4II4A4I4I4IIII4IIIIAAI4
II4444AA222444444A22A2I24444444444444444I4II4A4I4I4IIII4IIIIAAI4
II4444AA222444444A22A2424444444444444444I4II4A4I4I4IIII4IIIIAAI4
II4444AI222444444A22A2424444444444444444I4II4A4I4I4IIII4IIIIAAI4
II4444AA222444444A22A2424444444444444444I4II4A4I4I4IIII4IIIIAAI4
II4444AA222444444A22A242444444444444444444II4A4I4I4IIII4IIIIAAI4
II4444AA222444444A22A222444444444444444444I44A4I4I4IIII4IIIIAAI4
II4444AA222444444A22A2I2444444444444444444I44A4I4I4IIII4IIIIAAI4
II4444AA222444444A22A222444444444444444444I44A4I4I4IIII4IIIIAAI4
II4444AA222444444A22A222444444444444444444I44A422I444II4III4AAI4
II4444AA222444444A22A222444444444444444444I44I422I444II4III4AAI4
II4444AA222444444A22A2A2444444444444444444I44I422I444II4III4AAI4
II4444AA222444444A22A2A2444444444444444444I44I42II444II4III4AAI4
II4444AA222444444A22A2A2444444444444444444I44A224I444II4II44AA44
II4444AA222444444A22A2A2444444444444444444444A224I444II4II44AA44
II4444IA222444444A22A2A2444444444444444444444A224I444II4II44AA44
II4444AA222444444A22A2A2444444444444444444444A224I444II4II44AA44
II4444IA222444444A22A2A2444444444444444444444A224I444II4II44AA44
II4444AA222444444A22A2A2444444444444444444444A224I444II4II44AA44
II4444IA222444444A22A2A2444444444444444444444A224I444II4II44AA44
II4444AA222444444A22A2A2444444444444444444444A224I444II4II44AA44
II4444AA222444444A22A2A2444444444444444444444A222I4444I4I444AA44
II4444AA222444444A22A2A2444444444444444444444I222I4444I4I444AA44
II4444IA222444444A22A2A2444444444444444444444I222I4444I4I444AA44
II4444AA222444444A22A2A2444444444444444444444I222I4444I4I444AA44
II4444AI222444444A22A2A2444444444444444444444I222I4444I4I444AA44
II4444AA222444444A22A2A2444444444444444444444I222I4444I4I444AA44
II4444AA222444444A22A2A2444444444444444444444I222I4444I4I4A4AA44
II4444AA222444444A22A2A2444444444444444444444I222I4444I444AAAA44
IIIIIIIIIIIIIIIIIIIIIIIIIIIIIIIIIIIIIIIIIIIII4IA4444IIIIIIIIIIII
IIIIIIIIIIIIIIIIIIIIIIIIIIIIIIIIIIIIIIIIA4III4IA4444IIIIIIIIIIII
IIIIIIIIIIIIIIIIIIIIIIIIIIIIIIIIIIIIIIIIAA4II4IA4444IIIIIIIIIIII
IIIIIIIIIIIIA4IIIIIIIIIIIIIIIIIIIIIIIIIIAA4II4IA4444IIIIIIIIIIII
IIIIIIIIIIIIAA4IIIIIIIIIIIIIIIIIIIIIIIIIAA4II4IA4444IIIIIIIIIIII
IIIIIIIIIIIA4IIIIIIIIIIIIIIIIIIIIIIIIIIIIIIIIIIIIIIIIIIIIIIIIIII
IIIIIIIIIIIA4IIIIIIA4IIIIIIIIIIIIIIIIIIIIIIIIIIIIIIIIIIIIIIIIIII
IIIIIIIIIIIA4IIIIIIAA4IIIIIIIIIIIIIIIIIIIIIIIIIIIIIIIIIIIIIIIIII
IIIIIIIIIIIIIIIIIIIIIIIIIIIIIIA4IIIIIIIIIIIIIIIIIIIIIIIIIIIIIIII
IIIIIIIIIIIIIIIIIIIIIIIIIIIIIIAA4IIIIIIIIIIIIIIIIIIIIIIIIIIIIIII
IIIIIIIIIIIIIIIIIIIIIIIIIIIIIAAA4IIIIIIIIIIIIIIIIIIIIIIIIIIIIIII
IIIIIIIIIIIIIIIIIIIIIIIIIIIIIAAA4IIIIIIIIIIIIIIIIIIIIIIIA4IIIIII
IIIIIIIIIIIIIIIIIIIIIIIIIIIIIAAA4IIIIIIIIIIIIIIIIIIIIIIIAA4IIIII
IIIIIIA4IIIIIIIIIIIIIIIIIIIIIAAA4IIIIIIIIIIIIIIIIIIIIIIIAA4IIIII
IIIIIIA4IIIIIIIIIIIIIIIIIA4IIAAA4IIIIIIIIIIIIIIIIIIIIIIIAA4IIIII
IIIIIIA4IIIIIIIIIIIIIIIIIAA4IAAA4IIIIIIIIIIIIIIIIIIIIIIIAA4IIIII
IIIIIIA4IIIIIIIIIIIIIIIIIAAA4AAA4IIIIIIIIIIIIIIIIIIIIIIIAA4IIIII
IIIIIIA4IIIIIIIIIIIIIIIIIAAAAAAA4IIIIIIIIIIIIIIIIIIIIIIIAA4IIIII
IIIIIIA4IIIIIIIIIIIIIIIIIAAAAAAA4IIIIIIIIIIIIIIIIIA4IIIIAA4IIIII
IIIA4IA4IIIIIIIIIIIIIIIIIAAAAAAA4IIIIIIIIIIIIIIIIIA4IIIIAA4IIIII
IIIA4IA4IIIIIIIIIIIIIIIIIAAAAAAA4IIIIIA4IIIIIIIIIIA4IIIIAA4IIIII
IIIA4IA4IIIIIIIIIIIIIIIIIAAAAAAA4IIIIIAA4IIIIIIIIIA4IIIIAA4IIIII
IIIA4IA4IIIIIIIIIIIIIIIIIAAAAAAA4IIIIIAA4IIIIIIIIIA4IA4IAA4IIIII
IIIA4IA4IIIIIIIIIIIIIIIIIAAAAAAA4IIIIIAA4IIIIIIIIIA4IAA4AA4IIIII
IIIA4IA4IIIIIIIIIIIIIA4IIAAAAAAA4IIIIIAA4IIIIIIIIIA4IAA4AA4IIIII
IIIA4IA4IIIIIIIIIIIIIA4IIAAAAAAA4IIIIIAA4IIIIIIIIIA4IAA4AA4IIA4I
IIIA4IA4IIIIIIIIIIIIIA4IIAAAAAAA4IIIIIAA4IIIIIIIIIA4IAA4AA4IIAA4
IIIA4IA4IIIIIIIIIIIIIA4IIAAAAAAA4IIIIIAA4IIIIIIIIIA4IAAAAA4IIAA4
IIIAA4A4IIIIIIIIIIIIIA4IIAAAAAAA4IIIIIAA4IIIIIIIIIA4IAAAAA4IIAA4
IIIAAAA4IIIIIIIIIIIIIA4IIAAAAAAA4IIIIIAA4IIIIIIIIIA4IAAAAA4IIAA4
IIIAAAA4IIIIIIIIIIIIIA4IIAAAAAAA4IIA4IAA4IIIIIIIIIA4IAAAAA4IIAA4
IIIAAAA4IIIIIIIIIIIIIA4IIAAAAAAA4IIAA4AA4IIIIIIIIIA4IAAAAA4IIAA4
A4IAAAA4IIIIIIIIIIIIIA4IIAAAAAAA4IIAA4AA4IIIIIIIIIA4IAAAAA4IIAA4
A4IAAAA4IIIIIIIIIIIIIA4IIAAAAAAAA4IAA4AA4IIIIIIIIIA4IAAAAA4IIAA4
A4IAAAA4IIIIIIIIIIIIIA4IIAAAAAAAAA4AA4AA4IIIIIIIIIA4IAAAAA4IIAA4
A4IAAAA4IIIIIIIIIIIIIA4IIAAAAAAAAA4AA4AA4IA4IIIIIIA4IAAAAA4IIAA4
A4IAAAA4IIIIIIA44IIIIA4IIAAAAAAAAA4AA4AA4IA4IIIIIIA4IAAAAA4IIAA4
A4IAAAA4IIIIIIAA44IIIA4IIAAAAAAAAA4AA4AA4IA4IIIIIIA4IAAAAA4IIAA4
A4IAAAA4IIIIIIAA4A4IIA4IIAAAAAAAAA4AA4AA4IA4IIIIIIA4IAAAAA4IIAA4
A4IAAAA4IIIIIIAA4AA4IA4IIAAAAAAAAA4AA4AA4IA4IIIIIIA4IAAAAA4IIAA4
AA4AAAA4IIIIIIAA4AA4IA4IIAAAAAAAAA4AA4AA4IA4IIIIIIA4IAAAAA4IIAA4
AAAAAAA4IIIIIIAA4AA4IA4IIAAAAAAAAA4AA4AA4IA4IIIIIIA4IAAAAA4IIAA4
AAAAAAA4IIIIIIAA4AA4IA4IIAAAAAAAAA4AA4AA4IA4IIIIA4A4IAAAAA4IIAA4
AAAAAAA4IIIIIIAA4AA4IA4IIAAAAAAAAA4AA4AA4IA4IIIIAAA4IAAAAA4IIAA4
AAAAAAA4IIIIIIAA4AA4IA4IIAAAAAAAAA4AA4AA4IA4IIIIAAAA4AAAAA4IIAA4
AAAAAAA4IIIIIIAA4AA4IA4IIAAAAAAAAA4AA4AA4IA4IIIIAAAAAAAAAA4IIAA4
AAAAAAA4IIIIIIAA4AA4IA4IIAAAAAAAAA4AA4AA4IA4IIIIAAAAAAAAAA4IIAAA
AAAAAAA4IIIIIIAA4AA4IA4IAAAAAAAAAA4AA4AA4IA4IIIIAAAAAAAAAA4IIAAA
AAAAAAA4IIIIIIAA4AA4IA4IAAAAAAAAAA4AAAAA4IA4IIIIAAAAAAAAAA4IIAAA
AAAAAAA4A4IIIIAA4AA4IA4IAAAAAAAAAA4AAAAA4IA4IIIIAAAAAAAAAA4IIAAA
AAAAAAA4A4IIIIAA4AA4IA4IAAAAAAAAAAAAAAAA4IA4IIIIAAAAAAAAAA4IIAAA
AAAAAAA4A4IIIIAA4AA4IA4IAAAAAAAAAAAAAAAA44AA4IIIAAAAAAAAAA4IIAAA
AAAAAAA4A4IIIIAA4AA4IA4IAAAAAAAAAAAAAAAA44AAA4IIAAAAAAAAAA4IIAAA
AAAAAAA4A4IIIIAA4AA44AA4AAAAAAAAAAAAAAAA44AAA4IIAAAAAAAAAA4IIAAA
AAAAAAA4A4IIIIAA4AA44AAAAAAAAAAAAAAAAAAA44AAA4IIAAAAAAAAAA4IIAAA
AAAAAAA4A4IIIIAA4AA44AAAAAAAAAAAAAAAAAAA44AAA4IIAAAAAAAAAA4IAAAA
AAAAAAA4A4IIIIAA4AA44AAAAAAAAAAAAAAAAAAA44AAAA4IAAAAAAAAAA4IAAAA
AAAAAAA4A4IIIIAA4AA44AAAAAAAAAAAAAAAAAAA44AAAAA4AAAAAAAAAA4IAAAA
AAAAAAA4A4IIIIAAAAA44AAAAAAAAAAAAAAAAAAA44AAAAA4AAAAAAAAAA4IAAAA
IIIIIIIIIA4IIIIIIIIIIIIIIIIIIIIIIIIIIIIIIIIIIIIIIIIIIIIIIIIIIIII
IIIIIIIIIAA4IIIIIIIIIIIIIIIIIIIIIIIIIIIIIIIIIIIIIIIIIIIIIIIIIIII
IIIIIIIIIIII4IIIII4IA4IIIIIIIIIIIIIIIIIIIIIIIIIIIIIIIIIIIIIIIIII
IIIIIIIA4III4IIIII4IA4IIIIIIIIIIIIIIIIIIIIIIIIIIIIIIIIIIIIIIIIII
IIIIIIAA4III4IIIII4IA4IIIIIIIIIIIIIIIIIIIIIIIIIIIIIIIIIIIIIIIIII
IIIIIIAA4III4IIIII4IA44IIIIIIIIIIIIIIIIIIIIIIIIIIIIIIIIIIIIIIIII
IIIIIIAA44II4IIIII4IA44IIIIIIIIIIIIIIIIIIIIIIIIIIIIIIIIIIIIIIIII
IIIIIIAA444I4IIIII4IA44IIIIIIIIIIIIIIIIIIIIIIIIIIIIIIIIIIIIIIIII
IIIIIIAA444I4IIIII4IA444IIIIIIIIIIIIIIIIIIIIIIIIIIIIIIIIIIIIIIII
IIIIIIAA444I4IIIII4IA4444IIIIIIIIIIIIIIIIIIIIIIIIIIIIIIIIIIIIIII
IIIIIIAA444I4IIIII4IA44444IIIIIIIIIIIIIIIIIIIIIIIIIIIIIIIIIIIIII
IIIIIIAA44444IIIII4IA44444IIIIIIIIIIIIIIIIIIIIIIIIIIIIIIIIIIIIII
IIIIIIAA444444IIII4IA44444IIIIIIIIIIIIIIIIIIIIIIIIIIIIIIIIIIIIII
IIIIIIAA444444IIII4IA444444IIIIIIIIIIIIIIIIIIIIIIIIIIIIIIIIIIIII
IIIIIIAA444444IIII4IA4444444IIIIIIIIIIIIIIIIIIIIIIIIIIIIIIIIIIII
IIIIIIAA444444IIII4IA44444444IIIIIIIIIIIIIIIIIIIIIIIIIIIIIIIIIII
IIIIIIAA444444IIII4IA444444444IIIIIIIIIIIIIIIIIIIIIIIIIIIIIIIIII
IIIIIIAA44444444444IA444444444IIIIIIIIIIIIIIIIIIIIIIIIIIIIIIIIII
IIIIIIAA44444444444IA4444444444IIIIIIIIIIIIIIIIIIIIIIIIIIIIIIIII
IIIIIIAA44444444444IA44444444444IIIIIIIIIIIIIIIIIIIIIIIIIIIIIIII
IIIIIIAA444444444444A44444444444IIIIIIIIIIIIIIIIIIIIIIIIIIIIIIII
IIIIIIAA444444444444A444444444444IIIIIIIIIIIIIIIIIIIIIIIIIIIIIII
IIIIIIAA444444444444A4444444444444I4IIIIIIIIIIIIIIIIIIIIIIIIIIII
IIIIIIAA444444444444A4444444444444I44IIIIIIIIIIIIIIIIIIIIIIIIIII
IIIIIIAA444444444444A4444444444444444IIIIIIIIIIIIIIIIIIIIIIIIIII
IIIIIIAA444444444444A4444444444444444I4IIIIIIIIIIIIIIIIIIIIIIIII
IIIIIIAA444444444444A4444444444444444I4IIII4IIIIIIIIIIIIIIIIIIII
IIIIIIAA444444444444I4444444444444444I4IIII4IIIIIIIIIIIIIIIIIIII
IIIIIIIA444444444444I4444444444444444I4IIII4IIIIIIIIIIIIIIIIIIII
IIIIIIIA444444444444A4444444444444444I4IIII4IIIIIIIIIIIIIIIIIIII
IIIIIIAA444444444444A4444444444444444I4IIII4IIIIIIIIIIIIIIIIIIII
IIIIIIAA444444444444A4444444444444444I4II4I4IIIIIIIIIIIIIIIIIIII
IIIIIIIA444444444444A4444444444444444I4II4I4IIIIIIIIIIIIIIIIIIII
IIIIIIAA444444444444A4444444444444444I4II4I4IIIIIIIIIIIIIIIIIIII
IIIIIIAA444444444444A444444444444444444II4I4IIIIIIIIIIIIIIIIIIII
IIIIIIAA424444444444A444444444444444444II4I4IIIIIIIIIIIIIIIIIIII
IIIIIIAA224444444444A444444444444444444II4I4IIIIIIIIIIIIIIIIIIII
IIIIIIAA224444444444A4244444444444444444I4I4IIIIIIIIIIIIIIIIIIII
IIIIIIAA224444444444A424444444444444444444I4IIIIIIIIIIIIIIIIIIII
[MLOP] Prefetch Degree Mean: 4.20745
[MLOP] Prefetch Degree SD: 3.10274
[MLOP] Max Score Left Mean (%): 26.78626
[MLOP] Max Score Left SD (%): 19.49245
[MLOP] Max Score Right Mean (%): 59.87272
[MLOP] Max Score Right SD (%): 15.13120

Channel_0_RQ_row_buffer_hit 3925208
Channel_0_RQ_row_buffer_miss 48523404
Channel_0_WQ_row_buffer_hit 2380626
Channel_0_WQ_row_buffer_miss 5205881
Channel_0_WQ_full 0
Channel_0_dbus_congested 15808219

avg_congested_cycle 4

DRAM_bw_pochs 18524200
DRAM_bw_level_0 16872047
DRAM_bw_level_1 1520106
DRAM_bw_level_2 116679
DRAM_bw_level_3 15368
