*************************************************
   ChampSim Multicore Out-of-Order Simulator
   Last compiled: Dec 11 2024 17:59:53
*************************************************
parsing config file: /home/functionmain/桌面/Pythia/config/spp_dev2.ini

trace_0 /home/functionmain/桌面/Pythia/traces/429.mcf-192B.champsimtrace.xz
adding L2C_PREFETCHER: SPP_dev2
Initialize SIGNATURE TABLE
ST_SET: 1
ST_WAY: 256
ST_TAG_BIT: 16
ST_TAG_MASK: ffff

Initialize PATTERN TABLE
PT_SET: 512
PT_WAY: 4
SIG_DELTA_BIT: 7
C_SIG_BIT: 4
C_DELTA_BIT: 4

Initialize PREFETCH FILTER
FILTER_SET: 1024
fill_threshold: 90
pf_threshold: 40

Initialize SHIP state
warmup_instructions 100000000
simulation_instructions 500000000
champsim_seed 222
measure_ipc 0
measure_ipc_epoch 1000
measure_dram_bw 1
measure_dram_bw_epoch 256
measure_cache_acc 1
measure_cache_acc_epoch 1024
l1d_perfect 0
l2c_perfect 0
llc_perfect 0
l1d_semi_perfect 0
l2c_semi_perfect 0
llc_semi_perfect 0
semi_perfect_cache_page_buffer_size 64

num_cpus 1
cpu_freq 4000
dram_io_freq 150
page_size 4096
block_size 64
max_read_per_cycle 8
max_fill_per_cycle 1
dram_channels 1
log2_dram_channels 0
dram_ranks 1
dram_banks 8
dram_rows 65536
dram_columns 128
dram_row_size 8
dram_size 4096
dram_pages 1048576

fetch_width 6
decode_width 6
exec_width 4
lq_width 2
sq_width 2
retire_width 4
scheduler_size 128
branch_mispredict_penalty 20
rob_size 256
lq_size 72
sq_size 56
num_instr_destinations_sparc 4
num_instr_destinations 2
num_instr_sources 4

itlb_set 16
itlb_way 8
itlb_rq_size 16
itlb_wq_size 16
itlb_pq_size 0
itlb_mshr_size 8
itlb_latency 1

dtlb_set 16
dtlb_way 4
dtlb_rq_size 16
dtlb_wq_size 16
dtlb_pq_size 0
dtlb_mshr_size 8
dtlb_latency 1

stlb_set 128
stlb_way 12
stlb_rq_size 32
stlb_wq_size 32
stlb_pq_size 0
stlb_mshr_size 16
stlb_latency 8

l1i_size 32
l1i_set 64
l1i_way 8
l1i_rq_size 64
l1i_wq_size 64
l1i_pq_size 8
l1i_mshr_size 8
l1i_latency 1

l1d_size 32
l1d_set 64
l1d_way 8
l1d_rq_size 64
l1d_wq_size 64
l1d_pq_size 8
l1d_mshr_size 16
l1d_latency 4

l2c_size 256
l2c_set 512
l2c_way 8
l2c_rq_size 32
l2c_wq_size 32
l2c_pq_size 32
l2c_mshr_size 32
l2c_latency 10

llc_size 2048
llc_set 2048
llc_way 16
llc_rq_size 32
llc_wq_size 32
llc_pq_size 32
llc_mshr_size 64
llc_latency 20

dram_channel_width 8
dram_wq_size 64
dram_rq_size 64
tRP 15
tRCD 15
tCAS 12.5
dram_dbus_turn_around_time 30
dram_write_high_wm 56
dram_write_low_wm 48
min_dram_writes_per_switch 16
dram_mtps 150
dram_dbus_return_time 213


Heartbeat CPU  0 instructions:    1000002 cycles:    1178218 heartbeat IPC: 0.84874 cumulative IPC: 0.84874 (Simulation time: 0 hr 0 min 1 sec) 
Heartbeat CPU  0 instructions:    2000002 cycles:    2361929 heartbeat IPC: 0.84480 cumulative IPC: 0.84677 (Simulation time: 0 hr 0 min 3 sec) 
Heartbeat CPU  0 instructions:    3000000 cycles:    3526487 heartbeat IPC: 0.85869 cumulative IPC: 0.85070 (Simulation time: 0 hr 0 min 4 sec) 
Heartbeat CPU  0 instructions:    4000000 cycles:    4666901 heartbeat IPC: 0.87687 cumulative IPC: 0.85710 (Simulation time: 0 hr 0 min 6 sec) 
Heartbeat CPU  0 instructions:    5000001 cycles:    5826105 heartbeat IPC: 0.86266 cumulative IPC: 0.85821 (Simulation time: 0 hr 0 min 7 sec) 
Heartbeat CPU  0 instructions:    6000000 cycles:    6980361 heartbeat IPC: 0.86636 cumulative IPC: 0.85955 (Simulation time: 0 hr 0 min 9 sec) 
Heartbeat CPU  0 instructions:    7000000 cycles:    8153329 heartbeat IPC: 0.85254 cumulative IPC: 0.85855 (Simulation time: 0 hr 0 min 10 sec) 
Heartbeat CPU  0 instructions:    8000000 cycles:    9310761 heartbeat IPC: 0.86398 cumulative IPC: 0.85922 (Simulation time: 0 hr 0 min 11 sec) 
Heartbeat CPU  0 instructions:    9000002 cycles:   10477802 heartbeat IPC: 0.85687 cumulative IPC: 0.85896 (Simulation time: 0 hr 0 min 13 sec) 
Heartbeat CPU  0 instructions:   10000000 cycles:   11642047 heartbeat IPC: 0.85892 cumulative IPC: 0.85896 (Simulation time: 0 hr 0 min 14 sec) 
Heartbeat CPU  0 instructions:   11000003 cycles:   12779751 heartbeat IPC: 0.87897 cumulative IPC: 0.86074 (Simulation time: 0 hr 0 min 16 sec) 
Heartbeat CPU  0 instructions:   12000000 cycles:   13892094 heartbeat IPC: 0.89900 cumulative IPC: 0.86380 (Simulation time: 0 hr 0 min 17 sec) 
Heartbeat CPU  0 instructions:   13000001 cycles:   15034697 heartbeat IPC: 0.87520 cumulative IPC: 0.86467 (Simulation time: 0 hr 0 min 19 sec) 
Heartbeat CPU  0 instructions:   14000000 cycles:   16185955 heartbeat IPC: 0.86861 cumulative IPC: 0.86495 (Simulation time: 0 hr 0 min 20 sec) 
Heartbeat CPU  0 instructions:   15000000 cycles:   17351378 heartbeat IPC: 0.85806 cumulative IPC: 0.86448 (Simulation time: 0 hr 0 min 22 sec) 
Heartbeat CPU  0 instructions:   16000000 cycles:   18519289 heartbeat IPC: 0.85623 cumulative IPC: 0.86396 (Simulation time: 0 hr 0 min 23 sec) 
Heartbeat CPU  0 instructions:   17000001 cycles:   19694273 heartbeat IPC: 0.85108 cumulative IPC: 0.86320 (Simulation time: 0 hr 0 min 25 sec) 
Heartbeat CPU  0 instructions:   18000000 cycles:   20865213 heartbeat IPC: 0.85401 cumulative IPC: 0.86268 (Simulation time: 0 hr 0 min 26 sec) 
Heartbeat CPU  0 instructions:   19000003 cycles:   22020705 heartbeat IPC: 0.86543 cumulative IPC: 0.86282 (Simulation time: 0 hr 0 min 27 sec) 
Heartbeat CPU  0 instructions:   20000000 cycles:   23169505 heartbeat IPC: 0.87047 cumulative IPC: 0.86320 (Simulation time: 0 hr 0 min 29 sec) 
Heartbeat CPU  0 instructions:   21000000 cycles:   24325963 heartbeat IPC: 0.86471 cumulative IPC: 0.86328 (Simulation time: 0 hr 0 min 30 sec) 
Heartbeat CPU  0 instructions:   22000003 cycles:   25486887 heartbeat IPC: 0.86139 cumulative IPC: 0.86319 (Simulation time: 0 hr 0 min 32 sec) 
Heartbeat CPU  0 instructions:   23000001 cycles:   26632598 heartbeat IPC: 0.87282 cumulative IPC: 0.86360 (Simulation time: 0 hr 0 min 33 sec) 
Heartbeat CPU  0 instructions:   24000000 cycles:   27778358 heartbeat IPC: 0.87278 cumulative IPC: 0.86398 (Simulation time: 0 hr 0 min 35 sec) 
Heartbeat CPU  0 instructions:   25000001 cycles:   28923659 heartbeat IPC: 0.87313 cumulative IPC: 0.86434 (Simulation time: 0 hr 0 min 36 sec) 
Heartbeat CPU  0 instructions:   26000000 cycles:   30075390 heartbeat IPC: 0.86826 cumulative IPC: 0.86449 (Simulation time: 0 hr 0 min 37 sec) 
Heartbeat CPU  0 instructions:   27000000 cycles:   31227491 heartbeat IPC: 0.86798 cumulative IPC: 0.86462 (Simulation time: 0 hr 0 min 39 sec) 
Heartbeat CPU  0 instructions:   28000000 cycles:   32357233 heartbeat IPC: 0.88516 cumulative IPC: 0.86534 (Simulation time: 0 hr 0 min 40 sec) 
Heartbeat CPU  0 instructions:   29000000 cycles:   33531187 heartbeat IPC: 0.85182 cumulative IPC: 0.86487 (Simulation time: 0 hr 0 min 42 sec) 
Heartbeat CPU  0 instructions:   30000002 cycles:   34704136 heartbeat IPC: 0.85255 cumulative IPC: 0.86445 (Simulation time: 0 hr 0 min 43 sec) 
Heartbeat CPU  0 instructions:   31000002 cycles:   35883701 heartbeat IPC: 0.84777 cumulative IPC: 0.86390 (Simulation time: 0 hr 0 min 45 sec) 
Heartbeat CPU  0 instructions:   32000000 cycles:   37049084 heartbeat IPC: 0.85809 cumulative IPC: 0.86372 (Simulation time: 0 hr 0 min 46 sec) 
Heartbeat CPU  0 instructions:   33000000 cycles:   38211641 heartbeat IPC: 0.86017 cumulative IPC: 0.86361 (Simulation time: 0 hr 0 min 47 sec) 
Heartbeat CPU  0 instructions:   34000002 cycles:   39370713 heartbeat IPC: 0.86276 cumulative IPC: 0.86359 (Simulation time: 0 hr 0 min 49 sec) 
Heartbeat CPU  0 instructions:   35000000 cycles:   40542071 heartbeat IPC: 0.85371 cumulative IPC: 0.86330 (Simulation time: 0 hr 0 min 50 sec) 
Heartbeat CPU  0 instructions:   36000000 cycles:   41724830 heartbeat IPC: 0.84548 cumulative IPC: 0.86280 (Simulation time: 0 hr 0 min 52 sec) 
Heartbeat CPU  0 instructions:   37000001 cycles:   42900879 heartbeat IPC: 0.85031 cumulative IPC: 0.86245 (Simulation time: 0 hr 0 min 53 sec) 
Heartbeat CPU  0 instructions:   38000000 cycles:   44063273 heartbeat IPC: 0.86029 cumulative IPC: 0.86240 (Simulation time: 0 hr 0 min 55 sec) 
Heartbeat CPU  0 instructions:   39000000 cycles:   45224885 heartbeat IPC: 0.86087 cumulative IPC: 0.86236 (Simulation time: 0 hr 0 min 56 sec) 
Heartbeat CPU  0 instructions:   40000000 cycles:   46381250 heartbeat IPC: 0.86478 cumulative IPC: 0.86242 (Simulation time: 0 hr 0 min 57 sec) 
Heartbeat CPU  0 instructions:   41000001 cycles:   47583718 heartbeat IPC: 0.83162 cumulative IPC: 0.86164 (Simulation time: 0 hr 0 min 59 sec) 
Heartbeat CPU  0 instructions:   42000000 cycles:   48770516 heartbeat IPC: 0.84260 cumulative IPC: 0.86118 (Simulation time: 0 hr 1 min 0 sec) 
Heartbeat CPU  0 instructions:   43000000 cycles:   49950624 heartbeat IPC: 0.84738 cumulative IPC: 0.86085 (Simulation time: 0 hr 1 min 2 sec) 
Heartbeat CPU  0 instructions:   44000000 cycles:   51111323 heartbeat IPC: 0.86155 cumulative IPC: 0.86087 (Simulation time: 0 hr 1 min 3 sec) 
Heartbeat CPU  0 instructions:   45000000 cycles:   52270942 heartbeat IPC: 0.86235 cumulative IPC: 0.86090 (Simulation time: 0 hr 1 min 5 sec) 
Heartbeat CPU  0 instructions:   46000002 cycles:   53406490 heartbeat IPC: 0.88063 cumulative IPC: 0.86132 (Simulation time: 0 hr 1 min 6 sec) 
Heartbeat CPU  0 instructions:   47000000 cycles:   54562486 heartbeat IPC: 0.86505 cumulative IPC: 0.86140 (Simulation time: 0 hr 1 min 7 sec) 
Heartbeat CPU  0 instructions:   48000000 cycles:   55716337 heartbeat IPC: 0.86666 cumulative IPC: 0.86151 (Simulation time: 0 hr 1 min 9 sec) 
Heartbeat CPU  0 instructions:   49000001 cycles:   56875086 heartbeat IPC: 0.86300 cumulative IPC: 0.86154 (Simulation time: 0 hr 1 min 10 sec) 
Heartbeat CPU  0 instructions:   50000002 cycles:   58015342 heartbeat IPC: 0.87700 cumulative IPC: 0.86184 (Simulation time: 0 hr 1 min 12 sec) 
Heartbeat CPU  0 instructions:   51000000 cycles:   59150833 heartbeat IPC: 0.88067 cumulative IPC: 0.86220 (Simulation time: 0 hr 1 min 13 sec) 
Heartbeat CPU  0 instructions:   52000000 cycles:   60282532 heartbeat IPC: 0.88363 cumulative IPC: 0.86260 (Simulation time: 0 hr 1 min 14 sec) 
Heartbeat CPU  0 instructions:   53000001 cycles:   61411263 heartbeat IPC: 0.88595 cumulative IPC: 0.86303 (Simulation time: 0 hr 1 min 16 sec) 
Heartbeat CPU  0 instructions:   54000000 cycles:   62539261 heartbeat IPC: 0.88653 cumulative IPC: 0.86346 (Simulation time: 0 hr 1 min 17 sec) 
Heartbeat CPU  0 instructions:   55000001 cycles:   63667824 heartbeat IPC: 0.88608 cumulative IPC: 0.86386 (Simulation time: 0 hr 1 min 19 sec) 
Heartbeat CPU  0 instructions:   56000000 cycles:   64820269 heartbeat IPC: 0.86772 cumulative IPC: 0.86393 (Simulation time: 0 hr 1 min 20 sec) 
Heartbeat CPU  0 instructions:   57000000 cycles:   65962343 heartbeat IPC: 0.87560 cumulative IPC: 0.86413 (Simulation time: 0 hr 1 min 22 sec) 
Heartbeat CPU  0 instructions:   58000003 cycles:   67112866 heartbeat IPC: 0.86917 cumulative IPC: 0.86422 (Simulation time: 0 hr 1 min 23 sec) 
Heartbeat CPU  0 instructions:   59000003 cycles:   68273982 heartbeat IPC: 0.86124 cumulative IPC: 0.86417 (Simulation time: 0 hr 1 min 24 sec) 
Heartbeat CPU  0 instructions:   60000000 cycles:   69442748 heartbeat IPC: 0.85560 cumulative IPC: 0.86402 (Simulation time: 0 hr 1 min 26 sec) 
Heartbeat CPU  0 instructions:   61000002 cycles:   70623152 heartbeat IPC: 0.84717 cumulative IPC: 0.86374 (Simulation time: 0 hr 1 min 27 sec) 
Heartbeat CPU  0 instructions:   62000000 cycles:   71803380 heartbeat IPC: 0.84729 cumulative IPC: 0.86347 (Simulation time: 0 hr 1 min 29 sec) 
Heartbeat CPU  0 instructions:   63000000 cycles:   72995886 heartbeat IPC: 0.83857 cumulative IPC: 0.86306 (Simulation time: 0 hr 1 min 30 sec) 
Heartbeat CPU  0 instructions:   64000000 cycles:   74192096 heartbeat IPC: 0.83597 cumulative IPC: 0.86263 (Simulation time: 0 hr 1 min 32 sec) 
Heartbeat CPU  0 instructions:   65000000 cycles:   75391656 heartbeat IPC: 0.83364 cumulative IPC: 0.86216 (Simulation time: 0 hr 1 min 33 sec) 
Heartbeat CPU  0 instructions:   66000002 cycles:   76588090 heartbeat IPC: 0.83582 cumulative IPC: 0.86175 (Simulation time: 0 hr 1 min 34 sec) 
Heartbeat CPU  0 instructions:   67000001 cycles:   77771342 heartbeat IPC: 0.84513 cumulative IPC: 0.86150 (Simulation time: 0 hr 1 min 36 sec) 
Heartbeat CPU  0 instructions:   68000000 cycles:   78950389 heartbeat IPC: 0.84814 cumulative IPC: 0.86130 (Simulation time: 0 hr 1 min 37 sec) 
Heartbeat CPU  0 instructions:   69000001 cycles:   80128953 heartbeat IPC: 0.84849 cumulative IPC: 0.86111 (Simulation time: 0 hr 1 min 39 sec) 
Heartbeat CPU  0 instructions:   70000001 cycles:   81307057 heartbeat IPC: 0.84882 cumulative IPC: 0.86093 (Simulation time: 0 hr 1 min 40 sec) 
Heartbeat CPU  0 instructions:   71000003 cycles:   82479685 heartbeat IPC: 0.85279 cumulative IPC: 0.86082 (Simulation time: 0 hr 1 min 42 sec) 
Heartbeat CPU  0 instructions:   72000000 cycles:   83644440 heartbeat IPC: 0.85855 cumulative IPC: 0.86079 (Simulation time: 0 hr 1 min 43 sec) 
Heartbeat CPU  0 instructions:   73000000 cycles:   84821754 heartbeat IPC: 0.84939 cumulative IPC: 0.86063 (Simulation time: 0 hr 1 min 44 sec) 
Heartbeat CPU  0 instructions:   74000000 cycles:   86002041 heartbeat IPC: 0.84725 cumulative IPC: 0.86044 (Simulation time: 0 hr 1 min 46 sec) 
Heartbeat CPU  0 instructions:   75000001 cycles:   87154850 heartbeat IPC: 0.86745 cumulative IPC: 0.86054 (Simulation time: 0 hr 1 min 47 sec) 
Heartbeat CPU  0 instructions:   76000000 cycles:   88216234 heartbeat IPC: 0.94217 cumulative IPC: 0.86152 (Simulation time: 0 hr 1 min 49 sec) 
Heartbeat CPU  0 instructions:   77000000 cycles:   89206995 heartbeat IPC: 1.00933 cumulative IPC: 0.86316 (Simulation time: 0 hr 1 min 50 sec) 
Heartbeat CPU  0 instructions:   78000001 cycles:   90394580 heartbeat IPC: 0.84205 cumulative IPC: 0.86288 (Simulation time: 0 hr 1 min 52 sec) 
Heartbeat CPU  0 instructions:   79000003 cycles:   91583173 heartbeat IPC: 0.84133 cumulative IPC: 0.86260 (Simulation time: 0 hr 1 min 53 sec) 
Heartbeat CPU  0 instructions:   80000000 cycles:   92777653 heartbeat IPC: 0.83718 cumulative IPC: 0.86228 (Simulation time: 0 hr 1 min 55 sec) 
Heartbeat CPU  0 instructions:   81000003 cycles:   93952859 heartbeat IPC: 0.85092 cumulative IPC: 0.86213 (Simulation time: 0 hr 1 min 56 sec) 
Heartbeat CPU  0 instructions:   82000003 cycles:   95128215 heartbeat IPC: 0.85081 cumulative IPC: 0.86199 (Simulation time: 0 hr 1 min 58 sec) 
Heartbeat CPU  0 instructions:   83000003 cycles:   96295155 heartbeat IPC: 0.85694 cumulative IPC: 0.86193 (Simulation time: 0 hr 1 min 59 sec) 
Heartbeat CPU  0 instructions:   84000000 cycles:   97453437 heartbeat IPC: 0.86335 cumulative IPC: 0.86195 (Simulation time: 0 hr 2 min 0 sec) 
Heartbeat CPU  0 instructions:   85000001 cycles:   98613844 heartbeat IPC: 0.86177 cumulative IPC: 0.86195 (Simulation time: 0 hr 2 min 2 sec) 
Heartbeat CPU  0 instructions:   86000000 cycles:   99755719 heartbeat IPC: 0.87575 cumulative IPC: 0.86211 (Simulation time: 0 hr 2 min 3 sec) 
Heartbeat CPU  0 instructions:   87000001 cycles:  100917876 heartbeat IPC: 0.86047 cumulative IPC: 0.86209 (Simulation time: 0 hr 2 min 5 sec) 
Heartbeat CPU  0 instructions:   88000000 cycles:  102057180 heartbeat IPC: 0.87773 cumulative IPC: 0.86226 (Simulation time: 0 hr 2 min 6 sec) 
Heartbeat CPU  0 instructions:   89000000 cycles:  103224085 heartbeat IPC: 0.85697 cumulative IPC: 0.86220 (Simulation time: 0 hr 2 min 8 sec) 
Heartbeat CPU  0 instructions:   90000000 cycles:  104351994 heartbeat IPC: 0.88660 cumulative IPC: 0.86247 (Simulation time: 0 hr 2 min 9 sec) 
Heartbeat CPU  0 instructions:   91000003 cycles:  105474745 heartbeat IPC: 0.89067 cumulative IPC: 0.86277 (Simulation time: 0 hr 2 min 10 sec) 
Heartbeat CPU  0 instructions:   92000000 cycles:  106596030 heartbeat IPC: 0.89183 cumulative IPC: 0.86307 (Simulation time: 0 hr 2 min 12 sec) 
Heartbeat CPU  0 instructions:   93000002 cycles:  107716671 heartbeat IPC: 0.89235 cumulative IPC: 0.86338 (Simulation time: 0 hr 2 min 13 sec) 
Heartbeat CPU  0 instructions:   94000001 cycles:  108844040 heartbeat IPC: 0.88702 cumulative IPC: 0.86362 (Simulation time: 0 hr 2 min 15 sec) 
Heartbeat CPU  0 instructions:   95000001 cycles:  109998864 heartbeat IPC: 0.86593 cumulative IPC: 0.86365 (Simulation time: 0 hr 2 min 16 sec) 
Heartbeat CPU  0 instructions:   96000000 cycles:  111156105 heartbeat IPC: 0.86412 cumulative IPC: 0.86365 (Simulation time: 0 hr 2 min 18 sec) 
Heartbeat CPU  0 instructions:   97000000 cycles:  112312568 heartbeat IPC: 0.86471 cumulative IPC: 0.86366 (Simulation time: 0 hr 2 min 19 sec) 
Heartbeat CPU  0 instructions:   98000001 cycles:  113457999 heartbeat IPC: 0.87303 cumulative IPC: 0.86376 (Simulation time: 0 hr 2 min 20 sec) 
Heartbeat CPU  0 instructions:   99000000 cycles:  114620208 heartbeat IPC: 0.86043 cumulative IPC: 0.86372 (Simulation time: 0 hr 2 min 22 sec) 
Heartbeat CPU  0 instructions:  100000000 cycles:  115763602 heartbeat IPC: 0.87459 cumulative IPC: 0.86383 (Simulation time: 0 hr 2 min 23 sec) 

Warmup complete CPU  0 instructions:  100000002 cycles:  115763603 (Simulation time: 0 hr 2 min 23 sec) 

Heartbeat CPU  0 instructions:  101000000 cycles:  131703572 heartbeat IPC: 0.06274 cumulative IPC: 0.06274 (Simulation time: 0 hr 2 min 29 sec) 
Heartbeat CPU  0 instructions:  102000000 cycles:  147683103 heartbeat IPC: 0.06258 cumulative IPC: 0.06266 (Simulation time: 0 hr 2 min 34 sec) 
Heartbeat CPU  0 instructions:  103000000 cycles:  163522830 heartbeat IPC: 0.06313 cumulative IPC: 0.06282 (Simulation time: 0 hr 2 min 40 sec) 
Heartbeat CPU  0 instructions:  104000000 cycles:  179641516 heartbeat IPC: 0.06204 cumulative IPC: 0.06262 (Simulation time: 0 hr 2 min 45 sec) 
Heartbeat CPU  0 instructions:  105000000 cycles:  195845066 heartbeat IPC: 0.06171 cumulative IPC: 0.06244 (Simulation time: 0 hr 2 min 51 sec) 
Heartbeat CPU  0 instructions:  106000000 cycles:  211964266 heartbeat IPC: 0.06204 cumulative IPC: 0.06237 (Simulation time: 0 hr 2 min 56 sec) 
Heartbeat CPU  0 instructions:  107000001 cycles:  227967651 heartbeat IPC: 0.06249 cumulative IPC: 0.06239 (Simulation time: 0 hr 3 min 1 sec) 
Heartbeat CPU  0 instructions:  108000000 cycles:  244085190 heartbeat IPC: 0.06204 cumulative IPC: 0.06234 (Simulation time: 0 hr 3 min 7 sec) 
Heartbeat CPU  0 instructions:  109000000 cycles:  260128169 heartbeat IPC: 0.06233 cumulative IPC: 0.06234 (Simulation time: 0 hr 3 min 12 sec) 
Heartbeat CPU  0 instructions:  110000000 cycles:  276256695 heartbeat IPC: 0.06200 cumulative IPC: 0.06231 (Simulation time: 0 hr 3 min 18 sec) 
Heartbeat CPU  0 instructions:  111000001 cycles:  292286812 heartbeat IPC: 0.06238 cumulative IPC: 0.06231 (Simulation time: 0 hr 3 min 23 sec) 
Heartbeat CPU  0 instructions:  112000000 cycles:  308433184 heartbeat IPC: 0.06193 cumulative IPC: 0.06228 (Simulation time: 0 hr 3 min 29 sec) 
Heartbeat CPU  0 instructions:  113000000 cycles:  324459154 heartbeat IPC: 0.06240 cumulative IPC: 0.06229 (Simulation time: 0 hr 3 min 34 sec) 
Heartbeat CPU  0 instructions:  114000000 cycles:  340499454 heartbeat IPC: 0.06234 cumulative IPC: 0.06230 (Simulation time: 0 hr 3 min 40 sec) 
Heartbeat CPU  0 instructions:  115000001 cycles:  356622324 heartbeat IPC: 0.06202 cumulative IPC: 0.06228 (Simulation time: 0 hr 3 min 45 sec) 
Heartbeat CPU  0 instructions:  116000000 cycles:  372664164 heartbeat IPC: 0.06234 cumulative IPC: 0.06228 (Simulation time: 0 hr 3 min 50 sec) 
Heartbeat CPU  0 instructions:  117000000 cycles:  388644943 heartbeat IPC: 0.06258 cumulative IPC: 0.06230 (Simulation time: 0 hr 3 min 56 sec) 
Heartbeat CPU  0 instructions:  118000000 cycles:  404773754 heartbeat IPC: 0.06200 cumulative IPC: 0.06228 (Simulation time: 0 hr 4 min 1 sec) 
Heartbeat CPU  0 instructions:  119000002 cycles:  420911890 heartbeat IPC: 0.06197 cumulative IPC: 0.06226 (Simulation time: 0 hr 4 min 7 sec) 
Heartbeat CPU  0 instructions:  120000000 cycles:  436956014 heartbeat IPC: 0.06233 cumulative IPC: 0.06227 (Simulation time: 0 hr 4 min 12 sec) 
Heartbeat CPU  0 instructions:  121000000 cycles:  452763181 heartbeat IPC: 0.06326 cumulative IPC: 0.06231 (Simulation time: 0 hr 4 min 18 sec) 
Heartbeat CPU  0 instructions:  122000000 cycles:  468918850 heartbeat IPC: 0.06190 cumulative IPC: 0.06230 (Simulation time: 0 hr 4 min 23 sec) 
Heartbeat CPU  0 instructions:  123000000 cycles:  484880791 heartbeat IPC: 0.06265 cumulative IPC: 0.06231 (Simulation time: 0 hr 4 min 29 sec) 
Heartbeat CPU  0 instructions:  124000000 cycles:  500982220 heartbeat IPC: 0.06211 cumulative IPC: 0.06230 (Simulation time: 0 hr 4 min 34 sec) 
Heartbeat CPU  0 instructions:  125000000 cycles:  516931023 heartbeat IPC: 0.06270 cumulative IPC: 0.06232 (Simulation time: 0 hr 4 min 39 sec) 
Heartbeat CPU  0 instructions:  126000001 cycles:  532783518 heartbeat IPC: 0.06308 cumulative IPC: 0.06235 (Simulation time: 0 hr 4 min 45 sec) 
Heartbeat CPU  0 instructions:  127000001 cycles:  548604931 heartbeat IPC: 0.06321 cumulative IPC: 0.06238 (Simulation time: 0 hr 4 min 51 sec) 
Heartbeat CPU  0 instructions:  128000000 cycles:  564307007 heartbeat IPC: 0.06369 cumulative IPC: 0.06242 (Simulation time: 0 hr 4 min 56 sec) 
Heartbeat CPU  0 instructions:  129000000 cycles:  579990406 heartbeat IPC: 0.06376 cumulative IPC: 0.06247 (Simulation time: 0 hr 5 min 2 sec) 
Heartbeat CPU  0 instructions:  130000001 cycles:  595770700 heartbeat IPC: 0.06337 cumulative IPC: 0.06250 (Simulation time: 0 hr 5 min 7 sec) 
Heartbeat CPU  0 instructions:  131000001 cycles:  611575855 heartbeat IPC: 0.06327 cumulative IPC: 0.06252 (Simulation time: 0 hr 5 min 13 sec) 
Heartbeat CPU  0 instructions:  132000000 cycles:  627428542 heartbeat IPC: 0.06308 cumulative IPC: 0.06254 (Simulation time: 0 hr 5 min 18 sec) 
Heartbeat CPU  0 instructions:  133000000 cycles:  643270194 heartbeat IPC: 0.06312 cumulative IPC: 0.06256 (Simulation time: 0 hr 5 min 24 sec) 
Heartbeat CPU  0 instructions:  134000001 cycles:  658881178 heartbeat IPC: 0.06406 cumulative IPC: 0.06260 (Simulation time: 0 hr 5 min 29 sec) 
Heartbeat CPU  0 instructions:  135000000 cycles:  674575126 heartbeat IPC: 0.06372 cumulative IPC: 0.06263 (Simulation time: 0 hr 5 min 35 sec) 
Heartbeat CPU  0 instructions:  136000000 cycles:  690667593 heartbeat IPC: 0.06214 cumulative IPC: 0.06262 (Simulation time: 0 hr 5 min 40 sec) 
Heartbeat CPU  0 instructions:  137000000 cycles:  706685884 heartbeat IPC: 0.06243 cumulative IPC: 0.06261 (Simulation time: 0 hr 5 min 46 sec) 
Heartbeat CPU  0 instructions:  138000000 cycles:  722384833 heartbeat IPC: 0.06370 cumulative IPC: 0.06264 (Simulation time: 0 hr 5 min 51 sec) 
Heartbeat CPU  0 instructions:  139000000 cycles:  738251557 heartbeat IPC: 0.06302 cumulative IPC: 0.06265 (Simulation time: 0 hr 5 min 57 sec) 
Heartbeat CPU  0 instructions:  140000000 cycles:  754359852 heartbeat IPC: 0.06208 cumulative IPC: 0.06264 (Simulation time: 0 hr 6 min 2 sec) 
Heartbeat CPU  0 instructions:  141000000 cycles:  770286177 heartbeat IPC: 0.06279 cumulative IPC: 0.06264 (Simulation time: 0 hr 6 min 8 sec) 
Heartbeat CPU  0 instructions:  142000001 cycles:  786195583 heartbeat IPC: 0.06286 cumulative IPC: 0.06265 (Simulation time: 0 hr 6 min 13 sec) 
Heartbeat CPU  0 instructions:  143000003 cycles:  802159287 heartbeat IPC: 0.06264 cumulative IPC: 0.06265 (Simulation time: 0 hr 6 min 19 sec) 
Heartbeat CPU  0 instructions:  144000000 cycles:  818060815 heartbeat IPC: 0.06289 cumulative IPC: 0.06265 (Simulation time: 0 hr 6 min 24 sec) 
Heartbeat CPU  0 instructions:  145000000 cycles:  833973061 heartbeat IPC: 0.06284 cumulative IPC: 0.06266 (Simulation time: 0 hr 6 min 29 sec) 
Heartbeat CPU  0 instructions:  146000001 cycles:  849997002 heartbeat IPC: 0.06241 cumulative IPC: 0.06265 (Simulation time: 0 hr 6 min 35 sec) 
Heartbeat CPU  0 instructions:  147000002 cycles:  865924329 heartbeat IPC: 0.06279 cumulative IPC: 0.06265 (Simulation time: 0 hr 6 min 40 sec) 
Heartbeat CPU  0 instructions:  148000000 cycles:  881890498 heartbeat IPC: 0.06263 cumulative IPC: 0.06265 (Simulation time: 0 hr 6 min 46 sec) 
Heartbeat CPU  0 instructions:  149000000 cycles:  897930355 heartbeat IPC: 0.06234 cumulative IPC: 0.06265 (Simulation time: 0 hr 6 min 51 sec) 
Heartbeat CPU  0 instructions:  150000000 cycles:  913949999 heartbeat IPC: 0.06242 cumulative IPC: 0.06264 (Simulation time: 0 hr 6 min 57 sec) 
Heartbeat CPU  0 instructions:  151000000 cycles:  930079993 heartbeat IPC: 0.06200 cumulative IPC: 0.06263 (Simulation time: 0 hr 7 min 2 sec) 
Heartbeat CPU  0 instructions:  152000000 cycles:  946068424 heartbeat IPC: 0.06255 cumulative IPC: 0.06263 (Simulation time: 0 hr 7 min 8 sec) 
Heartbeat CPU  0 instructions:  153000000 cycles:  963161249 heartbeat IPC: 0.05850 cumulative IPC: 0.06254 (Simulation time: 0 hr 7 min 13 sec) 
Heartbeat CPU  0 instructions:  154000000 cycles:  980236483 heartbeat IPC: 0.05856 cumulative IPC: 0.06247 (Simulation time: 0 hr 7 min 19 sec) 
Heartbeat CPU  0 instructions:  155000000 cycles:  996634725 heartbeat IPC: 0.06098 cumulative IPC: 0.06244 (Simulation time: 0 hr 7 min 25 sec) 
Heartbeat CPU  0 instructions:  156000000 cycles: 1012884191 heartbeat IPC: 0.06154 cumulative IPC: 0.06242 (Simulation time: 0 hr 7 min 30 sec) 
Heartbeat CPU  0 instructions:  157000000 cycles: 1029098108 heartbeat IPC: 0.06168 cumulative IPC: 0.06241 (Simulation time: 0 hr 7 min 35 sec) 
Heartbeat CPU  0 instructions:  158000000 cycles: 1045317208 heartbeat IPC: 0.06166 cumulative IPC: 0.06240 (Simulation time: 0 hr 7 min 41 sec) 
Heartbeat CPU  0 instructions:  159000000 cycles: 1061494968 heartbeat IPC: 0.06181 cumulative IPC: 0.06239 (Simulation time: 0 hr 7 min 46 sec) 
Heartbeat CPU  0 instructions:  160000000 cycles: 1077714263 heartbeat IPC: 0.06165 cumulative IPC: 0.06237 (Simulation time: 0 hr 7 min 52 sec) 
Heartbeat CPU  0 instructions:  161000001 cycles: 1093945083 heartbeat IPC: 0.06161 cumulative IPC: 0.06236 (Simulation time: 0 hr 7 min 57 sec) 
Heartbeat CPU  0 instructions:  162000000 cycles: 1110167746 heartbeat IPC: 0.06164 cumulative IPC: 0.06235 (Simulation time: 0 hr 8 min 3 sec) 
Heartbeat CPU  0 instructions:  163000000 cycles: 1126314355 heartbeat IPC: 0.06193 cumulative IPC: 0.06234 (Simulation time: 0 hr 8 min 8 sec) 
Heartbeat CPU  0 instructions:  164000000 cycles: 1142357138 heartbeat IPC: 0.06233 cumulative IPC: 0.06234 (Simulation time: 0 hr 8 min 14 sec) 
Heartbeat CPU  0 instructions:  165000000 cycles: 1158380496 heartbeat IPC: 0.06241 cumulative IPC: 0.06234 (Simulation time: 0 hr 8 min 19 sec) 
Heartbeat CPU  0 instructions:  166000000 cycles: 1174436088 heartbeat IPC: 0.06228 cumulative IPC: 0.06234 (Simulation time: 0 hr 8 min 24 sec) 
Heartbeat CPU  0 instructions:  167000000 cycles: 1190567159 heartbeat IPC: 0.06199 cumulative IPC: 0.06234 (Simulation time: 0 hr 8 min 30 sec) 
Heartbeat CPU  0 instructions:  168000000 cycles: 1206594213 heartbeat IPC: 0.06239 cumulative IPC: 0.06234 (Simulation time: 0 hr 8 min 35 sec) 
Heartbeat CPU  0 instructions:  169000000 cycles: 1222647453 heartbeat IPC: 0.06229 cumulative IPC: 0.06234 (Simulation time: 0 hr 8 min 41 sec) 
Heartbeat CPU  0 instructions:  170000000 cycles: 1238832127 heartbeat IPC: 0.06179 cumulative IPC: 0.06233 (Simulation time: 0 hr 8 min 46 sec) 
Heartbeat CPU  0 instructions:  171000000 cycles: 1254977914 heartbeat IPC: 0.06194 cumulative IPC: 0.06232 (Simulation time: 0 hr 8 min 52 sec) 
Heartbeat CPU  0 instructions:  172000000 cycles: 1271147345 heartbeat IPC: 0.06185 cumulative IPC: 0.06232 (Simulation time: 0 hr 8 min 57 sec) 
Heartbeat CPU  0 instructions:  173000000 cycles: 1287201701 heartbeat IPC: 0.06229 cumulative IPC: 0.06232 (Simulation time: 0 hr 9 min 3 sec) 
Heartbeat CPU  0 instructions:  174000000 cycles: 1303023688 heartbeat IPC: 0.06320 cumulative IPC: 0.06233 (Simulation time: 0 hr 9 min 8 sec) 
Heartbeat CPU  0 instructions:  175000000 cycles: 1318828726 heartbeat IPC: 0.06327 cumulative IPC: 0.06234 (Simulation time: 0 hr 9 min 14 sec) 
Heartbeat CPU  0 instructions:  176000000 cycles: 1334689229 heartbeat IPC: 0.06305 cumulative IPC: 0.06235 (Simulation time: 0 hr 9 min 19 sec) 
Heartbeat CPU  0 instructions:  177000002 cycles: 1350623431 heartbeat IPC: 0.06276 cumulative IPC: 0.06236 (Simulation time: 0 hr 9 min 25 sec) 
Heartbeat CPU  0 instructions:  178000001 cycles: 1366660434 heartbeat IPC: 0.06236 cumulative IPC: 0.06236 (Simulation time: 0 hr 9 min 30 sec) 
Heartbeat CPU  0 instructions:  179000001 cycles: 1382577776 heartbeat IPC: 0.06282 cumulative IPC: 0.06236 (Simulation time: 0 hr 9 min 35 sec) 
Heartbeat CPU  0 instructions:  180000000 cycles: 1398550887 heartbeat IPC: 0.06261 cumulative IPC: 0.06236 (Simulation time: 0 hr 9 min 41 sec) 
Heartbeat CPU  0 instructions:  181000000 cycles: 1414593512 heartbeat IPC: 0.06233 cumulative IPC: 0.06236 (Simulation time: 0 hr 9 min 46 sec) 
Heartbeat CPU  0 instructions:  182000000 cycles: 1430709853 heartbeat IPC: 0.06205 cumulative IPC: 0.06236 (Simulation time: 0 hr 9 min 52 sec) 
Heartbeat CPU  0 instructions:  183000002 cycles: 1446762660 heartbeat IPC: 0.06229 cumulative IPC: 0.06236 (Simulation time: 0 hr 9 min 57 sec) 
Heartbeat CPU  0 instructions:  184000000 cycles: 1462870366 heartbeat IPC: 0.06208 cumulative IPC: 0.06236 (Simulation time: 0 hr 10 min 3 sec) 
Heartbeat CPU  0 instructions:  185000001 cycles: 1478732148 heartbeat IPC: 0.06304 cumulative IPC: 0.06236 (Simulation time: 0 hr 10 min 8 sec) 
Heartbeat CPU  0 instructions:  186000000 cycles: 1494614767 heartbeat IPC: 0.06296 cumulative IPC: 0.06237 (Simulation time: 0 hr 10 min 13 sec) 
Heartbeat CPU  0 instructions:  187000000 cycles: 1510511656 heartbeat IPC: 0.06291 cumulative IPC: 0.06238 (Simulation time: 0 hr 10 min 19 sec) 
Heartbeat CPU  0 instructions:  188000000 cycles: 1526785035 heartbeat IPC: 0.06145 cumulative IPC: 0.06237 (Simulation time: 0 hr 10 min 24 sec) 
Heartbeat CPU  0 instructions:  189000000 cycles: 1543034871 heartbeat IPC: 0.06154 cumulative IPC: 0.06236 (Simulation time: 0 hr 10 min 30 sec) 
Heartbeat CPU  0 instructions:  190000000 cycles: 1559223535 heartbeat IPC: 0.06177 cumulative IPC: 0.06235 (Simulation time: 0 hr 10 min 35 sec) 
Heartbeat CPU  0 instructions:  191000000 cycles: 1575362204 heartbeat IPC: 0.06196 cumulative IPC: 0.06235 (Simulation time: 0 hr 10 min 41 sec) 
Heartbeat CPU  0 instructions:  192000000 cycles: 1591528235 heartbeat IPC: 0.06186 cumulative IPC: 0.06234 (Simulation time: 0 hr 10 min 46 sec) 
Heartbeat CPU  0 instructions:  193000001 cycles: 1607627887 heartbeat IPC: 0.06211 cumulative IPC: 0.06234 (Simulation time: 0 hr 10 min 52 sec) 
Heartbeat CPU  0 instructions:  194000001 cycles: 1623806291 heartbeat IPC: 0.06181 cumulative IPC: 0.06233 (Simulation time: 0 hr 10 min 57 sec) 
Heartbeat CPU  0 instructions:  195000000 cycles: 1639965148 heartbeat IPC: 0.06189 cumulative IPC: 0.06233 (Simulation time: 0 hr 11 min 3 sec) 
Heartbeat CPU  0 instructions:  196000000 cycles: 1656094839 heartbeat IPC: 0.06200 cumulative IPC: 0.06232 (Simulation time: 0 hr 11 min 8 sec) 
Heartbeat CPU  0 instructions:  197000000 cycles: 1672214809 heartbeat IPC: 0.06203 cumulative IPC: 0.06232 (Simulation time: 0 hr 11 min 13 sec) 
Heartbeat CPU  0 instructions:  198000001 cycles: 1688279057 heartbeat IPC: 0.06225 cumulative IPC: 0.06232 (Simulation time: 0 hr 11 min 19 sec) 
Heartbeat CPU  0 instructions:  199000001 cycles: 1704321654 heartbeat IPC: 0.06233 cumulative IPC: 0.06232 (Simulation time: 0 hr 11 min 24 sec) 
Heartbeat CPU  0 instructions:  200000000 cycles: 1720535266 heartbeat IPC: 0.06168 cumulative IPC: 0.06231 (Simulation time: 0 hr 11 min 30 sec) 
Heartbeat CPU  0 instructions:  201000000 cycles: 1736677125 heartbeat IPC: 0.06195 cumulative IPC: 0.06231 (Simulation time: 0 hr 11 min 35 sec) 
Heartbeat CPU  0 instructions:  202000000 cycles: 1752726677 heartbeat IPC: 0.06231 cumulative IPC: 0.06231 (Simulation time: 0 hr 11 min 41 sec) 
Heartbeat CPU  0 instructions:  203000001 cycles: 1768699083 heartbeat IPC: 0.06261 cumulative IPC: 0.06231 (Simulation time: 0 hr 11 min 46 sec) 
Heartbeat CPU  0 instructions:  204000000 cycles: 1784633897 heartbeat IPC: 0.06276 cumulative IPC: 0.06232 (Simulation time: 0 hr 11 min 52 sec) 
Heartbeat CPU  0 instructions:  205000000 cycles: 1800607972 heartbeat IPC: 0.06260 cumulative IPC: 0.06232 (Simulation time: 0 hr 11 min 57 sec) 
Heartbeat CPU  0 instructions:  206000000 cycles: 1816676906 heartbeat IPC: 0.06223 cumulative IPC: 0.06232 (Simulation time: 0 hr 12 min 3 sec) 
Heartbeat CPU  0 instructions:  207000000 cycles: 1832724512 heartbeat IPC: 0.06231 cumulative IPC: 0.06232 (Simulation time: 0 hr 12 min 8 sec) 
Heartbeat CPU  0 instructions:  208000000 cycles: 1848729556 heartbeat IPC: 0.06248 cumulative IPC: 0.06232 (Simulation time: 0 hr 12 min 14 sec) 
Heartbeat CPU  0 instructions:  209000002 cycles: 1864732486 heartbeat IPC: 0.06249 cumulative IPC: 0.06232 (Simulation time: 0 hr 12 min 19 sec) 
Heartbeat CPU  0 instructions:  210000002 cycles: 1880809798 heartbeat IPC: 0.06220 cumulative IPC: 0.06232 (Simulation time: 0 hr 12 min 24 sec) 
Heartbeat CPU  0 instructions:  211000000 cycles: 1896881003 heartbeat IPC: 0.06222 cumulative IPC: 0.06232 (Simulation time: 0 hr 12 min 30 sec) 
Heartbeat CPU  0 instructions:  212000000 cycles: 1912952225 heartbeat IPC: 0.06222 cumulative IPC: 0.06232 (Simulation time: 0 hr 12 min 35 sec) 
Heartbeat CPU  0 instructions:  213000000 cycles: 1929068247 heartbeat IPC: 0.06205 cumulative IPC: 0.06232 (Simulation time: 0 hr 12 min 41 sec) 
Heartbeat CPU  0 instructions:  214000000 cycles: 1945069467 heartbeat IPC: 0.06250 cumulative IPC: 0.06232 (Simulation time: 0 hr 12 min 46 sec) 
Heartbeat CPU  0 instructions:  215000000 cycles: 1960951359 heartbeat IPC: 0.06296 cumulative IPC: 0.06232 (Simulation time: 0 hr 12 min 52 sec) 
Heartbeat CPU  0 instructions:  216000000 cycles: 1976913283 heartbeat IPC: 0.06265 cumulative IPC: 0.06233 (Simulation time: 0 hr 12 min 57 sec) 
Heartbeat CPU  0 instructions:  217000000 cycles: 1992804057 heartbeat IPC: 0.06293 cumulative IPC: 0.06233 (Simulation time: 0 hr 13 min 3 sec) 
Heartbeat CPU  0 instructions:  218000001 cycles: 2008730393 heartbeat IPC: 0.06279 cumulative IPC: 0.06234 (Simulation time: 0 hr 13 min 8 sec) 
Heartbeat CPU  0 instructions:  219000001 cycles: 2024800403 heartbeat IPC: 0.06223 cumulative IPC: 0.06234 (Simulation time: 0 hr 13 min 14 sec) 
Heartbeat CPU  0 instructions:  220000000 cycles: 2040720509 heartbeat IPC: 0.06281 cumulative IPC: 0.06234 (Simulation time: 0 hr 13 min 19 sec) 
Heartbeat CPU  0 instructions:  221000000 cycles: 2056700047 heartbeat IPC: 0.06258 cumulative IPC: 0.06234 (Simulation time: 0 hr 13 min 25 sec) 
Heartbeat CPU  0 instructions:  222000000 cycles: 2072825057 heartbeat IPC: 0.06202 cumulative IPC: 0.06234 (Simulation time: 0 hr 13 min 30 sec) 
Heartbeat CPU  0 instructions:  223000000 cycles: 2088748353 heartbeat IPC: 0.06280 cumulative IPC: 0.06234 (Simulation time: 0 hr 13 min 35 sec) 
Heartbeat CPU  0 instructions:  224000000 cycles: 2104647493 heartbeat IPC: 0.06290 cumulative IPC: 0.06235 (Simulation time: 0 hr 13 min 41 sec) 
Heartbeat CPU  0 instructions:  225000000 cycles: 2120667113 heartbeat IPC: 0.06242 cumulative IPC: 0.06235 (Simulation time: 0 hr 13 min 46 sec) 
Heartbeat CPU  0 instructions:  226000001 cycles: 2136758178 heartbeat IPC: 0.06215 cumulative IPC: 0.06235 (Simulation time: 0 hr 13 min 52 sec) 
Heartbeat CPU  0 instructions:  227000002 cycles: 2152818738 heartbeat IPC: 0.06226 cumulative IPC: 0.06234 (Simulation time: 0 hr 13 min 57 sec) 
Heartbeat CPU  0 instructions:  228000000 cycles: 2168857853 heartbeat IPC: 0.06235 cumulative IPC: 0.06234 (Simulation time: 0 hr 14 min 3 sec) 
Heartbeat CPU  0 instructions:  229000000 cycles: 2184719148 heartbeat IPC: 0.06305 cumulative IPC: 0.06235 (Simulation time: 0 hr 14 min 8 sec) 
Heartbeat CPU  0 instructions:  230000001 cycles: 2200654327 heartbeat IPC: 0.06275 cumulative IPC: 0.06235 (Simulation time: 0 hr 14 min 13 sec) 
Heartbeat CPU  0 instructions:  231000000 cycles: 2216611854 heartbeat IPC: 0.06267 cumulative IPC: 0.06236 (Simulation time: 0 hr 14 min 19 sec) 
Heartbeat CPU  0 instructions:  232000000 cycles: 2232104986 heartbeat IPC: 0.06454 cumulative IPC: 0.06237 (Simulation time: 0 hr 14 min 24 sec) 
Heartbeat CPU  0 instructions:  233000000 cycles: 2248066665 heartbeat IPC: 0.06265 cumulative IPC: 0.06237 (Simulation time: 0 hr 14 min 30 sec) 
Heartbeat CPU  0 instructions:  234000000 cycles: 2263840299 heartbeat IPC: 0.06340 cumulative IPC: 0.06238 (Simulation time: 0 hr 14 min 35 sec) 
Heartbeat CPU  0 instructions:  235000000 cycles: 2279793240 heartbeat IPC: 0.06268 cumulative IPC: 0.06238 (Simulation time: 0 hr 14 min 41 sec) 
Heartbeat CPU  0 instructions:  236000000 cycles: 2295737217 heartbeat IPC: 0.06272 cumulative IPC: 0.06239 (Simulation time: 0 hr 14 min 46 sec) 
Heartbeat CPU  0 instructions:  237000001 cycles: 2311606427 heartbeat IPC: 0.06302 cumulative IPC: 0.06239 (Simulation time: 0 hr 14 min 52 sec) 
Heartbeat CPU  0 instructions:  238000000 cycles: 2327330943 heartbeat IPC: 0.06359 cumulative IPC: 0.06240 (Simulation time: 0 hr 14 min 57 sec) 
Heartbeat CPU  0 instructions:  239000002 cycles: 2343131987 heartbeat IPC: 0.06329 cumulative IPC: 0.06241 (Simulation time: 0 hr 15 min 3 sec) 
Heartbeat CPU  0 instructions:  240000000 cycles: 2359039983 heartbeat IPC: 0.06286 cumulative IPC: 0.06241 (Simulation time: 0 hr 15 min 8 sec) 
Heartbeat CPU  0 instructions:  241000000 cycles: 2374846494 heartbeat IPC: 0.06327 cumulative IPC: 0.06241 (Simulation time: 0 hr 15 min 14 sec) 
Heartbeat CPU  0 instructions:  242000000 cycles: 2390682064 heartbeat IPC: 0.06315 cumulative IPC: 0.06242 (Simulation time: 0 hr 15 min 19 sec) 
Heartbeat CPU  0 instructions:  243000001 cycles: 2406633307 heartbeat IPC: 0.06269 cumulative IPC: 0.06242 (Simulation time: 0 hr 15 min 25 sec) 
Heartbeat CPU  0 instructions:  244000000 cycles: 2422619621 heartbeat IPC: 0.06255 cumulative IPC: 0.06242 (Simulation time: 0 hr 15 min 30 sec) 
Heartbeat CPU  0 instructions:  245000000 cycles: 2438457701 heartbeat IPC: 0.06314 cumulative IPC: 0.06243 (Simulation time: 0 hr 15 min 36 sec) 
Heartbeat CPU  0 instructions:  246000000 cycles: 2454357418 heartbeat IPC: 0.06289 cumulative IPC: 0.06243 (Simulation time: 0 hr 15 min 41 sec) 
Heartbeat CPU  0 instructions:  247000000 cycles: 2470340012 heartbeat IPC: 0.06257 cumulative IPC: 0.06243 (Simulation time: 0 hr 15 min 47 sec) 
Heartbeat CPU  0 instructions:  248000000 cycles: 2486292483 heartbeat IPC: 0.06269 cumulative IPC: 0.06243 (Simulation time: 0 hr 15 min 52 sec) 
Heartbeat CPU  0 instructions:  249000003 cycles: 2502328799 heartbeat IPC: 0.06236 cumulative IPC: 0.06243 (Simulation time: 0 hr 15 min 58 sec) 
Heartbeat CPU  0 instructions:  250000002 cycles: 2518350886 heartbeat IPC: 0.06241 cumulative IPC: 0.06243 (Simulation time: 0 hr 16 min 3 sec) 
Heartbeat CPU  0 instructions:  251000000 cycles: 2534305537 heartbeat IPC: 0.06268 cumulative IPC: 0.06243 (Simulation time: 0 hr 16 min 9 sec) 
Heartbeat CPU  0 instructions:  252000000 cycles: 2550354736 heartbeat IPC: 0.06231 cumulative IPC: 0.06243 (Simulation time: 0 hr 16 min 14 sec) 
Heartbeat CPU  0 instructions:  253000000 cycles: 2566509306 heartbeat IPC: 0.06190 cumulative IPC: 0.06243 (Simulation time: 0 hr 16 min 20 sec) 
Heartbeat CPU  0 instructions:  254000000 cycles: 2582683445 heartbeat IPC: 0.06183 cumulative IPC: 0.06243 (Simulation time: 0 hr 16 min 25 sec) 
Heartbeat CPU  0 instructions:  255000002 cycles: 2598885821 heartbeat IPC: 0.06172 cumulative IPC: 0.06242 (Simulation time: 0 hr 16 min 31 sec) 
Heartbeat CPU  0 instructions:  256000000 cycles: 2614949929 heartbeat IPC: 0.06225 cumulative IPC: 0.06242 (Simulation time: 0 hr 16 min 36 sec) 
Heartbeat CPU  0 instructions:  257000000 cycles: 2631032946 heartbeat IPC: 0.06218 cumulative IPC: 0.06242 (Simulation time: 0 hr 16 min 42 sec) 
Heartbeat CPU  0 instructions:  258000002 cycles: 2647141749 heartbeat IPC: 0.06208 cumulative IPC: 0.06242 (Simulation time: 0 hr 16 min 47 sec) 
Heartbeat CPU  0 instructions:  259000001 cycles: 2663263360 heartbeat IPC: 0.06203 cumulative IPC: 0.06241 (Simulation time: 0 hr 16 min 53 sec) 
Heartbeat CPU  0 instructions:  260000000 cycles: 2679275557 heartbeat IPC: 0.06245 cumulative IPC: 0.06241 (Simulation time: 0 hr 16 min 58 sec) 
Heartbeat CPU  0 instructions:  261000002 cycles: 2695271015 heartbeat IPC: 0.06252 cumulative IPC: 0.06242 (Simulation time: 0 hr 17 min 4 sec) 
Heartbeat CPU  0 instructions:  262000001 cycles: 2711225729 heartbeat IPC: 0.06268 cumulative IPC: 0.06242 (Simulation time: 0 hr 17 min 9 sec) 
Heartbeat CPU  0 instructions:  263000000 cycles: 2727059902 heartbeat IPC: 0.06315 cumulative IPC: 0.06242 (Simulation time: 0 hr 17 min 14 sec) 
Heartbeat CPU  0 instructions:  264000000 cycles: 2743171636 heartbeat IPC: 0.06207 cumulative IPC: 0.06242 (Simulation time: 0 hr 17 min 20 sec) 
Heartbeat CPU  0 instructions:  265000000 cycles: 2758960974 heartbeat IPC: 0.06333 cumulative IPC: 0.06242 (Simulation time: 0 hr 17 min 25 sec) 
Heartbeat CPU  0 instructions:  266000000 cycles: 2777158671 heartbeat IPC: 0.05495 cumulative IPC: 0.06237 (Simulation time: 0 hr 17 min 31 sec) 
Heartbeat CPU  0 instructions:  267000003 cycles: 2794100648 heartbeat IPC: 0.05903 cumulative IPC: 0.06235 (Simulation time: 0 hr 17 min 37 sec) 
Heartbeat CPU  0 instructions:  268000000 cycles: 2810572990 heartbeat IPC: 0.06071 cumulative IPC: 0.06234 (Simulation time: 0 hr 17 min 42 sec) 
Heartbeat CPU  0 instructions:  269000000 cycles: 2826859234 heartbeat IPC: 0.06140 cumulative IPC: 0.06234 (Simulation time: 0 hr 17 min 48 sec) 
Heartbeat CPU  0 instructions:  270000000 cycles: 2843148829 heartbeat IPC: 0.06139 cumulative IPC: 0.06233 (Simulation time: 0 hr 17 min 53 sec) 
Heartbeat CPU  0 instructions:  271000000 cycles: 2859366019 heartbeat IPC: 0.06166 cumulative IPC: 0.06233 (Simulation time: 0 hr 17 min 59 sec) 
Heartbeat CPU  0 instructions:  272000000 cycles: 2875456574 heartbeat IPC: 0.06215 cumulative IPC: 0.06233 (Simulation time: 0 hr 18 min 4 sec) 
Heartbeat CPU  0 instructions:  273000000 cycles: 2891541580 heartbeat IPC: 0.06217 cumulative IPC: 0.06232 (Simulation time: 0 hr 18 min 10 sec) 
Heartbeat CPU  0 instructions:  274000000 cycles: 2907547731 heartbeat IPC: 0.06248 cumulative IPC: 0.06233 (Simulation time: 0 hr 18 min 15 sec) 
Heartbeat CPU  0 instructions:  275000001 cycles: 2923441439 heartbeat IPC: 0.06292 cumulative IPC: 0.06233 (Simulation time: 0 hr 18 min 21 sec) 
Heartbeat CPU  0 instructions:  276000000 cycles: 2939328807 heartbeat IPC: 0.06294 cumulative IPC: 0.06233 (Simulation time: 0 hr 18 min 26 sec) 
Heartbeat CPU  0 instructions:  277000001 cycles: 2955317066 heartbeat IPC: 0.06255 cumulative IPC: 0.06233 (Simulation time: 0 hr 18 min 32 sec) 
Heartbeat CPU  0 instructions:  278000000 cycles: 2971374622 heartbeat IPC: 0.06228 cumulative IPC: 0.06233 (Simulation time: 0 hr 18 min 37 sec) 
Heartbeat CPU  0 instructions:  279000001 cycles: 2987466542 heartbeat IPC: 0.06214 cumulative IPC: 0.06233 (Simulation time: 0 hr 18 min 42 sec) 
Heartbeat CPU  0 instructions:  280000000 cycles: 3003523240 heartbeat IPC: 0.06228 cumulative IPC: 0.06233 (Simulation time: 0 hr 18 min 48 sec) 
Heartbeat CPU  0 instructions:  281000000 cycles: 3019528754 heartbeat IPC: 0.06248 cumulative IPC: 0.06233 (Simulation time: 0 hr 18 min 53 sec) 
Heartbeat CPU  0 instructions:  282000000 cycles: 3035611121 heartbeat IPC: 0.06218 cumulative IPC: 0.06233 (Simulation time: 0 hr 18 min 59 sec) 
Heartbeat CPU  0 instructions:  283000000 cycles: 3051640407 heartbeat IPC: 0.06239 cumulative IPC: 0.06233 (Simulation time: 0 hr 19 min 4 sec) 
Heartbeat CPU  0 instructions:  284000000 cycles: 3067764040 heartbeat IPC: 0.06202 cumulative IPC: 0.06233 (Simulation time: 0 hr 19 min 10 sec) 
Heartbeat CPU  0 instructions:  285000001 cycles: 3083769916 heartbeat IPC: 0.06248 cumulative IPC: 0.06233 (Simulation time: 0 hr 19 min 15 sec) 
Heartbeat CPU  0 instructions:  286000001 cycles: 3099810347 heartbeat IPC: 0.06234 cumulative IPC: 0.06233 (Simulation time: 0 hr 19 min 21 sec) 
Heartbeat CPU  0 instructions:  287000000 cycles: 3115925352 heartbeat IPC: 0.06205 cumulative IPC: 0.06233 (Simulation time: 0 hr 19 min 26 sec) 
Heartbeat CPU  0 instructions:  288000000 cycles: 3132065755 heartbeat IPC: 0.06196 cumulative IPC: 0.06233 (Simulation time: 0 hr 19 min 31 sec) 
Heartbeat CPU  0 instructions:  289000000 cycles: 3148261526 heartbeat IPC: 0.06174 cumulative IPC: 0.06232 (Simulation time: 0 hr 19 min 37 sec) 
Heartbeat CPU  0 instructions:  290000001 cycles: 3164436862 heartbeat IPC: 0.06182 cumulative IPC: 0.06232 (Simulation time: 0 hr 19 min 42 sec) 
Heartbeat CPU  0 instructions:  291000000 cycles: 3180501817 heartbeat IPC: 0.06225 cumulative IPC: 0.06232 (Simulation time: 0 hr 19 min 48 sec) 
Heartbeat CPU  0 instructions:  292000000 cycles: 3196604296 heartbeat IPC: 0.06210 cumulative IPC: 0.06232 (Simulation time: 0 hr 19 min 53 sec) 
Heartbeat CPU  0 instructions:  293000000 cycles: 3212671416 heartbeat IPC: 0.06224 cumulative IPC: 0.06232 (Simulation time: 0 hr 19 min 59 sec) 
Heartbeat CPU  0 instructions:  294000000 cycles: 3228596022 heartbeat IPC: 0.06280 cumulative IPC: 0.06232 (Simulation time: 0 hr 20 min 4 sec) 
Heartbeat CPU  0 instructions:  295000000 cycles: 3244459941 heartbeat IPC: 0.06304 cumulative IPC: 0.06233 (Simulation time: 0 hr 20 min 10 sec) 
Heartbeat CPU  0 instructions:  296000000 cycles: 3260277325 heartbeat IPC: 0.06322 cumulative IPC: 0.06233 (Simulation time: 0 hr 20 min 15 sec) 
Heartbeat CPU  0 instructions:  297000000 cycles: 3276261083 heartbeat IPC: 0.06256 cumulative IPC: 0.06233 (Simulation time: 0 hr 20 min 21 sec) 
Heartbeat CPU  0 instructions:  298000000 cycles: 3292274639 heartbeat IPC: 0.06245 cumulative IPC: 0.06233 (Simulation time: 0 hr 20 min 26 sec) 
Heartbeat CPU  0 instructions:  299000001 cycles: 3308294094 heartbeat IPC: 0.06242 cumulative IPC: 0.06233 (Simulation time: 0 hr 20 min 32 sec) 
Heartbeat CPU  0 instructions:  300000000 cycles: 3324351906 heartbeat IPC: 0.06227 cumulative IPC: 0.06233 (Simulation time: 0 hr 20 min 37 sec) 
Heartbeat CPU  0 instructions:  301000000 cycles: 3340463945 heartbeat IPC: 0.06207 cumulative IPC: 0.06233 (Simulation time: 0 hr 20 min 42 sec) 
Heartbeat CPU  0 instructions:  302000000 cycles: 3356581270 heartbeat IPC: 0.06205 cumulative IPC: 0.06233 (Simulation time: 0 hr 20 min 48 sec) 
Heartbeat CPU  0 instructions:  303000000 cycles: 3372659168 heartbeat IPC: 0.06220 cumulative IPC: 0.06233 (Simulation time: 0 hr 20 min 53 sec) 
Heartbeat CPU  0 instructions:  304000000 cycles: 3388644833 heartbeat IPC: 0.06256 cumulative IPC: 0.06233 (Simulation time: 0 hr 20 min 59 sec) 
Heartbeat CPU  0 instructions:  305000001 cycles: 3404599539 heartbeat IPC: 0.06268 cumulative IPC: 0.06233 (Simulation time: 0 hr 21 min 4 sec) 
Heartbeat CPU  0 instructions:  306000000 cycles: 3420585179 heartbeat IPC: 0.06256 cumulative IPC: 0.06233 (Simulation time: 0 hr 21 min 10 sec) 
Heartbeat CPU  0 instructions:  307000000 cycles: 3436697177 heartbeat IPC: 0.06207 cumulative IPC: 0.06233 (Simulation time: 0 hr 21 min 15 sec) 
Heartbeat CPU  0 instructions:  308000000 cycles: 3452782425 heartbeat IPC: 0.06217 cumulative IPC: 0.06233 (Simulation time: 0 hr 21 min 21 sec) 
Heartbeat CPU  0 instructions:  309000000 cycles: 3468776653 heartbeat IPC: 0.06252 cumulative IPC: 0.06233 (Simulation time: 0 hr 21 min 26 sec) 
Heartbeat CPU  0 instructions:  310000001 cycles: 3484887706 heartbeat IPC: 0.06207 cumulative IPC: 0.06233 (Simulation time: 0 hr 21 min 32 sec) 
Heartbeat CPU  0 instructions:  311000000 cycles: 3500989899 heartbeat IPC: 0.06210 cumulative IPC: 0.06233 (Simulation time: 0 hr 21 min 37 sec) 
Heartbeat CPU  0 instructions:  312000000 cycles: 3517120491 heartbeat IPC: 0.06199 cumulative IPC: 0.06233 (Simulation time: 0 hr 21 min 43 sec) 
Heartbeat CPU  0 instructions:  313000000 cycles: 3533232161 heartbeat IPC: 0.06207 cumulative IPC: 0.06233 (Simulation time: 0 hr 21 min 48 sec) 
Heartbeat CPU  0 instructions:  314000000 cycles: 3549272250 heartbeat IPC: 0.06234 cumulative IPC: 0.06233 (Simulation time: 0 hr 21 min 53 sec) 
Heartbeat CPU  0 instructions:  315000000 cycles: 3565214032 heartbeat IPC: 0.06273 cumulative IPC: 0.06233 (Simulation time: 0 hr 21 min 59 sec) 
Heartbeat CPU  0 instructions:  316000000 cycles: 3581181754 heartbeat IPC: 0.06263 cumulative IPC: 0.06233 (Simulation time: 0 hr 22 min 4 sec) 
Heartbeat CPU  0 instructions:  317000001 cycles: 3597090633 heartbeat IPC: 0.06286 cumulative IPC: 0.06233 (Simulation time: 0 hr 22 min 10 sec) 
Heartbeat CPU  0 instructions:  318000001 cycles: 3612909983 heartbeat IPC: 0.06321 cumulative IPC: 0.06234 (Simulation time: 0 hr 22 min 15 sec) 
Heartbeat CPU  0 instructions:  319000001 cycles: 3628879002 heartbeat IPC: 0.06262 cumulative IPC: 0.06234 (Simulation time: 0 hr 22 min 21 sec) 
Heartbeat CPU  0 instructions:  320000000 cycles: 3645084200 heartbeat IPC: 0.06171 cumulative IPC: 0.06233 (Simulation time: 0 hr 22 min 26 sec) 
Heartbeat CPU  0 instructions:  321000000 cycles: 3661274482 heartbeat IPC: 0.06177 cumulative IPC: 0.06233 (Simulation time: 0 hr 22 min 32 sec) 
Heartbeat CPU  0 instructions:  322000001 cycles: 3677506102 heartbeat IPC: 0.06161 cumulative IPC: 0.06233 (Simulation time: 0 hr 22 min 37 sec) 
Heartbeat CPU  0 instructions:  323000003 cycles: 3693749306 heartbeat IPC: 0.06156 cumulative IPC: 0.06233 (Simulation time: 0 hr 22 min 43 sec) 
Heartbeat CPU  0 instructions:  324000000 cycles: 3709988824 heartbeat IPC: 0.06158 cumulative IPC: 0.06232 (Simulation time: 0 hr 22 min 48 sec) 
Heartbeat CPU  0 instructions:  325000000 cycles: 3726054662 heartbeat IPC: 0.06224 cumulative IPC: 0.06232 (Simulation time: 0 hr 22 min 54 sec) 
Heartbeat CPU  0 instructions:  326000000 cycles: 3741896888 heartbeat IPC: 0.06312 cumulative IPC: 0.06233 (Simulation time: 0 hr 22 min 59 sec) 
Heartbeat CPU  0 instructions:  327000000 cycles: 3757859091 heartbeat IPC: 0.06265 cumulative IPC: 0.06233 (Simulation time: 0 hr 23 min 5 sec) 
Heartbeat CPU  0 instructions:  328000000 cycles: 3773850523 heartbeat IPC: 0.06253 cumulative IPC: 0.06233 (Simulation time: 0 hr 23 min 10 sec) 
Heartbeat CPU  0 instructions:  329000000 cycles: 3789996386 heartbeat IPC: 0.06194 cumulative IPC: 0.06233 (Simulation time: 0 hr 23 min 16 sec) 
Heartbeat CPU  0 instructions:  330000000 cycles: 3806070504 heartbeat IPC: 0.06221 cumulative IPC: 0.06233 (Simulation time: 0 hr 23 min 21 sec) 
Heartbeat CPU  0 instructions:  331000000 cycles: 3822079382 heartbeat IPC: 0.06247 cumulative IPC: 0.06233 (Simulation time: 0 hr 23 min 27 sec) 
Heartbeat CPU  0 instructions:  332000000 cycles: 3837805422 heartbeat IPC: 0.06359 cumulative IPC: 0.06233 (Simulation time: 0 hr 23 min 32 sec) 
Heartbeat CPU  0 instructions:  333000000 cycles: 3853765915 heartbeat IPC: 0.06265 cumulative IPC: 0.06233 (Simulation time: 0 hr 23 min 38 sec) 
Heartbeat CPU  0 instructions:  334000001 cycles: 3869736831 heartbeat IPC: 0.06261 cumulative IPC: 0.06233 (Simulation time: 0 hr 23 min 43 sec) 
Heartbeat CPU  0 instructions:  335000000 cycles: 3885767696 heartbeat IPC: 0.06238 cumulative IPC: 0.06233 (Simulation time: 0 hr 23 min 49 sec) 
Heartbeat CPU  0 instructions:  336000000 cycles: 3901786485 heartbeat IPC: 0.06243 cumulative IPC: 0.06233 (Simulation time: 0 hr 23 min 54 sec) 
Heartbeat CPU  0 instructions:  337000000 cycles: 3917786725 heartbeat IPC: 0.06250 cumulative IPC: 0.06234 (Simulation time: 0 hr 24 min 0 sec) 
Heartbeat CPU  0 instructions:  338000002 cycles: 3933689025 heartbeat IPC: 0.06288 cumulative IPC: 0.06234 (Simulation time: 0 hr 24 min 5 sec) 
Heartbeat CPU  0 instructions:  339000000 cycles: 3949766326 heartbeat IPC: 0.06220 cumulative IPC: 0.06234 (Simulation time: 0 hr 24 min 10 sec) 
Heartbeat CPU  0 instructions:  340000000 cycles: 3965799700 heartbeat IPC: 0.06237 cumulative IPC: 0.06234 (Simulation time: 0 hr 24 min 16 sec) 
Heartbeat CPU  0 instructions:  341000001 cycles: 3981747844 heartbeat IPC: 0.06270 cumulative IPC: 0.06234 (Simulation time: 0 hr 24 min 21 sec) 
Heartbeat CPU  0 instructions:  342000000 cycles: 3997593846 heartbeat IPC: 0.06311 cumulative IPC: 0.06234 (Simulation time: 0 hr 24 min 27 sec) 
Heartbeat CPU  0 instructions:  343000000 cycles: 4013473196 heartbeat IPC: 0.06297 cumulative IPC: 0.06234 (Simulation time: 0 hr 24 min 32 sec) 
Heartbeat CPU  0 instructions:  344000000 cycles: 4029332757 heartbeat IPC: 0.06305 cumulative IPC: 0.06235 (Simulation time: 0 hr 24 min 38 sec) 
Heartbeat CPU  0 instructions:  345000000 cycles: 4045273126 heartbeat IPC: 0.06273 cumulative IPC: 0.06235 (Simulation time: 0 hr 24 min 43 sec) 
Heartbeat CPU  0 instructions:  346000000 cycles: 4061293103 heartbeat IPC: 0.06242 cumulative IPC: 0.06235 (Simulation time: 0 hr 24 min 49 sec) 
Heartbeat CPU  0 instructions:  347000001 cycles: 4077352467 heartbeat IPC: 0.06227 cumulative IPC: 0.06235 (Simulation time: 0 hr 24 min 54 sec) 
Heartbeat CPU  0 instructions:  348000000 cycles: 4093502593 heartbeat IPC: 0.06192 cumulative IPC: 0.06235 (Simulation time: 0 hr 25 min 0 sec) 
Heartbeat CPU  0 instructions:  349000000 cycles: 4109603613 heartbeat IPC: 0.06211 cumulative IPC: 0.06235 (Simulation time: 0 hr 25 min 5 sec) 
Heartbeat CPU  0 instructions:  350000000 cycles: 4125732170 heartbeat IPC: 0.06200 cumulative IPC: 0.06234 (Simulation time: 0 hr 25 min 11 sec) 
Heartbeat CPU  0 instructions:  351000000 cycles: 4141659049 heartbeat IPC: 0.06279 cumulative IPC: 0.06235 (Simulation time: 0 hr 25 min 16 sec) 
Heartbeat CPU  0 instructions:  352000000 cycles: 4157632483 heartbeat IPC: 0.06260 cumulative IPC: 0.06235 (Simulation time: 0 hr 25 min 22 sec) 
Heartbeat CPU  0 instructions:  353000000 cycles: 4173614118 heartbeat IPC: 0.06257 cumulative IPC: 0.06235 (Simulation time: 0 hr 25 min 27 sec) 
Heartbeat CPU  0 instructions:  354000001 cycles: 4189503895 heartbeat IPC: 0.06293 cumulative IPC: 0.06235 (Simulation time: 0 hr 25 min 33 sec) 
Heartbeat CPU  0 instructions:  355000000 cycles: 4205338894 heartbeat IPC: 0.06315 cumulative IPC: 0.06235 (Simulation time: 0 hr 25 min 38 sec) 
Heartbeat CPU  0 instructions:  356000000 cycles: 4221080041 heartbeat IPC: 0.06353 cumulative IPC: 0.06236 (Simulation time: 0 hr 25 min 44 sec) 
Heartbeat CPU  0 instructions:  357000003 cycles: 4236909157 heartbeat IPC: 0.06317 cumulative IPC: 0.06236 (Simulation time: 0 hr 25 min 49 sec) 
Heartbeat CPU  0 instructions:  358000000 cycles: 4252824107 heartbeat IPC: 0.06283 cumulative IPC: 0.06236 (Simulation time: 0 hr 25 min 55 sec) 
Heartbeat CPU  0 instructions:  359000000 cycles: 4268709437 heartbeat IPC: 0.06295 cumulative IPC: 0.06237 (Simulation time: 0 hr 26 min 0 sec) 
Heartbeat CPU  0 instructions:  360000000 cycles: 4284464547 heartbeat IPC: 0.06347 cumulative IPC: 0.06237 (Simulation time: 0 hr 26 min 6 sec) 
Heartbeat CPU  0 instructions:  361000000 cycles: 4300432262 heartbeat IPC: 0.06263 cumulative IPC: 0.06237 (Simulation time: 0 hr 26 min 11 sec) 
Heartbeat CPU  0 instructions:  362000000 cycles: 4316360125 heartbeat IPC: 0.06278 cumulative IPC: 0.06237 (Simulation time: 0 hr 26 min 17 sec) 
Heartbeat CPU  0 instructions:  363000000 cycles: 4332389313 heartbeat IPC: 0.06239 cumulative IPC: 0.06237 (Simulation time: 0 hr 26 min 22 sec) 
Heartbeat CPU  0 instructions:  364000000 cycles: 4348372064 heartbeat IPC: 0.06257 cumulative IPC: 0.06237 (Simulation time: 0 hr 26 min 28 sec) 
Heartbeat CPU  0 instructions:  365000000 cycles: 4364306330 heartbeat IPC: 0.06276 cumulative IPC: 0.06237 (Simulation time: 0 hr 26 min 33 sec) 
Heartbeat CPU  0 instructions:  366000000 cycles: 4380512627 heartbeat IPC: 0.06170 cumulative IPC: 0.06237 (Simulation time: 0 hr 26 min 39 sec) 
Heartbeat CPU  0 instructions:  367000000 cycles: 4396701881 heartbeat IPC: 0.06177 cumulative IPC: 0.06237 (Simulation time: 0 hr 26 min 44 sec) 
Heartbeat CPU  0 instructions:  368000000 cycles: 4412865612 heartbeat IPC: 0.06187 cumulative IPC: 0.06237 (Simulation time: 0 hr 26 min 49 sec) 
Heartbeat CPU  0 instructions:  369000000 cycles: 4428854836 heartbeat IPC: 0.06254 cumulative IPC: 0.06237 (Simulation time: 0 hr 26 min 55 sec) 
Heartbeat CPU  0 instructions:  370000000 cycles: 4445043049 heartbeat IPC: 0.06177 cumulative IPC: 0.06237 (Simulation time: 0 hr 27 min 0 sec) 
Heartbeat CPU  0 instructions:  371000000 cycles: 4461181289 heartbeat IPC: 0.06196 cumulative IPC: 0.06236 (Simulation time: 0 hr 27 min 6 sec) 
Heartbeat CPU  0 instructions:  372000000 cycles: 4477395033 heartbeat IPC: 0.06168 cumulative IPC: 0.06236 (Simulation time: 0 hr 27 min 11 sec) 
Heartbeat CPU  0 instructions:  373000000 cycles: 4493543363 heartbeat IPC: 0.06193 cumulative IPC: 0.06236 (Simulation time: 0 hr 27 min 17 sec) 
Heartbeat CPU  0 instructions:  374000000 cycles: 4509730958 heartbeat IPC: 0.06178 cumulative IPC: 0.06236 (Simulation time: 0 hr 27 min 22 sec) 
Heartbeat CPU  0 instructions:  375000000 cycles: 4525786924 heartbeat IPC: 0.06228 cumulative IPC: 0.06236 (Simulation time: 0 hr 27 min 27 sec) 
Heartbeat CPU  0 instructions:  376000000 cycles: 4541873420 heartbeat IPC: 0.06216 cumulative IPC: 0.06236 (Simulation time: 0 hr 27 min 33 sec) 
Heartbeat CPU  0 instructions:  377000000 cycles: 4558021597 heartbeat IPC: 0.06193 cumulative IPC: 0.06236 (Simulation time: 0 hr 27 min 38 sec) 
Heartbeat CPU  0 instructions:  378000001 cycles: 4574011299 heartbeat IPC: 0.06254 cumulative IPC: 0.06236 (Simulation time: 0 hr 27 min 44 sec) 
Heartbeat CPU  0 instructions:  379000001 cycles: 4590190290 heartbeat IPC: 0.06181 cumulative IPC: 0.06235 (Simulation time: 0 hr 27 min 49 sec) 
Heartbeat CPU  0 instructions:  380000000 cycles: 4606319340 heartbeat IPC: 0.06200 cumulative IPC: 0.06235 (Simulation time: 0 hr 27 min 55 sec) 
Heartbeat CPU  0 instructions:  381000000 cycles: 4622376273 heartbeat IPC: 0.06228 cumulative IPC: 0.06235 (Simulation time: 0 hr 28 min 0 sec) 
Heartbeat CPU  0 instructions:  382000000 cycles: 4638452927 heartbeat IPC: 0.06220 cumulative IPC: 0.06235 (Simulation time: 0 hr 28 min 6 sec) 
Heartbeat CPU  0 instructions:  383000001 cycles: 4654612729 heartbeat IPC: 0.06188 cumulative IPC: 0.06235 (Simulation time: 0 hr 28 min 11 sec) 
Heartbeat CPU  0 instructions:  384000000 cycles: 4670690900 heartbeat IPC: 0.06220 cumulative IPC: 0.06235 (Simulation time: 0 hr 28 min 17 sec) 
Heartbeat CPU  0 instructions:  385000000 cycles: 4686892912 heartbeat IPC: 0.06172 cumulative IPC: 0.06235 (Simulation time: 0 hr 28 min 22 sec) 
Heartbeat CPU  0 instructions:  386000000 cycles: 4703140969 heartbeat IPC: 0.06155 cumulative IPC: 0.06234 (Simulation time: 0 hr 28 min 27 sec) 
Heartbeat CPU  0 instructions:  387000000 cycles: 4719329093 heartbeat IPC: 0.06177 cumulative IPC: 0.06234 (Simulation time: 0 hr 28 min 33 sec) 
Heartbeat CPU  0 instructions:  388000000 cycles: 4735573028 heartbeat IPC: 0.06156 cumulative IPC: 0.06234 (Simulation time: 0 hr 28 min 38 sec) 
Heartbeat CPU  0 instructions:  389000000 cycles: 4751758441 heartbeat IPC: 0.06178 cumulative IPC: 0.06234 (Simulation time: 0 hr 28 min 44 sec) 
Heartbeat CPU  0 instructions:  390000000 cycles: 4767947892 heartbeat IPC: 0.06177 cumulative IPC: 0.06234 (Simulation time: 0 hr 28 min 49 sec) 
Heartbeat CPU  0 instructions:  391000000 cycles: 4784275815 heartbeat IPC: 0.06124 cumulative IPC: 0.06233 (Simulation time: 0 hr 28 min 55 sec) 
Heartbeat CPU  0 instructions:  392000000 cycles: 4800524165 heartbeat IPC: 0.06154 cumulative IPC: 0.06233 (Simulation time: 0 hr 29 min 0 sec) 
Heartbeat CPU  0 instructions:  393000000 cycles: 4816800315 heartbeat IPC: 0.06144 cumulative IPC: 0.06233 (Simulation time: 0 hr 29 min 5 sec) 
Heartbeat CPU  0 instructions:  394000001 cycles: 4833011611 heartbeat IPC: 0.06169 cumulative IPC: 0.06232 (Simulation time: 0 hr 29 min 11 sec) 
Heartbeat CPU  0 instructions:  395000001 cycles: 4849101517 heartbeat IPC: 0.06215 cumulative IPC: 0.06232 (Simulation time: 0 hr 29 min 16 sec) 
Heartbeat CPU  0 instructions:  396000000 cycles: 4864970760 heartbeat IPC: 0.06301 cumulative IPC: 0.06233 (Simulation time: 0 hr 29 min 22 sec) 
Heartbeat CPU  0 instructions:  397000000 cycles: 4881250091 heartbeat IPC: 0.06143 cumulative IPC: 0.06232 (Simulation time: 0 hr 29 min 27 sec) 
Heartbeat CPU  0 instructions:  398000001 cycles: 4897376597 heartbeat IPC: 0.06201 cumulative IPC: 0.06232 (Simulation time: 0 hr 29 min 32 sec) 
Heartbeat CPU  0 instructions:  399000002 cycles: 4913478446 heartbeat IPC: 0.06210 cumulative IPC: 0.06232 (Simulation time: 0 hr 29 min 38 sec) 
Heartbeat CPU  0 instructions:  400000000 cycles: 4929578170 heartbeat IPC: 0.06211 cumulative IPC: 0.06232 (Simulation time: 0 hr 29 min 43 sec) 
Heartbeat CPU  0 instructions:  401000001 cycles: 4945649458 heartbeat IPC: 0.06222 cumulative IPC: 0.06232 (Simulation time: 0 hr 29 min 49 sec) 
Heartbeat CPU  0 instructions:  402000000 cycles: 4961669603 heartbeat IPC: 0.06242 cumulative IPC: 0.06232 (Simulation time: 0 hr 29 min 54 sec) 
Heartbeat CPU  0 instructions:  403000000 cycles: 4977700644 heartbeat IPC: 0.06238 cumulative IPC: 0.06232 (Simulation time: 0 hr 30 min 0 sec) 
Heartbeat CPU  0 instructions:  404000000 cycles: 4993756654 heartbeat IPC: 0.06228 cumulative IPC: 0.06232 (Simulation time: 0 hr 30 min 5 sec) 
Heartbeat CPU  0 instructions:  405000001 cycles: 5009783485 heartbeat IPC: 0.06240 cumulative IPC: 0.06232 (Simulation time: 0 hr 30 min 10 sec) 
Heartbeat CPU  0 instructions:  406000003 cycles: 5025773249 heartbeat IPC: 0.06254 cumulative IPC: 0.06232 (Simulation time: 0 hr 30 min 16 sec) 
Heartbeat CPU  0 instructions:  407000000 cycles: 5041825791 heartbeat IPC: 0.06230 cumulative IPC: 0.06232 (Simulation time: 0 hr 30 min 21 sec) 
Heartbeat CPU  0 instructions:  408000000 cycles: 5057889608 heartbeat IPC: 0.06225 cumulative IPC: 0.06232 (Simulation time: 0 hr 30 min 27 sec) 
Heartbeat CPU  0 instructions:  409000000 cycles: 5073885167 heartbeat IPC: 0.06252 cumulative IPC: 0.06232 (Simulation time: 0 hr 30 min 32 sec) 
Heartbeat CPU  0 instructions:  410000001 cycles: 5089759642 heartbeat IPC: 0.06299 cumulative IPC: 0.06232 (Simulation time: 0 hr 30 min 38 sec) 
Heartbeat CPU  0 instructions:  411000000 cycles: 5105664065 heartbeat IPC: 0.06288 cumulative IPC: 0.06233 (Simulation time: 0 hr 30 min 43 sec) 
Heartbeat CPU  0 instructions:  412000000 cycles: 5121596946 heartbeat IPC: 0.06276 cumulative IPC: 0.06233 (Simulation time: 0 hr 30 min 49 sec) 
Heartbeat CPU  0 instructions:  413000001 cycles: 5137540491 heartbeat IPC: 0.06272 cumulative IPC: 0.06233 (Simulation time: 0 hr 30 min 54 sec) 
Heartbeat CPU  0 instructions:  414000000 cycles: 5153413724 heartbeat IPC: 0.06300 cumulative IPC: 0.06233 (Simulation time: 0 hr 31 min 0 sec) 
Heartbeat CPU  0 instructions:  415000001 cycles: 5169306610 heartbeat IPC: 0.06292 cumulative IPC: 0.06233 (Simulation time: 0 hr 31 min 5 sec) 
Heartbeat CPU  0 instructions:  416000000 cycles: 5185205874 heartbeat IPC: 0.06290 cumulative IPC: 0.06233 (Simulation time: 0 hr 31 min 11 sec) 
Heartbeat CPU  0 instructions:  417000000 cycles: 5201125720 heartbeat IPC: 0.06281 cumulative IPC: 0.06234 (Simulation time: 0 hr 31 min 16 sec) 
Heartbeat CPU  0 instructions:  418000000 cycles: 5217163152 heartbeat IPC: 0.06235 cumulative IPC: 0.06234 (Simulation time: 0 hr 31 min 22 sec) 
Heartbeat CPU  0 instructions:  419000000 cycles: 5233094031 heartbeat IPC: 0.06277 cumulative IPC: 0.06234 (Simulation time: 0 hr 31 min 27 sec) 
Heartbeat CPU  0 instructions:  420000000 cycles: 5249057531 heartbeat IPC: 0.06264 cumulative IPC: 0.06234 (Simulation time: 0 hr 31 min 33 sec) 
Heartbeat CPU  0 instructions:  421000001 cycles: 5264917104 heartbeat IPC: 0.06305 cumulative IPC: 0.06234 (Simulation time: 0 hr 31 min 38 sec) 
Heartbeat CPU  0 instructions:  422000001 cycles: 5280896271 heartbeat IPC: 0.06258 cumulative IPC: 0.06234 (Simulation time: 0 hr 31 min 44 sec) 
Heartbeat CPU  0 instructions:  423000000 cycles: 5296883110 heartbeat IPC: 0.06255 cumulative IPC: 0.06234 (Simulation time: 0 hr 31 min 49 sec) 
Heartbeat CPU  0 instructions:  424000000 cycles: 5312927454 heartbeat IPC: 0.06233 cumulative IPC: 0.06234 (Simulation time: 0 hr 31 min 55 sec) 
Heartbeat CPU  0 instructions:  425000000 cycles: 5328928153 heartbeat IPC: 0.06250 cumulative IPC: 0.06234 (Simulation time: 0 hr 32 min 0 sec) 
Heartbeat CPU  0 instructions:  426000001 cycles: 5344925558 heartbeat IPC: 0.06251 cumulative IPC: 0.06234 (Simulation time: 0 hr 32 min 6 sec) 
Heartbeat CPU  0 instructions:  427000000 cycles: 5360898497 heartbeat IPC: 0.06261 cumulative IPC: 0.06234 (Simulation time: 0 hr 32 min 11 sec) 
Heartbeat CPU  0 instructions:  428000000 cycles: 5376798911 heartbeat IPC: 0.06289 cumulative IPC: 0.06235 (Simulation time: 0 hr 32 min 17 sec) 
Heartbeat CPU  0 instructions:  429000000 cycles: 5392633198 heartbeat IPC: 0.06315 cumulative IPC: 0.06235 (Simulation time: 0 hr 32 min 22 sec) 
Heartbeat CPU  0 instructions:  430000000 cycles: 5408564125 heartbeat IPC: 0.06277 cumulative IPC: 0.06235 (Simulation time: 0 hr 32 min 27 sec) 
Heartbeat CPU  0 instructions:  431000001 cycles: 5424581468 heartbeat IPC: 0.06243 cumulative IPC: 0.06235 (Simulation time: 0 hr 32 min 33 sec) 
Heartbeat CPU  0 instructions:  432000000 cycles: 5440552941 heartbeat IPC: 0.06261 cumulative IPC: 0.06235 (Simulation time: 0 hr 32 min 38 sec) 
Heartbeat CPU  0 instructions:  433000000 cycles: 5456609994 heartbeat IPC: 0.06228 cumulative IPC: 0.06235 (Simulation time: 0 hr 32 min 44 sec) 
Heartbeat CPU  0 instructions:  434000002 cycles: 5472627195 heartbeat IPC: 0.06243 cumulative IPC: 0.06235 (Simulation time: 0 hr 32 min 49 sec) 
Heartbeat CPU  0 instructions:  435000000 cycles: 5488669918 heartbeat IPC: 0.06233 cumulative IPC: 0.06235 (Simulation time: 0 hr 32 min 55 sec) 
Heartbeat CPU  0 instructions:  436000000 cycles: 5504627927 heartbeat IPC: 0.06266 cumulative IPC: 0.06235 (Simulation time: 0 hr 33 min 0 sec) 
Heartbeat CPU  0 instructions:  437000002 cycles: 5520522584 heartbeat IPC: 0.06291 cumulative IPC: 0.06235 (Simulation time: 0 hr 33 min 6 sec) 
Heartbeat CPU  0 instructions:  438000000 cycles: 5536442888 heartbeat IPC: 0.06281 cumulative IPC: 0.06235 (Simulation time: 0 hr 33 min 11 sec) 
Heartbeat CPU  0 instructions:  439000000 cycles: 5552451506 heartbeat IPC: 0.06247 cumulative IPC: 0.06235 (Simulation time: 0 hr 33 min 17 sec) 
Heartbeat CPU  0 instructions:  440000000 cycles: 5568521731 heartbeat IPC: 0.06223 cumulative IPC: 0.06235 (Simulation time: 0 hr 33 min 22 sec) 
Heartbeat CPU  0 instructions:  441000000 cycles: 5584643146 heartbeat IPC: 0.06203 cumulative IPC: 0.06235 (Simulation time: 0 hr 33 min 27 sec) 
Heartbeat CPU  0 instructions:  442000000 cycles: 5600819832 heartbeat IPC: 0.06182 cumulative IPC: 0.06235 (Simulation time: 0 hr 33 min 33 sec) 
Heartbeat CPU  0 instructions:  443000003 cycles: 5616880109 heartbeat IPC: 0.06227 cumulative IPC: 0.06235 (Simulation time: 0 hr 33 min 38 sec) 
Heartbeat CPU  0 instructions:  444000000 cycles: 5632939767 heartbeat IPC: 0.06227 cumulative IPC: 0.06235 (Simulation time: 0 hr 33 min 44 sec) 
Heartbeat CPU  0 instructions:  445000001 cycles: 5649024965 heartbeat IPC: 0.06217 cumulative IPC: 0.06235 (Simulation time: 0 hr 33 min 49 sec) 
Heartbeat CPU  0 instructions:  446000000 cycles: 5665187509 heartbeat IPC: 0.06187 cumulative IPC: 0.06235 (Simulation time: 0 hr 33 min 55 sec) 
Heartbeat CPU  0 instructions:  447000000 cycles: 5681369075 heartbeat IPC: 0.06180 cumulative IPC: 0.06235 (Simulation time: 0 hr 34 min 0 sec) 
Heartbeat CPU  0 instructions:  448000000 cycles: 5697418429 heartbeat IPC: 0.06231 cumulative IPC: 0.06235 (Simulation time: 0 hr 34 min 5 sec) 
Heartbeat CPU  0 instructions:  449000003 cycles: 5713478221 heartbeat IPC: 0.06227 cumulative IPC: 0.06235 (Simulation time: 0 hr 34 min 11 sec) 
Heartbeat CPU  0 instructions:  450000000 cycles: 5729541706 heartbeat IPC: 0.06225 cumulative IPC: 0.06235 (Simulation time: 0 hr 34 min 16 sec) 
Heartbeat CPU  0 instructions:  451000000 cycles: 5745644133 heartbeat IPC: 0.06210 cumulative IPC: 0.06235 (Simulation time: 0 hr 34 min 22 sec) 
Heartbeat CPU  0 instructions:  452000000 cycles: 5761654268 heartbeat IPC: 0.06246 cumulative IPC: 0.06235 (Simulation time: 0 hr 34 min 27 sec) 
Heartbeat CPU  0 instructions:  453000000 cycles: 5777848017 heartbeat IPC: 0.06175 cumulative IPC: 0.06234 (Simulation time: 0 hr 34 min 33 sec) 
Heartbeat CPU  0 instructions:  454000000 cycles: 5793982352 heartbeat IPC: 0.06198 cumulative IPC: 0.06234 (Simulation time: 0 hr 34 min 38 sec) 
Heartbeat CPU  0 instructions:  455000000 cycles: 5810191638 heartbeat IPC: 0.06169 cumulative IPC: 0.06234 (Simulation time: 0 hr 34 min 44 sec) 
Heartbeat CPU  0 instructions:  456000000 cycles: 5826397267 heartbeat IPC: 0.06171 cumulative IPC: 0.06234 (Simulation time: 0 hr 34 min 49 sec) 
Heartbeat CPU  0 instructions:  457000000 cycles: 5842491544 heartbeat IPC: 0.06213 cumulative IPC: 0.06234 (Simulation time: 0 hr 34 min 55 sec) 
Heartbeat CPU  0 instructions:  458000000 cycles: 5858730967 heartbeat IPC: 0.06158 cumulative IPC: 0.06234 (Simulation time: 0 hr 35 min 0 sec) 
Heartbeat CPU  0 instructions:  459000000 cycles: 5874945417 heartbeat IPC: 0.06167 cumulative IPC: 0.06234 (Simulation time: 0 hr 35 min 5 sec) 
Heartbeat CPU  0 instructions:  460000000 cycles: 5890994796 heartbeat IPC: 0.06231 cumulative IPC: 0.06234 (Simulation time: 0 hr 35 min 11 sec) 
Heartbeat CPU  0 instructions:  461000000 cycles: 5907083761 heartbeat IPC: 0.06215 cumulative IPC: 0.06233 (Simulation time: 0 hr 35 min 16 sec) 
Heartbeat CPU  0 instructions:  462000000 cycles: 5923091034 heartbeat IPC: 0.06247 cumulative IPC: 0.06234 (Simulation time: 0 hr 35 min 22 sec) 
Heartbeat CPU  0 instructions:  463000000 cycles: 5939048614 heartbeat IPC: 0.06267 cumulative IPC: 0.06234 (Simulation time: 0 hr 35 min 27 sec) 
Heartbeat CPU  0 instructions:  464000000 cycles: 5955080729 heartbeat IPC: 0.06237 cumulative IPC: 0.06234 (Simulation time: 0 hr 35 min 33 sec) 
Heartbeat CPU  0 instructions:  465000000 cycles: 5971212060 heartbeat IPC: 0.06199 cumulative IPC: 0.06234 (Simulation time: 0 hr 35 min 38 sec) 
Heartbeat CPU  0 instructions:  466000000 cycles: 5987311530 heartbeat IPC: 0.06211 cumulative IPC: 0.06233 (Simulation time: 0 hr 35 min 44 sec) 
Heartbeat CPU  0 instructions:  467000000 cycles: 6003319570 heartbeat IPC: 0.06247 cumulative IPC: 0.06233 (Simulation time: 0 hr 35 min 49 sec) 
Heartbeat CPU  0 instructions:  468000000 cycles: 6019285074 heartbeat IPC: 0.06264 cumulative IPC: 0.06234 (Simulation time: 0 hr 35 min 55 sec) 
Heartbeat CPU  0 instructions:  469000000 cycles: 6035166441 heartbeat IPC: 0.06297 cumulative IPC: 0.06234 (Simulation time: 0 hr 36 min 0 sec) 
Heartbeat CPU  0 instructions:  470000000 cycles: 6051101635 heartbeat IPC: 0.06275 cumulative IPC: 0.06234 (Simulation time: 0 hr 36 min 6 sec) 
Heartbeat CPU  0 instructions:  471000000 cycles: 6067046031 heartbeat IPC: 0.06272 cumulative IPC: 0.06234 (Simulation time: 0 hr 36 min 11 sec) 
Heartbeat CPU  0 instructions:  472000000 cycles: 6082846821 heartbeat IPC: 0.06329 cumulative IPC: 0.06234 (Simulation time: 0 hr 36 min 17 sec) 
Heartbeat CPU  0 instructions:  473000000 cycles: 6098665058 heartbeat IPC: 0.06322 cumulative IPC: 0.06234 (Simulation time: 0 hr 36 min 22 sec) 
Heartbeat CPU  0 instructions:  474000000 cycles: 6114655531 heartbeat IPC: 0.06254 cumulative IPC: 0.06234 (Simulation time: 0 hr 36 min 28 sec) 
Heartbeat CPU  0 instructions:  475000000 cycles: 6130459832 heartbeat IPC: 0.06327 cumulative IPC: 0.06235 (Simulation time: 0 hr 36 min 33 sec) 
Heartbeat CPU  0 instructions:  476000000 cycles: 6146462140 heartbeat IPC: 0.06249 cumulative IPC: 0.06235 (Simulation time: 0 hr 36 min 39 sec) 
Heartbeat CPU  0 instructions:  477000000 cycles: 6162526244 heartbeat IPC: 0.06225 cumulative IPC: 0.06235 (Simulation time: 0 hr 36 min 44 sec) 
Heartbeat CPU  0 instructions:  478000001 cycles: 6178676951 heartbeat IPC: 0.06192 cumulative IPC: 0.06235 (Simulation time: 0 hr 36 min 50 sec) 
Heartbeat CPU  0 instructions:  479000001 cycles: 6194821869 heartbeat IPC: 0.06194 cumulative IPC: 0.06235 (Simulation time: 0 hr 36 min 55 sec) 
Heartbeat CPU  0 instructions:  480000000 cycles: 6211029684 heartbeat IPC: 0.06170 cumulative IPC: 0.06234 (Simulation time: 0 hr 37 min 1 sec) 
Heartbeat CPU  0 instructions:  481000000 cycles: 6227199335 heartbeat IPC: 0.06184 cumulative IPC: 0.06234 (Simulation time: 0 hr 37 min 6 sec) 
Heartbeat CPU  0 instructions:  482000000 cycles: 6243393729 heartbeat IPC: 0.06175 cumulative IPC: 0.06234 (Simulation time: 0 hr 37 min 11 sec) 
Heartbeat CPU  0 instructions:  483000000 cycles: 6259451044 heartbeat IPC: 0.06228 cumulative IPC: 0.06234 (Simulation time: 0 hr 37 min 17 sec) 
Heartbeat CPU  0 instructions:  484000000 cycles: 6275631289 heartbeat IPC: 0.06180 cumulative IPC: 0.06234 (Simulation time: 0 hr 37 min 22 sec) 
Heartbeat CPU  0 instructions:  485000000 cycles: 6291916207 heartbeat IPC: 0.06141 cumulative IPC: 0.06234 (Simulation time: 0 hr 37 min 28 sec) 
Heartbeat CPU  0 instructions:  486000000 cycles: 6308135582 heartbeat IPC: 0.06165 cumulative IPC: 0.06233 (Simulation time: 0 hr 37 min 33 sec) 
Heartbeat CPU  0 instructions:  487000000 cycles: 6324368329 heartbeat IPC: 0.06160 cumulative IPC: 0.06233 (Simulation time: 0 hr 37 min 39 sec) 
Heartbeat CPU  0 instructions:  488000000 cycles: 6340278408 heartbeat IPC: 0.06285 cumulative IPC: 0.06233 (Simulation time: 0 hr 37 min 44 sec) 
Heartbeat CPU  0 instructions:  489000000 cycles: 6356415330 heartbeat IPC: 0.06197 cumulative IPC: 0.06233 (Simulation time: 0 hr 37 min 49 sec) 
Heartbeat CPU  0 instructions:  490000000 cycles: 6372402128 heartbeat IPC: 0.06255 cumulative IPC: 0.06233 (Simulation time: 0 hr 37 min 55 sec) 
Heartbeat CPU  0 instructions:  491000000 cycles: 6388447180 heartbeat IPC: 0.06232 cumulative IPC: 0.06233 (Simulation time: 0 hr 38 min 0 sec) 
Heartbeat CPU  0 instructions:  492000000 cycles: 6404534820 heartbeat IPC: 0.06216 cumulative IPC: 0.06233 (Simulation time: 0 hr 38 min 6 sec) 
Heartbeat CPU  0 instructions:  493000001 cycles: 6420597887 heartbeat IPC: 0.06225 cumulative IPC: 0.06233 (Simulation time: 0 hr 38 min 11 sec) 
Heartbeat CPU  0 instructions:  494000001 cycles: 6436648382 heartbeat IPC: 0.06230 cumulative IPC: 0.06233 (Simulation time: 0 hr 38 min 17 sec) 
Heartbeat CPU  0 instructions:  495000000 cycles: 6452754904 heartbeat IPC: 0.06209 cumulative IPC: 0.06233 (Simulation time: 0 hr 38 min 22 sec) 
Heartbeat CPU  0 instructions:  496000000 cycles: 6468827521 heartbeat IPC: 0.06222 cumulative IPC: 0.06233 (Simulation time: 0 hr 38 min 28 sec) 
Heartbeat CPU  0 instructions:  497000001 cycles: 6484731692 heartbeat IPC: 0.06288 cumulative IPC: 0.06233 (Simulation time: 0 hr 38 min 33 sec) 
Heartbeat CPU  0 instructions:  498000000 cycles: 6500741171 heartbeat IPC: 0.06246 cumulative IPC: 0.06233 (Simulation time: 0 hr 38 min 39 sec) 
Heartbeat CPU  0 instructions:  499000003 cycles: 6516672912 heartbeat IPC: 0.06277 cumulative IPC: 0.06233 (Simulation time: 0 hr 38 min 44 sec) 
Heartbeat CPU  0 instructions:  500000000 cycles: 6532698419 heartbeat IPC: 0.06240 cumulative IPC: 0.06234 (Simulation time: 0 hr 38 min 50 sec) 
Heartbeat CPU  0 instructions:  501000000 cycles: 6548746838 heartbeat IPC: 0.06231 cumulative IPC: 0.06233 (Simulation time: 0 hr 38 min 55 sec) 
Heartbeat CPU  0 instructions:  502000001 cycles: 6564879746 heartbeat IPC: 0.06199 cumulative IPC: 0.06233 (Simulation time: 0 hr 39 min 1 sec) 
Heartbeat CPU  0 instructions:  503000001 cycles: 6580928349 heartbeat IPC: 0.06231 cumulative IPC: 0.06233 (Simulation time: 0 hr 39 min 6 sec) 
Heartbeat CPU  0 instructions:  504000000 cycles: 6596939594 heartbeat IPC: 0.06246 cumulative IPC: 0.06233 (Simulation time: 0 hr 39 min 12 sec) 
Heartbeat CPU  0 instructions:  505000001 cycles: 6612866282 heartbeat IPC: 0.06279 cumulative IPC: 0.06234 (Simulation time: 0 hr 39 min 17 sec) 
Heartbeat CPU  0 instructions:  506000003 cycles: 6628829407 heartbeat IPC: 0.06264 cumulative IPC: 0.06234 (Simulation time: 0 hr 39 min 23 sec) 
Heartbeat CPU  0 instructions:  507000000 cycles: 6644719375 heartbeat IPC: 0.06293 cumulative IPC: 0.06234 (Simulation time: 0 hr 39 min 28 sec) 
Heartbeat CPU  0 instructions:  508000000 cycles: 6660745701 heartbeat IPC: 0.06240 cumulative IPC: 0.06234 (Simulation time: 0 hr 39 min 34 sec) 
Heartbeat CPU  0 instructions:  509000000 cycles: 6676774262 heartbeat IPC: 0.06239 cumulative IPC: 0.06234 (Simulation time: 0 hr 39 min 39 sec) 
Heartbeat CPU  0 instructions:  510000001 cycles: 6692760079 heartbeat IPC: 0.06256 cumulative IPC: 0.06234 (Simulation time: 0 hr 39 min 44 sec) 
Heartbeat CPU  0 instructions:  511000003 cycles: 6708680310 heartbeat IPC: 0.06281 cumulative IPC: 0.06234 (Simulation time: 0 hr 39 min 50 sec) 
Heartbeat CPU  0 instructions:  512000000 cycles: 6724690785 heartbeat IPC: 0.06246 cumulative IPC: 0.06234 (Simulation time: 0 hr 39 min 55 sec) 
Heartbeat CPU  0 instructions:  513000001 cycles: 6740726711 heartbeat IPC: 0.06236 cumulative IPC: 0.06234 (Simulation time: 0 hr 40 min 1 sec) 
Heartbeat CPU  0 instructions:  514000000 cycles: 6756820897 heartbeat IPC: 0.06213 cumulative IPC: 0.06234 (Simulation time: 0 hr 40 min 6 sec) 
Heartbeat CPU  0 instructions:  515000001 cycles: 6772812930 heartbeat IPC: 0.06253 cumulative IPC: 0.06234 (Simulation time: 0 hr 40 min 12 sec) 
Heartbeat CPU  0 instructions:  516000000 cycles: 6788819085 heartbeat IPC: 0.06248 cumulative IPC: 0.06234 (Simulation time: 0 hr 40 min 17 sec) 
Heartbeat CPU  0 instructions:  517000000 cycles: 6804817555 heartbeat IPC: 0.06251 cumulative IPC: 0.06234 (Simulation time: 0 hr 40 min 23 sec) 
Heartbeat CPU  0 instructions:  518000000 cycles: 6820911933 heartbeat IPC: 0.06213 cumulative IPC: 0.06234 (Simulation time: 0 hr 40 min 28 sec) 
Heartbeat CPU  0 instructions:  519000000 cycles: 6836999940 heartbeat IPC: 0.06216 cumulative IPC: 0.06234 (Simulation time: 0 hr 40 min 34 sec) 
Heartbeat CPU  0 instructions:  520000000 cycles: 6853052068 heartbeat IPC: 0.06230 cumulative IPC: 0.06234 (Simulation time: 0 hr 40 min 39 sec) 
Heartbeat CPU  0 instructions:  521000000 cycles: 6869209102 heartbeat IPC: 0.06189 cumulative IPC: 0.06234 (Simulation time: 0 hr 40 min 45 sec) 
Heartbeat CPU  0 instructions:  522000000 cycles: 6885204163 heartbeat IPC: 0.06252 cumulative IPC: 0.06234 (Simulation time: 0 hr 40 min 50 sec) 
Heartbeat CPU  0 instructions:  523000001 cycles: 6901233309 heartbeat IPC: 0.06239 cumulative IPC: 0.06234 (Simulation time: 0 hr 40 min 56 sec) 
Heartbeat CPU  0 instructions:  524000000 cycles: 6917403051 heartbeat IPC: 0.06184 cumulative IPC: 0.06234 (Simulation time: 0 hr 41 min 1 sec) 
Heartbeat CPU  0 instructions:  525000000 cycles: 6933559123 heartbeat IPC: 0.06190 cumulative IPC: 0.06234 (Simulation time: 0 hr 41 min 7 sec) 
Heartbeat CPU  0 instructions:  526000000 cycles: 6949696913 heartbeat IPC: 0.06197 cumulative IPC: 0.06234 (Simulation time: 0 hr 41 min 12 sec) 
Heartbeat CPU  0 instructions:  527000000 cycles: 6965789214 heartbeat IPC: 0.06214 cumulative IPC: 0.06234 (Simulation time: 0 hr 41 min 18 sec) 
Heartbeat CPU  0 instructions:  528000000 cycles: 6981857119 heartbeat IPC: 0.06224 cumulative IPC: 0.06234 (Simulation time: 0 hr 41 min 23 sec) 
[...]
Heartbeat CPU  0 instructions:  535000000 cycles: 7093881977 heartbeat IPC: 0.06298 cumulative IPC: 0.06234 (Simulation time: 0 hr 42 min 1 sec) 
Heartbeat CPU  0 instructions:  536000000 cycles: 7109835473 heartbeat IPC: 0.06268 cumulative IPC: 0.06234 (Simulation time: 0 hr 42 min 6 sec) 
Heartbeat CPU  0 instructions:  537000001 cycles: 7125981177 heartbeat IPC: 0.06194 cumulative IPC: 0.06234 (Simulation time: 0 hr 42 min 12 sec) 
Heartbeat CPU  0 instructions:  538000000 cycles: 7142020684 heartbeat IPC: 0.06235 cumulative IPC: 0.06234 (Simulation time: 0 hr 42 min 17 sec) 
Heartbeat CPU  0 instructions:  539000000 cycles: 7158110884 heartbeat IPC: 0.06215 cumulative IPC: 0.06234 (Simulation time: 0 hr 42 min 23 sec) 
Heartbeat CPU  0 instructions:  540000000 cycles: 7174169996 heartbeat IPC: 0.06227 cumulative IPC: 0.06234 (Simulation time: 0 hr 42 min 28 sec) 
Heartbeat CPU  0 instructions:  541000000 cycles: 7190090978 heartbeat IPC: 0.06281 cumulative IPC: 0.06234 (Simulation time: 0 hr 42 min 34 sec) 
Heartbeat CPU  0 instructions:  542000001 cycles: 7205945439 heartbeat IPC: 0.06307 cumulative IPC: 0.06234 (Simulation time: 0 hr 42 min 39 sec) 
Heartbeat CPU  0 instructions:  543000000 cycles: 7221890952 heartbeat IPC: 0.06271 cumulative IPC: 0.06234 (Simulation time: 0 hr 42 min 45 sec) 
Heartbeat CPU  0 instructions:  544000000 cycles: 7237802358 heartbeat IPC: 0.06285 cumulative IPC: 0.06234 (Simulation time: 0 hr 42 min 50 sec) 
Heartbeat CPU  0 instructions:  545000000 cycles: 7253844307 heartbeat IPC: 0.06234 cumulative IPC: 0.06234 (Simulation time: 0 hr 42 min 56 sec) 
Heartbeat CPU  0 instructions:  546000001 cycles: 7269876404 heartbeat IPC: 0.06237 cumulative IPC: 0.06234 (Simulation time: 0 hr 43 min 1 sec) 
Heartbeat CPU  0 instructions:  547000001 cycles: 7285896384 heartbeat IPC: 0.06242 cumulative IPC: 0.06234 (Simulation time: 0 hr 43 min 6 sec) 
Heartbeat CPU  0 instructions:  548000000 cycles: 7301997573 heartbeat IPC: 0.06211 cumulative IPC: 0.06234 (Simulation time: 0 hr 43 min 12 sec) 
Heartbeat CPU  0 instructions:  549000000 cycles: 7318046996 heartbeat IPC: 0.06231 cumulative IPC: 0.06234 (Simulation time: 0 hr 43 min 17 sec) 
Heartbeat CPU  0 instructions:  550000001 cycles: 7333987709 heartbeat IPC: 0.06273 cumulative IPC: 0.06234 (Simulation time: 0 hr 43 min 23 sec) 
Heartbeat CPU  0 instructions:  551000000 cycles: 7349925385 heartbeat IPC: 0.06274 cumulative IPC: 0.06234 (Simulation time: 0 hr 43 min 28 sec) 
Heartbeat CPU  0 instructions:  552000000 cycles: 7365936608 heartbeat IPC: 0.06246 cumulative IPC: 0.06234 (Simulation time: 0 hr 43 min 34 sec) 
Heartbeat CPU  0 instructions:  553000000 cycles: 7381874395 heartbeat IPC: 0.06274 cumulative IPC: 0.06234 (Simulation time: 0 hr 43 min 39 sec) 
Heartbeat CPU  0 instructions:  554000001 cycles: 7397768745 heartbeat IPC: 0.06292 cumulative IPC: 0.06235 (Simulation time: 0 hr 43 min 45 sec) 
Heartbeat CPU  0 instructions:  555000000 cycles: 7413711041 heartbeat IPC: 0.06273 cumulative IPC: 0.06235 (Simulation time: 0 hr 43 min 50 sec) 
Heartbeat CPU  0 instructions:  556000000 cycles: 7429685547 heartbeat IPC: 0.06260 cumulative IPC: 0.06235 (Simulation time: 0 hr 43 min 56 sec) 
Heartbeat CPU  0 instructions:  557000000 cycles: 7445620399 heartbeat IPC: 0.06276 cumulative IPC: 0.06235 (Simulation time: 0 hr 44 min 1 sec) 
Heartbeat CPU  0 instructions:  558000000 cycles: 7461329305 heartbeat IPC: 0.06366 cumulative IPC: 0.06235 (Simulation time: 0 hr 44 min 6 sec) 
Heartbeat CPU  0 instructions:  559000001 cycles: 7477354183 heartbeat IPC: 0.06240 cumulative IPC: 0.06235 (Simulation time: 0 hr 44 min 12 sec) 
Heartbeat CPU  0 instructions:  560000000 cycles: 7493553224 heartbeat IPC: 0.06173 cumulative IPC: 0.06235 (Simulation time: 0 hr 44 min 17 sec) 
Heartbeat CPU  0 instructions:  561000001 cycles: 7509650790 heartbeat IPC: 0.06212 cumulative IPC: 0.06235 (Simulation time: 0 hr 44 min 23 sec) 
Heartbeat CPU  0 instructions:  562000000 cycles: 7525680433 heartbeat IPC: 0.06238 cumulative IPC: 0.06235 (Simulation time: 0 hr 44 min 28 sec) 
Heartbeat CPU  0 instructions:  563000000 cycles: 7541684156 heartbeat IPC: 0.06249 cumulative IPC: 0.06235 (Simulation time: 0 hr 44 min 33 sec) 
Heartbeat CPU  0 instructions:  564000000 cycles: 7557687020 heartbeat IPC: 0.06249 cumulative IPC: 0.06235 (Simulation time: 0 hr 44 min 39 sec) 
Heartbeat CPU  0 instructions:  565000003 cycles: 7573731259 heartbeat IPC: 0.06233 cumulative IPC: 0.06235 (Simulation time: 0 hr 44 min 44 sec) 
Heartbeat CPU  0 instructions:  566000001 cycles: 7589850852 heartbeat IPC: 0.06204 cumulative IPC: 0.06235 (Simulation time: 0 hr 44 min 50 sec) 
Heartbeat CPU  0 instructions:  567000000 cycles: 7605922902 heartbeat IPC: 0.06222 cumulative IPC: 0.06235 (Simulation time: 0 hr 44 min 55 sec) 
Heartbeat CPU  0 instructions:  568000000 cycles: 7621888159 heartbeat IPC: 0.06264 cumulative IPC: 0.06235 (Simulation time: 0 hr 45 min 0 sec) 
Heartbeat CPU  0 instructions:  569000002 cycles: 7637883368 heartbeat IPC: 0.06252 cumulative IPC: 0.06235 (Simulation time: 0 hr 45 min 6 sec) 
Heartbeat CPU  0 instructions:  570000001 cycles: 7653793363 heartbeat IPC: 0.06285 cumulative IPC: 0.06235 (Simulation time: 0 hr 45 min 11 sec) 
Heartbeat CPU  0 instructions:  571000001 cycles: 7670010155 heartbeat IPC: 0.06166 cumulative IPC: 0.06235 (Simulation time: 0 hr 45 min 17 sec) 
Heartbeat CPU  0 instructions:  572000000 cycles: 7686059633 heartbeat IPC: 0.06231 cumulative IPC: 0.06235 (Simulation time: 0 hr 45 min 22 sec) 
Heartbeat CPU  0 instructions:  573000000 cycles: 7702212427 heartbeat IPC: 0.06191 cumulative IPC: 0.06235 (Simulation time: 0 hr 45 min 27 sec) 
Heartbeat CPU  0 instructions:  574000000 cycles: 7718336215 heartbeat IPC: 0.06202 cumulative IPC: 0.06235 (Simulation time: 0 hr 45 min 33 sec) 
Heartbeat CPU  0 instructions:  575000000 cycles: 7734323552 heartbeat IPC: 0.06255 cumulative IPC: 0.06235 (Simulation time: 0 hr 45 min 38 sec) 
Heartbeat CPU  0 instructions:  576000000 cycles: 7750138330 heartbeat IPC: 0.06323 cumulative IPC: 0.06235 (Simulation time: 0 hr 45 min 44 sec) 
Heartbeat CPU  0 instructions:  577000000 cycles: 7765986855 heartbeat IPC: 0.06310 cumulative IPC: 0.06235 (Simulation time: 0 hr 45 min 49 sec) 
Heartbeat CPU  0 instructions:  578000000 cycles: 7781836360 heartbeat IPC: 0.06309 cumulative IPC: 0.06235 (Simulation time: 0 hr 45 min 54 sec) 
Heartbeat CPU  0 instructions:  579000001 cycles: 7797631300 heartbeat IPC: 0.06331 cumulative IPC: 0.06235 (Simulation time: 0 hr 46 min 0 sec) 
Heartbeat CPU  0 instructions:  580000000 cycles: 7813312774 heartbeat IPC: 0.06377 cumulative IPC: 0.06236 (Simulation time: 0 hr 46 min 5 sec) 
Heartbeat CPU  0 instructions:  581000000 cycles: 7828973826 heartbeat IPC: 0.06385 cumulative IPC: 0.06236 (Simulation time: 0 hr 46 min 11 sec) 
Heartbeat CPU  0 instructions:  582000001 cycles: 7844628426 heartbeat IPC: 0.06388 cumulative IPC: 0.06236 (Simulation time: 0 hr 46 min 16 sec) 
Heartbeat CPU  0 instructions:  583000000 cycles: 7860301848 heartbeat IPC: 0.06380 cumulative IPC: 0.06237 (Simulation time: 0 hr 46 min 21 sec) 
Heartbeat CPU  0 instructions:  584000000 cycles: 7876005079 heartbeat IPC: 0.06368 cumulative IPC: 0.06237 (Simulation time: 0 hr 46 min 27 sec) 
Heartbeat CPU  0 instructions:  585000000 cycles: 7891694880 heartbeat IPC: 0.06374 cumulative IPC: 0.06237 (Simulation time: 0 hr 46 min 32 sec) 
Heartbeat CPU  0 instructions:  586000001 cycles: 7907515917 heartbeat IPC: 0.06321 cumulative IPC: 0.06237 (Simulation time: 0 hr 46 min 38 sec) 
Heartbeat CPU  0 instructions:  587000000 cycles: 7923306669 heartbeat IPC: 0.06333 cumulative IPC: 0.06238 (Simulation time: 0 hr 46 min 43 sec) 
Heartbeat CPU  0 instructions:  588000000 cycles: 7939166745 heartbeat IPC: 0.06305 cumulative IPC: 0.06238 (Simulation time: 0 hr 46 min 49 sec) 
Heartbeat CPU  0 instructions:  589000002 cycles: 7955079870 heartbeat IPC: 0.06284 cumulative IPC: 0.06238 (Simulation time: 0 hr 46 min 54 sec) 
Heartbeat CPU  0 instructions:  590000000 cycles: 7971009320 heartbeat IPC: 0.06278 cumulative IPC: 0.06238 (Simulation time: 0 hr 47 min 0 sec) 
Heartbeat CPU  0 instructions:  591000000 cycles: 7987091681 heartbeat IPC: 0.06218 cumulative IPC: 0.06238 (Simulation time: 0 hr 47 min 5 sec) 
Heartbeat CPU  0 instructions:  592000000 cycles: 8003155399 heartbeat IPC: 0.06225 cumulative IPC: 0.06238 (Simulation time: 0 hr 47 min 10 sec) 
Heartbeat CPU  0 instructions:  593000000 cycles: 8019277964 heartbeat IPC: 0.06202 cumulative IPC: 0.06238 (Simulation time: 0 hr 47 min 16 sec) 
Heartbeat CPU  0 instructions:  594000000 cycles: 8035433681 heartbeat IPC: 0.06190 cumulative IPC: 0.06238 (Simulation time: 0 hr 47 min 21 sec) 
Heartbeat CPU  0 instructions:  595000002 cycles: 8051594022 heartbeat IPC: 0.06188 cumulative IPC: 0.06238 (Simulation time: 0 hr 47 min 27 sec) 
Heartbeat CPU  0 instructions:  596000000 cycles: 8067707841 heartbeat IPC: 0.06206 cumulative IPC: 0.06237 (Simulation time: 0 hr 47 min 32 sec) 
Heartbeat CPU  0 instructions:  597000000 cycles: 8083817072 heartbeat IPC: 0.06208 cumulative IPC: 0.06237 (Simulation time: 0 hr 47 min 38 sec) 
Heartbeat CPU  0 instructions:  598000000 cycles: 8099885617 heartbeat IPC: 0.06223 cumulative IPC: 0.06237 (Simulation time: 0 hr 47 min 43 sec) 
Heartbeat CPU  0 instructions:  599000000 cycles: 8115907688 heartbeat IPC: 0.06241 cumulative IPC: 0.06237 (Simulation time: 0 hr 47 min 48 sec) 
Heartbeat CPU  0 instructions:  600000000 cycles: 8131954042 heartbeat IPC: 0.06232 cumulative IPC: 0.06237 (Simulation time: 0 hr 47 min 54 sec) 
Finished CPU 0 instructions: 500000003 cycles: 8016190449 cumulative IPC: 0.06237 (Simulation time: 0 hr 47 min 54 sec) 

ChampSim completed all CPUs

[ROI Statistics]
Core_0_instructions 500000003
Core_0_cycles 8016190449
Core_0_IPC 0.06237

Core_0_branch_prediction_accuracy 91.38259
Core_0_branch_MPKI 20.71461
Core_0_average_ROB_occupancy_at_mispredict 46.75685

Core_0_L1D_total_access 104102320
Core_0_L1D_total_hit 29058003
Core_0_L1D_total_miss 75044317
Core_0_L1D_loads 103987370
Core_0_L1D_load_hit 28945547
Core_0_L1D_load_miss 75041823
Core_0_L1D_RFOs 114950
Core_0_L1D_RFO_hit 112456
Core_0_L1D_RFO_miss 2494
Core_0_L1D_prefetches 0
Core_0_L1D_prefetch_hit 0
Core_0_L1D_prefetch_miss 0
Core_0_L1D_writebacks 0
Core_0_L1D_writeback_hit 0
Core_0_L1D_writeback_miss 0
Core_0_L1D_prefetch_requested 0
Core_0_L1D_prefetch_dropped 0
Core_0_L1D_prefetch_issued 0
Core_0_L1D_prefetch_filled 0
Core_0_L1D_prefetch_useful 0
Core_0_L1D_prefetch_useless 0
Core_0_L1D_prefetch_late 0
Core_0_L1D_average_miss_latency 197.62351

Core_0_L1D_rq_access 155342312
Core_0_L1D_rq_forward 0
Core_0_L1D_rq_merged 51319579
Core_0_L1D_rq_to_cache 104022733
Core_0_L1D_rq_full 0

Core_0_L1D_wq_access 123159
Core_0_L1D_wq_forward 0
Core_0_L1D_wq_merged 6868
Core_0_L1D_wq_to_cache 116291
Core_0_L1D_wq_full 0

Core_0_L1D_pq_access 0
Core_0_L1D_pq_forward 0
Core_0_L1D_pq_merged 0
Core_0_L1D_pq_to_cache 0
Core_0_L1D_pq_full 0

Core_0_L1D_acc_epochs 7817404
Core_0_L1D_acc_level_0 7817404
Core_0_L1D_acc_level_1 0
Core_0_L1D_acc_level_2 0
Core_0_L1D_acc_level_3 0
Core_0_L1D_acc_level_4 0
Core_0_L1D_acc_level_5 0
Core_0_L1D_acc_level_6 0
Core_0_L1D_acc_level_7 0
Core_0_L1D_acc_level_8 0
Core_0_L1D_acc_level_9 0

Core_0_L1I_total_access 91200535
Core_0_L1I_total_hit 91200535
Core_0_L1I_total_miss 0
Core_0_L1I_loads 91200535
Core_0_L1I_load_hit 91200535
Core_0_L1I_load_miss 0
Core_0_L1I_RFOs 0
Core_0_L1I_RFO_hit 0
Core_0_L1I_RFO_miss 0
Core_0_L1I_prefetches 0
Core_0_L1I_prefetch_hit 0
Core_0_L1I_prefetch_miss 0
Core_0_L1I_writebacks 0
Core_0_L1I_writeback_hit 0
Core_0_L1I_writeback_miss 0
Core_0_L1I_prefetch_requested 0
Core_0_L1I_prefetch_dropped 0
Core_0_L1I_prefetch_issued 0
Core_0_L1I_prefetch_filled 0
Core_0_L1I_prefetch_useful 0
Core_0_L1I_prefetch_useless 0
Core_0_L1I_prefetch_late 0
Core_0_L1I_average_miss_latency -nan

Core_0_L1I_rq_access 499999982
Core_0_L1I_rq_forward 0
Core_0_L1I_rq_merged 408799447
Core_0_L1I_rq_to_cache 91200535
Core_0_L1I_rq_full 0

Core_0_L1I_wq_access 0
Core_0_L1I_wq_forward 0
Core_0_L1I_wq_merged 0
Core_0_L1I_wq_to_cache 0
Core_0_L1I_wq_full 0

Core_0_L1I_pq_access 0
Core_0_L1I_pq_forward 0
Core_0_L1I_pq_merged 0
Core_0_L1I_pq_to_cache 0
Core_0_L1I_pq_full 0

Core_0_L1I_acc_epochs 7817404
Core_0_L1I_acc_level_0 7817404
Core_0_L1I_acc_level_1 0
Core_0_L1I_acc_level_2 0
Core_0_L1I_acc_level_3 0
Core_0_L1I_acc_level_4 0
Core_0_L1I_acc_level_5 0
Core_0_L1I_acc_level_6 0
Core_0_L1I_acc_level_7 0
Core_0_L1I_acc_level_8 0
Core_0_L1I_acc_level_9 0

Core_0_L2C_total_access 75116007
Core_0_L2C_total_hit 15342362
Core_0_L2C_total_miss 59773645
Core_0_L2C_loads 75041820
Core_0_L2C_load_hit 15270179
Core_0_L2C_load_miss 59771641
Core_0_L2C_RFOs 2494
Core_0_L2C_RFO_hit 590
Core_0_L2C_RFO_miss 1904
Core_0_L2C_prefetches 9140
Core_0_L2C_prefetch_hit 9040
Core_0_L2C_prefetch_miss 100
Core_0_L2C_writebacks 62553
Core_0_L2C_writeback_hit 62553
Core_0_L2C_writeback_miss 0
Core_0_L2C_prefetch_requested 68846
Core_0_L2C_prefetch_dropped 0
Core_0_L2C_prefetch_issued 68846
Core_0_L2C_prefetch_filled 104
Core_0_L2C_prefetch_useful 2
Core_0_L2C_prefetch_useless 102
Core_0_L2C_prefetch_late 0
Core_0_L2C_average_miss_latency 230.07981

Core_0_L2C_rq_access 75044317
Core_0_L2C_rq_forward 0
Core_0_L2C_rq_merged 0
Core_0_L2C_rq_to_cache 75044314
Core_0_L2C_rq_full 0

Core_0_L2C_wq_access 62553
Core_0_L2C_wq_forward 3
Core_0_L2C_wq_merged 0
Core_0_L2C_wq_to_cache 62553
Core_0_L2C_wq_full 0

Core_0_L2C_pq_access 68846
Core_0_L2C_pq_forward 0
Core_0_L2C_pq_merged 13
Core_0_L2C_pq_to_cache 68833
Core_0_L2C_pq_full 0

Core_0_L2C_acc_epochs 7817404
Core_0_L2C_acc_level_0 7817404
Core_0_L2C_acc_level_1 0
Core_0_L2C_acc_level_2 0
Core_0_L2C_acc_level_3 0
Core_0_L2C_acc_level_4 0
Core_0_L2C_acc_level_5 0
Core_0_L2C_acc_level_6 0
Core_0_L2C_acc_level_7 0
Core_0_L2C_acc_level_8 0
Core_0_L2C_acc_level_9 0

Core_0_LLC_total_access 59859704
Core_0_LLC_total_hit 33123769
Core_0_LLC_total_miss 26735935
Core_0_LLC_loads 59771641
Core_0_LLC_load_hit 33053939
Core_0_LLC_load_miss 26717702
Core_0_LLC_RFOs 1904
Core_0_LLC_RFO_hit 1048
Core_0_LLC_RFO_miss 856
Core_0_LLC_prefetches 25285
Core_0_LLC_prefetch_hit 13116
Core_0_LLC_prefetch_miss 12169
Core_0_LLC_writebacks 60874
Core_0_LLC_writeback_hit 55666
Core_0_LLC_writeback_miss 5208
Core_0_LLC_prefetch_requested 0
Core_0_LLC_prefetch_dropped 0
Core_0_LLC_prefetch_issued 0
Core_0_LLC_prefetch_filled 26453
Core_0_LLC_prefetch_useful 3666
Core_0_LLC_prefetch_useless 22716
Core_0_LLC_prefetch_late 64
Core_0_LLC_average_miss_latency 447.41059

Core_0_LLC_rq_access 59773545
Core_0_LLC_rq_forward 0
Core_0_LLC_rq_merged 0
Core_0_LLC_rq_to_cache 59773545
Core_0_LLC_rq_full 0

Core_0_LLC_wq_access 60874
Core_0_LLC_wq_forward 0
Core_0_LLC_wq_merged 0
Core_0_LLC_wq_to_cache 60874
Core_0_LLC_wq_full 0

Core_0_LLC_pq_access 45445
Core_0_LLC_pq_forward 0
Core_0_LLC_pq_merged 0
Core_0_LLC_pq_to_cache 45445
Core_0_LLC_pq_full 0

Core_0_LLC_acc_epochs 7941362
Core_0_LLC_acc_level_0 7939873
Core_0_LLC_acc_level_1 506
Core_0_LLC_acc_level_2 451
Core_0_LLC_acc_level_3 146
Core_0_LLC_acc_level_4 74
Core_0_LLC_acc_level_5 245
Core_0_LLC_acc_level_6 20
Core_0_LLC_acc_level_7 23
Core_0_LLC_acc_level_8 7
Core_0_LLC_acc_level_9 17

Core_0_major_page_fault 0
Core_0_minor_page_fault 428295

spp.pref.total 68846
spp.pref.at_L2 109
spp.pref.at_LLC 68737

spp.depth.max 2
spp.depth.min 0
spp.depth.avg 0

spp.breadth.max 2
spp.breadth.min 0
spp.breadth.avg 0

delta_1 36406
delta_-16 3382
delta_-1 1718
delta_-13 1445
delta_-2 998
delta_-26 959
delta_-8 932
delta_8 892
delta_-40 880
delta_18 876
delta_-23 864
delta_7 795
delta_5 730
delta_16 728
delta_-7 712
delta_-18 709
delta_37 677
delta_21 632
delta_-10 630
delta_26 627
delta_10 619
delta_13 574
delta_-3 564
delta_34 542
delta_11 491
delta_36 472
delta_-5 464
delta_3 460
delta_-47 443
delta_9 390
delta_-42 381
delta_28 375
delta_-31 365
delta_-21 343
delta_20 293
delta_-15 275
delta_23 273
delta_12 270
delta_14 256
delta_-46 255
delta_39 228
delta_-4 205
delta_-14 204
delta_17 203
delta_-37 200
delta_31 198
delta_-39 197
delta_-12 196
delta_46 192
delta_42 187
delta_41 179
delta_32 173
delta_33 169
delta_-9 168
delta_29 162
delta_-11 161
delta_-44 154
delta_-29 146
delta_52 145
delta_-43 140
delta_24 129
delta_-19 128
delta_-52 125
delta_-17 122
delta_-28 102
delta_4 100
delta_51 96
delta_2 94
delta_-55 93
delta_-41 93
delta_49 93
delta_56 91
delta_53 86
delta_15 82
delta_6 81
delta_50 75
delta_22 75
delta_19 70
delta_35 69
delta_47 66
delta_-34 65
delta_-45 63
delta_-60 63
delta_54 58
delta_25 56
delta_-27 53
delta_-30 50
delta_-24 45
delta_-32 44
delta_30 43
delta_40 41
delta_-22 40
delta_38 34
delta_44 31
delta_-35 28
delta_-49 24
delta_-36 23
delta_-6 23
delta_-38 19
delta_45 17
delta_-33 17
delta_61 16
delta_59 14
delta_27 13
delta_-48 12
delta_-57 9
delta_-25 7
delta_-50 7
delta_55 6
delta_-59 6
delta_43 5
delta_-63 4
delta_-54 2
delta_60 2

depth_1_delta_1 36376
depth_1_delta_-16 3382
depth_1_delta_-1 1711
depth_1_delta_-13 1445
depth_1_delta_-2 998
depth_1_delta_-26 959
depth_1_delta_-8 932
depth_1_delta_8 892
depth_1_delta_-40 880
depth_1_delta_18 876
depth_1_delta_-23 864
depth_1_delta_7 795
depth_1_delta_5 730
depth_1_delta_16 728
depth_1_delta_-7 712
depth_1_delta_-18 709
depth_1_delta_37 677
depth_1_delta_21 632
depth_1_delta_26 627
depth_1_delta_-10 624
depth_1_delta_10 619
depth_1_delta_13 574
depth_1_delta_-3 564
depth_1_delta_34 542
depth_1_delta_11 491
depth_1_delta_36 472
depth_1_delta_-5 464
depth_1_delta_3 460
depth_1_delta_-47 443
depth_1_delta_9 390
depth_1_delta_-42 381
depth_1_delta_28 375
depth_1_delta_-31 365
depth_1_delta_-21 343
depth_1_delta_20 293
depth_1_delta_-15 275
depth_1_delta_23 273
depth_1_delta_12 270
depth_1_delta_14 256
depth_1_delta_-46 255
depth_1_delta_39 228
depth_1_delta_-4 205
depth_1_delta_-14 204
depth_1_delta_17 203
depth_1_delta_-37 200
depth_1_delta_31 198
depth_1_delta_-39 197
depth_1_delta_-12 196
depth_1_delta_46 192
depth_1_delta_42 187
depth_1_delta_41 179
depth_1_delta_32 173
depth_1_delta_33 169
depth_1_delta_-9 168
depth_1_delta_29 162
depth_1_delta_-11 161
depth_1_delta_-44 154
depth_1_delta_-29 146
depth_1_delta_52 145
depth_1_delta_-43 140
depth_1_delta_24 129
depth_1_delta_-19 128
depth_1_delta_-52 125
depth_1_delta_-17 122
depth_1_delta_-28 102
depth_1_delta_4 100
depth_1_delta_51 96
depth_1_delta_2 94
depth_1_delta_-55 93
depth_1_delta_-41 93
depth_1_delta_49 93
depth_1_delta_56 91
depth_1_delta_53 86
depth_1_delta_15 82
depth_1_delta_6 81
depth_1_delta_50 75
depth_1_delta_22 75
depth_1_delta_19 70
depth_1_delta_35 69
depth_1_delta_47 66
depth_1_delta_-34 65
depth_1_delta_-45 63
depth_1_delta_-60 63
depth_1_delta_54 58
depth_1_delta_25 56
depth_1_delta_-27 53
depth_1_delta_-30 50
depth_1_delta_-24 45
depth_1_delta_-32 44
depth_1_delta_30 43
depth_1_delta_40 41
depth_1_delta_-22 40
depth_1_delta_38 34
depth_1_delta_44 31
depth_1_delta_-35 28
depth_1_delta_-49 24
depth_1_delta_-36 23
depth_1_delta_-6 23
depth_1_delta_-38 19
depth_1_delta_45 17
depth_1_delta_-33 17
depth_1_delta_61 16
depth_1_delta_59 14
depth_1_delta_27 13
depth_1_delta_-48 12
depth_1_delta_-57 9
depth_1_delta_-25 7
depth_1_delta_-50 7
depth_1_delta_55 6
depth_1_delta_-59 6
depth_1_delta_43 5
depth_1_delta_-63 4
depth_1_delta_-54 2
depth_1_delta_60 2
depth_2_delta_1 30
depth_2_delta_-1 7
depth_2_delta_-10 6

Channel_0_RQ_row_buffer_hit 22366
Channel_0_RQ_row_buffer_miss 26708342
Channel_0_WQ_row_buffer_hit 6097
Channel_0_WQ_row_buffer_miss 27546
Channel_0_WQ_full 0
Channel_0_dbus_congested 14924578

avg_congested_cycle 47

DRAM_bw_pochs 31765446
DRAM_bw_level_0 10726372
DRAM_bw_level_1 0
DRAM_bw_level_2 0
DRAM_bw_level_3 21039074
