*************************************************
   ChampSim Multicore Out-of-Order Simulator
   Last compiled: Dec 11 2024 17:59:53
*************************************************
parsing config file: /home/functionmain/桌面/Pythia/config/spp_dev2.ini

trace_0 /home/functionmain/桌面/Pythia/traces/429.mcf-184B.champsimtrace.xz
adding L2C_PREFETCHER: SPP_dev2
Initialize SIGNATURE TABLE
ST_SET: 1
ST_WAY: 256
ST_TAG_BIT: 16
ST_TAG_MASK: ffff

Initialize PATTERN TABLE
PT_SET: 512
PT_WAY: 4
SIG_DELTA_BIT: 7
C_SIG_BIT: 4
C_DELTA_BIT: 4

Initialize PREFETCH FILTER
FILTER_SET: 1024
fill_threshold: 90
pf_threshold: 40

Initialize SHIP state
warmup_instructions 100000000
simulation_instructions 500000000
champsim_seed 223
measure_ipc 0
measure_ipc_epoch 1000
measure_dram_bw 1
measure_dram_bw_epoch 256
measure_cache_acc 1
measure_cache_acc_epoch 1024
l1d_perfect 0
l2c_perfect 0
llc_perfect 0
l1d_semi_perfect 0
l2c_semi_perfect 0
llc_semi_perfect 0
semi_perfect_cache_page_buffer_size 64

num_cpus 1
cpu_freq 4000
dram_io_freq 2400
page_size 4096
block_size 64
max_read_per_cycle 8
max_fill_per_cycle 1
dram_channels 1
log2_dram_channels 0
dram_ranks 1
dram_banks 8
dram_rows 65536
dram_columns 128
dram_row_size 8
dram_size 4096
dram_pages 1048576

fetch_width 6
decode_width 6
exec_width 4
lq_width 2
sq_width 2
retire_width 4
scheduler_size 128
branch_mispredict_penalty 20
rob_size 256
lq_size 72
sq_size 56
num_instr_destinations_sparc 4
num_instr_destinations 2
num_instr_sources 4

itlb_set 16
itlb_way 8
itlb_rq_size 16
itlb_wq_size 16
itlb_pq_size 0
itlb_mshr_size 8
itlb_latency 1

dtlb_set 16
dtlb_way 4
dtlb_rq_size 16
dtlb_wq_size 16
dtlb_pq_size 0
dtlb_mshr_size 8
dtlb_latency 1

stlb_set 128
stlb_way 12
stlb_rq_size 32
stlb_wq_size 32
stlb_pq_size 0
stlb_mshr_size 16
stlb_latency 8

l1i_size 32
l1i_set 64
l1i_way 8
l1i_rq_size 64
l1i_wq_size 64
l1i_pq_size 8
l1i_mshr_size 8
l1i_latency 1

l1d_size 32
l1d_set 64
l1d_way 8
l1d_rq_size 64
l1d_wq_size 64
l1d_pq_size 8
l1d_mshr_size 16
l1d_latency 4

l2c_size 256
l2c_set 512
l2c_way 8
l2c_rq_size 32
l2c_wq_size 32
l2c_pq_size 32
l2c_mshr_size 32
l2c_latency 10

llc_size 2048
llc_set 2048
llc_way 16
llc_rq_size 32
llc_wq_size 32
llc_pq_size 32
llc_mshr_size 64
llc_latency 20

dram_channel_width 8
dram_wq_size 64
dram_rq_size 64
tRP 15
tRCD 15
tCAS 12.5
dram_dbus_turn_around_time 30
dram_write_high_wm 56
dram_write_low_wm 48
min_dram_writes_per_switch 16
dram_mtps 2400
dram_dbus_return_time 13


Heartbeat CPU  0 instructions:    1000000 cycles:    1115274 heartbeat IPC: 0.89664 cumulative IPC: 0.89664 (Simulation time: 0 hr 0 min 1 sec) 
Heartbeat CPU  0 instructions:    2000002 cycles:    2221377 heartbeat IPC: 0.90408 cumulative IPC: 0.90034 (Simulation time: 0 hr 0 min 3 sec) 
Heartbeat CPU  0 instructions:    3000000 cycles:    3292973 heartbeat IPC: 0.93319 cumulative IPC: 0.91103 (Simulation time: 0 hr 0 min 4 sec) 
Heartbeat CPU  0 instructions:    4000000 cycles:    4310182 heartbeat IPC: 0.98308 cumulative IPC: 0.92804 (Simulation time: 0 hr 0 min 5 sec) 
Heartbeat CPU  0 instructions:    5000003 cycles:    5272300 heartbeat IPC: 1.03938 cumulative IPC: 0.94835 (Simulation time: 0 hr 0 min 7 sec) 
Heartbeat CPU  0 instructions:    6000003 cycles:    6439321 heartbeat IPC: 0.85688 cumulative IPC: 0.93178 (Simulation time: 0 hr 0 min 8 sec) 
Heartbeat CPU  0 instructions:    7000001 cycles:    7594570 heartbeat IPC: 0.86561 cumulative IPC: 0.92171 (Simulation time: 0 hr 0 min 10 sec) 
Heartbeat CPU  0 instructions:    8000000 cycles:    8727274 heartbeat IPC: 0.88284 cumulative IPC: 0.91667 (Simulation time: 0 hr 0 min 11 sec) 
Heartbeat CPU  0 instructions:    9000001 cycles:    9873470 heartbeat IPC: 0.87245 cumulative IPC: 0.91153 (Simulation time: 0 hr 0 min 12 sec) 
Heartbeat CPU  0 instructions:   10000001 cycles:   10986186 heartbeat IPC: 0.89870 cumulative IPC: 0.91023 (Simulation time: 0 hr 0 min 14 sec) 
Heartbeat CPU  0 instructions:   11000000 cycles:   12100460 heartbeat IPC: 0.89744 cumulative IPC: 0.90906 (Simulation time: 0 hr 0 min 15 sec) 
Heartbeat CPU  0 instructions:   12000000 cycles:   13253461 heartbeat IPC: 0.86730 cumulative IPC: 0.90542 (Simulation time: 0 hr 0 min 16 sec) 
Heartbeat CPU  0 instructions:   13000000 cycles:   14398774 heartbeat IPC: 0.87312 cumulative IPC: 0.90285 (Simulation time: 0 hr 0 min 18 sec) 
Heartbeat CPU  0 instructions:   14000001 cycles:   15573521 heartbeat IPC: 0.85125 cumulative IPC: 0.89896 (Simulation time: 0 hr 0 min 19 sec) 
Heartbeat CPU  0 instructions:   15000003 cycles:   16750267 heartbeat IPC: 0.84980 cumulative IPC: 0.89551 (Simulation time: 0 hr 0 min 20 sec) 
Heartbeat CPU  0 instructions:   16000000 cycles:   17922670 heartbeat IPC: 0.85295 cumulative IPC: 0.89272 (Simulation time: 0 hr 0 min 22 sec) 
Heartbeat CPU  0 instructions:   17000000 cycles:   19107349 heartbeat IPC: 0.84411 cumulative IPC: 0.88971 (Simulation time: 0 hr 0 min 23 sec) 
Heartbeat CPU  0 instructions:   18000000 cycles:   20312709 heartbeat IPC: 0.82963 cumulative IPC: 0.88614 (Simulation time: 0 hr 0 min 24 sec) 
Heartbeat CPU  0 instructions:   19000000 cycles:   21262293 heartbeat IPC: 1.05309 cumulative IPC: 0.89360 (Simulation time: 0 hr 0 min 26 sec) 
Heartbeat CPU  0 instructions:   20000000 cycles:   22381905 heartbeat IPC: 0.89317 cumulative IPC: 0.89358 (Simulation time: 0 hr 0 min 27 sec) 
Heartbeat CPU  0 instructions:   21000000 cycles:   23585120 heartbeat IPC: 0.83111 cumulative IPC: 0.89039 (Simulation time: 0 hr 0 min 28 sec) 
Heartbeat CPU  0 instructions:   22000001 cycles:   24715941 heartbeat IPC: 0.88431 cumulative IPC: 0.89011 (Simulation time: 0 hr 0 min 30 sec) 
Heartbeat CPU  0 instructions:   23000001 cycles:   25867140 heartbeat IPC: 0.86866 cumulative IPC: 0.88916 (Simulation time: 0 hr 0 min 31 sec) 
Heartbeat CPU  0 instructions:   24000000 cycles:   27036091 heartbeat IPC: 0.85547 cumulative IPC: 0.88770 (Simulation time: 0 hr 0 min 32 sec) 
Heartbeat CPU  0 instructions:   25000002 cycles:   28203434 heartbeat IPC: 0.85665 cumulative IPC: 0.88642 (Simulation time: 0 hr 0 min 34 sec) 
Heartbeat CPU  0 instructions:   26000000 cycles:   29332604 heartbeat IPC: 0.88560 cumulative IPC: 0.88639 (Simulation time: 0 hr 0 min 35 sec) 
Heartbeat CPU  0 instructions:   27000000 cycles:   30526488 heartbeat IPC: 0.83760 cumulative IPC: 0.88448 (Simulation time: 0 hr 0 min 36 sec) 
Heartbeat CPU  0 instructions:   28000000 cycles:   31713229 heartbeat IPC: 0.84264 cumulative IPC: 0.88291 (Simulation time: 0 hr 0 min 38 sec) 
Heartbeat CPU  0 instructions:   29000000 cycles:   32866986 heartbeat IPC: 0.86673 cumulative IPC: 0.88234 (Simulation time: 0 hr 0 min 39 sec) 
Heartbeat CPU  0 instructions:   30000000 cycles:   34046743 heartbeat IPC: 0.84763 cumulative IPC: 0.88114 (Simulation time: 0 hr 0 min 40 sec) 
Heartbeat CPU  0 instructions:   31000002 cycles:   35189331 heartbeat IPC: 0.87521 cumulative IPC: 0.88095 (Simulation time: 0 hr 0 min 42 sec) 
Heartbeat CPU  0 instructions:   32000000 cycles:   36329039 heartbeat IPC: 0.87742 cumulative IPC: 0.88084 (Simulation time: 0 hr 0 min 43 sec) 
Heartbeat CPU  0 instructions:   33000000 cycles:   37486620 heartbeat IPC: 0.86387 cumulative IPC: 0.88031 (Simulation time: 0 hr 0 min 44 sec) 
Heartbeat CPU  0 instructions:   34000002 cycles:   38442685 heartbeat IPC: 1.04596 cumulative IPC: 0.88443 (Simulation time: 0 hr 0 min 46 sec) 
Heartbeat CPU  0 instructions:   35000003 cycles:   39511310 heartbeat IPC: 0.93578 cumulative IPC: 0.88582 (Simulation time: 0 hr 0 min 47 sec) 
Heartbeat CPU  0 instructions:   36000000 cycles:   40679146 heartbeat IPC: 0.85628 cumulative IPC: 0.88497 (Simulation time: 0 hr 0 min 49 sec) 
Heartbeat CPU  0 instructions:   37000002 cycles:   41873846 heartbeat IPC: 0.83703 cumulative IPC: 0.88361 (Simulation time: 0 hr 0 min 50 sec) 
Heartbeat CPU  0 instructions:   38000003 cycles:   43033270 heartbeat IPC: 0.86250 cumulative IPC: 0.88304 (Simulation time: 0 hr 0 min 51 sec) 
Heartbeat CPU  0 instructions:   39000001 cycles:   44153012 heartbeat IPC: 0.89306 cumulative IPC: 0.88329 (Simulation time: 0 hr 0 min 53 sec) 
Heartbeat CPU  0 instructions:   40000000 cycles:   45263445 heartbeat IPC: 0.90055 cumulative IPC: 0.88372 (Simulation time: 0 hr 0 min 54 sec) 
Heartbeat CPU  0 instructions:   41000000 cycles:   46418260 heartbeat IPC: 0.86594 cumulative IPC: 0.88327 (Simulation time: 0 hr 0 min 55 sec) 
Heartbeat CPU  0 instructions:   42000000 cycles:   47582315 heartbeat IPC: 0.85907 cumulative IPC: 0.88268 (Simulation time: 0 hr 0 min 57 sec) 
Heartbeat CPU  0 instructions:   43000000 cycles:   48718036 heartbeat IPC: 0.88050 cumulative IPC: 0.88263 (Simulation time: 0 hr 0 min 58 sec) 
Heartbeat CPU  0 instructions:   44000000 cycles:   49849357 heartbeat IPC: 0.88392 cumulative IPC: 0.88266 (Simulation time: 0 hr 0 min 59 sec) 
Heartbeat CPU  0 instructions:   45000003 cycles:   50989622 heartbeat IPC: 0.87699 cumulative IPC: 0.88253 (Simulation time: 0 hr 1 min 1 sec) 
Heartbeat CPU  0 instructions:   46000003 cycles:   52083584 heartbeat IPC: 0.91411 cumulative IPC: 0.88320 (Simulation time: 0 hr 1 min 2 sec) 
Heartbeat CPU  0 instructions:   47000000 cycles:   53145886 heartbeat IPC: 0.94135 cumulative IPC: 0.88436 (Simulation time: 0 hr 1 min 3 sec) 
Heartbeat CPU  0 instructions:   48000000 cycles:   54031988 heartbeat IPC: 1.12854 cumulative IPC: 0.88836 (Simulation time: 0 hr 1 min 5 sec) 
Heartbeat CPU  0 instructions:   49000002 cycles:   55184402 heartbeat IPC: 0.86775 cumulative IPC: 0.88793 (Simulation time: 0 hr 1 min 6 sec) 
Heartbeat CPU  0 instructions:   50000003 cycles:   56343423 heartbeat IPC: 0.86280 cumulative IPC: 0.88742 (Simulation time: 0 hr 1 min 8 sec) 
Heartbeat CPU  0 instructions:   51000001 cycles:   57481510 heartbeat IPC: 0.87867 cumulative IPC: 0.88724 (Simulation time: 0 hr 1 min 9 sec) 
Heartbeat CPU  0 instructions:   52000000 cycles:   58620935 heartbeat IPC: 0.87763 cumulative IPC: 0.88706 (Simulation time: 0 hr 1 min 10 sec) 
Heartbeat CPU  0 instructions:   53000001 cycles:   59788408 heartbeat IPC: 0.85655 cumulative IPC: 0.88646 (Simulation time: 0 hr 1 min 12 sec) 
Heartbeat CPU  0 instructions:   54000001 cycles:   60949839 heartbeat IPC: 0.86101 cumulative IPC: 0.88597 (Simulation time: 0 hr 1 min 13 sec) 
Heartbeat CPU  0 instructions:   55000002 cycles:   62098860 heartbeat IPC: 0.87031 cumulative IPC: 0.88568 (Simulation time: 0 hr 1 min 14 sec) 
Heartbeat CPU  0 instructions:   56000000 cycles:   63191772 heartbeat IPC: 0.91498 cumulative IPC: 0.88619 (Simulation time: 0 hr 1 min 16 sec) 
Heartbeat CPU  0 instructions:   57000002 cycles:   64323367 heartbeat IPC: 0.88371 cumulative IPC: 0.88615 (Simulation time: 0 hr 1 min 17 sec) 
Heartbeat CPU  0 instructions:   58000002 cycles:   65451959 heartbeat IPC: 0.88606 cumulative IPC: 0.88615 (Simulation time: 0 hr 1 min 18 sec) 
Heartbeat CPU  0 instructions:   59000001 cycles:   66572013 heartbeat IPC: 0.89281 cumulative IPC: 0.88626 (Simulation time: 0 hr 1 min 20 sec) 
Heartbeat CPU  0 instructions:   60000000 cycles:   67711100 heartbeat IPC: 0.87790 cumulative IPC: 0.88612 (Simulation time: 0 hr 1 min 21 sec) 
Heartbeat CPU  0 instructions:   61000002 cycles:   68740698 heartbeat IPC: 0.97125 cumulative IPC: 0.88739 (Simulation time: 0 hr 1 min 22 sec) 
Heartbeat CPU  0 instructions:   62000000 cycles:   69684614 heartbeat IPC: 1.05941 cumulative IPC: 0.88972 (Simulation time: 0 hr 1 min 24 sec) 
Heartbeat CPU  0 instructions:   63000001 cycles:   70817520 heartbeat IPC: 0.88269 cumulative IPC: 0.88961 (Simulation time: 0 hr 1 min 25 sec) 
Heartbeat CPU  0 instructions:   64000000 cycles:   71918377 heartbeat IPC: 0.90838 cumulative IPC: 0.88990 (Simulation time: 0 hr 1 min 26 sec) 
Heartbeat CPU  0 instructions:   65000002 cycles:   73012841 heartbeat IPC: 0.91369 cumulative IPC: 0.89025 (Simulation time: 0 hr 1 min 28 sec) 
Heartbeat CPU  0 instructions:   66000000 cycles:   74128901 heartbeat IPC: 0.89601 cumulative IPC: 0.89034 (Simulation time: 0 hr 1 min 29 sec) 
Heartbeat CPU  0 instructions:   67000002 cycles:   75194596 heartbeat IPC: 0.93836 cumulative IPC: 0.89102 (Simulation time: 0 hr 1 min 30 sec) 
Heartbeat CPU  0 instructions:   68000000 cycles:   76305943 heartbeat IPC: 0.89981 cumulative IPC: 0.89115 (Simulation time: 0 hr 1 min 32 sec) 
Heartbeat CPU  0 instructions:   69000002 cycles:   77267561 heartbeat IPC: 1.03992 cumulative IPC: 0.89300 (Simulation time: 0 hr 1 min 33 sec) 
Heartbeat CPU  0 instructions:   70000001 cycles:   78303197 heartbeat IPC: 0.96559 cumulative IPC: 0.89396 (Simulation time: 0 hr 1 min 35 sec) 
Heartbeat CPU  0 instructions:   71000002 cycles:   79421304 heartbeat IPC: 0.89437 cumulative IPC: 0.89397 (Simulation time: 0 hr 1 min 36 sec) 
Heartbeat CPU  0 instructions:   72000000 cycles:   80510749 heartbeat IPC: 0.91790 cumulative IPC: 0.89429 (Simulation time: 0 hr 1 min 37 sec) 
Heartbeat CPU  0 instructions:   73000001 cycles:   81679561 heartbeat IPC: 0.85557 cumulative IPC: 0.89374 (Simulation time: 0 hr 1 min 39 sec) 
Heartbeat CPU  0 instructions:   74000000 cycles:   82799514 heartbeat IPC: 0.89289 cumulative IPC: 0.89373 (Simulation time: 0 hr 1 min 40 sec) 
Heartbeat CPU  0 instructions:   75000000 cycles:   83933728 heartbeat IPC: 0.88167 cumulative IPC: 0.89356 (Simulation time: 0 hr 1 min 41 sec) 
Heartbeat CPU  0 instructions:   76000000 cycles:   85081879 heartbeat IPC: 0.87097 cumulative IPC: 0.89326 (Simulation time: 0 hr 1 min 43 sec) 
Heartbeat CPU  0 instructions:   77000000 cycles:   86209203 heartbeat IPC: 0.88706 cumulative IPC: 0.89318 (Simulation time: 0 hr 1 min 44 sec) 
Heartbeat CPU  0 instructions:   78000002 cycles:   87290402 heartbeat IPC: 0.92490 cumulative IPC: 0.89357 (Simulation time: 0 hr 1 min 45 sec) 
Heartbeat CPU  0 instructions:   79000002 cycles:   88216260 heartbeat IPC: 1.08008 cumulative IPC: 0.89553 (Simulation time: 0 hr 1 min 47 sec) 
Heartbeat CPU  0 instructions:   80000000 cycles:   89315298 heartbeat IPC: 0.90988 cumulative IPC: 0.89570 (Simulation time: 0 hr 1 min 48 sec) 
Heartbeat CPU  0 instructions:   81000003 cycles:   90353595 heartbeat IPC: 0.96312 cumulative IPC: 0.89648 (Simulation time: 0 hr 1 min 50 sec) 
Heartbeat CPU  0 instructions:   82000003 cycles:   91356917 heartbeat IPC: 0.99669 cumulative IPC: 0.89758 (Simulation time: 0 hr 1 min 51 sec) 
Heartbeat CPU  0 instructions:   83000003 cycles:   92348255 heartbeat IPC: 1.00874 cumulative IPC: 0.89877 (Simulation time: 0 hr 1 min 52 sec) 
Heartbeat CPU  0 instructions:   84000000 cycles:   93240305 heartbeat IPC: 1.12101 cumulative IPC: 0.90090 (Simulation time: 0 hr 1 min 54 sec) 
Heartbeat CPU  0 instructions:   85000000 cycles:   94222393 heartbeat IPC: 1.01824 cumulative IPC: 0.90212 (Simulation time: 0 hr 1 min 55 sec) 
Heartbeat CPU  0 instructions:   86000000 cycles:   95157141 heartbeat IPC: 1.06981 cumulative IPC: 0.90377 (Simulation time: 0 hr 1 min 57 sec) 
Heartbeat CPU  0 instructions:   87000002 cycles:   96078173 heartbeat IPC: 1.08574 cumulative IPC: 0.90551 (Simulation time: 0 hr 1 min 58 sec) 
Heartbeat CPU  0 instructions:   88000000 cycles:   96965283 heartbeat IPC: 1.12725 cumulative IPC: 0.90754 (Simulation time: 0 hr 2 min 0 sec) 
Heartbeat CPU  0 instructions:   89000001 cycles:   97878889 heartbeat IPC: 1.09456 cumulative IPC: 0.90929 (Simulation time: 0 hr 2 min 1 sec) 
Heartbeat CPU  0 instructions:   90000000 cycles:   98848108 heartbeat IPC: 1.03176 cumulative IPC: 0.91049 (Simulation time: 0 hr 2 min 2 sec) 
Heartbeat CPU  0 instructions:   91000002 cycles:   99867493 heartbeat IPC: 0.98099 cumulative IPC: 0.91121 (Simulation time: 0 hr 2 min 4 sec) 
Heartbeat CPU  0 instructions:   92000000 cycles:  100847314 heartbeat IPC: 1.02059 cumulative IPC: 0.91227 (Simulation time: 0 hr 2 min 5 sec) 
Heartbeat CPU  0 instructions:   93000001 cycles:  101746220 heartbeat IPC: 1.11246 cumulative IPC: 0.91404 (Simulation time: 0 hr 2 min 7 sec) 
Heartbeat CPU  0 instructions:   94000003 cycles:  102777130 heartbeat IPC: 0.97002 cumulative IPC: 0.91460 (Simulation time: 0 hr 2 min 8 sec) 
Heartbeat CPU  0 instructions:   95000002 cycles:  103811099 heartbeat IPC: 0.96715 cumulative IPC: 0.91512 (Simulation time: 0 hr 2 min 9 sec) 
Heartbeat CPU  0 instructions:   96000000 cycles:  104782425 heartbeat IPC: 1.02952 cumulative IPC: 0.91618 (Simulation time: 0 hr 2 min 11 sec) 
Heartbeat CPU  0 instructions:   97000001 cycles:  105720935 heartbeat IPC: 1.06552 cumulative IPC: 0.91751 (Simulation time: 0 hr 2 min 12 sec) 
Heartbeat CPU  0 instructions:   98000001 cycles:  106598946 heartbeat IPC: 1.13894 cumulative IPC: 0.91933 (Simulation time: 0 hr 2 min 14 sec) 
Heartbeat CPU  0 instructions:   99000001 cycles:  107519548 heartbeat IPC: 1.08625 cumulative IPC: 0.92076 (Simulation time: 0 hr 2 min 15 sec) 
Heartbeat CPU  0 instructions:  100000000 cycles:  108438416 heartbeat IPC: 1.08829 cumulative IPC: 0.92218 (Simulation time: 0 hr 2 min 16 sec) 

Warmup complete CPU  0 instructions:  100000002 cycles:  108438417 (Simulation time: 0 hr 2 min 16 sec) 

Heartbeat CPU  0 instructions:  101000000 cycles:  120814469 heartbeat IPC: 0.08080 cumulative IPC: 0.08080 (Simulation time: 0 hr 2 min 21 sec) 
Heartbeat CPU  0 instructions:  102000000 cycles:  135053678 heartbeat IPC: 0.07023 cumulative IPC: 0.07514 (Simulation time: 0 hr 2 min 26 sec) 
Heartbeat CPU  0 instructions:  103000001 cycles:  143990233 heartbeat IPC: 0.11190 cumulative IPC: 0.08438 (Simulation time: 0 hr 2 min 30 sec) 
Heartbeat CPU  0 instructions:  104000000 cycles:  152721852 heartbeat IPC: 0.11453 cumulative IPC: 0.09033 (Simulation time: 0 hr 2 min 33 sec) 
Heartbeat CPU  0 instructions:  105000003 cycles:  170099091 heartbeat IPC: 0.05755 cumulative IPC: 0.08109 (Simulation time: 0 hr 2 min 39 sec) 
Heartbeat CPU  0 instructions:  106000000 cycles:  179349672 heartbeat IPC: 0.10810 cumulative IPC: 0.08461 (Simulation time: 0 hr 2 min 43 sec) 
Heartbeat CPU  0 instructions:  107000000 cycles:  188372968 heartbeat IPC: 0.11082 cumulative IPC: 0.08757 (Simulation time: 0 hr 2 min 46 sec) 
Heartbeat CPU  0 instructions:  108000000 cycles:  202561919 heartbeat IPC: 0.07048 cumulative IPC: 0.08499 (Simulation time: 0 hr 2 min 51 sec) 
Heartbeat CPU  0 instructions:  109000002 cycles:  214955316 heartbeat IPC: 0.08069 cumulative IPC: 0.08449 (Simulation time: 0 hr 2 min 56 sec) 
Heartbeat CPU  0 instructions:  110000001 cycles:  223698505 heartbeat IPC: 0.11437 cumulative IPC: 0.08676 (Simulation time: 0 hr 2 min 59 sec) 
Heartbeat CPU  0 instructions:  111000000 cycles:  234077061 heartbeat IPC: 0.09635 cumulative IPC: 0.08755 (Simulation time: 0 hr 3 min 3 sec) 
Heartbeat CPU  0 instructions:  112000000 cycles:  250405996 heartbeat IPC: 0.06124 cumulative IPC: 0.08453 (Simulation time: 0 hr 3 min 9 sec) 
Heartbeat CPU  0 instructions:  113000001 cycles:  259912824 heartbeat IPC: 0.10519 cumulative IPC: 0.08582 (Simulation time: 0 hr 3 min 13 sec) 
Heartbeat CPU  0 instructions:  114000002 cycles:  268860760 heartbeat IPC: 0.11176 cumulative IPC: 0.08727 (Simulation time: 0 hr 3 min 16 sec) 
Heartbeat CPU  0 instructions:  115000000 cycles:  283715099 heartbeat IPC: 0.06732 cumulative IPC: 0.08558 (Simulation time: 0 hr 3 min 22 sec) 
Heartbeat CPU  0 instructions:  116000000 cycles:  295891130 heartbeat IPC: 0.08213 cumulative IPC: 0.08535 (Simulation time: 0 hr 3 min 26 sec) 
Heartbeat CPU  0 instructions:  117000000 cycles:  304956013 heartbeat IPC: 0.11032 cumulative IPC: 0.08651 (Simulation time: 0 hr 3 min 30 sec) 
Heartbeat CPU  0 instructions:  118000001 cycles:  314950207 heartbeat IPC: 0.10006 cumulative IPC: 0.08716 (Simulation time: 0 hr 3 min 34 sec) 
Heartbeat CPU  0 instructions:  119000000 cycles:  332252923 heartbeat IPC: 0.05779 cumulative IPC: 0.08489 (Simulation time: 0 hr 3 min 40 sec) 
Heartbeat CPU  0 instructions:  120000000 cycles:  341539132 heartbeat IPC: 0.10769 cumulative IPC: 0.08580 (Simulation time: 0 hr 3 min 44 sec) 
Heartbeat CPU  0 instructions:  121000000 cycles:  351266287 heartbeat IPC: 0.10280 cumulative IPC: 0.08648 (Simulation time: 0 hr 3 min 48 sec) 
Heartbeat CPU  0 instructions:  122000001 cycles:  363435531 heartbeat IPC: 0.08217 cumulative IPC: 0.08628 (Simulation time: 0 hr 3 min 52 sec) 
Heartbeat CPU  0 instructions:  123000000 cycles:  378275398 heartbeat IPC: 0.06739 cumulative IPC: 0.08524 (Simulation time: 0 hr 3 min 58 sec) 
Heartbeat CPU  0 instructions:  124000000 cycles:  386947471 heartbeat IPC: 0.11531 cumulative IPC: 0.08617 (Simulation time: 0 hr 4 min 1 sec) 
Heartbeat CPU  0 instructions:  125000000 cycles:  395656173 heartbeat IPC: 0.11483 cumulative IPC: 0.08704 (Simulation time: 0 hr 4 min 5 sec) 
Heartbeat CPU  0 instructions:  126000003 cycles:  408349811 heartbeat IPC: 0.07878 cumulative IPC: 0.08669 (Simulation time: 0 hr 4 min 9 sec) 
Heartbeat CPU  0 instructions:  127000000 cycles:  422776418 heartbeat IPC: 0.06932 cumulative IPC: 0.08589 (Simulation time: 0 hr 4 min 15 sec) 
Heartbeat CPU  0 instructions:  128000000 cycles:  431418497 heartbeat IPC: 0.11571 cumulative IPC: 0.08669 (Simulation time: 0 hr 4 min 18 sec) 
Heartbeat CPU  0 instructions:  129000002 cycles:  440218883 heartbeat IPC: 0.11363 cumulative IPC: 0.08741 (Simulation time: 0 hr 4 min 22 sec) 
Heartbeat CPU  0 instructions:  130000003 cycles:  454149315 heartbeat IPC: 0.07179 cumulative IPC: 0.08678 (Simulation time: 0 hr 4 min 27 sec) 
Heartbeat CPU  0 instructions:  131000001 cycles:  467223517 heartbeat IPC: 0.07649 cumulative IPC: 0.08640 (Simulation time: 0 hr 4 min 32 sec) 
Heartbeat CPU  0 instructions:  132000000 cycles:  475888303 heartbeat IPC: 0.11541 cumulative IPC: 0.08709 (Simulation time: 0 hr 4 min 36 sec) 
Heartbeat CPU  0 instructions:  133000000 cycles:  484741919 heartbeat IPC: 0.11295 cumulative IPC: 0.08770 (Simulation time: 0 hr 4 min 40 sec) 
Heartbeat CPU  0 instructions:  134000002 cycles:  498972443 heartbeat IPC: 0.07027 cumulative IPC: 0.08706 (Simulation time: 0 hr 4 min 45 sec) 
Heartbeat CPU  0 instructions:  135000000 cycles:  511707509 heartbeat IPC: 0.07852 cumulative IPC: 0.08679 (Simulation time: 0 hr 4 min 50 sec) 
Heartbeat CPU  0 instructions:  136000000 cycles:  520806228 heartbeat IPC: 0.10991 cumulative IPC: 0.08730 (Simulation time: 0 hr 4 min 53 sec) 
Heartbeat CPU  0 instructions:  137000002 cycles:  530036029 heartbeat IPC: 0.10834 cumulative IPC: 0.08776 (Simulation time: 0 hr 4 min 57 sec) 
Heartbeat CPU  0 instructions:  138000002 cycles:  544056052 heartbeat IPC: 0.07133 cumulative IPC: 0.08723 (Simulation time: 0 hr 5 min 2 sec) 
Heartbeat CPU  0 instructions:  139000001 cycles:  557664505 heartbeat IPC: 0.07348 cumulative IPC: 0.08682 (Simulation time: 0 hr 5 min 7 sec) 
Heartbeat CPU  0 instructions:  140000000 cycles:  567850831 heartbeat IPC: 0.09817 cumulative IPC: 0.08707 (Simulation time: 0 hr 5 min 11 sec) 
Heartbeat CPU  0 instructions:  141000000 cycles:  577266718 heartbeat IPC: 0.10620 cumulative IPC: 0.08745 (Simulation time: 0 hr 5 min 15 sec) 
Heartbeat CPU  0 instructions:  142000000 cycles:  591148521 heartbeat IPC: 0.07204 cumulative IPC: 0.08701 (Simulation time: 0 hr 5 min 20 sec) 
Heartbeat CPU  0 instructions:  143000000 cycles:  605074786 heartbeat IPC: 0.07181 cumulative IPC: 0.08658 (Simulation time: 0 hr 5 min 25 sec) 
Heartbeat CPU  0 instructions:  144000000 cycles:  615142408 heartbeat IPC: 0.09933 cumulative IPC: 0.08684 (Simulation time: 0 hr 5 min 29 sec) 
Heartbeat CPU  0 instructions:  145000000 cycles:  625382824 heartbeat IPC: 0.09765 cumulative IPC: 0.08705 (Simulation time: 0 hr 5 min 32 sec) 
Heartbeat CPU  0 instructions:  146000001 cycles:  639774095 heartbeat IPC: 0.06949 cumulative IPC: 0.08657 (Simulation time: 0 hr 5 min 37 sec) 
Heartbeat CPU  0 instructions:  147000001 cycles:  653921979 heartbeat IPC: 0.07068 cumulative IPC: 0.08616 (Simulation time: 0 hr 5 min 43 sec) 
Heartbeat CPU  0 instructions:  148000000 cycles:  663325067 heartbeat IPC: 0.10635 cumulative IPC: 0.08650 (Simulation time: 0 hr 5 min 46 sec) 
Heartbeat CPU  0 instructions:  149000000 cycles:  672192296 heartbeat IPC: 0.11277 cumulative IPC: 0.08692 (Simulation time: 0 hr 5 min 50 sec) 
Heartbeat CPU  0 instructions:  150000001 cycles:  686676304 heartbeat IPC: 0.06904 cumulative IPC: 0.08647 (Simulation time: 0 hr 5 min 55 sec) 
Heartbeat CPU  0 instructions:  151000000 cycles:  699547883 heartbeat IPC: 0.07769 cumulative IPC: 0.08628 (Simulation time: 0 hr 6 min 0 sec) 
Heartbeat CPU  0 instructions:  152000000 cycles:  708968038 heartbeat IPC: 0.10616 cumulative IPC: 0.08659 (Simulation time: 0 hr 6 min 4 sec) 
Heartbeat CPU  0 instructions:  153000000 cycles:  719151118 heartbeat IPC: 0.09820 cumulative IPC: 0.08678 (Simulation time: 0 hr 6 min 7 sec) 
Heartbeat CPU  0 instructions:  154000000 cycles:  735270735 heartbeat IPC: 0.06204 cumulative IPC: 0.08615 (Simulation time: 0 hr 6 min 13 sec) 
Heartbeat CPU  0 instructions:  155000000 cycles:  746412550 heartbeat IPC: 0.08975 cumulative IPC: 0.08621 (Simulation time: 0 hr 6 min 17 sec) 
Heartbeat CPU  0 instructions:  156000000 cycles:  756013636 heartbeat IPC: 0.10415 cumulative IPC: 0.08648 (Simulation time: 0 hr 6 min 21 sec) 
Heartbeat CPU  0 instructions:  157000002 cycles:  766182955 heartbeat IPC: 0.09834 cumulative IPC: 0.08666 (Simulation time: 0 hr 6 min 25 sec) 
Heartbeat CPU  0 instructions:  158000002 cycles:  783087869 heartbeat IPC: 0.05915 cumulative IPC: 0.08597 (Simulation time: 0 hr 6 min 31 sec) 
Heartbeat CPU  0 instructions:  159000000 cycles:  793152344 heartbeat IPC: 0.09936 cumulative IPC: 0.08617 (Simulation time: 0 hr 6 min 35 sec) 
Heartbeat CPU  0 instructions:  160000000 cycles:  802714398 heartbeat IPC: 0.10458 cumulative IPC: 0.08642 (Simulation time: 0 hr 6 min 39 sec) 
Heartbeat CPU  0 instructions:  161000001 cycles:  814281912 heartbeat IPC: 0.08645 cumulative IPC: 0.08642 (Simulation time: 0 hr 6 min 43 sec) 
Heartbeat CPU  0 instructions:  162000000 cycles:  830161760 heartbeat IPC: 0.06297 cumulative IPC: 0.08591 (Simulation time: 0 hr 6 min 48 sec) 
Heartbeat CPU  0 instructions:  163000000 cycles:  840412230 heartbeat IPC: 0.09756 cumulative IPC: 0.08607 (Simulation time: 0 hr 6 min 52 sec) 
Heartbeat CPU  0 instructions:  164000000 cycles:  850460800 heartbeat IPC: 0.09952 cumulative IPC: 0.08625 (Simulation time: 0 hr 6 min 56 sec) 
Heartbeat CPU  0 instructions:  165000000 cycles:  863509882 heartbeat IPC: 0.07663 cumulative IPC: 0.08608 (Simulation time: 0 hr 7 min 1 sec) 
Heartbeat CPU  0 instructions:  166000000 cycles:  878827563 heartbeat IPC: 0.06528 cumulative IPC: 0.08567 (Simulation time: 0 hr 7 min 6 sec) 
Heartbeat CPU  0 instructions:  167000001 cycles:  889513566 heartbeat IPC: 0.09358 cumulative IPC: 0.08578 (Simulation time: 0 hr 7 min 10 sec) 
Heartbeat CPU  0 instructions:  168000000 cycles:  900073215 heartbeat IPC: 0.09470 cumulative IPC: 0.08590 (Simulation time: 0 hr 7 min 14 sec) 
Heartbeat CPU  0 instructions:  169000000 cycles:  910838699 heartbeat IPC: 0.09289 cumulative IPC: 0.08599 (Simulation time: 0 hr 7 min 18 sec) 
Heartbeat CPU  0 instructions:  170000003 cycles:  927776194 heartbeat IPC: 0.05904 cumulative IPC: 0.08543 (Simulation time: 0 hr 7 min 24 sec) 
Heartbeat CPU  0 instructions:  171000000 cycles:  939076616 heartbeat IPC: 0.08849 cumulative IPC: 0.08548 (Simulation time: 0 hr 7 min 28 sec) 
Heartbeat CPU  0 instructions:  172000000 cycles:  949737408 heartbeat IPC: 0.09380 cumulative IPC: 0.08558 (Simulation time: 0 hr 7 min 32 sec) 
Heartbeat CPU  0 instructions:  173000000 cycles:  960050796 heartbeat IPC: 0.09696 cumulative IPC: 0.08572 (Simulation time: 0 hr 7 min 36 sec) 
Heartbeat CPU  0 instructions:  174000000 cycles:  976925604 heartbeat IPC: 0.05926 cumulative IPC: 0.08521 (Simulation time: 0 hr 7 min 42 sec) 
Heartbeat CPU  0 instructions:  175000003 cycles:  988702210 heartbeat IPC: 0.08491 cumulative IPC: 0.08520 (Simulation time: 0 hr 7 min 46 sec) 
Heartbeat CPU  0 instructions:  176000000 cycles:  999324780 heartbeat IPC: 0.09414 cumulative IPC: 0.08531 (Simulation time: 0 hr 7 min 50 sec) 
Heartbeat CPU  0 instructions:  177000003 cycles: 1010438875 heartbeat IPC: 0.08998 cumulative IPC: 0.08537 (Simulation time: 0 hr 7 min 54 sec) 
Heartbeat CPU  0 instructions:  178000003 cycles: 1025630798 heartbeat IPC: 0.06582 cumulative IPC: 0.08504 (Simulation time: 0 hr 7 min 59 sec) 
Heartbeat CPU  0 instructions:  179000003 cycles: 1039407517 heartbeat IPC: 0.07259 cumulative IPC: 0.08486 (Simulation time: 0 hr 8 min 4 sec) 
Heartbeat CPU  0 instructions:  180000000 cycles: 1049923029 heartbeat IPC: 0.09510 cumulative IPC: 0.08497 (Simulation time: 0 hr 8 min 8 sec) 
Heartbeat CPU  0 instructions:  181000001 cycles: 1061411819 heartbeat IPC: 0.08704 cumulative IPC: 0.08500 (Simulation time: 0 hr 8 min 12 sec) 
Heartbeat CPU  0 instructions:  182000001 cycles: 1073349095 heartbeat IPC: 0.08377 cumulative IPC: 0.08498 (Simulation time: 0 hr 8 min 16 sec) 
Heartbeat CPU  0 instructions:  183000003 cycles: 1090482350 heartbeat IPC: 0.05837 cumulative IPC: 0.08452 (Simulation time: 0 hr 8 min 22 sec) 
Heartbeat CPU  0 instructions:  184000000 cycles: 1102903285 heartbeat IPC: 0.08051 cumulative IPC: 0.08447 (Simulation time: 0 hr 8 min 27 sec) 
Heartbeat CPU  0 instructions:  185000002 cycles: 1114902011 heartbeat IPC: 0.08334 cumulative IPC: 0.08445 (Simulation time: 0 hr 8 min 31 sec) 
Heartbeat CPU  0 instructions:  186000001 cycles: 1126573068 heartbeat IPC: 0.08568 cumulative IPC: 0.08447 (Simulation time: 0 hr 8 min 35 sec) 
Heartbeat CPU  0 instructions:  187000000 cycles: 1137217947 heartbeat IPC: 0.09394 cumulative IPC: 0.08457 (Simulation time: 0 hr 8 min 39 sec) 
Heartbeat CPU  0 instructions:  188000000 cycles: 1153736216 heartbeat IPC: 0.06054 cumulative IPC: 0.08419 (Simulation time: 0 hr 8 min 44 sec) 
Heartbeat CPU  0 instructions:  189000001 cycles: 1166008559 heartbeat IPC: 0.08148 cumulative IPC: 0.08416 (Simulation time: 0 hr 8 min 49 sec) 
Heartbeat CPU  0 instructions:  190000000 cycles: 1177316810 heartbeat IPC: 0.08843 cumulative IPC: 0.08420 (Simulation time: 0 hr 8 min 53 sec) 
Heartbeat CPU  0 instructions:  191000001 cycles: 1189614825 heartbeat IPC: 0.08131 cumulative IPC: 0.08417 (Simulation time: 0 hr 8 min 57 sec) 
Heartbeat CPU  0 instructions:  192000000 cycles: 1200859966 heartbeat IPC: 0.08893 cumulative IPC: 0.08422 (Simulation time: 0 hr 9 min 1 sec) 
Heartbeat CPU  0 instructions:  193000000 cycles: 1218196343 heartbeat IPC: 0.05768 cumulative IPC: 0.08380 (Simulation time: 0 hr 9 min 7 sec) 
Heartbeat CPU  0 instructions:  194000000 cycles: 1231266408 heartbeat IPC: 0.07651 cumulative IPC: 0.08372 (Simulation time: 0 hr 9 min 12 sec) 
Heartbeat CPU  0 instructions:  195000000 cycles: 1243577771 heartbeat IPC: 0.08123 cumulative IPC: 0.08369 (Simulation time: 0 hr 9 min 16 sec) 
Heartbeat CPU  0 instructions:  196000000 cycles: 1255512963 heartbeat IPC: 0.08379 cumulative IPC: 0.08369 (Simulation time: 0 hr 9 min 20 sec) 
Heartbeat CPU  0 instructions:  197000001 cycles: 1266726238 heartbeat IPC: 0.08918 cumulative IPC: 0.08374 (Simulation time: 0 hr 9 min 24 sec) 
Heartbeat CPU  0 instructions:  198000003 cycles: 1281442103 heartbeat IPC: 0.06795 cumulative IPC: 0.08355 (Simulation time: 0 hr 9 min 29 sec) 
Heartbeat CPU  0 instructions:  199000001 cycles: 1297376652 heartbeat IPC: 0.06276 cumulative IPC: 0.08327 (Simulation time: 0 hr 9 min 35 sec) 
Heartbeat CPU  0 instructions:  200000000 cycles: 1308903663 heartbeat IPC: 0.08675 cumulative IPC: 0.08330 (Simulation time: 0 hr 9 min 39 sec) 
Heartbeat CPU  0 instructions:  201000002 cycles: 1319518628 heartbeat IPC: 0.09421 cumulative IPC: 0.08340 (Simulation time: 0 hr 9 min 43 sec) 
Heartbeat CPU  0 instructions:  202000000 cycles: 1329257910 heartbeat IPC: 0.10268 cumulative IPC: 0.08355 (Simulation time: 0 hr 9 min 46 sec) 
Heartbeat CPU  0 instructions:  203000000 cycles: 1346632869 heartbeat IPC: 0.05755 cumulative IPC: 0.08319 (Simulation time: 0 hr 9 min 52 sec) 
Heartbeat CPU  0 instructions:  204000000 cycles: 1357155011 heartbeat IPC: 0.09504 cumulative IPC: 0.08329 (Simulation time: 0 hr 9 min 57 sec) 
Heartbeat CPU  0 instructions:  205000000 cycles: 1366725164 heartbeat IPC: 0.10449 cumulative IPC: 0.08345 (Simulation time: 0 hr 10 min 0 sec) 
Heartbeat CPU  0 instructions:  206000000 cycles: 1376071842 heartbeat IPC: 0.10699 cumulative IPC: 0.08362 (Simulation time: 0 hr 10 min 4 sec) 
Heartbeat CPU  0 instructions:  207000002 cycles: 1390094822 heartbeat IPC: 0.07131 cumulative IPC: 0.08349 (Simulation time: 0 hr 10 min 9 sec) 
Heartbeat CPU  0 instructions:  208000000 cycles: 1404701126 heartbeat IPC: 0.06846 cumulative IPC: 0.08332 (Simulation time: 0 hr 10 min 14 sec) 
Heartbeat CPU  0 instructions:  209000001 cycles: 1416378211 heartbeat IPC: 0.08564 cumulative IPC: 0.08334 (Simulation time: 0 hr 10 min 18 sec) 
Heartbeat CPU  0 instructions:  210000000 cycles: 1428207272 heartbeat IPC: 0.08454 cumulative IPC: 0.08335 (Simulation time: 0 hr 10 min 23 sec) 
Heartbeat CPU  0 instructions:  211000001 cycles: 1440494495 heartbeat IPC: 0.08139 cumulative IPC: 0.08333 (Simulation time: 0 hr 10 min 27 sec) 
Heartbeat CPU  0 instructions:  212000000 cycles: 1452869726 heartbeat IPC: 0.08081 cumulative IPC: 0.08331 (Simulation time: 0 hr 10 min 31 sec) 
Heartbeat CPU  0 instructions:  213000001 cycles: 1469270645 heartbeat IPC: 0.06097 cumulative IPC: 0.08304 (Simulation time: 0 hr 10 min 37 sec) 
Heartbeat CPU  0 instructions:  214000001 cycles: 1480138384 heartbeat IPC: 0.09202 cumulative IPC: 0.08311 (Simulation time: 0 hr 10 min 41 sec) 
Heartbeat CPU  0 instructions:  215000000 cycles: 1491254226 heartbeat IPC: 0.08996 cumulative IPC: 0.08316 (Simulation time: 0 hr 10 min 45 sec) 
Heartbeat CPU  0 instructions:  216000000 cycles: 1503120496 heartbeat IPC: 0.08427 cumulative IPC: 0.08317 (Simulation time: 0 hr 10 min 49 sec) 
Heartbeat CPU  0 instructions:  217000001 cycles: 1515570845 heartbeat IPC: 0.08032 cumulative IPC: 0.08315 (Simulation time: 0 hr 10 min 54 sec) 
Heartbeat CPU  0 instructions:  218000000 cycles: 1531023252 heartbeat IPC: 0.06471 cumulative IPC: 0.08295 (Simulation time: 0 hr 10 min 59 sec) 
Heartbeat CPU  0 instructions:  219000001 cycles: 1541679517 heartbeat IPC: 0.09384 cumulative IPC: 0.08303 (Simulation time: 0 hr 11 min 3 sec) 
Heartbeat CPU  0 instructions:  220000000 cycles: 1552411914 heartbeat IPC: 0.09318 cumulative IPC: 0.08310 (Simulation time: 0 hr 11 min 7 sec) 
Heartbeat CPU  0 instructions:  221000002 cycles: 1564087720 heartbeat IPC: 0.08565 cumulative IPC: 0.08312 (Simulation time: 0 hr 11 min 11 sec) 
Heartbeat CPU  0 instructions:  222000003 cycles: 1578259413 heartbeat IPC: 0.07056 cumulative IPC: 0.08300 (Simulation time: 0 hr 11 min 16 sec) 
Heartbeat CPU  0 instructions:  223000001 cycles: 1593162293 heartbeat IPC: 0.06710 cumulative IPC: 0.08284 (Simulation time: 0 hr 11 min 22 sec) 
Heartbeat CPU  0 instructions:  224000000 cycles: 1605558315 heartbeat IPC: 0.08067 cumulative IPC: 0.08283 (Simulation time: 0 hr 11 min 26 sec) 
Heartbeat CPU  0 instructions:  225000001 cycles: 1617952478 heartbeat IPC: 0.08068 cumulative IPC: 0.08281 (Simulation time: 0 hr 11 min 30 sec) 
Heartbeat CPU  0 instructions:  226000003 cycles: 1629114002 heartbeat IPC: 0.08959 cumulative IPC: 0.08286 (Simulation time: 0 hr 11 min 35 sec) 
Heartbeat CPU  0 instructions:  227000001 cycles: 1641324474 heartbeat IPC: 0.08190 cumulative IPC: 0.08285 (Simulation time: 0 hr 11 min 39 sec) 
Heartbeat CPU  0 instructions:  228000000 cycles: 1657021527 heartbeat IPC: 0.06371 cumulative IPC: 0.08266 (Simulation time: 0 hr 11 min 45 sec) 
Heartbeat CPU  0 instructions:  229000001 cycles: 1668498501 heartbeat IPC: 0.08713 cumulative IPC: 0.08269 (Simulation time: 0 hr 11 min 49 sec) 
Heartbeat CPU  0 instructions:  230000000 cycles: 1680388203 heartbeat IPC: 0.08411 cumulative IPC: 0.08270 (Simulation time: 0 hr 11 min 53 sec) 
Heartbeat CPU  0 instructions:  231000001 cycles: 1691966371 heartbeat IPC: 0.08637 cumulative IPC: 0.08273 (Simulation time: 0 hr 11 min 57 sec) 
Heartbeat CPU  0 instructions:  232000000 cycles: 1704656535 heartbeat IPC: 0.07880 cumulative IPC: 0.08270 (Simulation time: 0 hr 12 min 1 sec) 
Heartbeat CPU  0 instructions:  233000002 cycles: 1721930641 heartbeat IPC: 0.05789 cumulative IPC: 0.08243 (Simulation time: 0 hr 12 min 7 sec) 
Heartbeat CPU  0 instructions:  234000001 cycles: 1734561490 heartbeat IPC: 0.07917 cumulative IPC: 0.08240 (Simulation time: 0 hr 12 min 12 sec) 
Heartbeat CPU  0 instructions:  235000000 cycles: 1745603089 heartbeat IPC: 0.09057 cumulative IPC: 0.08246 (Simulation time: 0 hr 12 min 16 sec) 
Heartbeat CPU  0 instructions:  236000000 cycles: 1757581730 heartbeat IPC: 0.08348 cumulative IPC: 0.08247 (Simulation time: 0 hr 12 min 20 sec) 
Heartbeat CPU  0 instructions:  237000003 cycles: 1770070505 heartbeat IPC: 0.08007 cumulative IPC: 0.08245 (Simulation time: 0 hr 12 min 24 sec) 
Heartbeat CPU  0 instructions:  238000000 cycles: 1783191670 heartbeat IPC: 0.07621 cumulative IPC: 0.08240 (Simulation time: 0 hr 12 min 29 sec) 
Heartbeat CPU  0 instructions:  239000002 cycles: 1798930044 heartbeat IPC: 0.06354 cumulative IPC: 0.08222 (Simulation time: 0 hr 12 min 34 sec) 
Heartbeat CPU  0 instructions:  240000000 cycles: 1811549731 heartbeat IPC: 0.07924 cumulative IPC: 0.08220 (Simulation time: 0 hr 12 min 39 sec) 
Heartbeat CPU  0 instructions:  241000000 cycles: 1823267456 heartbeat IPC: 0.08534 cumulative IPC: 0.08222 (Simulation time: 0 hr 12 min 43 sec) 
Heartbeat CPU  0 instructions:  242000000 cycles: 1834690335 heartbeat IPC: 0.08754 cumulative IPC: 0.08226 (Simulation time: 0 hr 12 min 47 sec) 
Heartbeat CPU  0 instructions:  243000001 cycles: 1845936878 heartbeat IPC: 0.08892 cumulative IPC: 0.08230 (Simulation time: 0 hr 12 min 51 sec) 
Heartbeat CPU  0 instructions:  244000000 cycles: 1863461728 heartbeat IPC: 0.05706 cumulative IPC: 0.08205 (Simulation time: 0 hr 12 min 57 sec) 
Heartbeat CPU  0 instructions:  245000000 cycles: 1874998705 heartbeat IPC: 0.08668 cumulative IPC: 0.08208 (Simulation time: 0 hr 13 min 1 sec) 
Heartbeat CPU  0 instructions:  246000001 cycles: 1886774507 heartbeat IPC: 0.08492 cumulative IPC: 0.08210 (Simulation time: 0 hr 13 min 6 sec) 
Heartbeat CPU  0 instructions:  247000000 cycles: 1897770342 heartbeat IPC: 0.09094 cumulative IPC: 0.08215 (Simulation time: 0 hr 13 min 10 sec) 
Heartbeat CPU  0 instructions:  248000000 cycles: 1909039411 heartbeat IPC: 0.08874 cumulative IPC: 0.08219 (Simulation time: 0 hr 13 min 14 sec) 
Heartbeat CPU  0 instructions:  249000002 cycles: 1926180282 heartbeat IPC: 0.05834 cumulative IPC: 0.08197 (Simulation time: 0 hr 13 min 20 sec) 
Heartbeat CPU  0 instructions:  250000000 cycles: 1938579600 heartbeat IPC: 0.08065 cumulative IPC: 0.08196 (Simulation time: 0 hr 13 min 24 sec) 
Heartbeat CPU  0 instructions:  251000000 cycles: 1952584364 heartbeat IPC: 0.07140 cumulative IPC: 0.08188 (Simulation time: 0 hr 13 min 29 sec) 
Heartbeat CPU  0 instructions:  252000000 cycles: 1963426862 heartbeat IPC: 0.09223 cumulative IPC: 0.08194 (Simulation time: 0 hr 13 min 33 sec) 
Heartbeat CPU  0 instructions:  253000003 cycles: 1974580643 heartbeat IPC: 0.08966 cumulative IPC: 0.08199 (Simulation time: 0 hr 13 min 37 sec) 
Heartbeat CPU  0 instructions:  254000002 cycles: 1991616462 heartbeat IPC: 0.05870 cumulative IPC: 0.08178 (Simulation time: 0 hr 13 min 43 sec) 
Heartbeat CPU  0 instructions:  255000000 cycles: 2003585869 heartbeat IPC: 0.08355 cumulative IPC: 0.08179 (Simulation time: 0 hr 13 min 47 sec) 
Heartbeat CPU  0 instructions:  256000000 cycles: 2014480371 heartbeat IPC: 0.09179 cumulative IPC: 0.08185 (Simulation time: 0 hr 13 min 51 sec) 
Heartbeat CPU  0 instructions:  257000000 cycles: 2024067361 heartbeat IPC: 0.10431 cumulative IPC: 0.08196 (Simulation time: 0 hr 13 min 55 sec) 
Heartbeat CPU  0 instructions:  258000003 cycles: 2036560322 heartbeat IPC: 0.08005 cumulative IPC: 0.08195 (Simulation time: 0 hr 14 min 0 sec) 
Heartbeat CPU  0 instructions:  259000001 cycles: 2051458187 heartbeat IPC: 0.06712 cumulative IPC: 0.08183 (Simulation time: 0 hr 14 min 5 sec) 
Heartbeat CPU  0 instructions:  260000000 cycles: 2062581498 heartbeat IPC: 0.08990 cumulative IPC: 0.08188 (Simulation time: 0 hr 14 min 9 sec) 
Heartbeat CPU  0 instructions:  261000001 cycles: 2073788328 heartbeat IPC: 0.08923 cumulative IPC: 0.08192 (Simulation time: 0 hr 14 min 13 sec) 
Heartbeat CPU  0 instructions:  262000000 cycles: 2086092812 heartbeat IPC: 0.08127 cumulative IPC: 0.08192 (Simulation time: 0 hr 14 min 17 sec) 
Heartbeat CPU  0 instructions:  263000002 cycles: 2098960608 heartbeat IPC: 0.07771 cumulative IPC: 0.08189 (Simulation time: 0 hr 14 min 22 sec) 
Heartbeat CPU  0 instructions:  264000000 cycles: 2115390553 heartbeat IPC: 0.06086 cumulative IPC: 0.08172 (Simulation time: 0 hr 14 min 28 sec) 
Heartbeat CPU  0 instructions:  265000000 cycles: 2126982245 heartbeat IPC: 0.08627 cumulative IPC: 0.08174 (Simulation time: 0 hr 14 min 32 sec) 
Heartbeat CPU  0 instructions:  266000000 cycles: 2138428858 heartbeat IPC: 0.08736 cumulative IPC: 0.08177 (Simulation time: 0 hr 14 min 36 sec) 
Heartbeat CPU  0 instructions:  267000000 cycles: 2150469218 heartbeat IPC: 0.08305 cumulative IPC: 0.08178 (Simulation time: 0 hr 14 min 40 sec) 
Heartbeat CPU  0 instructions:  268000000 cycles: 2162387772 heartbeat IPC: 0.08390 cumulative IPC: 0.08179 (Simulation time: 0 hr 14 min 44 sec) 
Heartbeat CPU  0 instructions:  269000000 cycles: 2176857838 heartbeat IPC: 0.06911 cumulative IPC: 0.08170 (Simulation time: 0 hr 14 min 49 sec) 
Heartbeat CPU  0 instructions:  270000000 cycles: 2192189443 heartbeat IPC: 0.06522 cumulative IPC: 0.08158 (Simulation time: 0 hr 14 min 55 sec) 
Heartbeat CPU  0 instructions:  271000000 cycles: 2202269916 heartbeat IPC: 0.09920 cumulative IPC: 0.08167 (Simulation time: 0 hr 14 min 59 sec) 
Heartbeat CPU  0 instructions:  272000000 cycles: 2212111412 heartbeat IPC: 0.10161 cumulative IPC: 0.08176 (Simulation time: 0 hr 15 min 2 sec) 
Heartbeat CPU  0 instructions:  273000001 cycles: 2222212437 heartbeat IPC: 0.09900 cumulative IPC: 0.08184 (Simulation time: 0 hr 15 min 6 sec) 
Heartbeat CPU  0 instructions:  274000000 cycles: 2239623899 heartbeat IPC: 0.05743 cumulative IPC: 0.08164 (Simulation time: 0 hr 15 min 12 sec) 
Heartbeat CPU  0 instructions:  275000000 cycles: 2249039063 heartbeat IPC: 0.10621 cumulative IPC: 0.08175 (Simulation time: 0 hr 15 min 16 sec) 
Heartbeat CPU  0 instructions:  276000000 cycles: 2257890460 heartbeat IPC: 0.11298 cumulative IPC: 0.08188 (Simulation time: 0 hr 15 min 20 sec) 
Heartbeat CPU  0 instructions:  277000000 cycles: 2272680891 heartbeat IPC: 0.06761 cumulative IPC: 0.08178 (Simulation time: 0 hr 15 min 25 sec) 
Heartbeat CPU  0 instructions:  278000002 cycles: 2285727036 heartbeat IPC: 0.07665 cumulative IPC: 0.08175 (Simulation time: 0 hr 15 min 29 sec) 
Heartbeat CPU  0 instructions:  279000000 cycles: 2303068766 heartbeat IPC: 0.05766 cumulative IPC: 0.08156 (Simulation time: 0 hr 15 min 35 sec) 
Heartbeat CPU  0 instructions:  280000000 cycles: 2315895190 heartbeat IPC: 0.07796 cumulative IPC: 0.08154 (Simulation time: 0 hr 15 min 40 sec) 
Heartbeat CPU  0 instructions:  281000001 cycles: 2326052401 heartbeat IPC: 0.09845 cumulative IPC: 0.08162 (Simulation time: 0 hr 15 min 44 sec) 
Heartbeat CPU  0 instructions:  282000000 cycles: 2337335438 heartbeat IPC: 0.08863 cumulative IPC: 0.08165 (Simulation time: 0 hr 15 min 48 sec) 
Heartbeat CPU  0 instructions:  283000000 cycles: 2348840745 heartbeat IPC: 0.08692 cumulative IPC: 0.08168 (Simulation time: 0 hr 15 min 52 sec) 
Heartbeat CPU  0 instructions:  284000000 cycles: 2364937272 heartbeat IPC: 0.06213 cumulative IPC: 0.08154 (Simulation time: 0 hr 15 min 58 sec) 
Heartbeat CPU  0 instructions:  285000000 cycles: 2379562437 heartbeat IPC: 0.06838 cumulative IPC: 0.08146 (Simulation time: 0 hr 16 min 3 sec) 
Heartbeat CPU  0 instructions:  286000001 cycles: 2389538083 heartbeat IPC: 0.10024 cumulative IPC: 0.08154 (Simulation time: 0 hr 16 min 7 sec) 
Heartbeat CPU  0 instructions:  287000001 cycles: 2400107067 heartbeat IPC: 0.09462 cumulative IPC: 0.08160 (Simulation time: 0 hr 16 min 10 sec) 
Heartbeat CPU  0 instructions:  288000000 cycles: 2416342621 heartbeat IPC: 0.06159 cumulative IPC: 0.08146 (Simulation time: 0 hr 16 min 16 sec) 
Heartbeat CPU  0 instructions:  289000000 cycles: 2428561777 heartbeat IPC: 0.08184 cumulative IPC: 0.08146 (Simulation time: 0 hr 16 min 21 sec) 
Heartbeat CPU  0 instructions:  290000001 cycles: 2439470251 heartbeat IPC: 0.09167 cumulative IPC: 0.08151 (Simulation time: 0 hr 16 min 25 sec) 
Heartbeat CPU  0 instructions:  291000000 cycles: 2449962326 heartbeat IPC: 0.09531 cumulative IPC: 0.08157 (Simulation time: 0 hr 16 min 29 sec) 
Heartbeat CPU  0 instructions:  292000000 cycles: 2461819988 heartbeat IPC: 0.08433 cumulative IPC: 0.08158 (Simulation time: 0 hr 16 min 33 sec) 
Heartbeat CPU  0 instructions:  293000001 cycles: 2477496762 heartbeat IPC: 0.06379 cumulative IPC: 0.08147 (Simulation time: 0 hr 16 min 38 sec) 
Heartbeat CPU  0 instructions:  294000000 cycles: 2491220409 heartbeat IPC: 0.07287 cumulative IPC: 0.08142 (Simulation time: 0 hr 16 min 44 sec) 
Heartbeat CPU  0 instructions:  295000000 cycles: 2503281383 heartbeat IPC: 0.08291 cumulative IPC: 0.08142 (Simulation time: 0 hr 16 min 48 sec) 
Heartbeat CPU  0 instructions:  296000000 cycles: 2515542989 heartbeat IPC: 0.08156 cumulative IPC: 0.08143 (Simulation time: 0 hr 16 min 52 sec) 
Heartbeat CPU  0 instructions:  297000001 cycles: 2528689696 heartbeat IPC: 0.07606 cumulative IPC: 0.08140 (Simulation time: 0 hr 16 min 57 sec) 
Heartbeat CPU  0 instructions:  298000000 cycles: 2540611786 heartbeat IPC: 0.08388 cumulative IPC: 0.08141 (Simulation time: 0 hr 17 min 1 sec) 
Heartbeat CPU  0 instructions:  299000001 cycles: 2556083550 heartbeat IPC: 0.06463 cumulative IPC: 0.08130 (Simulation time: 0 hr 17 min 6 sec) 
Heartbeat CPU  0 instructions:  300000000 cycles: 2570879810 heartbeat IPC: 0.06758 cumulative IPC: 0.08122 (Simulation time: 0 hr 17 min 11 sec) 
Heartbeat CPU  0 instructions:  301000002 cycles: 2583862246 heartbeat IPC: 0.07703 cumulative IPC: 0.08120 (Simulation time: 0 hr 17 min 16 sec) 
Heartbeat CPU  0 instructions:  302000001 cycles: 2598810857 heartbeat IPC: 0.06690 cumulative IPC: 0.08111 (Simulation time: 0 hr 17 min 20 sec) 
Heartbeat CPU  0 instructions:  303000000 cycles: 2610262910 heartbeat IPC: 0.08732 cumulative IPC: 0.08114 (Simulation time: 0 hr 17 min 24 sec) 
Heartbeat CPU  0 instructions:  304000000 cycles: 2622570598 heartbeat IPC: 0.08125 cumulative IPC: 0.08114 (Simulation time: 0 hr 17 min 29 sec) 
Heartbeat CPU  0 instructions:  305000000 cycles: 2637422069 heartbeat IPC: 0.06733 cumulative IPC: 0.08106 (Simulation time: 0 hr 17 min 34 sec) 
Heartbeat CPU  0 instructions:  306000001 cycles: 2652443050 heartbeat IPC: 0.06657 cumulative IPC: 0.08097 (Simulation time: 0 hr 17 min 39 sec) 
Heartbeat CPU  0 instructions:  307000001 cycles: 2665506413 heartbeat IPC: 0.07655 cumulative IPC: 0.08095 (Simulation time: 0 hr 17 min 44 sec) 
Heartbeat CPU  0 instructions:  308000000 cycles: 2677388302 heartbeat IPC: 0.08416 cumulative IPC: 0.08097 (Simulation time: 0 hr 17 min 48 sec) 
Heartbeat CPU  0 instructions:  309000002 cycles: 2688448248 heartbeat IPC: 0.09042 cumulative IPC: 0.08101 (Simulation time: 0 hr 17 min 52 sec) 
Heartbeat CPU  0 instructions:  310000003 cycles: 2700081557 heartbeat IPC: 0.08596 cumulative IPC: 0.08103 (Simulation time: 0 hr 17 min 56 sec) 
Heartbeat CPU  0 instructions:  311000002 cycles: 2716257589 heartbeat IPC: 0.06182 cumulative IPC: 0.08091 (Simulation time: 0 hr 18 min 2 sec) 
Heartbeat CPU  0 instructions:  312000000 cycles: 2727403034 heartbeat IPC: 0.08972 cumulative IPC: 0.08095 (Simulation time: 0 hr 18 min 6 sec) 
Heartbeat CPU  0 instructions:  313000000 cycles: 2740191307 heartbeat IPC: 0.07820 cumulative IPC: 0.08093 (Simulation time: 0 hr 18 min 10 sec) 
Heartbeat CPU  0 instructions:  314000000 cycles: 2752681135 heartbeat IPC: 0.08007 cumulative IPC: 0.08093 (Simulation time: 0 hr 18 min 15 sec) 
Heartbeat CPU  0 instructions:  315000000 cycles: 2764994710 heartbeat IPC: 0.08121 cumulative IPC: 0.08093 (Simulation time: 0 hr 18 min 19 sec) 
Heartbeat CPU  0 instructions:  316000000 cycles: 2777802289 heartbeat IPC: 0.07808 cumulative IPC: 0.08092 (Simulation time: 0 hr 18 min 23 sec) 
Heartbeat CPU  0 instructions:  317000002 cycles: 2793645639 heartbeat IPC: 0.06312 cumulative IPC: 0.08081 (Simulation time: 0 hr 18 min 29 sec) 
Heartbeat CPU  0 instructions:  318000002 cycles: 2807724719 heartbeat IPC: 0.07103 cumulative IPC: 0.08076 (Simulation time: 0 hr 18 min 34 sec) 
Heartbeat CPU  0 instructions:  319000002 cycles: 2819835694 heartbeat IPC: 0.08257 cumulative IPC: 0.08077 (Simulation time: 0 hr 18 min 38 sec) 
Heartbeat CPU  0 instructions:  320000000 cycles: 2831335122 heartbeat IPC: 0.08696 cumulative IPC: 0.08080 (Simulation time: 0 hr 18 min 42 sec) 
Heartbeat CPU  0 instructions:  321000001 cycles: 2843786448 heartbeat IPC: 0.08031 cumulative IPC: 0.08079 (Simulation time: 0 hr 18 min 47 sec) 
Heartbeat CPU  0 instructions:  322000000 cycles: 2856791078 heartbeat IPC: 0.07690 cumulative IPC: 0.08078 (Simulation time: 0 hr 18 min 51 sec) 
Heartbeat CPU  0 instructions:  323000001 cycles: 2868552480 heartbeat IPC: 0.08502 cumulative IPC: 0.08079 (Simulation time: 0 hr 18 min 55 sec) 
Heartbeat CPU  0 instructions:  324000000 cycles: 2880302701 heartbeat IPC: 0.08510 cumulative IPC: 0.08081 (Simulation time: 0 hr 19 min 0 sec) 
Heartbeat CPU  0 instructions:  325000000 cycles: 2897984735 heartbeat IPC: 0.05655 cumulative IPC: 0.08066 (Simulation time: 0 hr 19 min 6 sec) 
Heartbeat CPU  0 instructions:  326000000 cycles: 2910665881 heartbeat IPC: 0.07886 cumulative IPC: 0.08065 (Simulation time: 0 hr 19 min 11 sec) 
Heartbeat CPU  0 instructions:  327000000 cycles: 2924031489 heartbeat IPC: 0.07482 cumulative IPC: 0.08062 (Simulation time: 0 hr 19 min 15 sec) 
Heartbeat CPU  0 instructions:  328000000 cycles: 2936355311 heartbeat IPC: 0.08114 cumulative IPC: 0.08062 (Simulation time: 0 hr 19 min 19 sec) 
Heartbeat CPU  0 instructions:  329000001 cycles: 2946996542 heartbeat IPC: 0.09397 cumulative IPC: 0.08067 (Simulation time: 0 hr 19 min 23 sec) 
Heartbeat CPU  0 instructions:  330000000 cycles: 2958894905 heartbeat IPC: 0.08405 cumulative IPC: 0.08069 (Simulation time: 0 hr 19 min 28 sec) 
Heartbeat CPU  0 instructions:  331000003 cycles: 2970998927 heartbeat IPC: 0.08262 cumulative IPC: 0.08070 (Simulation time: 0 hr 19 min 32 sec) 
Heartbeat CPU  0 instructions:  332000000 cycles: 2988360599 heartbeat IPC: 0.05760 cumulative IPC: 0.08056 (Simulation time: 0 hr 19 min 38 sec) 
Heartbeat CPU  0 instructions:  333000000 cycles: 3001610850 heartbeat IPC: 0.07547 cumulative IPC: 0.08053 (Simulation time: 0 hr 19 min 43 sec) 
Heartbeat CPU  0 instructions:  334000000 cycles: 3013335331 heartbeat IPC: 0.08529 cumulative IPC: 0.08055 (Simulation time: 0 hr 19 min 47 sec) 
Heartbeat CPU  0 instructions:  335000000 cycles: 3023124910 heartbeat IPC: 0.10215 cumulative IPC: 0.08063 (Simulation time: 0 hr 19 min 51 sec) 
Heartbeat CPU  0 instructions:  336000000 cycles: 3036609255 heartbeat IPC: 0.07416 cumulative IPC: 0.08060 (Simulation time: 0 hr 19 min 55 sec) 
Heartbeat CPU  0 instructions:  337000000 cycles: 3048696949 heartbeat IPC: 0.08273 cumulative IPC: 0.08061 (Simulation time: 0 hr 20 min 0 sec) 
Heartbeat CPU  0 instructions:  338000000 cycles: 3060598776 heartbeat IPC: 0.08402 cumulative IPC: 0.08062 (Simulation time: 0 hr 20 min 4 sec) 
Heartbeat CPU  0 instructions:  339000000 cycles: 3073518553 heartbeat IPC: 0.07740 cumulative IPC: 0.08060 (Simulation time: 0 hr 20 min 8 sec) 
Heartbeat CPU  0 instructions:  340000000 cycles: 3090847755 heartbeat IPC: 0.05771 cumulative IPC: 0.08047 (Simulation time: 0 hr 20 min 14 sec) 
Heartbeat CPU  0 instructions:  341000000 cycles: 3105441809 heartbeat IPC: 0.06852 cumulative IPC: 0.08041 (Simulation time: 0 hr 20 min 19 sec) 
Heartbeat CPU  0 instructions:  342000000 cycles: 3117210983 heartbeat IPC: 0.08497 cumulative IPC: 0.08043 (Simulation time: 0 hr 20 min 23 sec) 
Heartbeat CPU  0 instructions:  343000000 cycles: 3128090932 heartbeat IPC: 0.09191 cumulative IPC: 0.08047 (Simulation time: 0 hr 20 min 27 sec) 
Heartbeat CPU  0 instructions:  344000000 cycles: 3140754925 heartbeat IPC: 0.07896 cumulative IPC: 0.08047 (Simulation time: 0 hr 20 min 32 sec) 
Heartbeat CPU  0 instructions:  345000000 cycles: 3152833976 heartbeat IPC: 0.08279 cumulative IPC: 0.08048 (Simulation time: 0 hr 20 min 36 sec) 
Heartbeat CPU  0 instructions:  346000001 cycles: 3163928128 heartbeat IPC: 0.09014 cumulative IPC: 0.08051 (Simulation time: 0 hr 20 min 40 sec) 
Heartbeat CPU  0 instructions:  347000003 cycles: 3175857840 heartbeat IPC: 0.08382 cumulative IPC: 0.08052 (Simulation time: 0 hr 20 min 45 sec) 
Heartbeat CPU  0 instructions:  348000000 cycles: 3188905816 heartbeat IPC: 0.07664 cumulative IPC: 0.08051 (Simulation time: 0 hr 20 min 50 sec) 
Heartbeat CPU  0 instructions:  349000001 cycles: 3197977476 heartbeat IPC: 0.11023 cumulative IPC: 0.08059 (Simulation time: 0 hr 20 min 54 sec) 
Heartbeat CPU  0 instructions:  350000000 cycles: 3212547855 heartbeat IPC: 0.06863 cumulative IPC: 0.08054 (Simulation time: 0 hr 20 min 59 sec) 
Heartbeat CPU  0 instructions:  351000001 cycles: 3219973968 heartbeat IPC: 0.13466 cumulative IPC: 0.08067 (Simulation time: 0 hr 21 min 3 sec) 
Heartbeat CPU  0 instructions:  352000000 cycles: 3227068219 heartbeat IPC: 0.14096 cumulative IPC: 0.08080 (Simulation time: 0 hr 21 min 7 sec) 
Heartbeat CPU  0 instructions:  353000003 cycles: 3241384321 heartbeat IPC: 0.06985 cumulative IPC: 0.08075 (Simulation time: 0 hr 21 min 13 sec) 
Heartbeat CPU  0 instructions:  354000002 cycles: 3253491274 heartbeat IPC: 0.08260 cumulative IPC: 0.08076 (Simulation time: 0 hr 21 min 18 sec) 
Heartbeat CPU  0 instructions:  355000002 cycles: 3260163134 heartbeat IPC: 0.14988 cumulative IPC: 0.08091 (Simulation time: 0 hr 21 min 22 sec) 
Heartbeat CPU  0 instructions:  356000000 cycles: 3267238904 heartbeat IPC: 0.14133 cumulative IPC: 0.08104 (Simulation time: 0 hr 21 min 26 sec) 
Heartbeat CPU  0 instructions:  357000000 cycles: 3273587852 heartbeat IPC: 0.15751 cumulative IPC: 0.08120 (Simulation time: 0 hr 21 min 30 sec) 
Heartbeat CPU  0 instructions:  358000001 cycles: 3286405869 heartbeat IPC: 0.07802 cumulative IPC: 0.08118 (Simulation time: 0 hr 21 min 35 sec) 
Heartbeat CPU  0 instructions:  359000002 cycles: 3298631830 heartbeat IPC: 0.08179 cumulative IPC: 0.08119 (Simulation time: 0 hr 21 min 40 sec) 
Heartbeat CPU  0 instructions:  360000000 cycles: 3305981908 heartbeat IPC: 0.13605 cumulative IPC: 0.08131 (Simulation time: 0 hr 21 min 44 sec) 
Heartbeat CPU  0 instructions:  361000001 cycles: 3312888668 heartbeat IPC: 0.14479 cumulative IPC: 0.08145 (Simulation time: 0 hr 21 min 48 sec) 
Heartbeat CPU  0 instructions:  362000001 cycles: 3319779670 heartbeat IPC: 0.14512 cumulative IPC: 0.08159 (Simulation time: 0 hr 21 min 52 sec) 
Heartbeat CPU  0 instructions:  363000002 cycles: 3330868055 heartbeat IPC: 0.09018 cumulative IPC: 0.08162 (Simulation time: 0 hr 21 min 56 sec) 
Heartbeat CPU  0 instructions:  364000000 cycles: 3344741888 heartbeat IPC: 0.07208 cumulative IPC: 0.08157 (Simulation time: 0 hr 22 min 2 sec) 
Heartbeat CPU  0 instructions:  365000001 cycles: 3351637111 heartbeat IPC: 0.14503 cumulative IPC: 0.08171 (Simulation time: 0 hr 22 min 6 sec) 
Heartbeat CPU  0 instructions:  366000001 cycles: 3358612389 heartbeat IPC: 0.14336 cumulative IPC: 0.08184 (Simulation time: 0 hr 22 min 10 sec) 
Heartbeat CPU  0 instructions:  367000000 cycles: 3365485777 heartbeat IPC: 0.14549 cumulative IPC: 0.08198 (Simulation time: 0 hr 22 min 14 sec) 
Heartbeat CPU  0 instructions:  368000000 cycles: 3374068089 heartbeat IPC: 0.11652 cumulative IPC: 0.08207 (Simulation time: 0 hr 22 min 18 sec) 
Heartbeat CPU  0 instructions:  369000000 cycles: 3391739845 heartbeat IPC: 0.05659 cumulative IPC: 0.08193 (Simulation time: 0 hr 22 min 24 sec) 
Heartbeat CPU  0 instructions:  370000002 cycles: 3400460992 heartbeat IPC: 0.11466 cumulative IPC: 0.08202 (Simulation time: 0 hr 22 min 29 sec) 
Heartbeat CPU  0 instructions:  371000000 cycles: 3408899469 heartbeat IPC: 0.11850 cumulative IPC: 0.08211 (Simulation time: 0 hr 22 min 33 sec) 
Heartbeat CPU  0 instructions:  372000000 cycles: 3417225784 heartbeat IPC: 0.12010 cumulative IPC: 0.08221 (Simulation time: 0 hr 22 min 37 sec) 
Heartbeat CPU  0 instructions:  373000000 cycles: 3425459352 heartbeat IPC: 0.12145 cumulative IPC: 0.08230 (Simulation time: 0 hr 22 min 42 sec) 
Heartbeat CPU  0 instructions:  374000000 cycles: 3434426095 heartbeat IPC: 0.11152 cumulative IPC: 0.08238 (Simulation time: 0 hr 22 min 46 sec) 
Heartbeat CPU  0 instructions:  375000002 cycles: 3449496889 heartbeat IPC: 0.06635 cumulative IPC: 0.08231 (Simulation time: 0 hr 22 min 52 sec) 
Heartbeat CPU  0 instructions:  376000000 cycles: 3461219026 heartbeat IPC: 0.08531 cumulative IPC: 0.08232 (Simulation time: 0 hr 22 min 57 sec) 
Heartbeat CPU  0 instructions:  377000000 cycles: 3469999635 heartbeat IPC: 0.11389 cumulative IPC: 0.08240 (Simulation time: 0 hr 23 min 1 sec) 
Heartbeat CPU  0 instructions:  378000002 cycles: 3480603014 heartbeat IPC: 0.09431 cumulative IPC: 0.08244 (Simulation time: 0 hr 23 min 6 sec) 
Heartbeat CPU  0 instructions:  379000000 cycles: 3489505495 heartbeat IPC: 0.11233 cumulative IPC: 0.08252 (Simulation time: 0 hr 23 min 10 sec) 
Heartbeat CPU  0 instructions:  380000000 cycles: 3501615480 heartbeat IPC: 0.08258 cumulative IPC: 0.08252 (Simulation time: 0 hr 23 min 15 sec) 
Heartbeat CPU  0 instructions:  381000002 cycles: 3511273942 heartbeat IPC: 0.10354 cumulative IPC: 0.08258 (Simulation time: 0 hr 23 min 19 sec) 
Heartbeat CPU  0 instructions:  382000001 cycles: 3527675656 heartbeat IPC: 0.06097 cumulative IPC: 0.08247 (Simulation time: 0 hr 23 min 25 sec) 
Heartbeat CPU  0 instructions:  383000002 cycles: 3539028796 heartbeat IPC: 0.08808 cumulative IPC: 0.08249 (Simulation time: 0 hr 23 min 30 sec) 
Heartbeat CPU  0 instructions:  384000000 cycles: 3549030958 heartbeat IPC: 0.09998 cumulative IPC: 0.08254 (Simulation time: 0 hr 23 min 34 sec) 
Heartbeat CPU  0 instructions:  385000002 cycles: 3558955405 heartbeat IPC: 0.10076 cumulative IPC: 0.08260 (Simulation time: 0 hr 23 min 39 sec) 
Heartbeat CPU  0 instructions:  386000001 cycles: 3569810251 heartbeat IPC: 0.09212 cumulative IPC: 0.08263 (Simulation time: 0 hr 23 min 43 sec) 
Heartbeat CPU  0 instructions:  387000000 cycles: 3580288242 heartbeat IPC: 0.09544 cumulative IPC: 0.08266 (Simulation time: 0 hr 23 min 47 sec) 
Heartbeat CPU  0 instructions:  388000000 cycles: 3595034069 heartbeat IPC: 0.06782 cumulative IPC: 0.08260 (Simulation time: 0 hr 23 min 52 sec) 
Heartbeat CPU  0 instructions:  389000000 cycles: 3611453040 heartbeat IPC: 0.06091 cumulative IPC: 0.08250 (Simulation time: 0 hr 23 min 58 sec) 
Heartbeat CPU  0 instructions:  390000001 cycles: 3624589490 heartbeat IPC: 0.07612 cumulative IPC: 0.08248 (Simulation time: 0 hr 24 min 3 sec) 
Heartbeat CPU  0 instructions:  391000001 cycles: 3637759261 heartbeat IPC: 0.07593 cumulative IPC: 0.08245 (Simulation time: 0 hr 24 min 7 sec) 
Heartbeat CPU  0 instructions:  392000000 cycles: 3650451573 heartbeat IPC: 0.07879 cumulative IPC: 0.08244 (Simulation time: 0 hr 24 min 11 sec) 
Heartbeat CPU  0 instructions:  393000003 cycles: 3663096414 heartbeat IPC: 0.07908 cumulative IPC: 0.08243 (Simulation time: 0 hr 24 min 16 sec) 
Heartbeat CPU  0 instructions:  394000001 cycles: 3675867793 heartbeat IPC: 0.07830 cumulative IPC: 0.08241 (Simulation time: 0 hr 24 min 20 sec) 
Heartbeat CPU  0 instructions:  395000000 cycles: 3689071799 heartbeat IPC: 0.07573 cumulative IPC: 0.08239 (Simulation time: 0 hr 24 min 24 sec) 
Heartbeat CPU  0 instructions:  396000000 cycles: 3703965571 heartbeat IPC: 0.06714 cumulative IPC: 0.08232 (Simulation time: 0 hr 24 min 29 sec) 
Heartbeat CPU  0 instructions:  397000001 cycles: 3719056739 heartbeat IPC: 0.06626 cumulative IPC: 0.08226 (Simulation time: 0 hr 24 min 35 sec) 
Heartbeat CPU  0 instructions:  398000000 cycles: 3732515990 heartbeat IPC: 0.07430 cumulative IPC: 0.08223 (Simulation time: 0 hr 24 min 39 sec) 
Heartbeat CPU  0 instructions:  399000000 cycles: 3745969899 heartbeat IPC: 0.07433 cumulative IPC: 0.08220 (Simulation time: 0 hr 24 min 44 sec) 
Heartbeat CPU  0 instructions:  400000000 cycles: 3759152075 heartbeat IPC: 0.07586 cumulative IPC: 0.08218 (Simulation time: 0 hr 24 min 48 sec) 
Heartbeat CPU  0 instructions:  401000001 cycles: 3771965577 heartbeat IPC: 0.07804 cumulative IPC: 0.08216 (Simulation time: 0 hr 24 min 53 sec) 
Heartbeat CPU  0 instructions:  402000001 cycles: 3784406767 heartbeat IPC: 0.08038 cumulative IPC: 0.08216 (Simulation time: 0 hr 24 min 57 sec) 
Heartbeat CPU  0 instructions:  403000000 cycles: 3797551733 heartbeat IPC: 0.07607 cumulative IPC: 0.08213 (Simulation time: 0 hr 25 min 1 sec) 
Heartbeat CPU  0 instructions:  404000000 cycles: 3811992225 heartbeat IPC: 0.06925 cumulative IPC: 0.08208 (Simulation time: 0 hr 25 min 6 sec) 
Heartbeat CPU  0 instructions:  405000001 cycles: 3828278340 heartbeat IPC: 0.06140 cumulative IPC: 0.08199 (Simulation time: 0 hr 25 min 12 sec) 
Heartbeat CPU  0 instructions:  406000002 cycles: 3840619567 heartbeat IPC: 0.08103 cumulative IPC: 0.08199 (Simulation time: 0 hr 25 min 16 sec) 
Heartbeat CPU  0 instructions:  407000000 cycles: 3853029731 heartbeat IPC: 0.08058 cumulative IPC: 0.08198 (Simulation time: 0 hr 25 min 21 sec) 
Heartbeat CPU  0 instructions:  408000000 cycles: 3866078208 heartbeat IPC: 0.07664 cumulative IPC: 0.08197 (Simulation time: 0 hr 25 min 25 sec) 
Heartbeat CPU  0 instructions:  409000001 cycles: 3879955974 heartbeat IPC: 0.07206 cumulative IPC: 0.08193 (Simulation time: 0 hr 25 min 30 sec) 
Heartbeat CPU  0 instructions:  410000000 cycles: 3893727538 heartbeat IPC: 0.07261 cumulative IPC: 0.08190 (Simulation time: 0 hr 25 min 34 sec) 
Heartbeat CPU  0 instructions:  411000000 cycles: 3906770593 heartbeat IPC: 0.07667 cumulative IPC: 0.08188 (Simulation time: 0 hr 25 min 38 sec) 
Heartbeat CPU  0 instructions:  412000000 cycles: 3920443278 heartbeat IPC: 0.07314 cumulative IPC: 0.08185 (Simulation time: 0 hr 25 min 43 sec) 
Heartbeat CPU  0 instructions:  413000002 cycles: 3934087590 heartbeat IPC: 0.07329 cumulative IPC: 0.08182 (Simulation time: 0 hr 25 min 47 sec) 
Heartbeat CPU  0 instructions:  414000001 cycles: 3951239967 heartbeat IPC: 0.05830 cumulative IPC: 0.08171 (Simulation time: 0 hr 25 min 53 sec) 
Heartbeat CPU  0 instructions:  415000001 cycles: 3960289214 heartbeat IPC: 0.11051 cumulative IPC: 0.08178 (Simulation time: 0 hr 25 min 57 sec) 
Heartbeat CPU  0 instructions:  416000000 cycles: 3967879746 heartbeat IPC: 0.13174 cumulative IPC: 0.08188 (Simulation time: 0 hr 26 min 1 sec) 
Heartbeat CPU  0 instructions:  417000000 cycles: 3975159505 heartbeat IPC: 0.13737 cumulative IPC: 0.08198 (Simulation time: 0 hr 26 min 4 sec) 
Heartbeat CPU  0 instructions:  418000000 cycles: 3992492608 heartbeat IPC: 0.05769 cumulative IPC: 0.08187 (Simulation time: 0 hr 26 min 10 sec) 
Heartbeat CPU  0 instructions:  419000000 cycles: 4000536487 heartbeat IPC: 0.12432 cumulative IPC: 0.08196 (Simulation time: 0 hr 26 min 14 sec) 
Heartbeat CPU  0 instructions:  420000000 cycles: 4007565573 heartbeat IPC: 0.14227 cumulative IPC: 0.08207 (Simulation time: 0 hr 26 min 18 sec) 
Heartbeat CPU  0 instructions:  421000000 cycles: 4023388985 heartbeat IPC: 0.06320 cumulative IPC: 0.08199 (Simulation time: 0 hr 26 min 23 sec) 
Heartbeat CPU  0 instructions:  422000003 cycles: 4035403007 heartbeat IPC: 0.08324 cumulative IPC: 0.08200 (Simulation time: 0 hr 26 min 28 sec) 
Heartbeat CPU  0 instructions:  423000000 cycles: 4049102103 heartbeat IPC: 0.07300 cumulative IPC: 0.08197 (Simulation time: 0 hr 26 min 33 sec) 
Heartbeat CPU  0 instructions:  424000000 cycles: 4056323037 heartbeat IPC: 0.13849 cumulative IPC: 0.08207 (Simulation time: 0 hr 26 min 37 sec) 
Heartbeat CPU  0 instructions:  425000000 cycles: 4062189236 heartbeat IPC: 0.17047 cumulative IPC: 0.08220 (Simulation time: 0 hr 26 min 40 sec) 
Heartbeat CPU  0 instructions:  426000000 cycles: 4074574197 heartbeat IPC: 0.08074 cumulative IPC: 0.08220 (Simulation time: 0 hr 26 min 45 sec) 
Heartbeat CPU  0 instructions:  427000003 cycles: 4087154270 heartbeat IPC: 0.07949 cumulative IPC: 0.08219 (Simulation time: 0 hr 26 min 50 sec) 
Heartbeat CPU  0 instructions:  428000000 cycles: 4094019926 heartbeat IPC: 0.14565 cumulative IPC: 0.08230 (Simulation time: 0 hr 26 min 54 sec) 
Heartbeat CPU  0 instructions:  429000000 cycles: 4102703213 heartbeat IPC: 0.11516 cumulative IPC: 0.08237 (Simulation time: 0 hr 26 min 57 sec) 
Heartbeat CPU  0 instructions:  430000001 cycles: 4115042819 heartbeat IPC: 0.08104 cumulative IPC: 0.08236 (Simulation time: 0 hr 27 min 2 sec) 
Heartbeat CPU  0 instructions:  431000001 cycles: 4130733154 heartbeat IPC: 0.06373 cumulative IPC: 0.08229 (Simulation time: 0 hr 27 min 7 sec) 
Heartbeat CPU  0 instructions:  432000000 cycles: 4140654490 heartbeat IPC: 0.10079 cumulative IPC: 0.08234 (Simulation time: 0 hr 27 min 11 sec) 
Heartbeat CPU  0 instructions:  433000001 cycles: 4152672405 heartbeat IPC: 0.08321 cumulative IPC: 0.08234 (Simulation time: 0 hr 27 min 15 sec) 
Heartbeat CPU  0 instructions:  434000000 cycles: 4164413856 heartbeat IPC: 0.08517 cumulative IPC: 0.08235 (Simulation time: 0 hr 27 min 19 sec) 
Heartbeat CPU  0 instructions:  435000000 cycles: 4176541215 heartbeat IPC: 0.08246 cumulative IPC: 0.08235 (Simulation time: 0 hr 27 min 24 sec) 
Heartbeat CPU  0 instructions:  436000000 cycles: 4192580610 heartbeat IPC: 0.06235 cumulative IPC: 0.08227 (Simulation time: 0 hr 27 min 29 sec) 
Heartbeat CPU  0 instructions:  437000001 cycles: 4206921969 heartbeat IPC: 0.06973 cumulative IPC: 0.08223 (Simulation time: 0 hr 27 min 34 sec) 
Heartbeat CPU  0 instructions:  438000000 cycles: 4220070970 heartbeat IPC: 0.07605 cumulative IPC: 0.08221 (Simulation time: 0 hr 27 min 39 sec) 
Heartbeat CPU  0 instructions:  439000001 cycles: 4232688030 heartbeat IPC: 0.07926 cumulative IPC: 0.08220 (Simulation time: 0 hr 27 min 43 sec) 
Heartbeat CPU  0 instructions:  440000000 cycles: 4245798892 heartbeat IPC: 0.07627 cumulative IPC: 0.08218 (Simulation time: 0 hr 27 min 47 sec) 
Heartbeat CPU  0 instructions:  441000000 cycles: 4257430857 heartbeat IPC: 0.08597 cumulative IPC: 0.08219 (Simulation time: 0 hr 27 min 52 sec) 
Heartbeat CPU  0 instructions:  442000001 cycles: 4269705023 heartbeat IPC: 0.08147 cumulative IPC: 0.08219 (Simulation time: 0 hr 27 min 56 sec) 
Heartbeat CPU  0 instructions:  443000002 cycles: 4283789939 heartbeat IPC: 0.07100 cumulative IPC: 0.08215 (Simulation time: 0 hr 28 min 1 sec) 
Heartbeat CPU  0 instructions:  444000000 cycles: 4299643160 heartbeat IPC: 0.06308 cumulative IPC: 0.08208 (Simulation time: 0 hr 28 min 6 sec) 
Heartbeat CPU  0 instructions:  445000001 cycles: 4311632934 heartbeat IPC: 0.08340 cumulative IPC: 0.08208 (Simulation time: 0 hr 28 min 11 sec) 
Heartbeat CPU  0 instructions:  446000001 cycles: 4323690494 heartbeat IPC: 0.08294 cumulative IPC: 0.08208 (Simulation time: 0 hr 28 min 15 sec) 
Heartbeat CPU  0 instructions:  447000000 cycles: 4337164601 heartbeat IPC: 0.07422 cumulative IPC: 0.08206 (Simulation time: 0 hr 28 min 20 sec) 
Heartbeat CPU  0 instructions:  448000000 cycles: 4349297993 heartbeat IPC: 0.08242 cumulative IPC: 0.08206 (Simulation time: 0 hr 28 min 24 sec) 
Heartbeat CPU  0 instructions:  449000001 cycles: 4363970948 heartbeat IPC: 0.06815 cumulative IPC: 0.08201 (Simulation time: 0 hr 28 min 29 sec) 
Heartbeat CPU  0 instructions:  450000000 cycles: 4379087103 heartbeat IPC: 0.06615 cumulative IPC: 0.08195 (Simulation time: 0 hr 28 min 34 sec) 
Heartbeat CPU  0 instructions:  451000002 cycles: 4391541169 heartbeat IPC: 0.08030 cumulative IPC: 0.08195 (Simulation time: 0 hr 28 min 39 sec) 
Heartbeat CPU  0 instructions:  452000000 cycles: 4404154550 heartbeat IPC: 0.07928 cumulative IPC: 0.08194 (Simulation time: 0 hr 28 min 43 sec) 
Heartbeat CPU  0 instructions:  453000000 cycles: 4416044612 heartbeat IPC: 0.08410 cumulative IPC: 0.08195 (Simulation time: 0 hr 28 min 47 sec) 
Heartbeat CPU  0 instructions:  454000003 cycles: 4428419898 heartbeat IPC: 0.08081 cumulative IPC: 0.08194 (Simulation time: 0 hr 28 min 51 sec) 
Heartbeat CPU  0 instructions:  455000000 cycles: 4441709289 heartbeat IPC: 0.07525 cumulative IPC: 0.08192 (Simulation time: 0 hr 28 min 56 sec) 
Heartbeat CPU  0 instructions:  456000000 cycles: 4455101327 heartbeat IPC: 0.07467 cumulative IPC: 0.08190 (Simulation time: 0 hr 29 min 1 sec) 
Heartbeat CPU  0 instructions:  457000001 cycles: 4471997858 heartbeat IPC: 0.05918 cumulative IPC: 0.08181 (Simulation time: 0 hr 29 min 7 sec) 
Heartbeat CPU  0 instructions:  458000000 cycles: 4486166802 heartbeat IPC: 0.07058 cumulative IPC: 0.08178 (Simulation time: 0 hr 29 min 11 sec) 
Heartbeat CPU  0 instructions:  459000003 cycles: 4499038170 heartbeat IPC: 0.07769 cumulative IPC: 0.08177 (Simulation time: 0 hr 29 min 15 sec) 
Heartbeat CPU  0 instructions:  460000000 cycles: 4512345700 heartbeat IPC: 0.07515 cumulative IPC: 0.08175 (Simulation time: 0 hr 29 min 20 sec) 
Heartbeat CPU  0 instructions:  461000002 cycles: 4529283926 heartbeat IPC: 0.05904 cumulative IPC: 0.08166 (Simulation time: 0 hr 29 min 25 sec) 
Heartbeat CPU  0 instructions:  462000000 cycles: 4542317094 heartbeat IPC: 0.07673 cumulative IPC: 0.08164 (Simulation time: 0 hr 29 min 29 sec) 
Heartbeat CPU  0 instructions:  463000000 cycles: 4555883810 heartbeat IPC: 0.07371 cumulative IPC: 0.08162 (Simulation time: 0 hr 29 min 34 sec) 
Heartbeat CPU  0 instructions:  464000000 cycles: 4569970041 heartbeat IPC: 0.07099 cumulative IPC: 0.08159 (Simulation time: 0 hr 29 min 39 sec) 
Heartbeat CPU  0 instructions:  465000000 cycles: 4584248325 heartbeat IPC: 0.07004 cumulative IPC: 0.08155 (Simulation time: 0 hr 29 min 44 sec) 
Heartbeat CPU  0 instructions:  466000000 cycles: 4597237856 heartbeat IPC: 0.07699 cumulative IPC: 0.08154 (Simulation time: 0 hr 29 min 48 sec) 
Heartbeat CPU  0 instructions:  467000003 cycles: 4614428899 heartbeat IPC: 0.05817 cumulative IPC: 0.08145 (Simulation time: 0 hr 29 min 55 sec) 
Heartbeat CPU  0 instructions:  468000000 cycles: 4628213816 heartbeat IPC: 0.07254 cumulative IPC: 0.08142 (Simulation time: 0 hr 30 min 0 sec) 
Heartbeat CPU  0 instructions:  469000000 cycles: 4640794917 heartbeat IPC: 0.07948 cumulative IPC: 0.08141 (Simulation time: 0 hr 30 min 5 sec) 
Heartbeat CPU  0 instructions:  470000001 cycles: 4653880789 heartbeat IPC: 0.07642 cumulative IPC: 0.08140 (Simulation time: 0 hr 30 min 10 sec) 
Heartbeat CPU  0 instructions:  471000000 cycles: 4668096865 heartbeat IPC: 0.07034 cumulative IPC: 0.08137 (Simulation time: 0 hr 30 min 15 sec) 
Heartbeat CPU  0 instructions:  472000000 cycles: 4682147696 heartbeat IPC: 0.07117 cumulative IPC: 0.08133 (Simulation time: 0 hr 30 min 20 sec) 
Heartbeat CPU  0 instructions:  473000001 cycles: 4695796653 heartbeat IPC: 0.07327 cumulative IPC: 0.08131 (Simulation time: 0 hr 30 min 25 sec) 
Heartbeat CPU  0 instructions:  474000000 cycles: 4708875456 heartbeat IPC: 0.07646 cumulative IPC: 0.08130 (Simulation time: 0 hr 30 min 30 sec) 
Heartbeat CPU  0 instructions:  475000001 cycles: 4722914623 heartbeat IPC: 0.07123 cumulative IPC: 0.08127 (Simulation time: 0 hr 30 min 35 sec) 
Heartbeat CPU  0 instructions:  476000000 cycles: 4737150487 heartbeat IPC: 0.07025 cumulative IPC: 0.08123 (Simulation time: 0 hr 30 min 40 sec) 
Heartbeat CPU  0 instructions:  477000000 cycles: 4750725561 heartbeat IPC: 0.07366 cumulative IPC: 0.08121 (Simulation time: 0 hr 30 min 45 sec) 
Heartbeat CPU  0 instructions:  478000002 cycles: 4765074042 heartbeat IPC: 0.06969 cumulative IPC: 0.08117 (Simulation time: 0 hr 30 min 50 sec) 
Heartbeat CPU  0 instructions:  479000000 cycles: 4782023151 heartbeat IPC: 0.05900 cumulative IPC: 0.08109 (Simulation time: 0 hr 30 min 57 sec) 
Heartbeat CPU  0 instructions:  480000000 cycles: 4794663895 heartbeat IPC: 0.07911 cumulative IPC: 0.08109 (Simulation time: 0 hr 31 min 1 sec) 
Heartbeat CPU  0 instructions:  481000000 cycles: 4806266057 heartbeat IPC: 0.08619 cumulative IPC: 0.08110 (Simulation time: 0 hr 31 min 6 sec) 
Heartbeat CPU  0 instructions:  482000000 cycles: 4819070109 heartbeat IPC: 0.07810 cumulative IPC: 0.08109 (Simulation time: 0 hr 31 min 11 sec) 
Heartbeat CPU  0 instructions:  483000000 cycles: 4832724638 heartbeat IPC: 0.07324 cumulative IPC: 0.08107 (Simulation time: 0 hr 31 min 16 sec) 
Heartbeat CPU  0 instructions:  484000000 cycles: 4846597027 heartbeat IPC: 0.07209 cumulative IPC: 0.08104 (Simulation time: 0 hr 31 min 21 sec) 
Heartbeat CPU  0 instructions:  485000001 cycles: 4859976774 heartbeat IPC: 0.07474 cumulative IPC: 0.08103 (Simulation time: 0 hr 31 min 25 sec) 
Heartbeat CPU  0 instructions:  486000000 cycles: 4873701181 heartbeat IPC: 0.07286 cumulative IPC: 0.08100 (Simulation time: 0 hr 31 min 30 sec) 
Heartbeat CPU  0 instructions:  487000002 cycles: 4886689560 heartbeat IPC: 0.07699 cumulative IPC: 0.08099 (Simulation time: 0 hr 31 min 35 sec) 
Heartbeat CPU  0 instructions:  488000000 cycles: 4903079241 heartbeat IPC: 0.06101 cumulative IPC: 0.08092 (Simulation time: 0 hr 31 min 41 sec) 
Heartbeat CPU  0 instructions:  489000000 cycles: 4918306380 heartbeat IPC: 0.06567 cumulative IPC: 0.08088 (Simulation time: 0 hr 31 min 46 sec) 
Heartbeat CPU  0 instructions:  490000000 cycles: 4930913605 heartbeat IPC: 0.07932 cumulative IPC: 0.08087 (Simulation time: 0 hr 31 min 51 sec) 
Heartbeat CPU  0 instructions:  491000000 cycles: 4944147892 heartbeat IPC: 0.07556 cumulative IPC: 0.08086 (Simulation time: 0 hr 31 min 56 sec) 
Heartbeat CPU  0 instructions:  492000000 cycles: 4957057701 heartbeat IPC: 0.07746 cumulative IPC: 0.08085 (Simulation time: 0 hr 32 min 1 sec) 
Heartbeat CPU  0 instructions:  493000000 cycles: 4970213127 heartbeat IPC: 0.07601 cumulative IPC: 0.08083 (Simulation time: 0 hr 32 min 6 sec) 
Heartbeat CPU  0 instructions:  494000001 cycles: 4983888220 heartbeat IPC: 0.07313 cumulative IPC: 0.08081 (Simulation time: 0 hr 32 min 11 sec) 
Heartbeat CPU  0 instructions:  495000000 cycles: 4997293132 heartbeat IPC: 0.07460 cumulative IPC: 0.08080 (Simulation time: 0 hr 32 min 17 sec) 
Heartbeat CPU  0 instructions:  496000000 cycles: 5010341676 heartbeat IPC: 0.07664 cumulative IPC: 0.08078 (Simulation time: 0 hr 32 min 23 sec) 
Heartbeat CPU  0 instructions:  497000001 cycles: 5023366195 heartbeat IPC: 0.07678 cumulative IPC: 0.08077 (Simulation time: 0 hr 32 min 29 sec) 
Heartbeat CPU  0 instructions:  498000000 cycles: 5035821073 heartbeat IPC: 0.08029 cumulative IPC: 0.08077 (Simulation time: 0 hr 32 min 34 sec) 
Heartbeat CPU  0 instructions:  499000000 cycles: 5050524404 heartbeat IPC: 0.06801 cumulative IPC: 0.08074 (Simulation time: 0 hr 32 min 40 sec) 
Heartbeat CPU  0 instructions:  500000000 cycles: 5066718555 heartbeat IPC: 0.06175 cumulative IPC: 0.08067 (Simulation time: 0 hr 32 min 46 sec) 
Heartbeat CPU  0 instructions:  501000000 cycles: 5079874124 heartbeat IPC: 0.07601 cumulative IPC: 0.08066 (Simulation time: 0 hr 32 min 51 sec) 
Heartbeat CPU  0 instructions:  502000000 cycles: 5093640042 heartbeat IPC: 0.07264 cumulative IPC: 0.08064 (Simulation time: 0 hr 32 min 56 sec) 
Heartbeat CPU  0 instructions:  503000000 cycles: 5107661578 heartbeat IPC: 0.07132 cumulative IPC: 0.08061 (Simulation time: 0 hr 33 min 1 sec) 
Heartbeat CPU  0 instructions:  504000000 cycles: 5121544122 heartbeat IPC: 0.07203 cumulative IPC: 0.08059 (Simulation time: 0 hr 33 min 9 sec) 
Heartbeat CPU  0 instructions:  505000002 cycles: 5135253281 heartbeat IPC: 0.07294 cumulative IPC: 0.08057 (Simulation time: 0 hr 33 min 16 sec) 
Heartbeat CPU  0 instructions:  506000000 cycles: 5149253460 heartbeat IPC: 0.07143 cumulative IPC: 0.08054 (Simulation time: 0 hr 33 min 22 sec) 
Heartbeat CPU  0 instructions:  507000001 cycles: 5163178205 heartbeat IPC: 0.07181 cumulative IPC: 0.08052 (Simulation time: 0 hr 33 min 26 sec) 
Heartbeat CPU  0 instructions:  508000000 cycles: 5176724976 heartbeat IPC: 0.07382 cumulative IPC: 0.08050 (Simulation time: 0 hr 33 min 31 sec) 
Heartbeat CPU  0 instructions:  509000000 cycles: 5189833211 heartbeat IPC: 0.07629 cumulative IPC: 0.08049 (Simulation time: 0 hr 33 min 36 sec) 
Heartbeat CPU  0 instructions:  510000000 cycles: 5203585718 heartbeat IPC: 0.07271 cumulative IPC: 0.08047 (Simulation time: 0 hr 33 min 40 sec) 
Heartbeat CPU  0 instructions:  511000000 cycles: 5216941467 heartbeat IPC: 0.07487 cumulative IPC: 0.08045 (Simulation time: 0 hr 33 min 45 sec) 
Heartbeat CPU  0 instructions:  512000000 cycles: 5230385053 heartbeat IPC: 0.07438 cumulative IPC: 0.08044 (Simulation time: 0 hr 33 min 49 sec) 
Heartbeat CPU  0 instructions:  513000001 cycles: 5243933203 heartbeat IPC: 0.07381 cumulative IPC: 0.08042 (Simulation time: 0 hr 33 min 54 sec) 
Heartbeat CPU  0 instructions:  514000001 cycles: 5261247739 heartbeat IPC: 0.05775 cumulative IPC: 0.08034 (Simulation time: 0 hr 34 min 0 sec) 
Heartbeat CPU  0 instructions:  515000000 cycles: 5275167614 heartbeat IPC: 0.07184 cumulative IPC: 0.08032 (Simulation time: 0 hr 34 min 5 sec) 
Heartbeat CPU  0 instructions:  516000000 cycles: 5289149885 heartbeat IPC: 0.07152 cumulative IPC: 0.08030 (Simulation time: 0 hr 34 min 9 sec) 
Heartbeat CPU  0 instructions:  517000001 cycles: 5303259724 heartbeat IPC: 0.07087 cumulative IPC: 0.08027 (Simulation time: 0 hr 34 min 14 sec) 
Heartbeat CPU  0 instructions:  518000003 cycles: 5317808491 heartbeat IPC: 0.06873 cumulative IPC: 0.08024 (Simulation time: 0 hr 34 min 19 sec) 
Heartbeat CPU  0 instructions:  519000003 cycles: 5331881812 heartbeat IPC: 0.07106 cumulative IPC: 0.08022 (Simulation time: 0 hr 34 min 23 sec) 
Heartbeat CPU  0 instructions:  520000000 cycles: 5345225609 heartbeat IPC: 0.07494 cumulative IPC: 0.08020 (Simulation time: 0 hr 34 min 28 sec) 
Heartbeat CPU  0 instructions:  521000000 cycles: 5358442659 heartbeat IPC: 0.07566 cumulative IPC: 0.08019 (Simulation time: 0 hr 34 min 32 sec) 
Heartbeat CPU  0 instructions:  522000000 cycles: 5372755864 heartbeat IPC: 0.06987 cumulative IPC: 0.08016 (Simulation time: 0 hr 34 min 37 sec) 
Heartbeat CPU  0 instructions:  523000001 cycles: 5386915007 heartbeat IPC: 0.07063 cumulative IPC: 0.08014 (Simulation time: 0 hr 34 min 41 sec) 
Heartbeat CPU  0 instructions:  524000000 cycles: 5400660017 heartbeat IPC: 0.07275 cumulative IPC: 0.08012 (Simulation time: 0 hr 34 min 46 sec) 
Heartbeat CPU  0 instructions:  525000000 cycles: 5414535042 heartbeat IPC: 0.07207 cumulative IPC: 0.08010 (Simulation time: 0 hr 34 min 50 sec) 
Heartbeat CPU  0 instructions:  526000000 cycles: 5428172015 heartbeat IPC: 0.07333 cumulative IPC: 0.08008 (Simulation time: 0 hr 34 min 55 sec) 
Heartbeat CPU  0 instructions:  527000000 cycles: 5442767279 heartbeat IPC: 0.06852 cumulative IPC: 0.08005 (Simulation time: 0 hr 35 min 0 sec) 
Heartbeat CPU  0 instructions:  528000000 cycles: 5456877084 heartbeat IPC: 0.07087 cumulative IPC: 0.08002 (Simulation time: 0 hr 35 min 4 sec) 
[...]
Heartbeat CPU  0 instructions:  552000000 cycles: 5758551093 heartbeat IPC: 0.06515 cumulative IPC: 0.08000 (Simulation time: 0 hr 36 min 53 sec) 
Heartbeat CPU  0 instructions:  553000000 cycles: 5767775583 heartbeat IPC: 0.10841 cumulative IPC: 0.08004 (Simulation time: 0 hr 36 min 56 sec) 
Heartbeat CPU  0 instructions:  554000000 cycles: 5776561413 heartbeat IPC: 0.11382 cumulative IPC: 0.08010 (Simulation time: 0 hr 37 min 0 sec) 
Heartbeat CPU  0 instructions:  555000000 cycles: 5790095262 heartbeat IPC: 0.07389 cumulative IPC: 0.08008 (Simulation time: 0 hr 37 min 5 sec) 
Heartbeat CPU  0 instructions:  556000000 cycles: 5803836996 heartbeat IPC: 0.07277 cumulative IPC: 0.08006 (Simulation time: 0 hr 37 min 10 sec) 
Heartbeat CPU  0 instructions:  557000000 cycles: 5813401762 heartbeat IPC: 0.10455 cumulative IPC: 0.08011 (Simulation time: 0 hr 37 min 14 sec) 
Heartbeat CPU  0 instructions:  558000000 cycles: 5822361601 heartbeat IPC: 0.11161 cumulative IPC: 0.08016 (Simulation time: 0 hr 37 min 17 sec) 
Heartbeat CPU  0 instructions:  559000000 cycles: 5836904594 heartbeat IPC: 0.06876 cumulative IPC: 0.08013 (Simulation time: 0 hr 37 min 22 sec) 
Heartbeat CPU  0 instructions:  560000000 cycles: 5847654089 heartbeat IPC: 0.09303 cumulative IPC: 0.08015 (Simulation time: 0 hr 37 min 27 sec) 
Heartbeat CPU  0 instructions:  561000003 cycles: 5856237993 heartbeat IPC: 0.11650 cumulative IPC: 0.08020 (Simulation time: 0 hr 37 min 31 sec) 
Heartbeat CPU  0 instructions:  562000003 cycles: 5865257535 heartbeat IPC: 0.11087 cumulative IPC: 0.08025 (Simulation time: 0 hr 37 min 34 sec) 
Heartbeat CPU  0 instructions:  563000002 cycles: 5880414340 heartbeat IPC: 0.06598 cumulative IPC: 0.08022 (Simulation time: 0 hr 37 min 40 sec) 
Heartbeat CPU  0 instructions:  564000000 cycles: 5892073763 heartbeat IPC: 0.08577 cumulative IPC: 0.08023 (Simulation time: 0 hr 37 min 44 sec) 
Heartbeat CPU  0 instructions:  565000000 cycles: 5901092608 heartbeat IPC: 0.11088 cumulative IPC: 0.08027 (Simulation time: 0 hr 37 min 48 sec) 
Heartbeat CPU  0 instructions:  566000002 cycles: 5912024327 heartbeat IPC: 0.09148 cumulative IPC: 0.08030 (Simulation time: 0 hr 37 min 52 sec) 
Heartbeat CPU  0 instructions:  567000000 cycles: 5927732272 heartbeat IPC: 0.06366 cumulative IPC: 0.08025 (Simulation time: 0 hr 37 min 57 sec) 
Heartbeat CPU  0 instructions:  568000000 cycles: 5937523613 heartbeat IPC: 0.10213 cumulative IPC: 0.08029 (Simulation time: 0 hr 38 min 1 sec) 
Heartbeat CPU  0 instructions:  569000001 cycles: 5947079974 heartbeat IPC: 0.10464 cumulative IPC: 0.08033 (Simulation time: 0 hr 38 min 5 sec) 
Heartbeat CPU  0 instructions:  570000003 cycles: 5961001902 heartbeat IPC: 0.07183 cumulative IPC: 0.08031 (Simulation time: 0 hr 38 min 10 sec) 
Heartbeat CPU  0 instructions:  571000000 cycles: 5973902266 heartbeat IPC: 0.07752 cumulative IPC: 0.08030 (Simulation time: 0 hr 38 min 15 sec) 
Heartbeat CPU  0 instructions:  572000000 cycles: 5982872108 heartbeat IPC: 0.11148 cumulative IPC: 0.08035 (Simulation time: 0 hr 38 min 18 sec) 
Heartbeat CPU  0 instructions:  573000001 cycles: 5991809381 heartbeat IPC: 0.11189 cumulative IPC: 0.08040 (Simulation time: 0 hr 38 min 22 sec) 
Heartbeat CPU  0 instructions:  574000003 cycles: 6009231184 heartbeat IPC: 0.05740 cumulative IPC: 0.08033 (Simulation time: 0 hr 38 min 28 sec) 
Heartbeat CPU  0 instructions:  575000000 cycles: 6018217826 heartbeat IPC: 0.11128 cumulative IPC: 0.08038 (Simulation time: 0 hr 38 min 32 sec) 
Heartbeat CPU  0 instructions:  576000000 cycles: 6027008588 heartbeat IPC: 0.11376 cumulative IPC: 0.08042 (Simulation time: 0 hr 38 min 35 sec) 
Heartbeat CPU  0 instructions:  577000001 cycles: 6039327750 heartbeat IPC: 0.08117 cumulative IPC: 0.08043 (Simulation time: 0 hr 38 min 40 sec) 
Heartbeat CPU  0 instructions:  578000000 cycles: 6053577962 heartbeat IPC: 0.07017 cumulative IPC: 0.08040 (Simulation time: 0 hr 38 min 45 sec) 
Heartbeat CPU  0 instructions:  579000000 cycles: 6062627318 heartbeat IPC: 0.11051 cumulative IPC: 0.08045 (Simulation time: 0 hr 38 min 49 sec) 
Heartbeat CPU  0 instructions:  580000000 cycles: 6071193295 heartbeat IPC: 0.11674 cumulative IPC: 0.08050 (Simulation time: 0 hr 38 min 52 sec) 
Heartbeat CPU  0 instructions:  581000002 cycles: 6087889268 heartbeat IPC: 0.05989 cumulative IPC: 0.08044 (Simulation time: 0 hr 38 min 58 sec) 
Heartbeat CPU  0 instructions:  582000001 cycles: 6097951592 heartbeat IPC: 0.09938 cumulative IPC: 0.08047 (Simulation time: 0 hr 39 min 2 sec) 
Heartbeat CPU  0 instructions:  583000003 cycles: 6106945740 heartbeat IPC: 0.11118 cumulative IPC: 0.08052 (Simulation time: 0 hr 39 min 6 sec) 
Heartbeat CPU  0 instructions:  584000000 cycles: 6119073792 heartbeat IPC: 0.08245 cumulative IPC: 0.08052 (Simulation time: 0 hr 39 min 10 sec) 
Heartbeat CPU  0 instructions:  585000000 cycles: 6133868519 heartbeat IPC: 0.06759 cumulative IPC: 0.08049 (Simulation time: 0 hr 39 min 15 sec) 
Heartbeat CPU  0 instructions:  586000001 cycles: 6142515320 heartbeat IPC: 0.11565 cumulative IPC: 0.08054 (Simulation time: 0 hr 39 min 19 sec) 
Heartbeat CPU  0 instructions:  587000000 cycles: 6150813032 heartbeat IPC: 0.12052 cumulative IPC: 0.08060 (Simulation time: 0 hr 39 min 22 sec) 
Heartbeat CPU  0 instructions:  588000000 cycles: 6166897625 heartbeat IPC: 0.06217 cumulative IPC: 0.08055 (Simulation time: 0 hr 39 min 28 sec) 
Heartbeat CPU  0 instructions:  589000000 cycles: 6177110100 heartbeat IPC: 0.09792 cumulative IPC: 0.08058 (Simulation time: 0 hr 39 min 32 sec) 
Heartbeat CPU  0 instructions:  590000001 cycles: 6185411278 heartbeat IPC: 0.12046 cumulative IPC: 0.08063 (Simulation time: 0 hr 39 min 36 sec) 
Heartbeat CPU  0 instructions:  591000003 cycles: 6196586753 heartbeat IPC: 0.08948 cumulative IPC: 0.08065 (Simulation time: 0 hr 39 min 40 sec) 
Heartbeat CPU  0 instructions:  592000000 cycles: 6211458162 heartbeat IPC: 0.06724 cumulative IPC: 0.08062 (Simulation time: 0 hr 39 min 45 sec) 
Heartbeat CPU  0 instructions:  593000000 cycles: 6219974482 heartbeat IPC: 0.11742 cumulative IPC: 0.08067 (Simulation time: 0 hr 39 min 49 sec) 
Heartbeat CPU  0 instructions:  594000001 cycles: 6228179978 heartbeat IPC: 0.12187 cumulative IPC: 0.08072 (Simulation time: 0 hr 39 min 52 sec) 
Heartbeat CPU  0 instructions:  595000003 cycles: 6243969248 heartbeat IPC: 0.06333 cumulative IPC: 0.08068 (Simulation time: 0 hr 39 min 58 sec) 
Heartbeat CPU  0 instructions:  596000000 cycles: 6254590612 heartbeat IPC: 0.09415 cumulative IPC: 0.08070 (Simulation time: 0 hr 40 min 2 sec) 
Heartbeat CPU  0 instructions:  597000000 cycles: 6262749301 heartbeat IPC: 0.12257 cumulative IPC: 0.08076 (Simulation time: 0 hr 40 min 5 sec) 
Heartbeat CPU  0 instructions:  598000001 cycles: 6273052481 heartbeat IPC: 0.09706 cumulative IPC: 0.08078 (Simulation time: 0 hr 40 min 9 sec) 
Heartbeat CPU  0 instructions:  599000000 cycles: 6288837567 heartbeat IPC: 0.06335 cumulative IPC: 0.08074 (Simulation time: 0 hr 40 min 15 sec) 
Heartbeat CPU  0 instructions:  600000000 cycles: 6297296149 heartbeat IPC: 0.11822 cumulative IPC: 0.08079 (Simulation time: 0 hr 40 min 19 sec) 
Finished CPU 0 instructions: 500000000 cycles: 6188857742 cumulative IPC: 0.08079 (Simulation time: 0 hr 40 min 19 sec) 

ChampSim completed all CPUs

[ROI Statistics]
Core_0_instructions 500000000
Core_0_cycles 6188857742
Core_0_IPC 0.08079

Core_0_branch_prediction_accuracy 93.42004
Core_0_branch_MPKI 15.82262
Core_0_average_ROB_occupancy_at_mispredict 57.56598

Core_0_L1D_total_access 121332507
Core_0_L1D_total_hit 56623790
Core_0_L1D_total_miss 64708717
Core_0_L1D_loads 105761660
Core_0_L1D_load_hit 41886225
Core_0_L1D_load_miss 63875435
Core_0_L1D_RFOs 15570847
Core_0_L1D_RFO_hit 14737565
Core_0_L1D_RFO_miss 833282
Core_0_L1D_prefetches 0
Core_0_L1D_prefetch_hit 0
Core_0_L1D_prefetch_miss 0
Core_0_L1D_writebacks 0
Core_0_L1D_writeback_hit 0
Core_0_L1D_writeback_miss 0
Core_0_L1D_prefetch_requested 0
Core_0_L1D_prefetch_dropped 0
Core_0_L1D_prefetch_issued 0
Core_0_L1D_prefetch_filled 0
Core_0_L1D_prefetch_useful 0
Core_0_L1D_prefetch_useless 0
Core_0_L1D_prefetch_late 0
Core_0_L1D_average_miss_latency 168.72044

Core_0_L1D_rq_access 160983926
Core_0_L1D_rq_forward 0
Core_0_L1D_rq_merged 54869942
Core_0_L1D_rq_to_cache 106113984
Core_0_L1D_rq_full 0

Core_0_L1D_wq_access 16623469
Core_0_L1D_wq_forward 0
Core_0_L1D_wq_merged 945265
Core_0_L1D_wq_to_cache 15678204
Core_0_L1D_wq_full 0

Core_0_L1D_pq_access 0
Core_0_L1D_pq_forward 0
Core_0_L1D_pq_merged 0
Core_0_L1D_pq_to_cache 0
Core_0_L1D_pq_full 0

Core_0_L1D_acc_epochs 5738685
Core_0_L1D_acc_level_0 5738685
Core_0_L1D_acc_level_1 0
Core_0_L1D_acc_level_2 0
Core_0_L1D_acc_level_3 0
Core_0_L1D_acc_level_4 0
Core_0_L1D_acc_level_5 0
Core_0_L1D_acc_level_6 0
Core_0_L1D_acc_level_7 0
Core_0_L1D_acc_level_8 0
Core_0_L1D_acc_level_9 0

Core_0_L1I_total_access 104179016
Core_0_L1I_total_hit 104179016
Core_0_L1I_total_miss 0
Core_0_L1I_loads 104179016
Core_0_L1I_load_hit 104179016
Core_0_L1I_load_miss 0
Core_0_L1I_RFOs 0
Core_0_L1I_RFO_hit 0
Core_0_L1I_RFO_miss 0
Core_0_L1I_prefetches 0
Core_0_L1I_prefetch_hit 0
Core_0_L1I_prefetch_miss 0
Core_0_L1I_writebacks 0
Core_0_L1I_writeback_hit 0
Core_0_L1I_writeback_miss 0
Core_0_L1I_prefetch_requested 0
Core_0_L1I_prefetch_dropped 0
Core_0_L1I_prefetch_issued 0
Core_0_L1I_prefetch_filled 0
Core_0_L1I_prefetch_useful 0
Core_0_L1I_prefetch_useless 0
Core_0_L1I_prefetch_late 0
Core_0_L1I_average_miss_latency -nan

Core_0_L1I_rq_access 500000052
Core_0_L1I_rq_forward 0
Core_0_L1I_rq_merged 395821036
Core_0_L1I_rq_to_cache 104179016
Core_0_L1I_rq_full 0

Core_0_L1I_wq_access 0
Core_0_L1I_wq_forward 0
Core_0_L1I_wq_merged 0
Core_0_L1I_wq_to_cache 0
Core_0_L1I_wq_full 0

Core_0_L1I_pq_access 0
Core_0_L1I_pq_forward 0
Core_0_L1I_pq_merged 0
Core_0_L1I_pq_to_cache 0
Core_0_L1I_pq_full 0

Core_0_L1I_acc_epochs 5738685
Core_0_L1I_acc_level_0 5738685
Core_0_L1I_acc_level_1 0
Core_0_L1I_acc_level_2 0
Core_0_L1I_acc_level_3 0
Core_0_L1I_acc_level_4 0
Core_0_L1I_acc_level_5 0
Core_0_L1I_acc_level_6 0
Core_0_L1I_acc_level_7 0
Core_0_L1I_acc_level_8 0
Core_0_L1I_acc_level_9 0

Core_0_L2C_total_access 76000730
Core_0_L2C_total_hit 27242921
Core_0_L2C_total_miss 48757809
Core_0_L2C_loads 63875114
Core_0_L2C_load_hit 15865761
Core_0_L2C_load_miss 48009353
Core_0_L2C_RFOs 833273
Core_0_L2C_RFO_hit 293994
Core_0_L2C_RFO_miss 539279
Core_0_L2C_prefetches 2600968
Core_0_L2C_prefetch_hit 2392628
Core_0_L2C_prefetch_miss 208340
Core_0_L2C_writebacks 8691375
Core_0_L2C_writeback_hit 8690538
Core_0_L2C_writeback_miss 837
Core_0_L2C_prefetch_requested 8434478
Core_0_L2C_prefetch_dropped 0
Core_0_L2C_prefetch_issued 8434478
Core_0_L2C_prefetch_filled 209133
Core_0_L2C_prefetch_useful 5185
Core_0_L2C_prefetch_useless 203948
Core_0_L2C_prefetch_late 76
Core_0_L2C_average_miss_latency 203.13242

Core_0_L2C_rq_access 64708717
Core_0_L2C_rq_forward 0
Core_0_L2C_rq_merged 0
Core_0_L2C_rq_to_cache 64708387
Core_0_L2C_rq_full 0

Core_0_L2C_wq_access 8691375
Core_0_L2C_wq_forward 338
Core_0_L2C_wq_merged 0
Core_0_L2C_wq_to_cache 8691375
Core_0_L2C_wq_full 0

Core_0_L2C_pq_access 8434478
Core_0_L2C_pq_forward 0
Core_0_L2C_pq_merged 77886
Core_0_L2C_pq_to_cache 8356584
Core_0_L2C_pq_full 0

Core_0_L2C_acc_epochs 5738685
Core_0_L2C_acc_level_0 5735437
Core_0_L2C_acc_level_1 2168
Core_0_L2C_acc_level_2 654
Core_0_L2C_acc_level_3 116
Core_0_L2C_acc_level_4 20
Core_0_L2C_acc_level_5 269
Core_0_L2C_acc_level_6 11
Core_0_L2C_acc_level_7 1
Core_0_L2C_acc_level_8 1
Core_0_L2C_acc_level_9 8

Core_0_LLC_total_access 59472729
Core_0_LLC_total_hit 28175950
Core_0_LLC_total_miss 31296779
Core_0_LLC_loads 48009110
Core_0_LLC_load_hit 21164389
Core_0_LLC_load_miss 26844721
Core_0_LLC_RFOs 539279
Core_0_LLC_RFO_hit 216755
Core_0_LLC_RFO_miss 322524
Core_0_LLC_prefetches 4546151
Core_0_LLC_prefetch_hit 2672976
Core_0_LLC_prefetch_miss 1873175
Core_0_LLC_writebacks 6378189
Core_0_LLC_writeback_hit 4121830
Core_0_LLC_writeback_miss 2256359
Core_0_LLC_prefetch_requested 0
Core_0_LLC_prefetch_dropped 0
Core_0_LLC_prefetch_issued 0
Core_0_LLC_prefetch_filled 2040405
Core_0_LLC_prefetch_useful 396984
Core_0_LLC_prefetch_useless 1642576
Core_0_LLC_prefetch_late 2299
Core_0_LLC_average_miss_latency 280.78506

Core_0_LLC_rq_access 48548556
Core_0_LLC_rq_forward 0
Core_0_LLC_rq_merged 0
Core_0_LLC_rq_to_cache 48548389
Core_0_LLC_rq_full 0

Core_0_LLC_wq_access 6378189
Core_0_LLC_wq_forward 173
Core_0_LLC_wq_merged 0
Core_0_LLC_wq_to_cache 6378189
Core_0_LLC_wq_full 0

Core_0_LLC_pq_access 4797210
Core_0_LLC_pq_forward 0
Core_0_LLC_pq_merged 34
Core_0_LLC_pq_to_cache 4797170
Core_0_LLC_pq_full 0

Core_0_LLC_acc_epochs 6149704
Core_0_LLC_acc_level_0 5773710
Core_0_LLC_acc_level_1 127361
Core_0_LLC_acc_level_2 108877
Core_0_LLC_acc_level_3 21064
Core_0_LLC_acc_level_4 5468
Core_0_LLC_acc_level_5 83059
Core_0_LLC_acc_level_6 9477
Core_0_LLC_acc_level_7 6630
Core_0_LLC_acc_level_8 2164
Core_0_LLC_acc_level_9 11894

Core_0_major_page_fault 0
Core_0_minor_page_fault 289215

spp.pref.total 8434478
spp.pref.at_L2 383805
spp.pref.at_LLC 8050673

spp.depth.max 5
spp.depth.min 0
spp.depth.avg 0

spp.breadth.max 2
spp.breadth.min 0
spp.breadth.avg 0

delta_1 4142840
delta_-1 3486623
delta_-2 1430809
delta_2 41983
delta_14 36850
delta_-7 14913
delta_6 12034
delta_-22 9729
delta_-4 6106
delta_25 5998
delta_3 5488
delta_27 4964
delta_4 4584
delta_-25 4557
delta_-24 4495
delta_-27 4354
delta_26 4171
delta_17 4128
delta_29 4106
delta_-18 3905
delta_-46 3660
delta_-8 3525
delta_-19 3473
delta_5 3352
delta_-43 3196
delta_15 3168
delta_-9 3109
delta_16 2987
delta_9 2938
delta_-37 2937
delta_-11 2831
delta_-29 2699
delta_-30 2623
delta_-14 2613
delta_11 2472
delta_21 2384
delta_7 2169
delta_-5 2148
delta_8 2145
delta_-12 1953
delta_19 1896
delta_-3 1749
delta_31 1709
delta_-45 1696
delta_-41 1692
delta_22 1684
delta_28 1665
delta_30 1558
delta_-32 1462
delta_-6 1459
delta_-31 1445
delta_-15 1418
delta_12 1397
delta_41 1395
delta_-16 1346
delta_-23 1256
delta_-10 1243
delta_-17 1222
delta_-53 1200
delta_-39 1147
delta_37 1137
delta_18 1114
delta_42 1085
delta_40 1084
delta_10 1045
delta_-59 980
delta_-20 931
delta_43 904
delta_13 897
delta_-42 882
delta_24 863
delta_-33 849
delta_-21 781
delta_-28 740
delta_-38 727
delta_-34 710
delta_46 680
delta_45 661
delta_-13 586
delta_39 556
delta_48 547
delta_34 546
delta_-48 540
delta_23 502
delta_38 440
delta_33 419
delta_47 411
delta_-35 411
delta_35 401
delta_-61 372
delta_-36 362
delta_-52 335
delta_59 306
delta_20 292
delta_-56 270
delta_36 264
delta_32 262
delta_-50 251
delta_44 250
delta_-26 249
delta_51 233
delta_62 201
delta_50 193
delta_53 137
delta_-40 125
delta_57 125
delta_-47 99
delta_52 74
delta_49 69
delta_-44 67
delta_54 49
delta_-49 39
delta_63 29
delta_-62 26
delta_-57 12
delta_55 11
delta_58 9
delta_60 9
delta_56 7
delta_-51 4
delta_-54 1

depth_1_delta_1 3910598
depth_1_delta_-1 3460329
depth_1_delta_-2 1426954
depth_1_delta_2 41604
depth_1_delta_14 36335
depth_1_delta_-7 14634
depth_1_delta_6 11436
depth_1_delta_-22 9082
depth_1_delta_-4 5950
depth_1_delta_25 5549
depth_1_delta_3 5337
depth_1_delta_27 4934
depth_1_delta_4 4422
depth_1_delta_-25 4380
depth_1_delta_-27 4167
depth_1_delta_-24 4151
depth_1_delta_17 4124
depth_1_delta_29 3993
depth_1_delta_-18 3905
depth_1_delta_-46 3500
depth_1_delta_-19 3467
depth_1_delta_-8 3453
depth_1_delta_26 3354
depth_1_delta_5 3132
depth_1_delta_-43 3024
depth_1_delta_-9 2985
depth_1_delta_15 2980
depth_1_delta_-37 2935
depth_1_delta_9 2835
depth_1_delta_16 2693
depth_1_delta_-14 2601
depth_1_delta_-11 2496
depth_1_delta_-29 2307
depth_1_delta_11 2182
depth_1_delta_-30 2134
depth_1_delta_-5 2097
depth_1_delta_21 2075
depth_1_delta_8 2075
depth_1_delta_19 1856
depth_1_delta_7 1769
depth_1_delta_-3 1748
depth_1_delta_-12 1672
depth_1_delta_28 1655
depth_1_delta_-45 1624
depth_1_delta_31 1608
depth_1_delta_22 1551
depth_1_delta_-41 1518
depth_1_delta_30 1518
depth_1_delta_-32 1460
depth_1_delta_-6 1452
depth_1_delta_-31 1427
depth_1_delta_12 1369
depth_1_delta_-16 1327
depth_1_delta_-15 1303
depth_1_delta_41 1293
depth_1_delta_-10 1239
depth_1_delta_-53 1200
depth_1_delta_-17 1196
depth_1_delta_-39 1102
depth_1_delta_37 1073
depth_1_delta_-23 1057
depth_1_delta_18 1050
depth_1_delta_10 1044
depth_1_delta_-59 980
depth_1_delta_-20 920
depth_1_delta_42 909
depth_1_delta_43 904
depth_1_delta_40 901
depth_1_delta_13 897
depth_1_delta_24 854
depth_1_delta_-42 837
depth_1_delta_-33 832
depth_1_delta_-21 734
depth_1_delta_-28 732
depth_1_delta_-38 725
depth_1_delta_-34 710
depth_1_delta_46 680
depth_1_delta_45 653
depth_1_delta_-13 586
depth_1_delta_39 556
depth_1_delta_48 547
depth_1_delta_-48 540
depth_1_delta_23 454
depth_1_delta_34 445
depth_1_delta_-35 402
depth_1_delta_38 402
depth_1_delta_35 400
depth_1_delta_33 380
depth_1_delta_47 375
depth_1_delta_-61 372
depth_1_delta_-36 362
depth_1_delta_-52 326
depth_1_delta_59 306
depth_1_delta_20 282
depth_1_delta_-56 270
depth_1_delta_36 263
depth_1_delta_32 262
depth_1_delta_-50 251
depth_1_delta_-26 249
depth_1_delta_44 240
depth_1_delta_51 215
depth_1_delta_62 201
depth_1_delta_50 191
depth_1_delta_53 137
depth_1_delta_57 125
depth_1_delta_-40 122
depth_1_delta_-47 99
depth_1_delta_52 74
depth_1_delta_49 69
depth_1_delta_-44 67
depth_1_delta_54 49
depth_1_delta_-49 39
depth_1_delta_63 29
depth_1_delta_-62 26
depth_1_delta_-57 12
depth_1_delta_55 11
depth_1_delta_58 9
depth_1_delta_60 9
depth_1_delta_56 7
depth_1_delta_-51 4
depth_1_delta_-54 1
depth_2_delta_1 232182
depth_2_delta_-1 25258
depth_2_delta_-2 3835
depth_2_delta_26 759
depth_2_delta_-22 647
depth_2_delta_6 598
depth_2_delta_14 515
depth_2_delta_-30 464
depth_2_delta_25 449
depth_2_delta_7 397
depth_2_delta_-29 392
depth_2_delta_2 365
depth_2_delta_-24 344
depth_2_delta_-11 324
depth_2_delta_21 309
depth_2_delta_16 292
depth_2_delta_11 290
depth_2_delta_-12 281
depth_2_delta_-7 279
depth_2_delta_5 220
depth_2_delta_-23 199
depth_2_delta_40 183
depth_2_delta_15 182
depth_2_delta_-27 180
depth_2_delta_-25 177
depth_2_delta_42 176
depth_2_delta_-41 174
depth_2_delta_-43 172
depth_2_delta_4 162
depth_2_delta_-46 160
depth_2_delta_-4 156
depth_2_delta_3 151
depth_2_delta_22 133
depth_2_delta_-9 124
depth_2_delta_-15 115
depth_2_delta_29 113
depth_2_delta_9 103
depth_2_delta_41 102
depth_2_delta_31 101
depth_2_delta_34 95
depth_2_delta_-8 72
depth_2_delta_-45 71
depth_2_delta_8 70
depth_2_delta_18 64
depth_2_delta_37 64
depth_2_delta_-5 51
depth_2_delta_23 48
depth_2_delta_-21 47
depth_2_delta_-39 45
depth_2_delta_-42 45
depth_2_delta_30 40
depth_2_delta_19 40
depth_2_delta_33 39
depth_2_delta_38 38
depth_2_delta_47 36
depth_2_delta_27 30
depth_2_delta_12 28
depth_2_delta_-17 26
depth_2_delta_-16 19
depth_2_delta_51 18
depth_2_delta_-31 18
depth_2_delta_-33 17
depth_2_delta_-14 12
depth_2_delta_-20 11
depth_2_delta_20 10
depth_2_delta_44 10
depth_2_delta_28 10
depth_2_delta_-35 9
depth_2_delta_-52 9
depth_2_delta_24 9
depth_2_delta_-28 8
depth_2_delta_45 8
depth_2_delta_-6 7
depth_2_delta_-19 6
depth_2_delta_17 4
depth_2_delta_-10 4
depth_2_delta_-40 3
depth_2_delta_-32 2
depth_2_delta_-37 2
depth_2_delta_-38 2
depth_2_delta_50 2
depth_2_delta_-3 1
depth_2_delta_10 1
depth_2_delta_36 1
depth_2_delta_35 1
depth_3_delta_-1 1033
depth_3_delta_1 60
depth_3_delta_26 47
depth_3_delta_-30 25
depth_3_delta_-2 20
depth_3_delta_2 14
depth_3_delta_-11 11
depth_3_delta_-27 7
depth_3_delta_34 6
depth_3_delta_15 6
depth_3_delta_7 3
depth_3_delta_16 2
depth_3_delta_-45 1
depth_4_delta_26 11
depth_4_delta_-1 2
depth_5_delta_-1 1

Channel_0_RQ_row_buffer_hit 502907
Channel_0_RQ_row_buffer_miss 28536497
Channel_0_WQ_row_buffer_hit 1603556
Channel_0_WQ_row_buffer_miss 2762667
Channel_0_WQ_full 0
Channel_0_dbus_congested 5329288

avg_congested_cycle 9

DRAM_bw_pochs 24598814
DRAM_bw_level_0 22641728
DRAM_bw_level_1 1952149
DRAM_bw_level_2 4743
DRAM_bw_level_3 194
