*************************************************
   ChampSim Multicore Out-of-Order Simulator
   Last compiled: Dec 11 2024 17:59:53
*************************************************
parsing config file: /home/functionmain/桌面/Pythia/config/nopref.ini

trace_0 /home/functionmain/桌面/Pythia/traces/429.mcf-192B.champsimtrace.xz
adding L2C_PREFETCHER: NONE
Initialize SHIP state
warmup_instructions 100000000
simulation_instructions 500000000
champsim_seed 222
measure_ipc 0
measure_ipc_epoch 1000
measure_dram_bw 1
measure_dram_bw_epoch 256
measure_cache_acc 1
measure_cache_acc_epoch 1024
l1d_perfect 0
l2c_perfect 0
llc_perfect 0
l1d_semi_perfect 0
l2c_semi_perfect 0
llc_semi_perfect 0
semi_perfect_cache_page_buffer_size 64

num_cpus 1
cpu_freq 4000
dram_io_freq 1200
page_size 4096
block_size 64
max_read_per_cycle 8
max_fill_per_cycle 1
dram_channels 1
log2_dram_channels 0
dram_ranks 1
dram_banks 8
dram_rows 65536
dram_columns 128
dram_row_size 8
dram_size 4096
dram_pages 1048576

fetch_width 6
decode_width 6
exec_width 4
lq_width 2
sq_width 2
retire_width 4
scheduler_size 128
branch_mispredict_penalty 20
rob_size 256
lq_size 72
sq_size 56
num_instr_destinations_sparc 4
num_instr_destinations 2
num_instr_sources 4

itlb_set 16
itlb_way 8
itlb_rq_size 16
itlb_wq_size 16
itlb_pq_size 0
itlb_mshr_size 8
itlb_latency 1

dtlb_set 16
dtlb_way 4
dtlb_rq_size 16
dtlb_wq_size 16
dtlb_pq_size 0
dtlb_mshr_size 8
dtlb_latency 1

stlb_set 128
stlb_way 12
stlb_rq_size 32
stlb_wq_size 32
stlb_pq_size 0
stlb_mshr_size 16
stlb_latency 8

l1i_size 32
l1i_set 64
l1i_way 8
l1i_rq_size 64
l1i_wq_size 64
l1i_pq_size 8
l1i_mshr_size 8
l1i_latency 1

l1d_size 32
l1d_set 64
l1d_way 8
l1d_rq_size 64
l1d_wq_size 64
l1d_pq_size 8
l1d_mshr_size 16
l1d_latency 4

l2c_size 256
l2c_set 512
l2c_way 8
l2c_rq_size 32
l2c_wq_size 32
l2c_pq_size 32
l2c_mshr_size 32
l2c_latency 10

llc_size 2048
llc_set 2048
llc_way 16
llc_rq_size 32
llc_wq_size 32
llc_pq_size 32
llc_mshr_size 64
llc_latency 20

dram_channel_width 8
dram_wq_size 64
dram_rq_size 64
tRP 15
tRCD 15
tCAS 12.5
dram_dbus_turn_around_time 30
dram_write_high_wm 56
dram_write_low_wm 48
min_dram_writes_per_switch 16
dram_mtps 1200
dram_dbus_return_time 26


Heartbeat CPU  0 instructions:    1000002 cycles:    1178218 heartbeat IPC: 0.84874 cumulative IPC: 0.84874 (Simulation time: 0 hr 0 min 1 sec) 
Heartbeat CPU  0 instructions:    2000002 cycles:    2361928 heartbeat IPC: 0.84480 cumulative IPC: 0.84677 (Simulation time: 0 hr 0 min 2 sec) 
Heartbeat CPU  0 instructions:    3000000 cycles:    3526486 heartbeat IPC: 0.85869 cumulative IPC: 0.85071 (Simulation time: 0 hr 0 min 4 sec) 
Heartbeat CPU  0 instructions:    4000000 cycles:    4666903 heartbeat IPC: 0.87687 cumulative IPC: 0.85710 (Simulation time: 0 hr 0 min 5 sec) 
Heartbeat CPU  0 instructions:    5000001 cycles:    5826102 heartbeat IPC: 0.86267 cumulative IPC: 0.85821 (Simulation time: 0 hr 0 min 6 sec) 
Heartbeat CPU  0 instructions:    6000000 cycles:    6980348 heartbeat IPC: 0.86637 cumulative IPC: 0.85956 (Simulation time: 0 hr 0 min 7 sec) 
Heartbeat CPU  0 instructions:    7000000 cycles:    8153325 heartbeat IPC: 0.85253 cumulative IPC: 0.85855 (Simulation time: 0 hr 0 min 8 sec) 
Heartbeat CPU  0 instructions:    8000000 cycles:    9310751 heartbeat IPC: 0.86399 cumulative IPC: 0.85922 (Simulation time: 0 hr 0 min 10 sec) 
Heartbeat CPU  0 instructions:    9000002 cycles:   10477805 heartbeat IPC: 0.85686 cumulative IPC: 0.85896 (Simulation time: 0 hr 0 min 11 sec) 
Heartbeat CPU  0 instructions:   10000000 cycles:   11642039 heartbeat IPC: 0.85893 cumulative IPC: 0.85896 (Simulation time: 0 hr 0 min 12 sec) 
Heartbeat CPU  0 instructions:   11000003 cycles:   12779736 heartbeat IPC: 0.87897 cumulative IPC: 0.86074 (Simulation time: 0 hr 0 min 13 sec) 
Heartbeat CPU  0 instructions:   12000000 cycles:   13892090 heartbeat IPC: 0.89899 cumulative IPC: 0.86380 (Simulation time: 0 hr 0 min 14 sec) 
Heartbeat CPU  0 instructions:   13000001 cycles:   15034693 heartbeat IPC: 0.87520 cumulative IPC: 0.86467 (Simulation time: 0 hr 0 min 16 sec) 
Heartbeat CPU  0 instructions:   14000000 cycles:   16185949 heartbeat IPC: 0.86862 cumulative IPC: 0.86495 (Simulation time: 0 hr 0 min 17 sec) 
Heartbeat CPU  0 instructions:   15000000 cycles:   17351375 heartbeat IPC: 0.85806 cumulative IPC: 0.86448 (Simulation time: 0 hr 0 min 18 sec) 
Heartbeat CPU  0 instructions:   16000000 cycles:   18519289 heartbeat IPC: 0.85623 cumulative IPC: 0.86396 (Simulation time: 0 hr 0 min 19 sec) 
Heartbeat CPU  0 instructions:   17000001 cycles:   19694267 heartbeat IPC: 0.85108 cumulative IPC: 0.86320 (Simulation time: 0 hr 0 min 20 sec) 
Heartbeat CPU  0 instructions:   18000000 cycles:   20865212 heartbeat IPC: 0.85401 cumulative IPC: 0.86268 (Simulation time: 0 hr 0 min 22 sec) 
Heartbeat CPU  0 instructions:   19000003 cycles:   22020711 heartbeat IPC: 0.86543 cumulative IPC: 0.86282 (Simulation time: 0 hr 0 min 23 sec) 
Heartbeat CPU  0 instructions:   20000000 cycles:   23169514 heartbeat IPC: 0.87047 cumulative IPC: 0.86320 (Simulation time: 0 hr 0 min 24 sec) 
Heartbeat CPU  0 instructions:   21000000 cycles:   24325969 heartbeat IPC: 0.86471 cumulative IPC: 0.86327 (Simulation time: 0 hr 0 min 25 sec) 
Heartbeat CPU  0 instructions:   22000003 cycles:   25486882 heartbeat IPC: 0.86139 cumulative IPC: 0.86319 (Simulation time: 0 hr 0 min 26 sec) 
Heartbeat CPU  0 instructions:   23000001 cycles:   26632589 heartbeat IPC: 0.87282 cumulative IPC: 0.86360 (Simulation time: 0 hr 0 min 28 sec) 
Heartbeat CPU  0 instructions:   24000000 cycles:   27778348 heartbeat IPC: 0.87278 cumulative IPC: 0.86398 (Simulation time: 0 hr 0 min 29 sec) 
Heartbeat CPU  0 instructions:   25000001 cycles:   28923651 heartbeat IPC: 0.87313 cumulative IPC: 0.86434 (Simulation time: 0 hr 0 min 30 sec) 
Heartbeat CPU  0 instructions:   26000000 cycles:   30075396 heartbeat IPC: 0.86825 cumulative IPC: 0.86449 (Simulation time: 0 hr 0 min 31 sec) 
Heartbeat CPU  0 instructions:   27000000 cycles:   31227503 heartbeat IPC: 0.86797 cumulative IPC: 0.86462 (Simulation time: 0 hr 0 min 32 sec) 
Heartbeat CPU  0 instructions:   28000000 cycles:   32357243 heartbeat IPC: 0.88516 cumulative IPC: 0.86534 (Simulation time: 0 hr 0 min 34 sec) 
Heartbeat CPU  0 instructions:   29000000 cycles:   33531189 heartbeat IPC: 0.85183 cumulative IPC: 0.86487 (Simulation time: 0 hr 0 min 35 sec) 
Heartbeat CPU  0 instructions:   30000002 cycles:   34704138 heartbeat IPC: 0.85255 cumulative IPC: 0.86445 (Simulation time: 0 hr 0 min 36 sec) 
Heartbeat CPU  0 instructions:   31000002 cycles:   35883706 heartbeat IPC: 0.84777 cumulative IPC: 0.86390 (Simulation time: 0 hr 0 min 37 sec) 
Heartbeat CPU  0 instructions:   32000000 cycles:   37049094 heartbeat IPC: 0.85808 cumulative IPC: 0.86372 (Simulation time: 0 hr 0 min 38 sec) 
Heartbeat CPU  0 instructions:   33000000 cycles:   38211645 heartbeat IPC: 0.86018 cumulative IPC: 0.86361 (Simulation time: 0 hr 0 min 40 sec) 
Heartbeat CPU  0 instructions:   34000002 cycles:   39370715 heartbeat IPC: 0.86276 cumulative IPC: 0.86359 (Simulation time: 0 hr 0 min 41 sec) 
Heartbeat CPU  0 instructions:   35000000 cycles:   40542067 heartbeat IPC: 0.85371 cumulative IPC: 0.86330 (Simulation time: 0 hr 0 min 42 sec) 
Heartbeat CPU  0 instructions:   36000000 cycles:   41724824 heartbeat IPC: 0.84548 cumulative IPC: 0.86280 (Simulation time: 0 hr 0 min 43 sec) 
Heartbeat CPU  0 instructions:   37000001 cycles:   42900874 heartbeat IPC: 0.85030 cumulative IPC: 0.86245 (Simulation time: 0 hr 0 min 44 sec) 
Heartbeat CPU  0 instructions:   38000000 cycles:   44063275 heartbeat IPC: 0.86029 cumulative IPC: 0.86240 (Simulation time: 0 hr 0 min 46 sec) 
Heartbeat CPU  0 instructions:   39000000 cycles:   45224894 heartbeat IPC: 0.86087 cumulative IPC: 0.86236 (Simulation time: 0 hr 0 min 47 sec) 
Heartbeat CPU  0 instructions:   40000000 cycles:   46381258 heartbeat IPC: 0.86478 cumulative IPC: 0.86242 (Simulation time: 0 hr 0 min 48 sec) 
Heartbeat CPU  0 instructions:   41000001 cycles:   47583715 heartbeat IPC: 0.83163 cumulative IPC: 0.86164 (Simulation time: 0 hr 0 min 49 sec) 
Heartbeat CPU  0 instructions:   42000000 cycles:   48770518 heartbeat IPC: 0.84260 cumulative IPC: 0.86118 (Simulation time: 0 hr 0 min 50 sec) 
Heartbeat CPU  0 instructions:   43000000 cycles:   49950614 heartbeat IPC: 0.84739 cumulative IPC: 0.86085 (Simulation time: 0 hr 0 min 52 sec) 
Heartbeat CPU  0 instructions:   44000000 cycles:   51111272 heartbeat IPC: 0.86158 cumulative IPC: 0.86087 (Simulation time: 0 hr 0 min 53 sec) 
Heartbeat CPU  0 instructions:   45000000 cycles:   52270860 heartbeat IPC: 0.86238 cumulative IPC: 0.86090 (Simulation time: 0 hr 0 min 54 sec) 
Heartbeat CPU  0 instructions:   46000002 cycles:   53406396 heartbeat IPC: 0.88064 cumulative IPC: 0.86132 (Simulation time: 0 hr 0 min 55 sec) 
Heartbeat CPU  0 instructions:   47000000 cycles:   54562380 heartbeat IPC: 0.86506 cumulative IPC: 0.86140 (Simulation time: 0 hr 0 min 56 sec) 
Heartbeat CPU  0 instructions:   48000000 cycles:   55716222 heartbeat IPC: 0.86667 cumulative IPC: 0.86151 (Simulation time: 0 hr 0 min 58 sec) 
Heartbeat CPU  0 instructions:   49000001 cycles:   56874943 heartbeat IPC: 0.86302 cumulative IPC: 0.86154 (Simulation time: 0 hr 0 min 59 sec) 
Heartbeat CPU  0 instructions:   50000002 cycles:   58015185 heartbeat IPC: 0.87701 cumulative IPC: 0.86184 (Simulation time: 0 hr 1 min 0 sec) 
Heartbeat CPU  0 instructions:   51000000 cycles:   59150681 heartbeat IPC: 0.88067 cumulative IPC: 0.86220 (Simulation time: 0 hr 1 min 1 sec) 
Heartbeat CPU  0 instructions:   52000000 cycles:   60282375 heartbeat IPC: 0.88363 cumulative IPC: 0.86261 (Simulation time: 0 hr 1 min 2 sec) 
Heartbeat CPU  0 instructions:   53000001 cycles:   61411111 heartbeat IPC: 0.88595 cumulative IPC: 0.86304 (Simulation time: 0 hr 1 min 4 sec) 
Heartbeat CPU  0 instructions:   54000000 cycles:   62539122 heartbeat IPC: 0.88652 cumulative IPC: 0.86346 (Simulation time: 0 hr 1 min 5 sec) 
Heartbeat CPU  0 instructions:   55000001 cycles:   63667693 heartbeat IPC: 0.88608 cumulative IPC: 0.86386 (Simulation time: 0 hr 1 min 6 sec) 
Heartbeat CPU  0 instructions:   56000000 cycles:   64820143 heartbeat IPC: 0.86772 cumulative IPC: 0.86393 (Simulation time: 0 hr 1 min 7 sec) 
Heartbeat CPU  0 instructions:   57000000 cycles:   65962205 heartbeat IPC: 0.87561 cumulative IPC: 0.86413 (Simulation time: 0 hr 1 min 8 sec) 
Heartbeat CPU  0 instructions:   58000003 cycles:   67112713 heartbeat IPC: 0.86918 cumulative IPC: 0.86422 (Simulation time: 0 hr 1 min 10 sec) 
Heartbeat CPU  0 instructions:   59000003 cycles:   68273818 heartbeat IPC: 0.86125 cumulative IPC: 0.86417 (Simulation time: 0 hr 1 min 11 sec) 
Heartbeat CPU  0 instructions:   60000000 cycles:   69442572 heartbeat IPC: 0.85561 cumulative IPC: 0.86402 (Simulation time: 0 hr 1 min 12 sec) 
Heartbeat CPU  0 instructions:   61000002 cycles:   70622975 heartbeat IPC: 0.84717 cumulative IPC: 0.86374 (Simulation time: 0 hr 1 min 13 sec) 
Heartbeat CPU  0 instructions:   62000000 cycles:   71803201 heartbeat IPC: 0.84729 cumulative IPC: 0.86347 (Simulation time: 0 hr 1 min 14 sec) 
Heartbeat CPU  0 instructions:   63000000 cycles:   72995701 heartbeat IPC: 0.83857 cumulative IPC: 0.86306 (Simulation time: 0 hr 1 min 16 sec) 
Heartbeat CPU  0 instructions:   64000000 cycles:   74191900 heartbeat IPC: 0.83598 cumulative IPC: 0.86263 (Simulation time: 0 hr 1 min 17 sec) 
Heartbeat CPU  0 instructions:   65000000 cycles:   75391454 heartbeat IPC: 0.83364 cumulative IPC: 0.86217 (Simulation time: 0 hr 1 min 18 sec) 
Heartbeat CPU  0 instructions:   66000002 cycles:   76587891 heartbeat IPC: 0.83582 cumulative IPC: 0.86176 (Simulation time: 0 hr 1 min 19 sec) 
Heartbeat CPU  0 instructions:   67000001 cycles:   77771147 heartbeat IPC: 0.84512 cumulative IPC: 0.86150 (Simulation time: 0 hr 1 min 20 sec) 
Heartbeat CPU  0 instructions:   68000000 cycles:   78950196 heartbeat IPC: 0.84814 cumulative IPC: 0.86130 (Simulation time: 0 hr 1 min 22 sec) 
Heartbeat CPU  0 instructions:   69000001 cycles:   80128770 heartbeat IPC: 0.84848 cumulative IPC: 0.86111 (Simulation time: 0 hr 1 min 23 sec) 
Heartbeat CPU  0 instructions:   70000001 cycles:   81306862 heartbeat IPC: 0.84883 cumulative IPC: 0.86094 (Simulation time: 0 hr 1 min 24 sec) 
Heartbeat CPU  0 instructions:   71000003 cycles:   82479484 heartbeat IPC: 0.85279 cumulative IPC: 0.86082 (Simulation time: 0 hr 1 min 25 sec) 
Heartbeat CPU  0 instructions:   72000000 cycles:   83644247 heartbeat IPC: 0.85854 cumulative IPC: 0.86079 (Simulation time: 0 hr 1 min 26 sec) 
Heartbeat CPU  0 instructions:   73000000 cycles:   84821560 heartbeat IPC: 0.84939 cumulative IPC: 0.86063 (Simulation time: 0 hr 1 min 27 sec) 
Heartbeat CPU  0 instructions:   74000000 cycles:   86001846 heartbeat IPC: 0.84725 cumulative IPC: 0.86045 (Simulation time: 0 hr 1 min 29 sec) 
Heartbeat CPU  0 instructions:   75000001 cycles:   87154632 heartbeat IPC: 0.86746 cumulative IPC: 0.86054 (Simulation time: 0 hr 1 min 30 sec) 
Heartbeat CPU  0 instructions:   76000000 cycles:   88216079 heartbeat IPC: 0.94211 cumulative IPC: 0.86152 (Simulation time: 0 hr 1 min 31 sec) 
Heartbeat CPU  0 instructions:   77000000 cycles:   89206197 heartbeat IPC: 1.00998 cumulative IPC: 0.86317 (Simulation time: 0 hr 1 min 33 sec) 
Heartbeat CPU  0 instructions:   78000001 cycles:   90392155 heartbeat IPC: 0.84320 cumulative IPC: 0.86291 (Simulation time: 0 hr 1 min 34 sec) 
Heartbeat CPU  0 instructions:   79000003 cycles:   91580384 heartbeat IPC: 0.84159 cumulative IPC: 0.86263 (Simulation time: 0 hr 1 min 35 sec) 
Heartbeat CPU  0 instructions:   80000000 cycles:   92774673 heartbeat IPC: 0.83732 cumulative IPC: 0.86230 (Simulation time: 0 hr 1 min 36 sec) 
Heartbeat CPU  0 instructions:   81000003 cycles:   93949768 heartbeat IPC: 0.85100 cumulative IPC: 0.86216 (Simulation time: 0 hr 1 min 37 sec) 
Heartbeat CPU  0 instructions:   82000003 cycles:   95125048 heartbeat IPC: 0.85086 cumulative IPC: 0.86202 (Simulation time: 0 hr 1 min 39 sec) 
Heartbeat CPU  0 instructions:   83000003 cycles:   96291912 heartbeat IPC: 0.85700 cumulative IPC: 0.86196 (Simulation time: 0 hr 1 min 40 sec) 
Heartbeat CPU  0 instructions:   84000000 cycles:   97450181 heartbeat IPC: 0.86335 cumulative IPC: 0.86198 (Simulation time: 0 hr 1 min 41 sec) 
Heartbeat CPU  0 instructions:   85000001 cycles:   98610573 heartbeat IPC: 0.86178 cumulative IPC: 0.86198 (Simulation time: 0 hr 1 min 42 sec) 
Heartbeat CPU  0 instructions:   86000000 cycles:   99752437 heartbeat IPC: 0.87576 cumulative IPC: 0.86213 (Simulation time: 0 hr 1 min 43 sec) 
Heartbeat CPU  0 instructions:   87000001 cycles:  100914581 heartbeat IPC: 0.86048 cumulative IPC: 0.86212 (Simulation time: 0 hr 1 min 45 sec) 
Heartbeat CPU  0 instructions:   88000000 cycles:  102053870 heartbeat IPC: 0.87774 cumulative IPC: 0.86229 (Simulation time: 0 hr 1 min 46 sec) 
Heartbeat CPU  0 instructions:   89000000 cycles:  103220763 heartbeat IPC: 0.85698 cumulative IPC: 0.86223 (Simulation time: 0 hr 1 min 47 sec) 
Heartbeat CPU  0 instructions:   90000000 cycles:  104348677 heartbeat IPC: 0.88659 cumulative IPC: 0.86249 (Simulation time: 0 hr 1 min 48 sec) 
Heartbeat CPU  0 instructions:   91000003 cycles:  105471411 heartbeat IPC: 0.89069 cumulative IPC: 0.86279 (Simulation time: 0 hr 1 min 49 sec) 
Heartbeat CPU  0 instructions:   92000000 cycles:  106592673 heartbeat IPC: 0.89185 cumulative IPC: 0.86310 (Simulation time: 0 hr 1 min 51 sec) 
Heartbeat CPU  0 instructions:   93000002 cycles:  107713274 heartbeat IPC: 0.89238 cumulative IPC: 0.86340 (Simulation time: 0 hr 1 min 52 sec) 
Heartbeat CPU  0 instructions:   94000001 cycles:  108840658 heartbeat IPC: 0.88701 cumulative IPC: 0.86365 (Simulation time: 0 hr 1 min 53 sec) 
Heartbeat CPU  0 instructions:   95000001 cycles:  109995472 heartbeat IPC: 0.86594 cumulative IPC: 0.86367 (Simulation time: 0 hr 1 min 54 sec) 
Heartbeat CPU  0 instructions:   96000000 cycles:  111152721 heartbeat IPC: 0.86412 cumulative IPC: 0.86368 (Simulation time: 0 hr 1 min 55 sec) 
Heartbeat CPU  0 instructions:   97000000 cycles:  112309171 heartbeat IPC: 0.86472 cumulative IPC: 0.86369 (Simulation time: 0 hr 1 min 57 sec) 
Heartbeat CPU  0 instructions:   98000001 cycles:  113454588 heartbeat IPC: 0.87305 cumulative IPC: 0.86378 (Simulation time: 0 hr 1 min 58 sec) 
Heartbeat CPU  0 instructions:   99000000 cycles:  114616799 heartbeat IPC: 0.86043 cumulative IPC: 0.86375 (Simulation time: 0 hr 1 min 59 sec) 
Heartbeat CPU  0 instructions:  100000000 cycles:  115760173 heartbeat IPC: 0.87460 cumulative IPC: 0.86385 (Simulation time: 0 hr 2 min 0 sec) 

Warmup complete CPU  0 instructions:  100000002 cycles:  115760174 (Simulation time: 0 hr 2 min 0 sec) 

Heartbeat CPU  0 instructions:  101000000 cycles:  130346740 heartbeat IPC: 0.06856 cumulative IPC: 0.06856 (Simulation time: 0 hr 2 min 5 sec) 
Heartbeat CPU  0 instructions:  102000000 cycles:  144986080 heartbeat IPC: 0.06831 cumulative IPC: 0.06843 (Simulation time: 0 hr 2 min 9 sec) 
Heartbeat CPU  0 instructions:  103000000 cycles:  159524749 heartbeat IPC: 0.06878 cumulative IPC: 0.06855 (Simulation time: 0 hr 2 min 14 sec) 
Heartbeat CPU  0 instructions:  104000000 cycles:  174332111 heartbeat IPC: 0.06753 cumulative IPC: 0.06829 (Simulation time: 0 hr 2 min 18 sec) 
Heartbeat CPU  0 instructions:  105000000 cycles:  189220328 heartbeat IPC: 0.06717 cumulative IPC: 0.06806 (Simulation time: 0 hr 2 min 23 sec) 
Heartbeat CPU  0 instructions:  106000000 cycles:  204022607 heartbeat IPC: 0.06756 cumulative IPC: 0.06798 (Simulation time: 0 hr 2 min 27 sec) 
Heartbeat CPU  0 instructions:  107000001 cycles:  218711559 heartbeat IPC: 0.06808 cumulative IPC: 0.06799 (Simulation time: 0 hr 2 min 32 sec) 
Heartbeat CPU  0 instructions:  108000000 cycles:  233492200 heartbeat IPC: 0.06766 cumulative IPC: 0.06795 (Simulation time: 0 hr 2 min 37 sec) 
Heartbeat CPU  0 instructions:  109000000 cycles:  248205744 heartbeat IPC: 0.06796 cumulative IPC: 0.06795 (Simulation time: 0 hr 2 min 41 sec) 
Heartbeat CPU  0 instructions:  110000000 cycles:  263023115 heartbeat IPC: 0.06749 cumulative IPC: 0.06791 (Simulation time: 0 hr 2 min 46 sec) 
Heartbeat CPU  0 instructions:  111000001 cycles:  277728309 heartbeat IPC: 0.06800 cumulative IPC: 0.06791 (Simulation time: 0 hr 2 min 50 sec) 
Heartbeat CPU  0 instructions:  112000000 cycles:  292569262 heartbeat IPC: 0.06738 cumulative IPC: 0.06787 (Simulation time: 0 hr 2 min 55 sec) 
Heartbeat CPU  0 instructions:  113000000 cycles:  307256494 heartbeat IPC: 0.06809 cumulative IPC: 0.06789 (Simulation time: 0 hr 2 min 59 sec) 
Heartbeat CPU  0 instructions:  114000000 cycles:  321962834 heartbeat IPC: 0.06800 cumulative IPC: 0.06789 (Simulation time: 0 hr 3 min 4 sec) 
Heartbeat CPU  0 instructions:  115000001 cycles:  336763849 heartbeat IPC: 0.06756 cumulative IPC: 0.06787 (Simulation time: 0 hr 3 min 8 sec) 
Heartbeat CPU  0 instructions:  116000000 cycles:  351475307 heartbeat IPC: 0.06797 cumulative IPC: 0.06788 (Simulation time: 0 hr 3 min 13 sec) 
Heartbeat CPU  0 instructions:  117000000 cycles:  366124019 heartbeat IPC: 0.06827 cumulative IPC: 0.06790 (Simulation time: 0 hr 3 min 18 sec) 
Heartbeat CPU  0 instructions:  118000000 cycles:  380921887 heartbeat IPC: 0.06758 cumulative IPC: 0.06788 (Simulation time: 0 hr 3 min 22 sec) 
Heartbeat CPU  0 instructions:  119000002 cycles:  395737480 heartbeat IPC: 0.06750 cumulative IPC: 0.06786 (Simulation time: 0 hr 3 min 27 sec) 
Heartbeat CPU  0 instructions:  120000000 cycles:  410459152 heartbeat IPC: 0.06793 cumulative IPC: 0.06787 (Simulation time: 0 hr 3 min 31 sec) 
Heartbeat CPU  0 instructions:  121000000 cycles:  424967980 heartbeat IPC: 0.06892 cumulative IPC: 0.06792 (Simulation time: 0 hr 3 min 36 sec) 
Heartbeat CPU  0 instructions:  122000000 cycles:  439806091 heartbeat IPC: 0.06739 cumulative IPC: 0.06789 (Simulation time: 0 hr 3 min 40 sec) 
Heartbeat CPU  0 instructions:  123000000 cycles:  454450383 heartbeat IPC: 0.06829 cumulative IPC: 0.06791 (Simulation time: 0 hr 3 min 45 sec) 
Heartbeat CPU  0 instructions:  124000000 cycles:  469243572 heartbeat IPC: 0.06760 cumulative IPC: 0.06790 (Simulation time: 0 hr 3 min 49 sec) 
Heartbeat CPU  0 instructions:  125000000 cycles:  483873467 heartbeat IPC: 0.06835 cumulative IPC: 0.06791 (Simulation time: 0 hr 3 min 54 sec) 
Heartbeat CPU  0 instructions:  126000001 cycles:  498363047 heartbeat IPC: 0.06902 cumulative IPC: 0.06796 (Simulation time: 0 hr 3 min 59 sec) 
Heartbeat CPU  0 instructions:  127000001 cycles:  512822015 heartbeat IPC: 0.06916 cumulative IPC: 0.06800 (Simulation time: 0 hr 4 min 3 sec) 
Heartbeat CPU  0 instructions:  128000000 cycles:  527156782 heartbeat IPC: 0.06976 cumulative IPC: 0.06806 (Simulation time: 0 hr 4 min 8 sec) 
Heartbeat CPU  0 instructions:  129000000 cycles:  541459386 heartbeat IPC: 0.06992 cumulative IPC: 0.06812 (Simulation time: 0 hr 4 min 12 sec) 
Heartbeat CPU  0 instructions:  130000001 cycles:  555880714 heartbeat IPC: 0.06934 cumulative IPC: 0.06816 (Simulation time: 0 hr 4 min 17 sec) 
Heartbeat CPU  0 instructions:  131000001 cycles:  570315704 heartbeat IPC: 0.06928 cumulative IPC: 0.06820 (Simulation time: 0 hr 4 min 22 sec) 
Heartbeat CPU  0 instructions:  132000000 cycles:  584829734 heartbeat IPC: 0.06890 cumulative IPC: 0.06822 (Simulation time: 0 hr 4 min 26 sec) 
Heartbeat CPU  0 instructions:  133000000 cycles:  599335477 heartbeat IPC: 0.06894 cumulative IPC: 0.06824 (Simulation time: 0 hr 4 min 31 sec) 
Heartbeat CPU  0 instructions:  134000001 cycles:  613544620 heartbeat IPC: 0.07038 cumulative IPC: 0.06830 (Simulation time: 0 hr 4 min 35 sec) 
Heartbeat CPU  0 instructions:  135000000 cycles:  627831948 heartbeat IPC: 0.06999 cumulative IPC: 0.06835 (Simulation time: 0 hr 4 min 41 sec) 
Heartbeat CPU  0 instructions:  136000000 cycles:  642464806 heartbeat IPC: 0.06834 cumulative IPC: 0.06835 (Simulation time: 0 hr 4 min 46 sec) 
Heartbeat CPU  0 instructions:  137000000 cycles:  657140717 heartbeat IPC: 0.06814 cumulative IPC: 0.06834 (Simulation time: 0 hr 4 min 51 sec) 
Heartbeat CPU  0 instructions:  138000000 cycles:  671495656 heartbeat IPC: 0.06966 cumulative IPC: 0.06838 (Simulation time: 0 hr 4 min 55 sec) 
Heartbeat CPU  0 instructions:  139000000 cycles:  686054011 heartbeat IPC: 0.06869 cumulative IPC: 0.06839 (Simulation time: 0 hr 5 min 0 sec) 
Heartbeat CPU  0 instructions:  140000000 cycles:  700832704 heartbeat IPC: 0.06766 cumulative IPC: 0.06837 (Simulation time: 0 hr 5 min 4 sec) 
Heartbeat CPU  0 instructions:  141000000 cycles:  715417780 heartbeat IPC: 0.06856 cumulative IPC: 0.06837 (Simulation time: 0 hr 5 min 9 sec) 
Heartbeat CPU  0 instructions:  142000001 cycles:  729962973 heartbeat IPC: 0.06875 cumulative IPC: 0.06838 (Simulation time: 0 hr 5 min 14 sec) 
Heartbeat CPU  0 instructions:  143000003 cycles:  744565219 heartbeat IPC: 0.06848 cumulative IPC: 0.06838 (Simulation time: 0 hr 5 min 18 sec) 
Heartbeat CPU  0 instructions:  144000000 cycles:  759112126 heartbeat IPC: 0.06874 cumulative IPC: 0.06839 (Simulation time: 0 hr 5 min 23 sec) 
Heartbeat CPU  0 instructions:  145000000 cycles:  773686400 heartbeat IPC: 0.06861 cumulative IPC: 0.06840 (Simulation time: 0 hr 5 min 27 sec) 
Heartbeat CPU  0 instructions:  146000001 cycles:  788366319 heartbeat IPC: 0.06812 cumulative IPC: 0.06839 (Simulation time: 0 hr 5 min 32 sec) 
Heartbeat CPU  0 instructions:  147000002 cycles:  802929180 heartbeat IPC: 0.06867 cumulative IPC: 0.06840 (Simulation time: 0 hr 5 min 36 sec) 
Heartbeat CPU  0 instructions:  148000000 cycles:  817538286 heartbeat IPC: 0.06845 cumulative IPC: 0.06840 (Simulation time: 0 hr 5 min 41 sec) 
Heartbeat CPU  0 instructions:  149000000 cycles:  832217083 heartbeat IPC: 0.06813 cumulative IPC: 0.06839 (Simulation time: 0 hr 5 min 46 sec) 
Heartbeat CPU  0 instructions:  150000000 cycles:  846909111 heartbeat IPC: 0.06806 cumulative IPC: 0.06839 (Simulation time: 0 hr 5 min 50 sec) 
Heartbeat CPU  0 instructions:  151000000 cycles:  861736095 heartbeat IPC: 0.06744 cumulative IPC: 0.06837 (Simulation time: 0 hr 5 min 55 sec) 
Heartbeat CPU  0 instructions:  152000000 cycles:  876429345 heartbeat IPC: 0.06806 cumulative IPC: 0.06836 (Simulation time: 0 hr 5 min 59 sec) 
Heartbeat CPU  0 instructions:  153000000 cycles:  891799611 heartbeat IPC: 0.06506 cumulative IPC: 0.06830 (Simulation time: 0 hr 6 min 4 sec) 
Heartbeat CPU  0 instructions:  154000000 cycles:  907000787 heartbeat IPC: 0.06578 cumulative IPC: 0.06825 (Simulation time: 0 hr 6 min 9 sec) 
Heartbeat CPU  0 instructions:  155000000 cycles:  921997401 heartbeat IPC: 0.06668 cumulative IPC: 0.06822 (Simulation time: 0 hr 6 min 13 sec) 
Heartbeat CPU  0 instructions:  156000000 cycles:  936912913 heartbeat IPC: 0.06704 cumulative IPC: 0.06820 (Simulation time: 0 hr 6 min 18 sec) 
Heartbeat CPU  0 instructions:  157000000 cycles:  951792701 heartbeat IPC: 0.06721 cumulative IPC: 0.06818 (Simulation time: 0 hr 6 min 22 sec) 
Heartbeat CPU  0 instructions:  158000000 cycles:  966673937 heartbeat IPC: 0.06720 cumulative IPC: 0.06816 (Simulation time: 0 hr 6 min 27 sec) 
Heartbeat CPU  0 instructions:  159000000 cycles:  981532687 heartbeat IPC: 0.06730 cumulative IPC: 0.06815 (Simulation time: 0 hr 6 min 31 sec) 
Heartbeat CPU  0 instructions:  160000000 cycles:  996434559 heartbeat IPC: 0.06711 cumulative IPC: 0.06813 (Simulation time: 0 hr 6 min 36 sec) 
Heartbeat CPU  0 instructions:  161000001 cycles: 1011346821 heartbeat IPC: 0.06706 cumulative IPC: 0.06811 (Simulation time: 0 hr 6 min 41 sec) 
Heartbeat CPU  0 instructions:  162000000 cycles: 1026259282 heartbeat IPC: 0.06706 cumulative IPC: 0.06809 (Simulation time: 0 hr 6 min 45 sec) 
Heartbeat CPU  0 instructions:  163000000 cycles: 1041083863 heartbeat IPC: 0.06746 cumulative IPC: 0.06808 (Simulation time: 0 hr 6 min 50 sec) 
Heartbeat CPU  0 instructions:  164000000 cycles: 1055772297 heartbeat IPC: 0.06808 cumulative IPC: 0.06808 (Simulation time: 0 hr 6 min 54 sec) 
Heartbeat CPU  0 instructions:  165000000 cycles: 1070464037 heartbeat IPC: 0.06807 cumulative IPC: 0.06808 (Simulation time: 0 hr 6 min 59 sec) 
Heartbeat CPU  0 instructions:  166000000 cycles: 1085192675 heartbeat IPC: 0.06789 cumulative IPC: 0.06808 (Simulation time: 0 hr 7 min 3 sec) 
Heartbeat CPU  0 instructions:  167000000 cycles: 1100000914 heartbeat IPC: 0.06753 cumulative IPC: 0.06807 (Simulation time: 0 hr 7 min 8 sec) 
Heartbeat CPU  0 instructions:  168000000 cycles: 1114705265 heartbeat IPC: 0.06801 cumulative IPC: 0.06807 (Simulation time: 0 hr 7 min 13 sec) 
Heartbeat CPU  0 instructions:  169000000 cycles: 1129437461 heartbeat IPC: 0.06788 cumulative IPC: 0.06807 (Simulation time: 0 hr 7 min 17 sec) 
Heartbeat CPU  0 instructions:  170000000 cycles: 1144318787 heartbeat IPC: 0.06720 cumulative IPC: 0.06806 (Simulation time: 0 hr 7 min 22 sec) 
Heartbeat CPU  0 instructions:  171000000 cycles: 1159148867 heartbeat IPC: 0.06743 cumulative IPC: 0.06805 (Simulation time: 0 hr 7 min 26 sec) 
Heartbeat CPU  0 instructions:  172000000 cycles: 1174009030 heartbeat IPC: 0.06729 cumulative IPC: 0.06804 (Simulation time: 0 hr 7 min 31 sec) 
Heartbeat CPU  0 instructions:  173000000 cycles: 1188749340 heartbeat IPC: 0.06784 cumulative IPC: 0.06803 (Simulation time: 0 hr 7 min 35 sec) 
Heartbeat CPU  0 instructions:  174000000 cycles: 1203189584 heartbeat IPC: 0.06925 cumulative IPC: 0.06805 (Simulation time: 0 hr 7 min 40 sec) 
Heartbeat CPU  0 instructions:  175000000 cycles: 1217604089 heartbeat IPC: 0.06937 cumulative IPC: 0.06807 (Simulation time: 0 hr 7 min 45 sec) 
Heartbeat CPU  0 instructions:  176000000 cycles: 1232109095 heartbeat IPC: 0.06894 cumulative IPC: 0.06808 (Simulation time: 0 hr 7 min 49 sec) 
Heartbeat CPU  0 instructions:  177000002 cycles: 1246705122 heartbeat IPC: 0.06851 cumulative IPC: 0.06808 (Simulation time: 0 hr 7 min 54 sec) 
Heartbeat CPU  0 instructions:  178000001 cycles: 1261381178 heartbeat IPC: 0.06814 cumulative IPC: 0.06809 (Simulation time: 0 hr 7 min 58 sec) 
Heartbeat CPU  0 instructions:  179000001 cycles: 1275940432 heartbeat IPC: 0.06868 cumulative IPC: 0.06809 (Simulation time: 0 hr 8 min 3 sec) 
Heartbeat CPU  0 instructions:  180000000 cycles: 1290562007 heartbeat IPC: 0.06839 cumulative IPC: 0.06810 (Simulation time: 0 hr 8 min 7 sec) 
Heartbeat CPU  0 instructions:  181000000 cycles: 1305261677 heartbeat IPC: 0.06803 cumulative IPC: 0.06810 (Simulation time: 0 hr 8 min 12 sec) 
Heartbeat CPU  0 instructions:  182000000 cycles: 1320058410 heartbeat IPC: 0.06758 cumulative IPC: 0.06809 (Simulation time: 0 hr 8 min 17 sec) 
Heartbeat CPU  0 instructions:  183000002 cycles: 1334791974 heartbeat IPC: 0.06787 cumulative IPC: 0.06809 (Simulation time: 0 hr 8 min 21 sec) 
Heartbeat CPU  0 instructions:  184000000 cycles: 1349589432 heartbeat IPC: 0.06758 cumulative IPC: 0.06808 (Simulation time: 0 hr 8 min 26 sec) 
Heartbeat CPU  0 instructions:  185000001 cycles: 1364149741 heartbeat IPC: 0.06868 cumulative IPC: 0.06809 (Simulation time: 0 hr 8 min 30 sec) 
Heartbeat CPU  0 instructions:  186000000 cycles: 1378709056 heartbeat IPC: 0.06868 cumulative IPC: 0.06809 (Simulation time: 0 hr 8 min 35 sec) 
Heartbeat CPU  0 instructions:  187000000 cycles: 1393313280 heartbeat IPC: 0.06847 cumulative IPC: 0.06810 (Simulation time: 0 hr 8 min 39 sec) 
Heartbeat CPU  0 instructions:  188000000 cycles: 1408271559 heartbeat IPC: 0.06685 cumulative IPC: 0.06808 (Simulation time: 0 hr 8 min 44 sec) 
Heartbeat CPU  0 instructions:  189000000 cycles: 1423211537 heartbeat IPC: 0.06693 cumulative IPC: 0.06807 (Simulation time: 0 hr 8 min 48 sec) 
Heartbeat CPU  0 instructions:  190000000 cycles: 1438061382 heartbeat IPC: 0.06734 cumulative IPC: 0.06806 (Simulation time: 0 hr 8 min 53 sec) 
Heartbeat CPU  0 instructions:  191000000 cycles: 1452867966 heartbeat IPC: 0.06754 cumulative IPC: 0.06806 (Simulation time: 0 hr 8 min 57 sec) 
Heartbeat CPU  0 instructions:  192000000 cycles: 1467693872 heartbeat IPC: 0.06745 cumulative IPC: 0.06805 (Simulation time: 0 hr 9 min 2 sec) 
Heartbeat CPU  0 instructions:  193000001 cycles: 1482458181 heartbeat IPC: 0.06773 cumulative IPC: 0.06805 (Simulation time: 0 hr 9 min 7 sec) 
Heartbeat CPU  0 instructions:  194000001 cycles: 1497331485 heartbeat IPC: 0.06723 cumulative IPC: 0.06804 (Simulation time: 0 hr 9 min 11 sec) 
Heartbeat CPU  0 instructions:  195000000 cycles: 1512175746 heartbeat IPC: 0.06737 cumulative IPC: 0.06803 (Simulation time: 0 hr 9 min 16 sec) 
Heartbeat CPU  0 instructions:  196000000 cycles: 1527004011 heartbeat IPC: 0.06744 cumulative IPC: 0.06803 (Simulation time: 0 hr 9 min 20 sec) 
Heartbeat CPU  0 instructions:  197000000 cycles: 1541789722 heartbeat IPC: 0.06763 cumulative IPC: 0.06802 (Simulation time: 0 hr 9 min 25 sec) 
Heartbeat CPU  0 instructions:  198000001 cycles: 1556511720 heartbeat IPC: 0.06793 cumulative IPC: 0.06802 (Simulation time: 0 hr 9 min 29 sec) 
Heartbeat CPU  0 instructions:  199000001 cycles: 1571216405 heartbeat IPC: 0.06801 cumulative IPC: 0.06802 (Simulation time: 0 hr 9 min 34 sec) 
Heartbeat CPU  0 instructions:  200000000 cycles: 1586111275 heartbeat IPC: 0.06714 cumulative IPC: 0.06801 (Simulation time: 0 hr 9 min 38 sec) 
Heartbeat CPU  0 instructions:  201000000 cycles: 1600931046 heartbeat IPC: 0.06748 cumulative IPC: 0.06801 (Simulation time: 0 hr 9 min 43 sec) 
Heartbeat CPU  0 instructions:  202000000 cycles: 1615649087 heartbeat IPC: 0.06794 cumulative IPC: 0.06801 (Simulation time: 0 hr 9 min 48 sec) 
Heartbeat CPU  0 instructions:  203000001 cycles: 1630267319 heartbeat IPC: 0.06841 cumulative IPC: 0.06801 (Simulation time: 0 hr 9 min 52 sec) 
Heartbeat CPU  0 instructions:  204000000 cycles: 1644858642 heartbeat IPC: 0.06853 cumulative IPC: 0.06801 (Simulation time: 0 hr 9 min 57 sec) 
Heartbeat CPU  0 instructions:  205000000 cycles: 1659491426 heartbeat IPC: 0.06834 cumulative IPC: 0.06802 (Simulation time: 0 hr 10 min 1 sec) 
Heartbeat CPU  0 instructions:  206000000 cycles: 1674243990 heartbeat IPC: 0.06778 cumulative IPC: 0.06801 (Simulation time: 0 hr 10 min 6 sec) 
Heartbeat CPU  0 instructions:  207000000 cycles: 1688973888 heartbeat IPC: 0.06789 cumulative IPC: 0.06801 (Simulation time: 0 hr 10 min 10 sec) 
Heartbeat CPU  0 instructions:  208000000 cycles: 1703652284 heartbeat IPC: 0.06813 cumulative IPC: 0.06801 (Simulation time: 0 hr 10 min 15 sec) 
Heartbeat CPU  0 instructions:  209000002 cycles: 1718330421 heartbeat IPC: 0.06813 cumulative IPC: 0.06802 (Simulation time: 0 hr 10 min 20 sec) 
Heartbeat CPU  0 instructions:  210000002 cycles: 1733101425 heartbeat IPC: 0.06770 cumulative IPC: 0.06801 (Simulation time: 0 hr 10 min 24 sec) 
Heartbeat CPU  0 instructions:  211000000 cycles: 1747867618 heartbeat IPC: 0.06772 cumulative IPC: 0.06801 (Simulation time: 0 hr 10 min 29 sec) 
Heartbeat CPU  0 instructions:  212000000 cycles: 1762626453 heartbeat IPC: 0.06776 cumulative IPC: 0.06801 (Simulation time: 0 hr 10 min 33 sec) 
Heartbeat CPU  0 instructions:  213000000 cycles: 1777437928 heartbeat IPC: 0.06752 cumulative IPC: 0.06800 (Simulation time: 0 hr 10 min 38 sec) 
Heartbeat CPU  0 instructions:  214000000 cycles: 1792115712 heartbeat IPC: 0.06813 cumulative IPC: 0.06800 (Simulation time: 0 hr 10 min 43 sec) 
Heartbeat CPU  0 instructions:  215000000 cycles: 1806641075 heartbeat IPC: 0.06885 cumulative IPC: 0.06801 (Simulation time: 0 hr 10 min 47 sec) 
Heartbeat CPU  0 instructions:  216000000 cycles: 1821256124 heartbeat IPC: 0.06842 cumulative IPC: 0.06802 (Simulation time: 0 hr 10 min 52 sec) 
Heartbeat CPU  0 instructions:  217000000 cycles: 1835786154 heartbeat IPC: 0.06882 cumulative IPC: 0.06802 (Simulation time: 0 hr 10 min 56 sec) 
Heartbeat CPU  0 instructions:  218000001 cycles: 1850362494 heartbeat IPC: 0.06860 cumulative IPC: 0.06803 (Simulation time: 0 hr 11 min 1 sec) 
Heartbeat CPU  0 instructions:  219000001 cycles: 1865120603 heartbeat IPC: 0.06776 cumulative IPC: 0.06802 (Simulation time: 0 hr 11 min 5 sec) 
Heartbeat CPU  0 instructions:  220000000 cycles: 1879733341 heartbeat IPC: 0.06843 cumulative IPC: 0.06803 (Simulation time: 0 hr 11 min 10 sec) 
Heartbeat CPU  0 instructions:  221000000 cycles: 1894395441 heartbeat IPC: 0.06820 cumulative IPC: 0.06803 (Simulation time: 0 hr 11 min 15 sec) 
Heartbeat CPU  0 instructions:  222000000 cycles: 1909212902 heartbeat IPC: 0.06749 cumulative IPC: 0.06803 (Simulation time: 0 hr 11 min 19 sec) 
Heartbeat CPU  0 instructions:  223000000 cycles: 1923812226 heartbeat IPC: 0.06850 cumulative IPC: 0.06803 (Simulation time: 0 hr 11 min 24 sec) 
Heartbeat CPU  0 instructions:  224000000 cycles: 1938390013 heartbeat IPC: 0.06860 cumulative IPC: 0.06803 (Simulation time: 0 hr 11 min 28 sec) 
Heartbeat CPU  0 instructions:  225000000 cycles: 1953108121 heartbeat IPC: 0.06794 cumulative IPC: 0.06803 (Simulation time: 0 hr 11 min 33 sec) 
Heartbeat CPU  0 instructions:  226000001 cycles: 1967911431 heartbeat IPC: 0.06755 cumulative IPC: 0.06803 (Simulation time: 0 hr 11 min 37 sec) 
Heartbeat CPU  0 instructions:  227000002 cycles: 1982658822 heartbeat IPC: 0.06781 cumulative IPC: 0.06803 (Simulation time: 0 hr 11 min 42 sec) 
Heartbeat CPU  0 instructions:  228000000 cycles: 1997397281 heartbeat IPC: 0.06785 cumulative IPC: 0.06803 (Simulation time: 0 hr 11 min 46 sec) 
Heartbeat CPU  0 instructions:  229000000 cycles: 2011946651 heartbeat IPC: 0.06873 cumulative IPC: 0.06803 (Simulation time: 0 hr 11 min 51 sec) 
Heartbeat CPU  0 instructions:  230000001 cycles: 2026517140 heartbeat IPC: 0.06863 cumulative IPC: 0.06804 (Simulation time: 0 hr 11 min 56 sec) 
Heartbeat CPU  0 instructions:  231000000 cycles: 2041165071 heartbeat IPC: 0.06827 cumulative IPC: 0.06804 (Simulation time: 0 hr 12 min 0 sec) 
Heartbeat CPU  0 instructions:  232000000 cycles: 2055348774 heartbeat IPC: 0.07050 cumulative IPC: 0.06806 (Simulation time: 0 hr 12 min 5 sec) 
Heartbeat CPU  0 instructions:  233000000 cycles: 2069979882 heartbeat IPC: 0.06835 cumulative IPC: 0.06806 (Simulation time: 0 hr 12 min 9 sec) 
Heartbeat CPU  0 instructions:  234000000 cycles: 2084433783 heartbeat IPC: 0.06919 cumulative IPC: 0.06807 (Simulation time: 0 hr 12 min 14 sec) 
Heartbeat CPU  0 instructions:  235000000 cycles: 2099040684 heartbeat IPC: 0.06846 cumulative IPC: 0.06807 (Simulation time: 0 hr 12 min 18 sec) 
Heartbeat CPU  0 instructions:  236000000 cycles: 2113642469 heartbeat IPC: 0.06848 cumulative IPC: 0.06807 (Simulation time: 0 hr 12 min 23 sec) 
Heartbeat CPU  0 instructions:  237000001 cycles: 2128157431 heartbeat IPC: 0.06889 cumulative IPC: 0.06808 (Simulation time: 0 hr 12 min 28 sec) 
Heartbeat CPU  0 instructions:  238000000 cycles: 2142513265 heartbeat IPC: 0.06966 cumulative IPC: 0.06809 (Simulation time: 0 hr 12 min 32 sec) 
Heartbeat CPU  0 instructions:  239000002 cycles: 2156967916 heartbeat IPC: 0.06918 cumulative IPC: 0.06810 (Simulation time: 0 hr 12 min 37 sec) 
Heartbeat CPU  0 instructions:  240000000 cycles: 2171507723 heartbeat IPC: 0.06878 cumulative IPC: 0.06810 (Simulation time: 0 hr 12 min 41 sec) 
Heartbeat CPU  0 instructions:  241000000 cycles: 2185940080 heartbeat IPC: 0.06929 cumulative IPC: 0.06811 (Simulation time: 0 hr 12 min 46 sec) 
Heartbeat CPU  0 instructions:  242000000 cycles: 2200410144 heartbeat IPC: 0.06911 cumulative IPC: 0.06812 (Simulation time: 0 hr 12 min 51 sec) 
Heartbeat CPU  0 instructions:  243000001 cycles: 2215007788 heartbeat IPC: 0.06850 cumulative IPC: 0.06812 (Simulation time: 0 hr 12 min 55 sec) 
Heartbeat CPU  0 instructions:  244000000 cycles: 2229631056 heartbeat IPC: 0.06838 cumulative IPC: 0.06812 (Simulation time: 0 hr 13 min 0 sec) 
Heartbeat CPU  0 instructions:  245000000 cycles: 2244081931 heartbeat IPC: 0.06920 cumulative IPC: 0.06813 (Simulation time: 0 hr 13 min 4 sec) 
Heartbeat CPU  0 instructions:  246000000 cycles: 2258626508 heartbeat IPC: 0.06875 cumulative IPC: 0.06813 (Simulation time: 0 hr 13 min 9 sec) 
Heartbeat CPU  0 instructions:  247000000 cycles: 2273279155 heartbeat IPC: 0.06825 cumulative IPC: 0.06813 (Simulation time: 0 hr 13 min 13 sec) 
Heartbeat CPU  0 instructions:  248000000 cycles: 2287889347 heartbeat IPC: 0.06845 cumulative IPC: 0.06814 (Simulation time: 0 hr 13 min 18 sec) 
Heartbeat CPU  0 instructions:  249000003 cycles: 2302596913 heartbeat IPC: 0.06799 cumulative IPC: 0.06813 (Simulation time: 0 hr 13 min 23 sec) 
Heartbeat CPU  0 instructions:  250000002 cycles: 2317288203 heartbeat IPC: 0.06807 cumulative IPC: 0.06813 (Simulation time: 0 hr 13 min 27 sec) 
Heartbeat CPU  0 instructions:  251000000 cycles: 2331909848 heartbeat IPC: 0.06839 cumulative IPC: 0.06814 (Simulation time: 0 hr 13 min 32 sec) 
Heartbeat CPU  0 instructions:  252000000 cycles: 2346575032 heartbeat IPC: 0.06819 cumulative IPC: 0.06814 (Simulation time: 0 hr 13 min 36 sec) 
Heartbeat CPU  0 instructions:  253000000 cycles: 2361411793 heartbeat IPC: 0.06740 cumulative IPC: 0.06813 (Simulation time: 0 hr 13 min 41 sec) 
Heartbeat CPU  0 instructions:  254000000 cycles: 2376269859 heartbeat IPC: 0.06730 cumulative IPC: 0.06813 (Simulation time: 0 hr 13 min 46 sec) 
Heartbeat CPU  0 instructions:  255000002 cycles: 2391045132 heartbeat IPC: 0.06768 cumulative IPC: 0.06812 (Simulation time: 0 hr 13 min 50 sec) 
Heartbeat CPU  0 instructions:  256000000 cycles: 2405755001 heartbeat IPC: 0.06798 cumulative IPC: 0.06812 (Simulation time: 0 hr 13 min 55 sec) 
Heartbeat CPU  0 instructions:  257000000 cycles: 2420502844 heartbeat IPC: 0.06781 cumulative IPC: 0.06812 (Simulation time: 0 hr 13 min 59 sec) 
Heartbeat CPU  0 instructions:  258000002 cycles: 2435296527 heartbeat IPC: 0.06760 cumulative IPC: 0.06812 (Simulation time: 0 hr 14 min 4 sec) 
Heartbeat CPU  0 instructions:  259000001 cycles: 2450101526 heartbeat IPC: 0.06754 cumulative IPC: 0.06811 (Simulation time: 0 hr 14 min 8 sec) 
Heartbeat CPU  0 instructions:  260000000 cycles: 2464771070 heartbeat IPC: 0.06817 cumulative IPC: 0.06811 (Simulation time: 0 hr 14 min 13 sec) 
Heartbeat CPU  0 instructions:  261000002 cycles: 2479424156 heartbeat IPC: 0.06825 cumulative IPC: 0.06811 (Simulation time: 0 hr 14 min 18 sec) 
Heartbeat CPU  0 instructions:  262000001 cycles: 2494016934 heartbeat IPC: 0.06853 cumulative IPC: 0.06812 (Simulation time: 0 hr 14 min 22 sec) 
Heartbeat CPU  0 instructions:  263000000 cycles: 2508526252 heartbeat IPC: 0.06892 cumulative IPC: 0.06812 (Simulation time: 0 hr 14 min 27 sec) 
Heartbeat CPU  0 instructions:  264000000 cycles: 2523295393 heartbeat IPC: 0.06771 cumulative IPC: 0.06812 (Simulation time: 0 hr 14 min 31 sec) 
Heartbeat CPU  0 instructions:  265000000 cycles: 2537773515 heartbeat IPC: 0.06907 cumulative IPC: 0.06813 (Simulation time: 0 hr 14 min 36 sec) 
Heartbeat CPU  0 instructions:  266000000 cycles: 2553531149 heartbeat IPC: 0.06346 cumulative IPC: 0.06809 (Simulation time: 0 hr 14 min 40 sec) 
Heartbeat CPU  0 instructions:  267000003 cycles: 2568800813 heartbeat IPC: 0.06549 cumulative IPC: 0.06808 (Simulation time: 0 hr 14 min 45 sec) 
Heartbeat CPU  0 instructions:  268000000 cycles: 2583867427 heartbeat IPC: 0.06637 cumulative IPC: 0.06807 (Simulation time: 0 hr 14 min 49 sec) 
Heartbeat CPU  0 instructions:  269000000 cycles: 2598787020 heartbeat IPC: 0.06703 cumulative IPC: 0.06806 (Simulation time: 0 hr 14 min 54 sec) 
Heartbeat CPU  0 instructions:  270000000 cycles: 2613737347 heartbeat IPC: 0.06689 cumulative IPC: 0.06806 (Simulation time: 0 hr 14 min 59 sec) 
Heartbeat CPU  0 instructions:  271000000 cycles: 2628640823 heartbeat IPC: 0.06710 cumulative IPC: 0.06805 (Simulation time: 0 hr 15 min 3 sec) 
Heartbeat CPU  0 instructions:  272000000 cycles: 2643370012 heartbeat IPC: 0.06789 cumulative IPC: 0.06805 (Simulation time: 0 hr 15 min 8 sec) 
Heartbeat CPU  0 instructions:  273000000 cycles: 2658130543 heartbeat IPC: 0.06775 cumulative IPC: 0.06805 (Simulation time: 0 hr 15 min 12 sec) 
Heartbeat CPU  0 instructions:  274000000 cycles: 2672781786 heartbeat IPC: 0.06825 cumulative IPC: 0.06805 (Simulation time: 0 hr 15 min 17 sec) 
Heartbeat CPU  0 instructions:  275000001 cycles: 2687310157 heartbeat IPC: 0.06883 cumulative IPC: 0.06805 (Simulation time: 0 hr 15 min 21 sec) 
Heartbeat CPU  0 instructions:  276000000 cycles: 2701835626 heartbeat IPC: 0.06884 cumulative IPC: 0.06806 (Simulation time: 0 hr 15 min 26 sec) 
Heartbeat CPU  0 instructions:  277000001 cycles: 2716477447 heartbeat IPC: 0.06830 cumulative IPC: 0.06806 (Simulation time: 0 hr 15 min 31 sec) 
Heartbeat CPU  0 instructions:  278000000 cycles: 2731219084 heartbeat IPC: 0.06784 cumulative IPC: 0.06806 (Simulation time: 0 hr 15 min 35 sec) 
Heartbeat CPU  0 instructions:  279000001 cycles: 2746015313 heartbeat IPC: 0.06758 cumulative IPC: 0.06805 (Simulation time: 0 hr 15 min 40 sec) 
Heartbeat CPU  0 instructions:  280000000 cycles: 2760771993 heartbeat IPC: 0.06777 cumulative IPC: 0.06805 (Simulation time: 0 hr 15 min 44 sec) 
Heartbeat CPU  0 instructions:  281000000 cycles: 2775457045 heartbeat IPC: 0.06810 cumulative IPC: 0.06805 (Simulation time: 0 hr 15 min 49 sec) 
Heartbeat CPU  0 instructions:  282000000 cycles: 2790227177 heartbeat IPC: 0.06770 cumulative IPC: 0.06805 (Simulation time: 0 hr 15 min 53 sec) 
Heartbeat CPU  0 instructions:  283000000 cycles: 2804937589 heartbeat IPC: 0.06798 cumulative IPC: 0.06805 (Simulation time: 0 hr 15 min 58 sec) 
Heartbeat CPU  0 instructions:  284000000 cycles: 2819741003 heartbeat IPC: 0.06755 cumulative IPC: 0.06805 (Simulation time: 0 hr 16 min 3 sec) 
Heartbeat CPU  0 instructions:  285000001 cycles: 2834395219 heartbeat IPC: 0.06824 cumulative IPC: 0.06805 (Simulation time: 0 hr 16 min 7 sec) 
Heartbeat CPU  0 instructions:  286000001 cycles: 2849107457 heartbeat IPC: 0.06797 cumulative IPC: 0.06805 (Simulation time: 0 hr 16 min 12 sec) 
Heartbeat CPU  0 instructions:  287000000 cycles: 2863912386 heartbeat IPC: 0.06755 cumulative IPC: 0.06805 (Simulation time: 0 hr 16 min 16 sec) 
Heartbeat CPU  0 instructions:  288000000 cycles: 2878737588 heartbeat IPC: 0.06745 cumulative IPC: 0.06804 (Simulation time: 0 hr 16 min 21 sec) 
Heartbeat CPU  0 instructions:  289000000 cycles: 2893625807 heartbeat IPC: 0.06717 cumulative IPC: 0.06804 (Simulation time: 0 hr 16 min 25 sec) 
Heartbeat CPU  0 instructions:  290000001 cycles: 2908482008 heartbeat IPC: 0.06731 cumulative IPC: 0.06803 (Simulation time: 0 hr 16 min 30 sec) 
Heartbeat CPU  0 instructions:  291000000 cycles: 2923213399 heartbeat IPC: 0.06788 cumulative IPC: 0.06803 (Simulation time: 0 hr 16 min 35 sec) 
Heartbeat CPU  0 instructions:  292000000 cycles: 2938007639 heartbeat IPC: 0.06759 cumulative IPC: 0.06803 (Simulation time: 0 hr 16 min 39 sec) 
Heartbeat CPU  0 instructions:  293000000 cycles: 2952759106 heartbeat IPC: 0.06779 cumulative IPC: 0.06803 (Simulation time: 0 hr 16 min 44 sec) 
Heartbeat CPU  0 instructions:  294000000 cycles: 2967320583 heartbeat IPC: 0.06867 cumulative IPC: 0.06803 (Simulation time: 0 hr 16 min 48 sec) 
Heartbeat CPU  0 instructions:  295000000 cycles: 2981836811 heartbeat IPC: 0.06889 cumulative IPC: 0.06804 (Simulation time: 0 hr 16 min 53 sec) 
Heartbeat CPU  0 instructions:  296000000 cycles: 2996288727 heartbeat IPC: 0.06919 cumulative IPC: 0.06804 (Simulation time: 0 hr 16 min 58 sec) 
Heartbeat CPU  0 instructions:  297000000 cycles: 3010929865 heartbeat IPC: 0.06830 cumulative IPC: 0.06804 (Simulation time: 0 hr 17 min 2 sec) 
Heartbeat CPU  0 instructions:  298000000 cycles: 3025606898 heartbeat IPC: 0.06813 cumulative IPC: 0.06804 (Simulation time: 0 hr 17 min 7 sec) 
Heartbeat CPU  0 instructions:  299000001 cycles: 3040296773 heartbeat IPC: 0.06807 cumulative IPC: 0.06804 (Simulation time: 0 hr 17 min 11 sec) 
Heartbeat CPU  0 instructions:  300000000 cycles: 3055048521 heartbeat IPC: 0.06779 cumulative IPC: 0.06804 (Simulation time: 0 hr 17 min 16 sec) 
Heartbeat CPU  0 instructions:  301000000 cycles: 3069836253 heartbeat IPC: 0.06762 cumulative IPC: 0.06804 (Simulation time: 0 hr 17 min 21 sec) 
Heartbeat CPU  0 instructions:  302000000 cycles: 3084644737 heartbeat IPC: 0.06753 cumulative IPC: 0.06804 (Simulation time: 0 hr 17 min 25 sec) 
Heartbeat CPU  0 instructions:  303000000 cycles: 3099396073 heartbeat IPC: 0.06779 cumulative IPC: 0.06804 (Simulation time: 0 hr 17 min 30 sec) 
Heartbeat CPU  0 instructions:  304000000 cycles: 3114052788 heartbeat IPC: 0.06823 cumulative IPC: 0.06804 (Simulation time: 0 hr 17 min 34 sec) 
Heartbeat CPU  0 instructions:  305000001 cycles: 3128679421 heartbeat IPC: 0.06837 cumulative IPC: 0.06804 (Simulation time: 0 hr 17 min 39 sec) 
Heartbeat CPU  0 instructions:  306000000 cycles: 3143314731 heartbeat IPC: 0.06833 cumulative IPC: 0.06804 (Simulation time: 0 hr 17 min 43 sec) 
Heartbeat CPU  0 instructions:  307000000 cycles: 3158110184 heartbeat IPC: 0.06759 cumulative IPC: 0.06804 (Simulation time: 0 hr 17 min 48 sec) 
Heartbeat CPU  0 instructions:  308000000 cycles: 3172859001 heartbeat IPC: 0.06780 cumulative IPC: 0.06804 (Simulation time: 0 hr 17 min 53 sec) 
Heartbeat CPU  0 instructions:  309000000 cycles: 3187497166 heartbeat IPC: 0.06831 cumulative IPC: 0.06804 (Simulation time: 0 hr 17 min 57 sec) 
Heartbeat CPU  0 instructions:  310000001 cycles: 3202280985 heartbeat IPC: 0.06764 cumulative IPC: 0.06804 (Simulation time: 0 hr 18 min 2 sec) 
Heartbeat CPU  0 instructions:  311000000 cycles: 3217050366 heartbeat IPC: 0.06771 cumulative IPC: 0.06804 (Simulation time: 0 hr 18 min 6 sec) 
Heartbeat CPU  0 instructions:  312000000 cycles: 3231835276 heartbeat IPC: 0.06764 cumulative IPC: 0.06803 (Simulation time: 0 hr 18 min 11 sec) 
Heartbeat CPU  0 instructions:  313000000 cycles: 3246621615 heartbeat IPC: 0.06763 cumulative IPC: 0.06803 (Simulation time: 0 hr 18 min 15 sec) 
Heartbeat CPU  0 instructions:  314000000 cycles: 3261325232 heartbeat IPC: 0.06801 cumulative IPC: 0.06803 (Simulation time: 0 hr 18 min 20 sec) 
Heartbeat CPU  0 instructions:  315000000 cycles: 3275908011 heartbeat IPC: 0.06857 cumulative IPC: 0.06803 (Simulation time: 0 hr 18 min 25 sec) 
Heartbeat CPU  0 instructions:  316000000 cycles: 3290520220 heartbeat IPC: 0.06844 cumulative IPC: 0.06804 (Simulation time: 0 hr 18 min 29 sec) 
Heartbeat CPU  0 instructions:  317000001 cycles: 3305031443 heartbeat IPC: 0.06891 cumulative IPC: 0.06804 (Simulation time: 0 hr 18 min 34 sec) 
Heartbeat CPU  0 instructions:  318000001 cycles: 3319454220 heartbeat IPC: 0.06933 cumulative IPC: 0.06805 (Simulation time: 0 hr 18 min 38 sec) 
Heartbeat CPU  0 instructions:  319000001 cycles: 3334070314 heartbeat IPC: 0.06842 cumulative IPC: 0.06805 (Simulation time: 0 hr 18 min 43 sec) 
Heartbeat CPU  0 instructions:  320000000 cycles: 3348945784 heartbeat IPC: 0.06722 cumulative IPC: 0.06804 (Simulation time: 0 hr 18 min 48 sec) 
Heartbeat CPU  0 instructions:  321000000 cycles: 3363814519 heartbeat IPC: 0.06726 cumulative IPC: 0.06804 (Simulation time: 0 hr 18 min 52 sec) 
Heartbeat CPU  0 instructions:  322000001 cycles: 3378725493 heartbeat IPC: 0.06706 cumulative IPC: 0.06804 (Simulation time: 0 hr 18 min 57 sec) 
Heartbeat CPU  0 instructions:  323000003 cycles: 3393638006 heartbeat IPC: 0.06706 cumulative IPC: 0.06803 (Simulation time: 0 hr 19 min 1 sec) 
Heartbeat CPU  0 instructions:  324000000 cycles: 3408535344 heartbeat IPC: 0.06713 cumulative IPC: 0.06803 (Simulation time: 0 hr 19 min 6 sec) 
Heartbeat CPU  0 instructions:  325000000 cycles: 3423258765 heartbeat IPC: 0.06792 cumulative IPC: 0.06803 (Simulation time: 0 hr 19 min 10 sec) 
Heartbeat CPU  0 instructions:  326000000 cycles: 3437762007 heartbeat IPC: 0.06895 cumulative IPC: 0.06803 (Simulation time: 0 hr 19 min 15 sec) 
Heartbeat CPU  0 instructions:  327000000 cycles: 3452346599 heartbeat IPC: 0.06857 cumulative IPC: 0.06803 (Simulation time: 0 hr 19 min 20 sec) 
Heartbeat CPU  0 instructions:  328000000 cycles: 3466981959 heartbeat IPC: 0.06833 cumulative IPC: 0.06803 (Simulation time: 0 hr 19 min 24 sec) 
Heartbeat CPU  0 instructions:  329000000 cycles: 3481808772 heartbeat IPC: 0.06745 cumulative IPC: 0.06803 (Simulation time: 0 hr 19 min 29 sec) 
Heartbeat CPU  0 instructions:  330000000 cycles: 3496548231 heartbeat IPC: 0.06785 cumulative IPC: 0.06803 (Simulation time: 0 hr 19 min 33 sec) 
Heartbeat CPU  0 instructions:  331000000 cycles: 3511189883 heartbeat IPC: 0.06830 cumulative IPC: 0.06803 (Simulation time: 0 hr 19 min 38 sec) 
Heartbeat CPU  0 instructions:  332000000 cycles: 3525565011 heartbeat IPC: 0.06956 cumulative IPC: 0.06804 (Simulation time: 0 hr 19 min 42 sec) 
Heartbeat CPU  0 instructions:  333000000 cycles: 3540166082 heartbeat IPC: 0.06849 cumulative IPC: 0.06804 (Simulation time: 0 hr 19 min 47 sec) 
Heartbeat CPU  0 instructions:  334000001 cycles: 3554803679 heartbeat IPC: 0.06832 cumulative IPC: 0.06804 (Simulation time: 0 hr 19 min 52 sec) 
Heartbeat CPU  0 instructions:  335000000 cycles: 3569508342 heartbeat IPC: 0.06801 cumulative IPC: 0.06804 (Simulation time: 0 hr 19 min 56 sec) 
Heartbeat CPU  0 instructions:  336000000 cycles: 3584176375 heartbeat IPC: 0.06818 cumulative IPC: 0.06804 (Simulation time: 0 hr 20 min 1 sec) 
Heartbeat CPU  0 instructions:  337000000 cycles: 3598820666 heartbeat IPC: 0.06829 cumulative IPC: 0.06804 (Simulation time: 0 hr 20 min 5 sec) 
Heartbeat CPU  0 instructions:  338000002 cycles: 3613361607 heartbeat IPC: 0.06877 cumulative IPC: 0.06805 (Simulation time: 0 hr 20 min 10 sec) 
Heartbeat CPU  0 instructions:  339000000 cycles: 3628115148 heartbeat IPC: 0.06778 cumulative IPC: 0.06805 (Simulation time: 0 hr 20 min 15 sec) 
Heartbeat CPU  0 instructions:  340000000 cycles: 3642818569 heartbeat IPC: 0.06801 cumulative IPC: 0.06805 (Simulation time: 0 hr 20 min 19 sec) 
Heartbeat CPU  0 instructions:  341000001 cycles: 3657422531 heartbeat IPC: 0.06847 cumulative IPC: 0.06805 (Simulation time: 0 hr 20 min 24 sec) 
Heartbeat CPU  0 instructions:  342000000 cycles: 3671890080 heartbeat IPC: 0.06912 cumulative IPC: 0.06805 (Simulation time: 0 hr 20 min 28 sec) 
Heartbeat CPU  0 instructions:  343000000 cycles: 3686409209 heartbeat IPC: 0.06887 cumulative IPC: 0.06805 (Simulation time: 0 hr 20 min 33 sec) 
Heartbeat CPU  0 instructions:  344000000 cycles: 3700908067 heartbeat IPC: 0.06897 cumulative IPC: 0.06806 (Simulation time: 0 hr 20 min 38 sec) 
Heartbeat CPU  0 instructions:  345000000 cycles: 3715488168 heartbeat IPC: 0.06859 cumulative IPC: 0.06806 (Simulation time: 0 hr 20 min 42 sec) 
Heartbeat CPU  0 instructions:  346000000 cycles: 3730151749 heartbeat IPC: 0.06820 cumulative IPC: 0.06806 (Simulation time: 0 hr 20 min 47 sec) 
Heartbeat CPU  0 instructions:  347000001 cycles: 3744860864 heartbeat IPC: 0.06799 cumulative IPC: 0.06806 (Simulation time: 0 hr 20 min 51 sec) 
Heartbeat CPU  0 instructions:  348000000 cycles: 3759691445 heartbeat IPC: 0.06743 cumulative IPC: 0.06806 (Simulation time: 0 hr 20 min 56 sec) 
Heartbeat CPU  0 instructions:  349000000 cycles: 3774454597 heartbeat IPC: 0.06774 cumulative IPC: 0.06806 (Simulation time: 0 hr 21 min 1 sec) 
Heartbeat CPU  0 instructions:  350000000 cycles: 3789256374 heartbeat IPC: 0.06756 cumulative IPC: 0.06806 (Simulation time: 0 hr 21 min 5 sec) 
Heartbeat CPU  0 instructions:  351000000 cycles: 3803847067 heartbeat IPC: 0.06854 cumulative IPC: 0.06806 (Simulation time: 0 hr 21 min 10 sec) 
Heartbeat CPU  0 instructions:  352000000 cycles: 3818496256 heartbeat IPC: 0.06826 cumulative IPC: 0.06806 (Simulation time: 0 hr 21 min 14 sec) 
Heartbeat CPU  0 instructions:  353000000 cycles: 3833146881 heartbeat IPC: 0.06826 cumulative IPC: 0.06806 (Simulation time: 0 hr 21 min 19 sec) 
Heartbeat CPU  0 instructions:  354000001 cycles: 3847681090 heartbeat IPC: 0.06880 cumulative IPC: 0.06806 (Simulation time: 0 hr 21 min 23 sec) 
Heartbeat CPU  0 instructions:  355000000 cycles: 3862177426 heartbeat IPC: 0.06898 cumulative IPC: 0.06807 (Simulation time: 0 hr 21 min 28 sec) 
Heartbeat CPU  0 instructions:  356000000 cycles: 3876545760 heartbeat IPC: 0.06960 cumulative IPC: 0.06807 (Simulation time: 0 hr 21 min 33 sec) 
Heartbeat CPU  0 instructions:  357000003 cycles: 3890985886 heartbeat IPC: 0.06925 cumulative IPC: 0.06808 (Simulation time: 0 hr 21 min 37 sec) 
Heartbeat CPU  0 instructions:  358000000 cycles: 3905559954 heartbeat IPC: 0.06861 cumulative IPC: 0.06808 (Simulation time: 0 hr 21 min 42 sec) 
Heartbeat CPU  0 instructions:  359000000 cycles: 3920103663 heartbeat IPC: 0.06876 cumulative IPC: 0.06808 (Simulation time: 0 hr 21 min 46 sec) 
Heartbeat CPU  0 instructions:  360000000 cycles: 3934494793 heartbeat IPC: 0.06949 cumulative IPC: 0.06809 (Simulation time: 0 hr 21 min 51 sec) 
Heartbeat CPU  0 instructions:  361000000 cycles: 3949131810 heartbeat IPC: 0.06832 cumulative IPC: 0.06809 (Simulation time: 0 hr 21 min 55 sec) 
Heartbeat CPU  0 instructions:  362000000 cycles: 3963724750 heartbeat IPC: 0.06853 cumulative IPC: 0.06809 (Simulation time: 0 hr 22 min 0 sec) 
Heartbeat CPU  0 instructions:  363000000 cycles: 3978409310 heartbeat IPC: 0.06810 cumulative IPC: 0.06809 (Simulation time: 0 hr 22 min 5 sec) 
Heartbeat CPU  0 instructions:  364000000 cycles: 3993028248 heartbeat IPC: 0.06840 cumulative IPC: 0.06809 (Simulation time: 0 hr 22 min 9 sec) 
Heartbeat CPU  0 instructions:  365000000 cycles: 4007589388 heartbeat IPC: 0.06868 cumulative IPC: 0.06809 (Simulation time: 0 hr 22 min 14 sec) 
Heartbeat CPU  0 instructions:  366000000 cycles: 4022479653 heartbeat IPC: 0.06716 cumulative IPC: 0.06809 (Simulation time: 0 hr 22 min 18 sec) 
Heartbeat CPU  0 instructions:  367000000 cycles: 4037349396 heartbeat IPC: 0.06725 cumulative IPC: 0.06808 (Simulation time: 0 hr 22 min 23 sec) 
Heartbeat CPU  0 instructions:  368000000 cycles: 4052181370 heartbeat IPC: 0.06742 cumulative IPC: 0.06808 (Simulation time: 0 hr 22 min 27 sec) 
Heartbeat CPU  0 instructions:  369000000 cycles: 4066834088 heartbeat IPC: 0.06825 cumulative IPC: 0.06808 (Simulation time: 0 hr 22 min 32 sec) 
Heartbeat CPU  0 instructions:  370000000 cycles: 4081734696 heartbeat IPC: 0.06711 cumulative IPC: 0.06808 (Simulation time: 0 hr 22 min 36 sec) 
Heartbeat CPU  0 instructions:  371000000 cycles: 4096575530 heartbeat IPC: 0.06738 cumulative IPC: 0.06808 (Simulation time: 0 hr 22 min 41 sec) 
Heartbeat CPU  0 instructions:  372000000 cycles: 4111495306 heartbeat IPC: 0.06703 cumulative IPC: 0.06807 (Simulation time: 0 hr 22 min 46 sec) 
Heartbeat CPU  0 instructions:  373000000 cycles: 4126335500 heartbeat IPC: 0.06738 cumulative IPC: 0.06807 (Simulation time: 0 hr 22 min 50 sec) 
Heartbeat CPU  0 instructions:  374000000 cycles: 4141216668 heartbeat IPC: 0.06720 cumulative IPC: 0.06807 (Simulation time: 0 hr 22 min 55 sec) 
Heartbeat CPU  0 instructions:  375000000 cycles: 4155963233 heartbeat IPC: 0.06781 cumulative IPC: 0.06807 (Simulation time: 0 hr 22 min 59 sec) 
Heartbeat CPU  0 instructions:  376000000 cycles: 4170727339 heartbeat IPC: 0.06773 cumulative IPC: 0.06806 (Simulation time: 0 hr 23 min 4 sec) 
Heartbeat CPU  0 instructions:  377000000 cycles: 4185554892 heartbeat IPC: 0.06744 cumulative IPC: 0.06806 (Simulation time: 0 hr 23 min 9 sec) 
Heartbeat CPU  0 instructions:  378000001 cycles: 4200224971 heartbeat IPC: 0.06817 cumulative IPC: 0.06806 (Simulation time: 0 hr 23 min 13 sec) 
Heartbeat CPU  0 instructions:  379000001 cycles: 4215060162 heartbeat IPC: 0.06741 cumulative IPC: 0.06806 (Simulation time: 0 hr 23 min 18 sec) 
Heartbeat CPU  0 instructions:  380000000 cycles: 4229842450 heartbeat IPC: 0.06765 cumulative IPC: 0.06806 (Simulation time: 0 hr 23 min 22 sec) 
Heartbeat CPU  0 instructions:  381000000 cycles: 4244572742 heartbeat IPC: 0.06789 cumulative IPC: 0.06806 (Simulation time: 0 hr 23 min 27 sec) 
Heartbeat CPU  0 instructions:  382000000 cycles: 4259308415 heartbeat IPC: 0.06786 cumulative IPC: 0.06806 (Simulation time: 0 hr 23 min 32 sec) 
Heartbeat CPU  0 instructions:  383000001 cycles: 4274143095 heartbeat IPC: 0.06741 cumulative IPC: 0.06806 (Simulation time: 0 hr 23 min 36 sec) 
Heartbeat CPU  0 instructions:  384000000 cycles: 4288896351 heartbeat IPC: 0.06778 cumulative IPC: 0.06805 (Simulation time: 0 hr 23 min 41 sec) 
Heartbeat CPU  0 instructions:  385000000 cycles: 4303772411 heartbeat IPC: 0.06722 cumulative IPC: 0.06805 (Simulation time: 0 hr 23 min 45 sec) 
Heartbeat CPU  0 instructions:  386000000 cycles: 4318714646 heartbeat IPC: 0.06692 cumulative IPC: 0.06805 (Simulation time: 0 hr 23 min 50 sec) 
Heartbeat CPU  0 instructions:  387000000 cycles: 4333586517 heartbeat IPC: 0.06724 cumulative IPC: 0.06804 (Simulation time: 0 hr 23 min 54 sec) 
Heartbeat CPU  0 instructions:  388000000 cycles: 4348518952 heartbeat IPC: 0.06697 cumulative IPC: 0.06804 (Simulation time: 0 hr 23 min 59 sec) 
Heartbeat CPU  0 instructions:  389000000 cycles: 4363372882 heartbeat IPC: 0.06732 cumulative IPC: 0.06804 (Simulation time: 0 hr 24 min 3 sec) 
Heartbeat CPU  0 instructions:  390000000 cycles: 4378252030 heartbeat IPC: 0.06721 cumulative IPC: 0.06804 (Simulation time: 0 hr 24 min 8 sec) 
Heartbeat CPU  0 instructions:  391000000 cycles: 4393295790 heartbeat IPC: 0.06647 cumulative IPC: 0.06803 (Simulation time: 0 hr 24 min 13 sec) 
Heartbeat CPU  0 instructions:  392000000 cycles: 4408247691 heartbeat IPC: 0.06688 cumulative IPC: 0.06803 (Simulation time: 0 hr 24 min 17 sec) 
Heartbeat CPU  0 instructions:  393000000 cycles: 4423243520 heartbeat IPC: 0.06669 cumulative IPC: 0.06802 (Simulation time: 0 hr 24 min 22 sec) 
Heartbeat CPU  0 instructions:  394000001 cycles: 4438151995 heartbeat IPC: 0.06708 cumulative IPC: 0.06802 (Simulation time: 0 hr 24 min 26 sec) 
Heartbeat CPU  0 instructions:  395000001 cycles: 4452932828 heartbeat IPC: 0.06766 cumulative IPC: 0.06802 (Simulation time: 0 hr 24 min 31 sec) 
Heartbeat CPU  0 instructions:  396000000 cycles: 4467513138 heartbeat IPC: 0.06859 cumulative IPC: 0.06802 (Simulation time: 0 hr 24 min 35 sec) 
Heartbeat CPU  0 instructions:  397000000 cycles: 4482514031 heartbeat IPC: 0.06666 cumulative IPC: 0.06801 (Simulation time: 0 hr 24 min 40 sec) 
Heartbeat CPU  0 instructions:  398000001 cycles: 4497352794 heartbeat IPC: 0.06739 cumulative IPC: 0.06801 (Simulation time: 0 hr 24 min 44 sec) 
Heartbeat CPU  0 instructions:  399000002 cycles: 4512162343 heartbeat IPC: 0.06752 cumulative IPC: 0.06801 (Simulation time: 0 hr 24 min 49 sec) 
Heartbeat CPU  0 instructions:  400000000 cycles: 4526960173 heartbeat IPC: 0.06758 cumulative IPC: 0.06801 (Simulation time: 0 hr 24 min 54 sec) 
Heartbeat CPU  0 instructions:  401000001 cycles: 4541724096 heartbeat IPC: 0.06773 cumulative IPC: 0.06801 (Simulation time: 0 hr 24 min 58 sec) 
Heartbeat CPU  0 instructions:  402000000 cycles: 4556425084 heartbeat IPC: 0.06802 cumulative IPC: 0.06801 (Simulation time: 0 hr 25 min 3 sec) 
Heartbeat CPU  0 instructions:  403000000 cycles: 4571144867 heartbeat IPC: 0.06794 cumulative IPC: 0.06801 (Simulation time: 0 hr 25 min 7 sec) 
Heartbeat CPU  0 instructions:  404000000 cycles: 4585876990 heartbeat IPC: 0.06788 cumulative IPC: 0.06801 (Simulation time: 0 hr 25 min 12 sec) 
Heartbeat CPU  0 instructions:  405000001 cycles: 4600590687 heartbeat IPC: 0.06796 cumulative IPC: 0.06801 (Simulation time: 0 hr 25 min 16 sec) 
Heartbeat CPU  0 instructions:  406000003 cycles: 4615267944 heartbeat IPC: 0.06813 cumulative IPC: 0.06801 (Simulation time: 0 hr 25 min 21 sec) 
Heartbeat CPU  0 instructions:  407000000 cycles: 4630016181 heartbeat IPC: 0.06780 cumulative IPC: 0.06801 (Simulation time: 0 hr 25 min 26 sec) 
Heartbeat CPU  0 instructions:  408000000 cycles: 4644759550 heartbeat IPC: 0.06783 cumulative IPC: 0.06801 (Simulation time: 0 hr 25 min 30 sec) 
Heartbeat CPU  0 instructions:  409000000 cycles: 4659432204 heartbeat IPC: 0.06815 cumulative IPC: 0.06801 (Simulation time: 0 hr 25 min 35 sec) 
Heartbeat CPU  0 instructions:  410000001 cycles: 4673951939 heartbeat IPC: 0.06887 cumulative IPC: 0.06801 (Simulation time: 0 hr 25 min 39 sec) 
Heartbeat CPU  0 instructions:  411000000 cycles: 4688504311 heartbeat IPC: 0.06872 cumulative IPC: 0.06801 (Simulation time: 0 hr 25 min 44 sec) 
Heartbeat CPU  0 instructions:  412000000 cycles: 4703067358 heartbeat IPC: 0.06867 cumulative IPC: 0.06801 (Simulation time: 0 hr 25 min 49 sec) 
Heartbeat CPU  0 instructions:  413000001 cycles: 4717668367 heartbeat IPC: 0.06849 cumulative IPC: 0.06802 (Simulation time: 0 hr 25 min 53 sec) 
Heartbeat CPU  0 instructions:  414000000 cycles: 4732172905 heartbeat IPC: 0.06894 cumulative IPC: 0.06802 (Simulation time: 0 hr 25 min 58 sec) 
Heartbeat CPU  0 instructions:  415000001 cycles: 4746718939 heartbeat IPC: 0.06875 cumulative IPC: 0.06802 (Simulation time: 0 hr 26 min 2 sec) 
Heartbeat CPU  0 instructions:  416000000 cycles: 4761270005 heartbeat IPC: 0.06872 cumulative IPC: 0.06802 (Simulation time: 0 hr 26 min 7 sec) 
Heartbeat CPU  0 instructions:  417000000 cycles: 4775842084 heartbeat IPC: 0.06862 cumulative IPC: 0.06802 (Simulation time: 0 hr 26 min 12 sec) 
Heartbeat CPU  0 instructions:  418000000 cycles: 4790543029 heartbeat IPC: 0.06802 cumulative IPC: 0.06802 (Simulation time: 0 hr 26 min 16 sec) 
Heartbeat CPU  0 instructions:  419000000 cycles: 4805124818 heartbeat IPC: 0.06858 cumulative IPC: 0.06803 (Simulation time: 0 hr 26 min 21 sec) 
Heartbeat CPU  0 instructions:  420000000 cycles: 4819746481 heartbeat IPC: 0.06839 cumulative IPC: 0.06803 (Simulation time: 0 hr 26 min 25 sec) 
Heartbeat CPU  0 instructions:  421000001 cycles: 4834235846 heartbeat IPC: 0.06902 cumulative IPC: 0.06803 (Simulation time: 0 hr 26 min 30 sec) 
Heartbeat CPU  0 instructions:  422000001 cycles: 4848854093 heartbeat IPC: 0.06841 cumulative IPC: 0.06803 (Simulation time: 0 hr 26 min 35 sec) 
Heartbeat CPU  0 instructions:  423000000 cycles: 4863506481 heartbeat IPC: 0.06825 cumulative IPC: 0.06803 (Simulation time: 0 hr 26 min 39 sec) 
Heartbeat CPU  0 instructions:  424000000 cycles: 4878221921 heartbeat IPC: 0.06796 cumulative IPC: 0.06803 (Simulation time: 0 hr 26 min 44 sec) 
Heartbeat CPU  0 instructions:  425000000 cycles: 4892890812 heartbeat IPC: 0.06817 cumulative IPC: 0.06803 (Simulation time: 0 hr 26 min 48 sec) 
Heartbeat CPU  0 instructions:  426000001 cycles: 4907562360 heartbeat IPC: 0.06816 cumulative IPC: 0.06803 (Simulation time: 0 hr 26 min 53 sec) 
Heartbeat CPU  0 instructions:  427000000 cycles: 4922205223 heartbeat IPC: 0.06829 cumulative IPC: 0.06803 (Simulation time: 0 hr 26 min 58 sec) 
Heartbeat CPU  0 instructions:  428000000 cycles: 4936768291 heartbeat IPC: 0.06867 cumulative IPC: 0.06804 (Simulation time: 0 hr 27 min 2 sec) 
Heartbeat CPU  0 instructions:  429000000 cycles: 4951264568 heartbeat IPC: 0.06898 cumulative IPC: 0.06804 (Simulation time: 0 hr 27 min 7 sec) 
Heartbeat CPU  0 instructions:  430000000 cycles: 4965875912 heartbeat IPC: 0.06844 cumulative IPC: 0.06804 (Simulation time: 0 hr 27 min 11 sec) 
Heartbeat CPU  0 instructions:  431000001 cycles: 4980575540 heartbeat IPC: 0.06803 cumulative IPC: 0.06804 (Simulation time: 0 hr 27 min 16 sec) 
Heartbeat CPU  0 instructions:  432000000 cycles: 4995216614 heartbeat IPC: 0.06830 cumulative IPC: 0.06804 (Simulation time: 0 hr 27 min 21 sec) 
Heartbeat CPU  0 instructions:  433000000 cycles: 5009965512 heartbeat IPC: 0.06780 cumulative IPC: 0.06804 (Simulation time: 0 hr 27 min 25 sec) 
Heartbeat CPU  0 instructions:  434000002 cycles: 5024652474 heartbeat IPC: 0.06809 cumulative IPC: 0.06804 (Simulation time: 0 hr 27 min 30 sec) 
Heartbeat CPU  0 instructions:  435000000 cycles: 5039371003 heartbeat IPC: 0.06794 cumulative IPC: 0.06804 (Simulation time: 0 hr 27 min 34 sec) 
Heartbeat CPU  0 instructions:  436000000 cycles: 5053996493 heartbeat IPC: 0.06837 cumulative IPC: 0.06804 (Simulation time: 0 hr 27 min 39 sec) 
Heartbeat CPU  0 instructions:  437000002 cycles: 5068538923 heartbeat IPC: 0.06876 cumulative IPC: 0.06804 (Simulation time: 0 hr 27 min 43 sec) 
Heartbeat CPU  0 instructions:  438000000 cycles: 5083115912 heartbeat IPC: 0.06860 cumulative IPC: 0.06804 (Simulation time: 0 hr 27 min 48 sec) 
Heartbeat CPU  0 instructions:  439000000 cycles: 5097801279 heartbeat IPC: 0.06809 cumulative IPC: 0.06804 (Simulation time: 0 hr 27 min 52 sec) 
Heartbeat CPU  0 instructions:  440000000 cycles: 5112580536 heartbeat IPC: 0.06766 cumulative IPC: 0.06804 (Simulation time: 0 hr 27 min 57 sec) 
Heartbeat CPU  0 instructions:  441000000 cycles: 5127406932 heartbeat IPC: 0.06745 cumulative IPC: 0.06804 (Simulation time: 0 hr 28 min 1 sec) 
Heartbeat CPU  0 instructions:  442000000 cycles: 5142271350 heartbeat IPC: 0.06727 cumulative IPC: 0.06804 (Simulation time: 0 hr 28 min 6 sec) 
Heartbeat CPU  0 instructions:  443000003 cycles: 5157007376 heartbeat IPC: 0.06786 cumulative IPC: 0.06804 (Simulation time: 0 hr 28 min 11 sec) 
Heartbeat CPU  0 instructions:  444000000 cycles: 5171736395 heartbeat IPC: 0.06789 cumulative IPC: 0.06804 (Simulation time: 0 hr 28 min 15 sec) 
Heartbeat CPU  0 instructions:  445000001 cycles: 5186483464 heartbeat IPC: 0.06781 cumulative IPC: 0.06804 (Simulation time: 0 hr 28 min 20 sec) 
Heartbeat CPU  0 instructions:  446000000 cycles: 5201308116 heartbeat IPC: 0.06746 cumulative IPC: 0.06804 (Simulation time: 0 hr 28 min 24 sec) 
Heartbeat CPU  0 instructions:  447000000 cycles: 5216171388 heartbeat IPC: 0.06728 cumulative IPC: 0.06803 (Simulation time: 0 hr 28 min 29 sec) 
Heartbeat CPU  0 instructions:  448000000 cycles: 5230867296 heartbeat IPC: 0.06805 cumulative IPC: 0.06803 (Simulation time: 0 hr 28 min 33 sec) 
Heartbeat CPU  0 instructions:  449000003 cycles: 5245581717 heartbeat IPC: 0.06796 cumulative IPC: 0.06803 (Simulation time: 0 hr 28 min 38 sec) 
Heartbeat CPU  0 instructions:  450000000 cycles: 5260303290 heartbeat IPC: 0.06793 cumulative IPC: 0.06803 (Simulation time: 0 hr 28 min 43 sec) 
Heartbeat CPU  0 instructions:  451000000 cycles: 5275063804 heartbeat IPC: 0.06775 cumulative IPC: 0.06803 (Simulation time: 0 hr 28 min 47 sec) 
Heartbeat CPU  0 instructions:  452000000 cycles: 5289724099 heartbeat IPC: 0.06821 cumulative IPC: 0.06803 (Simulation time: 0 hr 28 min 52 sec) 
Heartbeat CPU  0 instructions:  453000000 cycles: 5304599589 heartbeat IPC: 0.06722 cumulative IPC: 0.06803 (Simulation time: 0 hr 28 min 56 sec) 
Heartbeat CPU  0 instructions:  454000000 cycles: 5319410774 heartbeat IPC: 0.06752 cumulative IPC: 0.06803 (Simulation time: 0 hr 29 min 1 sec) 
Heartbeat CPU  0 instructions:  455000000 cycles: 5334308996 heartbeat IPC: 0.06712 cumulative IPC: 0.06803 (Simulation time: 0 hr 29 min 5 sec) 
Heartbeat CPU  0 instructions:  456000000 cycles: 5349219231 heartbeat IPC: 0.06707 cumulative IPC: 0.06802 (Simulation time: 0 hr 29 min 10 sec) 
Heartbeat CPU  0 instructions:  457000000 cycles: 5363975438 heartbeat IPC: 0.06777 cumulative IPC: 0.06802 (Simulation time: 0 hr 29 min 14 sec) 
Heartbeat CPU  0 instructions:  458000000 cycles: 5378912257 heartbeat IPC: 0.06695 cumulative IPC: 0.06802 (Simulation time: 0 hr 29 min 19 sec) 
Heartbeat CPU  0 instructions:  459000000 cycles: 5393831604 heartbeat IPC: 0.06703 cumulative IPC: 0.06802 (Simulation time: 0 hr 29 min 24 sec) 
Heartbeat CPU  0 instructions:  460000000 cycles: 5408544260 heartbeat IPC: 0.06797 cumulative IPC: 0.06802 (Simulation time: 0 hr 29 min 28 sec) 
Heartbeat CPU  0 instructions:  461000000 cycles: 5423314782 heartbeat IPC: 0.06770 cumulative IPC: 0.06802 (Simulation time: 0 hr 29 min 33 sec) 
Heartbeat CPU  0 instructions:  462000000 cycles: 5437991120 heartbeat IPC: 0.06814 cumulative IPC: 0.06802 (Simulation time: 0 hr 29 min 37 sec) 
Heartbeat CPU  0 instructions:  463000000 cycles: 5452606454 heartbeat IPC: 0.06842 cumulative IPC: 0.06802 (Simulation time: 0 hr 29 min 42 sec) 
Heartbeat CPU  0 instructions:  464000000 cycles: 5467310692 heartbeat IPC: 0.06801 cumulative IPC: 0.06802 (Simulation time: 0 hr 29 min 47 sec) 
Heartbeat CPU  0 instructions:  465000000 cycles: 5482130845 heartbeat IPC: 0.06748 cumulative IPC: 0.06802 (Simulation time: 0 hr 29 min 51 sec) 
Heartbeat CPU  0 instructions:  466000000 cycles: 5496919096 heartbeat IPC: 0.06762 cumulative IPC: 0.06802 (Simulation time: 0 hr 29 min 56 sec) 
Heartbeat CPU  0 instructions:  467000000 cycles: 5511579399 heartbeat IPC: 0.06821 cumulative IPC: 0.06802 (Simulation time: 0 hr 30 min 0 sec) 
Heartbeat CPU  0 instructions:  468000000 cycles: 5526208526 heartbeat IPC: 0.06836 cumulative IPC: 0.06802 (Simulation time: 0 hr 30 min 5 sec) 
Heartbeat CPU  0 instructions:  469000000 cycles: 5540721544 heartbeat IPC: 0.06890 cumulative IPC: 0.06802 (Simulation time: 0 hr 30 min 9 sec) 
Heartbeat CPU  0 instructions:  470000000 cycles: 5555300117 heartbeat IPC: 0.06859 cumulative IPC: 0.06802 (Simulation time: 0 hr 30 min 14 sec) 
Heartbeat CPU  0 instructions:  471000000 cycles: 5569895764 heartbeat IPC: 0.06851 cumulative IPC: 0.06802 (Simulation time: 0 hr 30 min 19 sec) 
Heartbeat CPU  0 instructions:  472000000 cycles: 5584314712 heartbeat IPC: 0.06935 cumulative IPC: 0.06803 (Simulation time: 0 hr 30 min 23 sec) 
Heartbeat CPU  0 instructions:  473000000 cycles: 5598751052 heartbeat IPC: 0.06927 cumulative IPC: 0.06803 (Simulation time: 0 hr 30 min 28 sec) 
Heartbeat CPU  0 instructions:  474000000 cycles: 5613395983 heartbeat IPC: 0.06828 cumulative IPC: 0.06803 (Simulation time: 0 hr 30 min 32 sec) 
Heartbeat CPU  0 instructions:  475000000 cycles: 5627874172 heartbeat IPC: 0.06907 cumulative IPC: 0.06803 (Simulation time: 0 hr 30 min 37 sec) 
Heartbeat CPU  0 instructions:  476000000 cycles: 5642553248 heartbeat IPC: 0.06812 cumulative IPC: 0.06803 (Simulation time: 0 hr 30 min 42 sec) 
Heartbeat CPU  0 instructions:  477000000 cycles: 5657283037 heartbeat IPC: 0.06789 cumulative IPC: 0.06803 (Simulation time: 0 hr 30 min 46 sec) 
Heartbeat CPU  0 instructions:  478000001 cycles: 5672105470 heartbeat IPC: 0.06747 cumulative IPC: 0.06803 (Simulation time: 0 hr 30 min 51 sec) 
Heartbeat CPU  0 instructions:  479000001 cycles: 5686935020 heartbeat IPC: 0.06743 cumulative IPC: 0.06803 (Simulation time: 0 hr 30 min 55 sec) 
Heartbeat CPU  0 instructions:  480000000 cycles: 5701846928 heartbeat IPC: 0.06706 cumulative IPC: 0.06803 (Simulation time: 0 hr 31 min 0 sec) 
Heartbeat CPU  0 instructions:  481000000 cycles: 5716695517 heartbeat IPC: 0.06735 cumulative IPC: 0.06802 (Simulation time: 0 hr 31 min 4 sec) 
Heartbeat CPU  0 instructions:  482000000 cycles: 5731588468 heartbeat IPC: 0.06715 cumulative IPC: 0.06802 (Simulation time: 0 hr 31 min 9 sec) 
Heartbeat CPU  0 instructions:  483000000 cycles: 5746321705 heartbeat IPC: 0.06787 cumulative IPC: 0.06802 (Simulation time: 0 hr 31 min 14 sec) 
Heartbeat CPU  0 instructions:  484000000 cycles: 5761182955 heartbeat IPC: 0.06729 cumulative IPC: 0.06802 (Simulation time: 0 hr 31 min 18 sec) 
Heartbeat CPU  0 instructions:  485000000 cycles: 5776149015 heartbeat IPC: 0.06682 cumulative IPC: 0.06802 (Simulation time: 0 hr 31 min 23 sec) 
Heartbeat CPU  0 instructions:  486000000 cycles: 5791058086 heartbeat IPC: 0.06707 cumulative IPC: 0.06801 (Simulation time: 0 hr 31 min 27 sec) 
Heartbeat CPU  0 instructions:  487000000 cycles: 5805974366 heartbeat IPC: 0.06704 cumulative IPC: 0.06801 (Simulation time: 0 hr 31 min 32 sec) 
Heartbeat CPU  0 instructions:  488000000 cycles: 5820581589 heartbeat IPC: 0.06846 cumulative IPC: 0.06801 (Simulation time: 0 hr 31 min 36 sec) 
Heartbeat CPU  0 instructions:  489000000 cycles: 5835412509 heartbeat IPC: 0.06743 cumulative IPC: 0.06801 (Simulation time: 0 hr 31 min 41 sec) 
Heartbeat CPU  0 instructions:  490000000 cycles: 5850054560 heartbeat IPC: 0.06830 cumulative IPC: 0.06801 (Simulation time: 0 hr 31 min 45 sec) 
Heartbeat CPU  0 instructions:  491000000 cycles: 5864746629 heartbeat IPC: 0.06806 cumulative IPC: 0.06801 (Simulation time: 0 hr 31 min 50 sec) 
Heartbeat CPU  0 instructions:  492000000 cycles: 5879505174 heartbeat IPC: 0.06776 cumulative IPC: 0.06801 (Simulation time: 0 hr 31 min 55 sec) 
Heartbeat CPU  0 instructions:  493000001 cycles: 5894230068 heartbeat IPC: 0.06791 cumulative IPC: 0.06801 (Simulation time: 0 hr 31 min 59 sec) 
Heartbeat CPU  0 instructions:  494000001 cycles: 5908944725 heartbeat IPC: 0.06796 cumulative IPC: 0.06801 (Simulation time: 0 hr 32 min 4 sec) 
Heartbeat CPU  0 instructions:  495000000 cycles: 5923726739 heartbeat IPC: 0.06765 cumulative IPC: 0.06801 (Simulation time: 0 hr 32 min 8 sec) 
Heartbeat CPU  0 instructions:  496000000 cycles: 5938469144 heartbeat IPC: 0.06783 cumulative IPC: 0.06801 (Simulation time: 0 hr 32 min 13 sec) 
Heartbeat CPU  0 instructions:  497000001 cycles: 5953023639 heartbeat IPC: 0.06871 cumulative IPC: 0.06801 (Simulation time: 0 hr 32 min 18 sec) 
Heartbeat CPU  0 instructions:  498000000 cycles: 5967725897 heartbeat IPC: 0.06802 cumulative IPC: 0.06801 (Simulation time: 0 hr 32 min 22 sec) 
Heartbeat CPU  0 instructions:  499000003 cycles: 5982321597 heartbeat IPC: 0.06851 cumulative IPC: 0.06801 (Simulation time: 0 hr 32 min 27 sec) 
Heartbeat CPU  0 instructions:  500000000 cycles: 5997017273 heartbeat IPC: 0.06805 cumulative IPC: 0.06801 (Simulation time: 0 hr 32 min 31 sec) 
Heartbeat CPU  0 instructions:  501000000 cycles: 6011720187 heartbeat IPC: 0.06801 cumulative IPC: 0.06801 (Simulation time: 0 hr 32 min 36 sec) 
Heartbeat CPU  0 instructions:  502000001 cycles: 6026535113 heartbeat IPC: 0.06750 cumulative IPC: 0.06801 (Simulation time: 0 hr 32 min 40 sec) 
Heartbeat CPU  0 instructions:  503000001 cycles: 6041252554 heartbeat IPC: 0.06795 cumulative IPC: 0.06801 (Simulation time: 0 hr 32 min 45 sec) 
Heartbeat CPU  0 instructions:  504000000 cycles: 6055935290 heartbeat IPC: 0.06811 cumulative IPC: 0.06801 (Simulation time: 0 hr 32 min 50 sec) 
Heartbeat CPU  0 instructions:  505000001 cycles: 6070514214 heartbeat IPC: 0.06859 cumulative IPC: 0.06801 (Simulation time: 0 hr 32 min 54 sec) 
Heartbeat CPU  0 instructions:  506000003 cycles: 6085139419 heartbeat IPC: 0.06838 cumulative IPC: 0.06801 (Simulation time: 0 hr 32 min 59 sec) 
Heartbeat CPU  0 instructions:  507000000 cycles: 6099683604 heartbeat IPC: 0.06876 cumulative IPC: 0.06802 (Simulation time: 0 hr 33 min 3 sec) 
Heartbeat CPU  0 instructions:  508000000 cycles: 6114393169 heartbeat IPC: 0.06798 cumulative IPC: 0.06802 (Simulation time: 0 hr 33 min 8 sec) 
Heartbeat CPU  0 instructions:  509000000 cycles: 6129114549 heartbeat IPC: 0.06793 cumulative IPC: 0.06802 (Simulation time: 0 hr 33 min 12 sec) 
Heartbeat CPU  0 instructions:  510000001 cycles: 6143797278 heartbeat IPC: 0.06811 cumulative IPC: 0.06802 (Simulation time: 0 hr 33 min 17 sec) 
Heartbeat CPU  0 instructions:  511000003 cycles: 6158412638 heartbeat IPC: 0.06842 cumulative IPC: 0.06802 (Simulation time: 0 hr 33 min 22 sec) 
Heartbeat CPU  0 instructions:  512000000 cycles: 6173112167 heartbeat IPC: 0.06803 cumulative IPC: 0.06802 (Simulation time: 0 hr 33 min 26 sec) 
Heartbeat CPU  0 instructions:  513000001 cycles: 6187837367 heartbeat IPC: 0.06791 cumulative IPC: 0.06802 (Simulation time: 0 hr 33 min 31 sec) 
Heartbeat CPU  0 instructions:  514000000 cycles: 6202614442 heartbeat IPC: 0.06767 cumulative IPC: 0.06802 (Simulation time: 0 hr 33 min 35 sec) 
Heartbeat CPU  0 instructions:  515000001 cycles: 6217291354 heartbeat IPC: 0.06813 cumulative IPC: 0.06802 (Simulation time: 0 hr 33 min 40 sec) 
Heartbeat CPU  0 instructions:  516000000 cycles: 6231975493 heartbeat IPC: 0.06810 cumulative IPC: 0.06802 (Simulation time: 0 hr 33 min 45 sec) 
Heartbeat CPU  0 instructions:  517000000 cycles: 6246639860 heartbeat IPC: 0.06819 cumulative IPC: 0.06802 (Simulation time: 0 hr 33 min 49 sec) 
Heartbeat CPU  0 instructions:  518000000 cycles: 6261423141 heartbeat IPC: 0.06764 cumulative IPC: 0.06802 (Simulation time: 0 hr 33 min 54 sec) 
Heartbeat CPU  0 instructions:  519000000 cycles: 6276199941 heartbeat IPC: 0.06767 cumulative IPC: 0.06801 (Simulation time: 0 hr 33 min 58 sec) 
Heartbeat CPU  0 instructions:  520000000 cycles: 6290934348 heartbeat IPC: 0.06787 cumulative IPC: 0.06801 (Simulation time: 0 hr 34 min 3 sec) 
Heartbeat CPU  0 instructions:  521000000 cycles: 6305797951 heartbeat IPC: 0.06728 cumulative IPC: 0.06801 (Simulation time: 0 hr 34 min 7 sec) 
Heartbeat CPU  0 instructions:  522000000 cycles: 6320465483 heartbeat IPC: 0.06818 cumulative IPC: 0.06801 (Simulation time: 0 hr 34 min 12 sec) 
Heartbeat CPU  0 instructions:  523000001 cycles: 6335180262 heartbeat IPC: 0.06796 cumulative IPC: 0.06801 (Simulation time: 0 hr 34 min 17 sec) 
Heartbeat CPU  0 instructions:  524000000 cycles: 6349993109 heartbeat IPC: 0.06751 cumulative IPC: 0.06801 (Simulation time: 0 hr 34 min 21 sec) 
Heartbeat CPU  0 instructions:  525000000 cycles: 6364814584 heartbeat IPC: 0.06747 cumulative IPC: 0.06801 (Simulation time: 0 hr 34 min 26 sec) 
Heartbeat CPU  0 instructions:  526000000 cycles: 6379649033 heartbeat IPC: 0.06741 cumulative IPC: 0.06801 (Simulation time: 0 hr 34 min 30 sec) 
Heartbeat CPU  0 instructions:  527000000 cycles: 6394429986 heartbeat IPC: 0.06765 cumulative IPC: 0.06801 (Simulation time: 0 hr 34 min 35 sec) 
Heartbeat CPU  0 instructions:  528000000 cycles: 6409196811 heartbeat IPC: 0.06772 cumulative IPC: 0.06801 (Simulation time: 0 hr 34 min 39 sec) 
Heartbeat CPU  0 instructions:  529000001 cycles: 6424067641 heartbeat IPC: 0.06725 cumulative IPC: 0.06801 (Simulation time: 0 hr 34 min 44 sec) 
Heartbeat CPU  0 instructions:  530000000 cycles: 6438876525 heartbeat IPC: 0.06753 cumulative IPC: 0.06800 (Simulation time: 0 hr 34 min 49 sec) 
Heartbeat CPU  0 instructions:  531000001 cycles: 6452580534 heartbeat IPC: 0.07297 cumulative IPC: 0.06802 (Simulation time: 0 hr 34 min 53 sec) 
Heartbeat CPU  0 instructions:  532000000 cycles: 6467375638 heartbeat IPC: 0.06759 cumulative IPC: 0.06801 (Simulation time: 0 hr 34 min 57 sec) 
Heartbeat CPU  0 instructions:  533000000 cycles: 6482146307 heartbeat IPC: 0.06770 cumulative IPC: 0.06801 (Simulation time: 0 hr 35 min 2 sec) 
Heartbeat CPU  0 instructions:  534000003 cycles: 6496792191 heartbeat IPC: 0.06828 cumulative IPC: 0.06801 (Simulation time: 0 hr 35 min 7 sec) 
Heartbeat CPU  0 instructions:  535000000 cycles: 6511334512 heartbeat IPC: 0.06876 cumulative IPC: 0.06802 (Simulation time: 0 hr 35 min 11 sec) 
Heartbeat CPU  0 instructions:  536000000 cycles: 6525949095 heartbeat IPC: 0.06842 cumulative IPC: 0.06802 (Simulation time: 0 hr 35 min 16 sec) 
Heartbeat CPU  0 instructions:  537000001 cycles: 6540787855 heartbeat IPC: 0.06739 cumulative IPC: 0.06802 (Simulation time: 0 hr 35 min 20 sec) 
Heartbeat CPU  0 instructions:  538000000 cycles: 6555503990 heartbeat IPC: 0.06795 cumulative IPC: 0.06802 (Simulation time: 0 hr 35 min 25 sec) 
Heartbeat CPU  0 instructions:  539000000 cycles: 6570271575 heartbeat IPC: 0.06772 cumulative IPC: 0.06801 (Simulation time: 0 hr 35 min 29 sec) 
Heartbeat CPU  0 instructions:  540000000 cycles: 6585008493 heartbeat IPC: 0.06786 cumulative IPC: 0.06801 (Simulation time: 0 hr 35 min 34 sec) 
Heartbeat CPU  0 instructions:  541000000 cycles: 6599599929 heartbeat IPC: 0.06853 cumulative IPC: 0.06802 (Simulation time: 0 hr 35 min 38 sec) 
Heartbeat CPU  0 instructions:  542000001 cycles: 6614115850 heartbeat IPC: 0.06889 cumulative IPC: 0.06802 (Simulation time: 0 hr 35 min 43 sec) 
Heartbeat CPU  0 instructions:  543000000 cycles: 6628733660 heartbeat IPC: 0.06841 cumulative IPC: 0.06802 (Simulation time: 0 hr 35 min 48 sec) 
Heartbeat CPU  0 instructions:  544000000 cycles: 6643305659 heartbeat IPC: 0.06862 cumulative IPC: 0.06802 (Simulation time: 0 hr 35 min 52 sec) 
Heartbeat CPU  0 instructions:  545000000 cycles: 6658049800 heartbeat IPC: 0.06782 cumulative IPC: 0.06802 (Simulation time: 0 hr 35 min 57 sec) 
Heartbeat CPU  0 instructions:  546000001 cycles: 6672783390 heartbeat IPC: 0.06787 cumulative IPC: 0.06802 (Simulation time: 0 hr 36 min 1 sec) 
Heartbeat CPU  0 instructions:  547000001 cycles: 6687503691 heartbeat IPC: 0.06793 cumulative IPC: 0.06802 (Simulation time: 0 hr 36 min 6 sec) 
Heartbeat CPU  0 instructions:  548000000 cycles: 6702308194 heartbeat IPC: 0.06755 cumulative IPC: 0.06802 (Simulation time: 0 hr 36 min 10 sec) 
Heartbeat CPU  0 instructions:  549000000 cycles: 6717057738 heartbeat IPC: 0.06780 cumulative IPC: 0.06802 (Simulation time: 0 hr 36 min 15 sec) 
Heartbeat CPU  0 instructions:  550000001 cycles: 6731687310 heartbeat IPC: 0.06835 cumulative IPC: 0.06802 (Simulation time: 0 hr 36 min 19 sec) 
Heartbeat CPU  0 instructions:  551000000 cycles: 6746303087 heartbeat IPC: 0.06842 cumulative IPC: 0.06802 (Simulation time: 0 hr 36 min 24 sec) 
Heartbeat CPU  0 instructions:  552000000 cycles: 6761009557 heartbeat IPC: 0.06800 cumulative IPC: 0.06802 (Simulation time: 0 hr 36 min 29 sec) 
Heartbeat CPU  0 instructions:  553000000 cycles: 6775634798 heartbeat IPC: 0.06837 cumulative IPC: 0.06802 (Simulation time: 0 hr 36 min 33 sec) 
Heartbeat CPU  0 instructions:  554000001 cycles: 6790211451 heartbeat IPC: 0.06860 cumulative IPC: 0.06802 (Simulation time: 0 hr 36 min 38 sec) 
Heartbeat CPU  0 instructions:  555000000 cycles: 6804842180 heartbeat IPC: 0.06835 cumulative IPC: 0.06802 (Simulation time: 0 hr 36 min 42 sec) 
Heartbeat CPU  0 instructions:  556000000 cycles: 6819512923 heartbeat IPC: 0.06816 cumulative IPC: 0.06802 (Simulation time: 0 hr 36 min 47 sec) 
Heartbeat CPU  0 instructions:  557000000 cycles: 6834133122 heartbeat IPC: 0.06840 cumulative IPC: 0.06802 (Simulation time: 0 hr 36 min 52 sec) 
Heartbeat CPU  0 instructions:  558000000 cycles: 6848505799 heartbeat IPC: 0.06958 cumulative IPC: 0.06803 (Simulation time: 0 hr 36 min 56 sec) 
Heartbeat CPU  0 instructions:  559000001 cycles: 6863210406 heartbeat IPC: 0.06801 cumulative IPC: 0.06803 (Simulation time: 0 hr 37 min 1 sec) 
Heartbeat CPU  0 instructions:  560000000 cycles: 6878137009 heartbeat IPC: 0.06699 cumulative IPC: 0.06802 (Simulation time: 0 hr 37 min 5 sec) 
Heartbeat CPU  0 instructions:  561000001 cycles: 6892941520 heartbeat IPC: 0.06755 cumulative IPC: 0.06802 (Simulation time: 0 hr 37 min 10 sec) 
Heartbeat CPU  0 instructions:  562000000 cycles: 6907660327 heartbeat IPC: 0.06794 cumulative IPC: 0.06802 (Simulation time: 0 hr 37 min 14 sec) 
Heartbeat CPU  0 instructions:  563000000 cycles: 6922356755 heartbeat IPC: 0.06804 cumulative IPC: 0.06802 (Simulation time: 0 hr 37 min 19 sec) 
Heartbeat CPU  0 instructions:  564000000 cycles: 6937060382 heartbeat IPC: 0.06801 cumulative IPC: 0.06802 (Simulation time: 0 hr 37 min 24 sec) 
Heartbeat CPU  0 instructions:  565000003 cycles: 6951822622 heartbeat IPC: 0.06774 cumulative IPC: 0.06802 (Simulation time: 0 hr 37 min 28 sec) 
Heartbeat CPU  0 instructions:  566000001 cycles: 6966672741 heartbeat IPC: 0.06734 cumulative IPC: 0.06802 (Simulation time: 0 hr 37 min 33 sec) 
Heartbeat CPU  0 instructions:  567000000 cycles: 6981456193 heartbeat IPC: 0.06764 cumulative IPC: 0.06802 (Simulation time: 0 hr 37 min 37 sec) 
Heartbeat CPU  0 instructions:  568000000 cycles: 6996115792 heartbeat IPC: 0.06821 cumulative IPC: 0.06802 (Simulation time: 0 hr 37 min 42 sec) 
Heartbeat CPU  0 instructions:  569000002 cycles: 7010813832 heartbeat IPC: 0.06804 cumulative IPC: 0.06802 (Simulation time: 0 hr 37 min 46 sec) 
Heartbeat CPU  0 instructions:  570000001 cycles: 7025437182 heartbeat IPC: 0.06838 cumulative IPC: 0.06802 (Simulation time: 0 hr 37 min 51 sec) 
Heartbeat CPU  0 instructions:  571000001 cycles: 7040406796 heartbeat IPC: 0.06680 cumulative IPC: 0.06802 (Simulation time: 0 hr 37 min 55 sec) 
Heartbeat CPU  0 instructions:  572000000 cycles: 7055190098 heartbeat IPC: 0.06764 cumulative IPC: 0.06802 (Simulation time: 0 hr 38 min 0 sec) 
Heartbeat CPU  0 instructions:  573000000 cycles: 7070041949 heartbeat IPC: 0.06733 cumulative IPC: 0.06802 (Simulation time: 0 hr 38 min 4 sec) 
Heartbeat CPU  0 instructions:  574000000 cycles: 7084827608 heartbeat IPC: 0.06763 cumulative IPC: 0.06801 (Simulation time: 0 hr 38 min 9 sec) 
Heartbeat CPU  0 instructions:  575000000 cycles: 7099541039 heartbeat IPC: 0.06797 cumulative IPC: 0.06801 (Simulation time: 0 hr 38 min 13 sec) 
Heartbeat CPU  0 instructions:  576000000 cycles: 7114052641 heartbeat IPC: 0.06891 cumulative IPC: 0.06802 (Simulation time: 0 hr 38 min 18 sec) 
Heartbeat CPU  0 instructions:  577000000 cycles: 7128603195 heartbeat IPC: 0.06873 cumulative IPC: 0.06802 (Simulation time: 0 hr 38 min 22 sec) 
Heartbeat CPU  0 instructions:  578000000 cycles: 7143165159 heartbeat IPC: 0.06867 cumulative IPC: 0.06802 (Simulation time: 0 hr 38 min 27 sec) 
Heartbeat CPU  0 instructions:  579000001 cycles: 7157679149 heartbeat IPC: 0.06890 cumulative IPC: 0.06802 (Simulation time: 0 hr 38 min 31 sec) 
Heartbeat CPU  0 instructions:  580000000 cycles: 7172059476 heartbeat IPC: 0.06954 cumulative IPC: 0.06802 (Simulation time: 0 hr 38 min 36 sec) 
Heartbeat CPU  0 instructions:  581000000 cycles: 7186428516 heartbeat IPC: 0.06959 cumulative IPC: 0.06803 (Simulation time: 0 hr 38 min 40 sec) 
Heartbeat CPU  0 instructions:  582000001 cycles: 7200774588 heartbeat IPC: 0.06971 cumulative IPC: 0.06803 (Simulation time: 0 hr 38 min 45 sec) 
Heartbeat CPU  0 instructions:  583000000 cycles: 7215114390 heartbeat IPC: 0.06974 cumulative IPC: 0.06803 (Simulation time: 0 hr 38 min 50 sec) 
Heartbeat CPU  0 instructions:  584000000 cycles: 7229492702 heartbeat IPC: 0.06955 cumulative IPC: 0.06804 (Simulation time: 0 hr 38 min 54 sec) 
Heartbeat CPU  0 instructions:  585000000 cycles: 7243858240 heartbeat IPC: 0.06961 cumulative IPC: 0.06804 (Simulation time: 0 hr 38 min 59 sec) 
Heartbeat CPU  0 instructions:  586000001 cycles: 7258368126 heartbeat IPC: 0.06892 cumulative IPC: 0.06804 (Simulation time: 0 hr 39 min 3 sec) 
Heartbeat CPU  0 instructions:  587000000 cycles: 7272842662 heartbeat IPC: 0.06909 cumulative IPC: 0.06804 (Simulation time: 0 hr 39 min 8 sec) 
Heartbeat CPU  0 instructions:  588000000 cycles: 7287387646 heartbeat IPC: 0.06875 cumulative IPC: 0.06805 (Simulation time: 0 hr 39 min 12 sec) 
Heartbeat CPU  0 instructions:  589000002 cycles: 7302005683 heartbeat IPC: 0.06841 cumulative IPC: 0.06805 (Simulation time: 0 hr 39 min 17 sec) 
Heartbeat CPU  0 instructions:  590000000 cycles: 7316651602 heartbeat IPC: 0.06828 cumulative IPC: 0.06805 (Simulation time: 0 hr 39 min 21 sec) 
Heartbeat CPU  0 instructions:  591000000 cycles: 7331437567 heartbeat IPC: 0.06763 cumulative IPC: 0.06805 (Simulation time: 0 hr 39 min 26 sec) 
Heartbeat CPU  0 instructions:  592000000 cycles: 7346196284 heartbeat IPC: 0.06776 cumulative IPC: 0.06805 (Simulation time: 0 hr 39 min 31 sec) 
Heartbeat CPU  0 instructions:  593000000 cycles: 7361028974 heartbeat IPC: 0.06742 cumulative IPC: 0.06804 (Simulation time: 0 hr 39 min 35 sec) 
Heartbeat CPU  0 instructions:  594000000 cycles: 7375921568 heartbeat IPC: 0.06715 cumulative IPC: 0.06804 (Simulation time: 0 hr 39 min 40 sec) 
Heartbeat CPU  0 instructions:  595000002 cycles: 7390816058 heartbeat IPC: 0.06714 cumulative IPC: 0.06804 (Simulation time: 0 hr 39 min 44 sec) 
Heartbeat CPU  0 instructions:  596000000 cycles: 7405669367 heartbeat IPC: 0.06732 cumulative IPC: 0.06804 (Simulation time: 0 hr 39 min 49 sec) 
Heartbeat CPU  0 instructions:  597000000 cycles: 7420497630 heartbeat IPC: 0.06744 cumulative IPC: 0.06804 (Simulation time: 0 hr 39 min 54 sec) 
Heartbeat CPU  0 instructions:  598000000 cycles: 7435278188 heartbeat IPC: 0.06766 cumulative IPC: 0.06804 (Simulation time: 0 hr 39 min 58 sec) 
Heartbeat CPU  0 instructions:  599000000 cycles: 7450008298 heartbeat IPC: 0.06789 cumulative IPC: 0.06804 (Simulation time: 0 hr 40 min 3 sec) 
Heartbeat CPU  0 instructions:  600000000 cycles: 7464737561 heartbeat IPC: 0.06789 cumulative IPC: 0.06804 (Simulation time: 0 hr 40 min 7 sec) 
Finished CPU 0 instructions: 500000003 cycles: 7348977397 cumulative IPC: 0.06804 (Simulation time: 0 hr 40 min 7 sec) 

ChampSim completed all CPUs

[ROI Statistics]
Core_0_instructions 500000003
Core_0_cycles 7348977397
Core_0_IPC 0.06804

Core_0_branch_prediction_accuracy 91.38259
Core_0_branch_MPKI 20.71461
Core_0_average_ROB_occupancy_at_mispredict 46.75682

Core_0_L1D_total_access 104101910
Core_0_L1D_total_hit 29057514
Core_0_L1D_total_miss 75044396
Core_0_L1D_loads 103986956
Core_0_L1D_load_hit 28945054
Core_0_L1D_load_miss 75041902
Core_0_L1D_RFOs 114954
Core_0_L1D_RFO_hit 112460
Core_0_L1D_RFO_miss 2494
Core_0_L1D_prefetches 0
Core_0_L1D_prefetch_hit 0
Core_0_L1D_prefetch_miss 0
Core_0_L1D_writebacks 0
Core_0_L1D_writeback_hit 0
Core_0_L1D_writeback_miss 0
Core_0_L1D_prefetch_requested 0
Core_0_L1D_prefetch_dropped 0
Core_0_L1D_prefetch_issued 0
Core_0_L1D_prefetch_filled 0
Core_0_L1D_prefetch_useful 0
Core_0_L1D_prefetch_useless 0
Core_0_L1D_prefetch_late 0
Core_0_L1D_average_miss_latency 176.71190

Core_0_L1D_rq_access 155342330
Core_0_L1D_rq_forward 0
Core_0_L1D_rq_merged 51320073
Core_0_L1D_rq_to_cache 104022257
Core_0_L1D_rq_full 0

Core_0_L1D_wq_access 123159
Core_0_L1D_wq_forward 0
Core_0_L1D_wq_merged 6868
Core_0_L1D_wq_to_cache 116291
Core_0_L1D_wq_full 0

Core_0_L1D_pq_access 0
Core_0_L1D_pq_forward 0
Core_0_L1D_pq_merged 0
Core_0_L1D_pq_to_cache 0
Core_0_L1D_pq_full 0

Core_0_L1D_acc_epochs 7165825
Core_0_L1D_acc_level_0 7165825
Core_0_L1D_acc_level_1 0
Core_0_L1D_acc_level_2 0
Core_0_L1D_acc_level_3 0
Core_0_L1D_acc_level_4 0
Core_0_L1D_acc_level_5 0
Core_0_L1D_acc_level_6 0
Core_0_L1D_acc_level_7 0
Core_0_L1D_acc_level_8 0
Core_0_L1D_acc_level_9 0

Core_0_L1I_total_access 91195331
Core_0_L1I_total_hit 91195331
Core_0_L1I_total_miss 0
Core_0_L1I_loads 91195331
Core_0_L1I_load_hit 91195331
Core_0_L1I_load_miss 0
Core_0_L1I_RFOs 0
Core_0_L1I_RFO_hit 0
Core_0_L1I_RFO_miss 0
Core_0_L1I_prefetches 0
Core_0_L1I_prefetch_hit 0
Core_0_L1I_prefetch_miss 0
Core_0_L1I_writebacks 0
Core_0_L1I_writeback_hit 0
Core_0_L1I_writeback_miss 0
Core_0_L1I_prefetch_requested 0
Core_0_L1I_prefetch_dropped 0
Core_0_L1I_prefetch_issued 0
Core_0_L1I_prefetch_filled 0
Core_0_L1I_prefetch_useful 0
Core_0_L1I_prefetch_useless 0
Core_0_L1I_prefetch_late 0
Core_0_L1I_average_miss_latency -nan

Core_0_L1I_rq_access 499999982
Core_0_L1I_rq_forward 0
Core_0_L1I_rq_merged 408804651
Core_0_L1I_rq_to_cache 91195331
Core_0_L1I_rq_full 0

Core_0_L1I_wq_access 0
Core_0_L1I_wq_forward 0
Core_0_L1I_wq_merged 0
Core_0_L1I_wq_to_cache 0
Core_0_L1I_wq_full 0

Core_0_L1I_pq_access 0
Core_0_L1I_pq_forward 0
Core_0_L1I_pq_merged 0
Core_0_L1I_pq_to_cache 0
Core_0_L1I_pq_full 0

Core_0_L1I_acc_epochs 7165825
Core_0_L1I_acc_level_0 7165825
Core_0_L1I_acc_level_1 0
Core_0_L1I_acc_level_2 0
Core_0_L1I_acc_level_3 0
Core_0_L1I_acc_level_4 0
Core_0_L1I_acc_level_5 0
Core_0_L1I_acc_level_6 0
Core_0_L1I_acc_level_7 0
Core_0_L1I_acc_level_8 0
Core_0_L1I_acc_level_9 0

Core_0_L2C_total_access 75106946
Core_0_L2C_total_hit 15332957
Core_0_L2C_total_miss 59773989
Core_0_L2C_loads 75041899
Core_0_L2C_load_hit 15269814
Core_0_L2C_load_miss 59772085
Core_0_L2C_RFOs 2494
Core_0_L2C_RFO_hit 590
Core_0_L2C_RFO_miss 1904
Core_0_L2C_prefetches 0
Core_0_L2C_prefetch_hit 0
Core_0_L2C_prefetch_miss 0
Core_0_L2C_writebacks 62553
Core_0_L2C_writeback_hit 62553
Core_0_L2C_writeback_miss 0
Core_0_L2C_prefetch_requested 0
Core_0_L2C_prefetch_dropped 0
Core_0_L2C_prefetch_issued 0
Core_0_L2C_prefetch_filled 0
Core_0_L2C_prefetch_useful 0
Core_0_L2C_prefetch_useless 0
Core_0_L2C_prefetch_late 0
Core_0_L2C_average_miss_latency 203.80816

Core_0_L2C_rq_access 75044396
Core_0_L2C_rq_forward 0
Core_0_L2C_rq_merged 0
Core_0_L2C_rq_to_cache 75044393
Core_0_L2C_rq_full 0

Core_0_L2C_wq_access 62553
Core_0_L2C_wq_forward 3
Core_0_L2C_wq_merged 0
Core_0_L2C_wq_to_cache 62553
Core_0_L2C_wq_full 0

Core_0_L2C_pq_access 0
Core_0_L2C_pq_forward 0
Core_0_L2C_pq_merged 0
Core_0_L2C_pq_to_cache 0
Core_0_L2C_pq_full 0

Core_0_L2C_acc_epochs 7165825
Core_0_L2C_acc_level_0 7165825
Core_0_L2C_acc_level_1 0
Core_0_L2C_acc_level_2 0
Core_0_L2C_acc_level_3 0
Core_0_L2C_acc_level_4 0
Core_0_L2C_acc_level_5 0
Core_0_L2C_acc_level_6 0
Core_0_L2C_acc_level_7 0
Core_0_L2C_acc_level_8 0
Core_0_L2C_acc_level_9 0

Core_0_LLC_total_access 59834862
Core_0_LLC_total_hit 33117306
Core_0_LLC_total_miss 26717556
Core_0_LLC_loads 59772085
Core_0_LLC_load_hit 33060818
Core_0_LLC_load_miss 26711267
Core_0_LLC_RFOs 1904
Core_0_LLC_RFO_hit 1039
Core_0_LLC_RFO_miss 865
Core_0_LLC_prefetches 0
Core_0_LLC_prefetch_hit 0
Core_0_LLC_prefetch_miss 0
Core_0_LLC_writebacks 60873
Core_0_LLC_writeback_hit 55449
Core_0_LLC_writeback_miss 5424
Core_0_LLC_prefetch_requested 0
Core_0_LLC_prefetch_dropped 0
Core_0_LLC_prefetch_issued 0
Core_0_LLC_prefetch_filled 0
Core_0_LLC_prefetch_useful 0
Core_0_LLC_prefetch_useless 0
Core_0_LLC_prefetch_late 0
Core_0_LLC_average_miss_latency 388.65363

Core_0_LLC_rq_access 59773989
Core_0_LLC_rq_forward 0
Core_0_LLC_rq_merged 0
Core_0_LLC_rq_to_cache 59773989
Core_0_LLC_rq_full 0

Core_0_LLC_wq_access 60873
Core_0_LLC_wq_forward 0
Core_0_LLC_wq_merged 0
Core_0_LLC_wq_to_cache 60873
Core_0_LLC_wq_full 0

Core_0_LLC_pq_access 0
Core_0_LLC_pq_forward 0
Core_0_LLC_pq_merged 0
Core_0_LLC_pq_to_cache 0
Core_0_LLC_pq_full 0

Core_0_LLC_acc_epochs 7289783
Core_0_LLC_acc_level_0 7289783
Core_0_LLC_acc_level_1 0
Core_0_LLC_acc_level_2 0
Core_0_LLC_acc_level_3 0
Core_0_LLC_acc_level_4 0
Core_0_LLC_acc_level_5 0
Core_0_LLC_acc_level_6 0
Core_0_LLC_acc_level_7 0
Core_0_LLC_acc_level_8 0
Core_0_LLC_acc_level_9 0

Core_0_major_page_fault 0
Core_0_minor_page_fault 428295

Channel_0_RQ_row_buffer_hit 20488
Channel_0_RQ_row_buffer_miss 26691644
Channel_0_WQ_row_buffer_hit 3425
Channel_0_WQ_row_buffer_miss 32697
Channel_0_WQ_full 0
Channel_0_dbus_congested 65778

avg_congested_cycle 17

DRAM_bw_pochs 29159132
DRAM_bw_level_0 24836596
DRAM_bw_level_1 3216254
DRAM_bw_level_2 753101
DRAM_bw_level_3 353181
