*************************************************
   ChampSim Multicore Out-of-Order Simulator
   Last compiled: Dec 11 2024 17:59:53
*************************************************
parsing config file: /home/functionmain/桌面/Pythia/config/mlop.ini

trace_0 /home/functionmain/桌面/Pythia/traces/429.mcf-51B.champsimtrace.xz
adding L2C_PREFETCHER: MLOP
Initialize SHIP state
warmup_instructions 100000000
simulation_instructions 500000000
champsim_seed 168
measure_ipc 0
measure_ipc_epoch 1000
measure_dram_bw 1
measure_dram_bw_epoch 256
measure_cache_acc 1
measure_cache_acc_epoch 1024
l1d_perfect 0
l2c_perfect 0
llc_perfect 0
l1d_semi_perfect 0
l2c_semi_perfect 0
llc_semi_perfect 0
semi_perfect_cache_page_buffer_size 64

num_cpus 1
cpu_freq 4000
dram_io_freq 2400
page_size 4096
block_size 64
max_read_per_cycle 8
max_fill_per_cycle 1
dram_channels 1
log2_dram_channels 0
dram_ranks 1
dram_banks 8
dram_rows 65536
dram_columns 128
dram_row_size 8
dram_size 4096
dram_pages 1048576

fetch_width 6
decode_width 6
exec_width 4
lq_width 2
sq_width 2
retire_width 4
scheduler_size 128
branch_mispredict_penalty 20
rob_size 256
lq_size 72
sq_size 56
num_instr_destinations_sparc 4
num_instr_destinations 2
num_instr_sources 4

itlb_set 16
itlb_way 8
itlb_rq_size 16
itlb_wq_size 16
itlb_pq_size 0
itlb_mshr_size 8
itlb_latency 1

dtlb_set 16
dtlb_way 4
dtlb_rq_size 16
dtlb_wq_size 16
dtlb_pq_size 0
dtlb_mshr_size 8
dtlb_latency 1

stlb_set 128
stlb_way 12
stlb_rq_size 32
stlb_wq_size 32
stlb_pq_size 0
stlb_mshr_size 16
stlb_latency 8

l1i_size 32
l1i_set 64
l1i_way 8
l1i_rq_size 64
l1i_wq_size 64
l1i_pq_size 8
l1i_mshr_size 8
l1i_latency 1

l1d_size 32
l1d_set 64
l1d_way 8
l1d_rq_size 64
l1d_wq_size 64
l1d_pq_size 8
l1d_mshr_size 16
l1d_latency 4

l2c_size 256
l2c_set 512
l2c_way 8
l2c_rq_size 32
l2c_wq_size 32
l2c_pq_size 32
l2c_mshr_size 32
l2c_latency 10

llc_size 2048
llc_set 2048
llc_way 16
llc_rq_size 32
llc_wq_size 32
llc_pq_size 32
llc_mshr_size 64
llc_latency 20

dram_channel_width 8
dram_wq_size 64
dram_rq_size 64
tRP 15
tRCD 15
tCAS 12.5
dram_dbus_turn_around_time 30
dram_write_high_wm 56
dram_write_low_wm 48
min_dram_writes_per_switch 16
dram_mtps 2400
dram_dbus_return_time 13

mlop_pref_degree 16
mlop_num_updates 500
mlop_l1d_thresh 2
mlop_l2c_thresh 0.75
mlop_llc_thresh 0.3
mlop_debug_level 0
mlop_blocks_in_cache 4096
mlop_blocks_in_zone 64
mlop_amt_size 2048
mlop_PF_DEGREE 16
mlop_NUM_UPDATES 500
mlop_L1D_THRESH 1000
mlop_L2C_THRESH 375
mlop_LLC_THRESH 150
mlop_ORIGIN 63
mlop_MAX_OFFSET 63
mlop_MIN_OFFSET -63
mlop_ORIGIN 63
mlop_NUM_OFFSETS 127


Heartbeat CPU  0 instructions:    1000003 cycles:     854260 heartbeat IPC: 1.17061 cumulative IPC: 1.17061 (Simulation time: 0 hr 0 min 2 sec) 
Heartbeat CPU  0 instructions:    2000000 cycles:    1632914 heartbeat IPC: 1.28426 cumulative IPC: 1.22480 (Simulation time: 0 hr 0 min 5 sec) 
Heartbeat CPU  0 instructions:    3000002 cycles:    2424148 heartbeat IPC: 1.26385 cumulative IPC: 1.23755 (Simulation time: 0 hr 0 min 7 sec) 
Heartbeat CPU  0 instructions:    4000000 cycles:    3243315 heartbeat IPC: 1.22075 cumulative IPC: 1.23331 (Simulation time: 0 hr 0 min 9 sec) 
Heartbeat CPU  0 instructions:    5000002 cycles:    4025747 heartbeat IPC: 1.27807 cumulative IPC: 1.24201 (Simulation time: 0 hr 0 min 11 sec) 
Heartbeat CPU  0 instructions:    6000001 cycles:    4798090 heartbeat IPC: 1.29476 cumulative IPC: 1.25050 (Simulation time: 0 hr 0 min 13 sec) 
Heartbeat CPU  0 instructions:    7000000 cycles:    5575486 heartbeat IPC: 1.28634 cumulative IPC: 1.25550 (Simulation time: 0 hr 0 min 15 sec) 
Heartbeat CPU  0 instructions:    8000000 cycles:    6423861 heartbeat IPC: 1.17872 cumulative IPC: 1.24536 (Simulation time: 0 hr 0 min 17 sec) 
Heartbeat CPU  0 instructions:    9000001 cycles:    7217760 heartbeat IPC: 1.25961 cumulative IPC: 1.24692 (Simulation time: 0 hr 0 min 20 sec) 
Heartbeat CPU  0 instructions:   10000000 cycles:    8021977 heartbeat IPC: 1.24344 cumulative IPC: 1.24658 (Simulation time: 0 hr 0 min 22 sec) 
Heartbeat CPU  0 instructions:   11000002 cycles:    8869744 heartbeat IPC: 1.17957 cumulative IPC: 1.24017 (Simulation time: 0 hr 0 min 24 sec) 
Heartbeat CPU  0 instructions:   12000000 cycles:    9720864 heartbeat IPC: 1.17492 cumulative IPC: 1.23446 (Simulation time: 0 hr 0 min 26 sec) 
Heartbeat CPU  0 instructions:   13000000 cycles:   10534230 heartbeat IPC: 1.22946 cumulative IPC: 1.23407 (Simulation time: 0 hr 0 min 28 sec) 
Heartbeat CPU  0 instructions:   14000002 cycles:   11305067 heartbeat IPC: 1.29729 cumulative IPC: 1.23838 (Simulation time: 0 hr 0 min 31 sec) 
Heartbeat CPU  0 instructions:   15000001 cycles:   12079200 heartbeat IPC: 1.29177 cumulative IPC: 1.24180 (Simulation time: 0 hr 0 min 33 sec) 
Heartbeat CPU  0 instructions:   16000000 cycles:   12871050 heartbeat IPC: 1.26286 cumulative IPC: 1.24310 (Simulation time: 0 hr 0 min 35 sec) 
Heartbeat CPU  0 instructions:   17000000 cycles:   13678717 heartbeat IPC: 1.23813 cumulative IPC: 1.24281 (Simulation time: 0 hr 0 min 37 sec) 
Heartbeat CPU  0 instructions:   18000002 cycles:   14453924 heartbeat IPC: 1.28998 cumulative IPC: 1.24534 (Simulation time: 0 hr 0 min 39 sec) 
Heartbeat CPU  0 instructions:   19000000 cycles:   15277004 heartbeat IPC: 1.21495 cumulative IPC: 1.24370 (Simulation time: 0 hr 0 min 41 sec) 
Heartbeat CPU  0 instructions:   20000000 cycles:   16119112 heartbeat IPC: 1.18750 cumulative IPC: 1.24076 (Simulation time: 0 hr 0 min 43 sec) 
Heartbeat CPU  0 instructions:   21000001 cycles:   16918953 heartbeat IPC: 1.25025 cumulative IPC: 1.24121 (Simulation time: 0 hr 0 min 46 sec) 
Heartbeat CPU  0 instructions:   22000000 cycles:   17709682 heartbeat IPC: 1.26465 cumulative IPC: 1.24226 (Simulation time: 0 hr 0 min 48 sec) 
Heartbeat CPU  0 instructions:   23000001 cycles:   18517385 heartbeat IPC: 1.23808 cumulative IPC: 1.24208 (Simulation time: 0 hr 0 min 50 sec) 
Heartbeat CPU  0 instructions:   24000000 cycles:   19312333 heartbeat IPC: 1.25794 cumulative IPC: 1.24273 (Simulation time: 0 hr 0 min 52 sec) 
Heartbeat CPU  0 instructions:   25000003 cycles:   20118604 heartbeat IPC: 1.24028 cumulative IPC: 1.24263 (Simulation time: 0 hr 0 min 54 sec) 
Heartbeat CPU  0 instructions:   26000002 cycles:   20922824 heartbeat IPC: 1.24344 cumulative IPC: 1.24266 (Simulation time: 0 hr 0 min 56 sec) 
Heartbeat CPU  0 instructions:   27000000 cycles:   21736680 heartbeat IPC: 1.22872 cumulative IPC: 1.24214 (Simulation time: 0 hr 0 min 58 sec) 
Heartbeat CPU  0 instructions:   28000000 cycles:   22582538 heartbeat IPC: 1.18223 cumulative IPC: 1.23990 (Simulation time: 0 hr 1 min 0 sec) 
Heartbeat CPU  0 instructions:   29000000 cycles:   23360563 heartbeat IPC: 1.28531 cumulative IPC: 1.24141 (Simulation time: 0 hr 1 min 3 sec) 
Heartbeat CPU  0 instructions:   30000000 cycles:   24181482 heartbeat IPC: 1.21815 cumulative IPC: 1.24062 (Simulation time: 0 hr 1 min 5 sec) 
Heartbeat CPU  0 instructions:   31000002 cycles:   25040572 heartbeat IPC: 1.16402 cumulative IPC: 1.23799 (Simulation time: 0 hr 1 min 7 sec) 
Heartbeat CPU  0 instructions:   32000000 cycles:   25903505 heartbeat IPC: 1.15884 cumulative IPC: 1.23535 (Simulation time: 0 hr 1 min 9 sec) 
Heartbeat CPU  0 instructions:   33000002 cycles:   26665375 heartbeat IPC: 1.31256 cumulative IPC: 1.23756 (Simulation time: 0 hr 1 min 11 sec) 
Heartbeat CPU  0 instructions:   34000003 cycles:   27525957 heartbeat IPC: 1.16201 cumulative IPC: 1.23520 (Simulation time: 0 hr 1 min 13 sec) 
Heartbeat CPU  0 instructions:   35000001 cycles:   28383656 heartbeat IPC: 1.16591 cumulative IPC: 1.23310 (Simulation time: 0 hr 1 min 15 sec) 
Heartbeat CPU  0 instructions:   36000000 cycles:   29208140 heartbeat IPC: 1.21288 cumulative IPC: 1.23253 (Simulation time: 0 hr 1 min 18 sec) 
Heartbeat CPU  0 instructions:   37000003 cycles:   29983672 heartbeat IPC: 1.28944 cumulative IPC: 1.23401 (Simulation time: 0 hr 1 min 20 sec) 
Heartbeat CPU  0 instructions:   38000003 cycles:   30789238 heartbeat IPC: 1.24136 cumulative IPC: 1.23420 (Simulation time: 0 hr 1 min 22 sec) 
Heartbeat CPU  0 instructions:   39000000 cycles:   31509259 heartbeat IPC: 1.38884 cumulative IPC: 1.23773 (Simulation time: 0 hr 1 min 24 sec) 
Heartbeat CPU  0 instructions:   40000000 cycles:   32216280 heartbeat IPC: 1.41439 cumulative IPC: 1.24161 (Simulation time: 0 hr 1 min 26 sec) 
Heartbeat CPU  0 instructions:   41000003 cycles:   32972197 heartbeat IPC: 1.32290 cumulative IPC: 1.24347 (Simulation time: 0 hr 1 min 29 sec) 
Heartbeat CPU  0 instructions:   42000001 cycles:   33652539 heartbeat IPC: 1.46985 cumulative IPC: 1.24805 (Simulation time: 0 hr 1 min 31 sec) 
Heartbeat CPU  0 instructions:   43000000 cycles:   34342576 heartbeat IPC: 1.44920 cumulative IPC: 1.25209 (Simulation time: 0 hr 1 min 33 sec) 
Heartbeat CPU  0 instructions:   44000000 cycles:   35091955 heartbeat IPC: 1.33444 cumulative IPC: 1.25385 (Simulation time: 0 hr 1 min 35 sec) 
Heartbeat CPU  0 instructions:   45000000 cycles:   35949509 heartbeat IPC: 1.16611 cumulative IPC: 1.25176 (Simulation time: 0 hr 1 min 37 sec) 
Heartbeat CPU  0 instructions:   46000000 cycles:   36903790 heartbeat IPC: 1.04791 cumulative IPC: 1.24648 (Simulation time: 0 hr 1 min 39 sec) 
Heartbeat CPU  0 instructions:   47000001 cycles:   37929893 heartbeat IPC: 0.97456 cumulative IPC: 1.23913 (Simulation time: 0 hr 1 min 41 sec) 
Heartbeat CPU  0 instructions:   48000000 cycles:   38925679 heartbeat IPC: 1.00423 cumulative IPC: 1.23312 (Simulation time: 0 hr 1 min 43 sec) 
Heartbeat CPU  0 instructions:   49000001 cycles:   39819020 heartbeat IPC: 1.11939 cumulative IPC: 1.23057 (Simulation time: 0 hr 1 min 45 sec) 
Heartbeat CPU  0 instructions:   50000001 cycles:   40675070 heartbeat IPC: 1.16816 cumulative IPC: 1.22925 (Simulation time: 0 hr 1 min 48 sec) 
Heartbeat CPU  0 instructions:   51000001 cycles:   41664173 heartbeat IPC: 1.01102 cumulative IPC: 1.22407 (Simulation time: 0 hr 1 min 49 sec) 
Heartbeat CPU  0 instructions:   52000000 cycles:   42607987 heartbeat IPC: 1.05953 cumulative IPC: 1.22043 (Simulation time: 0 hr 1 min 51 sec) 
Heartbeat CPU  0 instructions:   53000002 cycles:   43500908 heartbeat IPC: 1.11992 cumulative IPC: 1.21837 (Simulation time: 0 hr 1 min 53 sec) 
Heartbeat CPU  0 instructions:   54000002 cycles:   44296769 heartbeat IPC: 1.25650 cumulative IPC: 1.21905 (Simulation time: 0 hr 1 min 55 sec) 
Heartbeat CPU  0 instructions:   55000001 cycles:   45184032 heartbeat IPC: 1.12706 cumulative IPC: 1.21724 (Simulation time: 0 hr 1 min 57 sec) 
Heartbeat CPU  0 instructions:   56000000 cycles:   46148534 heartbeat IPC: 1.03680 cumulative IPC: 1.21347 (Simulation time: 0 hr 1 min 59 sec) 
Heartbeat CPU  0 instructions:   57000001 cycles:   46994103 heartbeat IPC: 1.18264 cumulative IPC: 1.21292 (Simulation time: 0 hr 2 min 1 sec) 
Heartbeat CPU  0 instructions:   58000000 cycles:   47819101 heartbeat IPC: 1.21212 cumulative IPC: 1.21290 (Simulation time: 0 hr 2 min 4 sec) 
Heartbeat CPU  0 instructions:   59000001 cycles:   48600441 heartbeat IPC: 1.27985 cumulative IPC: 1.21398 (Simulation time: 0 hr 2 min 6 sec) 
Heartbeat CPU  0 instructions:   60000000 cycles:   49421996 heartbeat IPC: 1.21720 cumulative IPC: 1.21403 (Simulation time: 0 hr 2 min 8 sec) 
Heartbeat CPU  0 instructions:   61000002 cycles:   50285074 heartbeat IPC: 1.15865 cumulative IPC: 1.21308 (Simulation time: 0 hr 2 min 10 sec) 
Heartbeat CPU  0 instructions:   62000000 cycles:   51100784 heartbeat IPC: 1.22592 cumulative IPC: 1.21329 (Simulation time: 0 hr 2 min 12 sec) 
Heartbeat CPU  0 instructions:   63000001 cycles:   51862326 heartbeat IPC: 1.31313 cumulative IPC: 1.21475 (Simulation time: 0 hr 2 min 14 sec) 
Heartbeat CPU  0 instructions:   64000000 cycles:   52652828 heartbeat IPC: 1.26502 cumulative IPC: 1.21551 (Simulation time: 0 hr 2 min 16 sec) 
Heartbeat CPU  0 instructions:   65000000 cycles:   53447520 heartbeat IPC: 1.25835 cumulative IPC: 1.21615 (Simulation time: 0 hr 2 min 18 sec) 
Heartbeat CPU  0 instructions:   66000002 cycles:   54240866 heartbeat IPC: 1.26049 cumulative IPC: 1.21679 (Simulation time: 0 hr 2 min 21 sec) 
Heartbeat CPU  0 instructions:   67000003 cycles:   55077471 heartbeat IPC: 1.19531 cumulative IPC: 1.21647 (Simulation time: 0 hr 2 min 23 sec) 
Heartbeat CPU  0 instructions:   68000000 cycles:   55995366 heartbeat IPC: 1.08945 cumulative IPC: 1.21439 (Simulation time: 0 hr 2 min 25 sec) 
Heartbeat CPU  0 instructions:   69000000 cycles:   56886189 heartbeat IPC: 1.12256 cumulative IPC: 1.21295 (Simulation time: 0 hr 2 min 27 sec) 
Heartbeat CPU  0 instructions:   70000001 cycles:   57744576 heartbeat IPC: 1.16498 cumulative IPC: 1.21224 (Simulation time: 0 hr 2 min 29 sec) 
Heartbeat CPU  0 instructions:   71000000 cycles:   58555535 heartbeat IPC: 1.23311 cumulative IPC: 1.21252 (Simulation time: 0 hr 2 min 32 sec) 
Heartbeat CPU  0 instructions:   72000000 cycles:   59484867 heartbeat IPC: 1.07604 cumulative IPC: 1.21039 (Simulation time: 0 hr 2 min 33 sec) 
Heartbeat CPU  0 instructions:   73000000 cycles:   60399082 heartbeat IPC: 1.09383 cumulative IPC: 1.20863 (Simulation time: 0 hr 2 min 35 sec) 
Heartbeat CPU  0 instructions:   74000000 cycles:   61251317 heartbeat IPC: 1.17339 cumulative IPC: 1.20814 (Simulation time: 0 hr 2 min 38 sec) 
Heartbeat CPU  0 instructions:   75000002 cycles:   62078758 heartbeat IPC: 1.20855 cumulative IPC: 1.20814 (Simulation time: 0 hr 2 min 40 sec) 
Heartbeat CPU  0 instructions:   76000000 cycles:   63003161 heartbeat IPC: 1.08178 cumulative IPC: 1.20629 (Simulation time: 0 hr 2 min 42 sec) 
Heartbeat CPU  0 instructions:   77000003 cycles:   63935750 heartbeat IPC: 1.07229 cumulative IPC: 1.20433 (Simulation time: 0 hr 2 min 44 sec) 
Heartbeat CPU  0 instructions:   78000000 cycles:   64777686 heartbeat IPC: 1.18774 cumulative IPC: 1.20412 (Simulation time: 0 hr 2 min 46 sec) 
Heartbeat CPU  0 instructions:   79000002 cycles:   65598331 heartbeat IPC: 1.21856 cumulative IPC: 1.20430 (Simulation time: 0 hr 2 min 48 sec) 
Heartbeat CPU  0 instructions:   80000000 cycles:   66472306 heartbeat IPC: 1.14420 cumulative IPC: 1.20351 (Simulation time: 0 hr 2 min 50 sec) 
Heartbeat CPU  0 instructions:   81000001 cycles:   67311447 heartbeat IPC: 1.19170 cumulative IPC: 1.20336 (Simulation time: 0 hr 2 min 52 sec) 
Heartbeat CPU  0 instructions:   82000000 cycles:   68335426 heartbeat IPC: 0.97658 cumulative IPC: 1.19996 (Simulation time: 0 hr 2 min 54 sec) 
Heartbeat CPU  0 instructions:   83000003 cycles:   69102632 heartbeat IPC: 1.30343 cumulative IPC: 1.20111 (Simulation time: 0 hr 2 min 57 sec) 
Heartbeat CPU  0 instructions:   84000000 cycles:   69888260 heartbeat IPC: 1.27286 cumulative IPC: 1.20192 (Simulation time: 0 hr 2 min 59 sec) 
Heartbeat CPU  0 instructions:   85000001 cycles:   70657316 heartbeat IPC: 1.30030 cumulative IPC: 1.20299 (Simulation time: 0 hr 3 min 1 sec) 
Heartbeat CPU  0 instructions:   86000002 cycles:   71431741 heartbeat IPC: 1.29128 cumulative IPC: 1.20395 (Simulation time: 0 hr 3 min 3 sec) 
Heartbeat CPU  0 instructions:   87000000 cycles:   72198397 heartbeat IPC: 1.30436 cumulative IPC: 1.20501 (Simulation time: 0 hr 3 min 6 sec) 
Heartbeat CPU  0 instructions:   88000000 cycles:   72960793 heartbeat IPC: 1.31165 cumulative IPC: 1.20613 (Simulation time: 0 hr 3 min 8 sec) 
Heartbeat CPU  0 instructions:   89000002 cycles:   73719169 heartbeat IPC: 1.31861 cumulative IPC: 1.20728 (Simulation time: 0 hr 3 min 10 sec) 
Heartbeat CPU  0 instructions:   90000001 cycles:   74487125 heartbeat IPC: 1.30216 cumulative IPC: 1.20826 (Simulation time: 0 hr 3 min 12 sec) 
Heartbeat CPU  0 instructions:   91000001 cycles:   75255354 heartbeat IPC: 1.30170 cumulative IPC: 1.20922 (Simulation time: 0 hr 3 min 15 sec) 
Heartbeat CPU  0 instructions:   92000000 cycles:   75996291 heartbeat IPC: 1.34964 cumulative IPC: 1.21059 (Simulation time: 0 hr 3 min 17 sec) 
Heartbeat CPU  0 instructions:   93000000 cycles:   76782015 heartbeat IPC: 1.27271 cumulative IPC: 1.21122 (Simulation time: 0 hr 3 min 19 sec) 
Heartbeat CPU  0 instructions:   94000001 cycles:   77663177 heartbeat IPC: 1.13487 cumulative IPC: 1.21035 (Simulation time: 0 hr 3 min 21 sec) 
Heartbeat CPU  0 instructions:   95000003 cycles:   78448719 heartbeat IPC: 1.27301 cumulative IPC: 1.21098 (Simulation time: 0 hr 3 min 23 sec) 
Heartbeat CPU  0 instructions:   96000000 cycles:   79281232 heartbeat IPC: 1.20118 cumulative IPC: 1.21088 (Simulation time: 0 hr 3 min 26 sec) 
Heartbeat CPU  0 instructions:   97000001 cycles:   80018019 heartbeat IPC: 1.35725 cumulative IPC: 1.21223 (Simulation time: 0 hr 3 min 28 sec) 
Heartbeat CPU  0 instructions:   98000000 cycles:   80733349 heartbeat IPC: 1.39795 cumulative IPC: 1.21387 (Simulation time: 0 hr 3 min 30 sec) 
Heartbeat CPU  0 instructions:   99000003 cycles:   81463258 heartbeat IPC: 1.37004 cumulative IPC: 1.21527 (Simulation time: 0 hr 3 min 32 sec) 
Heartbeat CPU  0 instructions:  100000000 cycles:   82198934 heartbeat IPC: 1.35929 cumulative IPC: 1.21656 (Simulation time: 0 hr 3 min 35 sec) 

Warmup complete CPU  0 instructions:  100000001 cycles:   82198935 (Simulation time: 0 hr 3 min 35 sec) 

Heartbeat CPU  0 instructions:  101000003 cycles:   99391602 heartbeat IPC: 0.05816 cumulative IPC: 0.05816 (Simulation time: 0 hr 3 min 43 sec) 
Heartbeat CPU  0 instructions:  102000002 cycles:  105670628 heartbeat IPC: 0.15926 cumulative IPC: 0.08521 (Simulation time: 0 hr 3 min 48 sec) 
Heartbeat CPU  0 instructions:  103000002 cycles:  110689584 heartbeat IPC: 0.19924 cumulative IPC: 0.10530 (Simulation time: 0 hr 3 min 52 sec) 
Heartbeat CPU  0 instructions:  104000000 cycles:  126688196 heartbeat IPC: 0.06251 cumulative IPC: 0.08991 (Simulation time: 0 hr 4 min 1 sec) 
Heartbeat CPU  0 instructions:  105000003 cycles:  135811292 heartbeat IPC: 0.10961 cumulative IPC: 0.09326 (Simulation time: 0 hr 4 min 7 sec) 
Heartbeat CPU  0 instructions:  106000002 cycles:  142340134 heartbeat IPC: 0.15317 cumulative IPC: 0.09977 (Simulation time: 0 hr 4 min 11 sec) 
Heartbeat CPU  0 instructions:  107000000 cycles:  147584093 heartbeat IPC: 0.19070 cumulative IPC: 0.10706 (Simulation time: 0 hr 4 min 15 sec) 
Heartbeat CPU  0 instructions:  108000000 cycles:  160923245 heartbeat IPC: 0.07497 cumulative IPC: 0.10162 (Simulation time: 0 hr 4 min 23 sec) 
Heartbeat CPU  0 instructions:  109000000 cycles:  172592043 heartbeat IPC: 0.08570 cumulative IPC: 0.09957 (Simulation time: 0 hr 4 min 30 sec) 
Heartbeat CPU  0 instructions:  110000000 cycles:  178290067 heartbeat IPC: 0.17550 cumulative IPC: 0.10407 (Simulation time: 0 hr 4 min 34 sec) 
Heartbeat CPU  0 instructions:  111000002 cycles:  183744369 heartbeat IPC: 0.18334 cumulative IPC: 0.10833 (Simulation time: 0 hr 4 min 39 sec) 
Heartbeat CPU  0 instructions:  112000000 cycles:  194045914 heartbeat IPC: 0.09707 cumulative IPC: 0.10729 (Simulation time: 0 hr 4 min 45 sec) 
Heartbeat CPU  0 instructions:  113000000 cycles:  208223417 heartbeat IPC: 0.07053 cumulative IPC: 0.10315 (Simulation time: 0 hr 4 min 53 sec) 
Heartbeat CPU  0 instructions:  114000003 cycles:  214930750 heartbeat IPC: 0.14909 cumulative IPC: 0.10548 (Simulation time: 0 hr 4 min 58 sec) 
Heartbeat CPU  0 instructions:  115000003 cycles:  220543332 heartbeat IPC: 0.17817 cumulative IPC: 0.10843 (Simulation time: 0 hr 5 min 2 sec) 
Heartbeat CPU  0 instructions:  116000000 cycles:  228052107 heartbeat IPC: 0.13318 cumulative IPC: 0.10970 (Simulation time: 0 hr 5 min 7 sec) 
Heartbeat CPU  0 instructions:  117000002 cycles:  244565078 heartbeat IPC: 0.06056 cumulative IPC: 0.10470 (Simulation time: 0 hr 5 min 17 sec) 
Heartbeat CPU  0 instructions:  118000001 cycles:  250861177 heartbeat IPC: 0.15883 cumulative IPC: 0.10672 (Simulation time: 0 hr 5 min 22 sec) 
Heartbeat CPU  0 instructions:  119000000 cycles:  263254900 heartbeat IPC: 0.08069 cumulative IPC: 0.10494 (Simulation time: 0 hr 5 min 28 sec) 
Heartbeat CPU  0 instructions:  120000000 cycles:  268602236 heartbeat IPC: 0.18701 cumulative IPC: 0.10729 (Simulation time: 0 hr 5 min 33 sec) 
Heartbeat CPU  0 instructions:  121000002 cycles:  282683211 heartbeat IPC: 0.07102 cumulative IPC: 0.10475 (Simulation time: 0 hr 5 min 40 sec) 
Heartbeat CPU  0 instructions:  122000000 cycles:  297422842 heartbeat IPC: 0.06784 cumulative IPC: 0.10222 (Simulation time: 0 hr 5 min 48 sec) 
Heartbeat CPU  0 instructions:  123000000 cycles:  303687153 heartbeat IPC: 0.15963 cumulative IPC: 0.10384 (Simulation time: 0 hr 5 min 52 sec) 
Heartbeat CPU  0 instructions:  124000000 cycles:  309071399 heartbeat IPC: 0.18573 cumulative IPC: 0.10579 (Simulation time: 0 hr 5 min 56 sec) 
Heartbeat CPU  0 instructions:  125000000 cycles:  317998293 heartbeat IPC: 0.11202 cumulative IPC: 0.10602 (Simulation time: 0 hr 6 min 1 sec) 
Heartbeat CPU  0 instructions:  126000000 cycles:  333247385 heartbeat IPC: 0.06558 cumulative IPC: 0.10357 (Simulation time: 0 hr 6 min 9 sec) 
Heartbeat CPU  0 instructions:  127000001 cycles:  339406689 heartbeat IPC: 0.16236 cumulative IPC: 0.10497 (Simulation time: 0 hr 6 min 14 sec) 
Heartbeat CPU  0 instructions:  128000000 cycles:  345012623 heartbeat IPC: 0.17838 cumulative IPC: 0.10654 (Simulation time: 0 hr 6 min 17 sec) 
Heartbeat CPU  0 instructions:  129000000 cycles:  352919364 heartbeat IPC: 0.12647 cumulative IPC: 0.10712 (Simulation time: 0 hr 6 min 22 sec) 
Heartbeat CPU  0 instructions:  130000003 cycles:  369113349 heartbeat IPC: 0.06175 cumulative IPC: 0.10456 (Simulation time: 0 hr 6 min 31 sec) 
Heartbeat CPU  0 instructions:  131000002 cycles:  376797312 heartbeat IPC: 0.13014 cumulative IPC: 0.10523 (Simulation time: 0 hr 6 min 36 sec) 
Heartbeat CPU  0 instructions:  132000000 cycles:  382144251 heartbeat IPC: 0.18702 cumulative IPC: 0.10669 (Simulation time: 0 hr 6 min 39 sec) 
Heartbeat CPU  0 instructions:  133000000 cycles:  387519672 heartbeat IPC: 0.18603 cumulative IPC: 0.10808 (Simulation time: 0 hr 6 min 43 sec) 
Heartbeat CPU  0 instructions:  134000001 cycles:  402288761 heartbeat IPC: 0.06771 cumulative IPC: 0.10622 (Simulation time: 0 hr 6 min 51 sec) 
Heartbeat CPU  0 instructions:  135000000 cycles:  412446969 heartbeat IPC: 0.09844 cumulative IPC: 0.10598 (Simulation time: 0 hr 6 min 57 sec) 
Heartbeat CPU  0 instructions:  136000000 cycles:  417881872 heartbeat IPC: 0.18400 cumulative IPC: 0.10724 (Simulation time: 0 hr 7 min 2 sec) 
Heartbeat CPU  0 instructions:  137000002 cycles:  422969482 heartbeat IPC: 0.19656 cumulative IPC: 0.10858 (Simulation time: 0 hr 7 min 6 sec) 
Heartbeat CPU  0 instructions:  138000001 cycles:  435833465 heartbeat IPC: 0.07774 cumulative IPC: 0.10746 (Simulation time: 0 hr 7 min 13 sec) 
Heartbeat CPU  0 instructions:  139000000 cycles:  447650542 heartbeat IPC: 0.08462 cumulative IPC: 0.10672 (Simulation time: 0 hr 7 min 19 sec) 
Heartbeat CPU  0 instructions:  140000000 cycles:  453122368 heartbeat IPC: 0.18275 cumulative IPC: 0.10784 (Simulation time: 0 hr 7 min 24 sec) 
Heartbeat CPU  0 instructions:  141000000 cycles:  458204245 heartbeat IPC: 0.19678 cumulative IPC: 0.10904 (Simulation time: 0 hr 7 min 28 sec) 
Heartbeat CPU  0 instructions:  142000001 cycles:  469794746 heartbeat IPC: 0.08628 cumulative IPC: 0.10836 (Simulation time: 0 hr 7 min 34 sec) 
Heartbeat CPU  0 instructions:  143000003 cycles:  482853529 heartbeat IPC: 0.07658 cumulative IPC: 0.10732 (Simulation time: 0 hr 7 min 42 sec) 
Heartbeat CPU  0 instructions:  144000000 cycles:  488569201 heartbeat IPC: 0.17496 cumulative IPC: 0.10828 (Simulation time: 0 hr 7 min 46 sec) 
Heartbeat CPU  0 instructions:  145000002 cycles:  493687702 heartbeat IPC: 0.19537 cumulative IPC: 0.10936 (Simulation time: 0 hr 7 min 50 sec) 
Heartbeat CPU  0 instructions:  146000000 cycles:  504020007 heartbeat IPC: 0.09678 cumulative IPC: 0.10905 (Simulation time: 0 hr 7 min 56 sec) 
Heartbeat CPU  0 instructions:  147000003 cycles:  518142996 heartbeat IPC: 0.07081 cumulative IPC: 0.10781 (Simulation time: 0 hr 8 min 4 sec) 
Heartbeat CPU  0 instructions:  148000000 cycles:  523823373 heartbeat IPC: 0.17604 cumulative IPC: 0.10869 (Simulation time: 0 hr 8 min 8 sec) 
Heartbeat CPU  0 instructions:  149000003 cycles:  529023482 heartbeat IPC: 0.19230 cumulative IPC: 0.10966 (Simulation time: 0 hr 8 min 12 sec) 
Heartbeat CPU  0 instructions:  150000002 cycles:  538510836 heartbeat IPC: 0.10540 cumulative IPC: 0.10957 (Simulation time: 0 hr 8 min 18 sec) 
Heartbeat CPU  0 instructions:  151000001 cycles:  553365028 heartbeat IPC: 0.06732 cumulative IPC: 0.10824 (Simulation time: 0 hr 8 min 26 sec) 
Heartbeat CPU  0 instructions:  152000000 cycles:  559320896 heartbeat IPC: 0.16790 cumulative IPC: 0.10899 (Simulation time: 0 hr 8 min 31 sec) 
Heartbeat CPU  0 instructions:  153000000 cycles:  564585904 heartbeat IPC: 0.18993 cumulative IPC: 0.10987 (Simulation time: 0 hr 8 min 35 sec) 
Heartbeat CPU  0 instructions:  154000000 cycles:  571894571 heartbeat IPC: 0.13682 cumulative IPC: 0.11027 (Simulation time: 0 hr 8 min 39 sec) 
Heartbeat CPU  0 instructions:  155000000 cycles:  588718792 heartbeat IPC: 0.05944 cumulative IPC: 0.10858 (Simulation time: 0 hr 8 min 48 sec) 
Heartbeat CPU  0 instructions:  156000000 cycles:  595047340 heartbeat IPC: 0.15801 cumulative IPC: 0.10919 (Simulation time: 0 hr 8 min 53 sec) 
Heartbeat CPU  0 instructions:  157000000 cycles:  603791542 heartbeat IPC: 0.11436 cumulative IPC: 0.10928 (Simulation time: 0 hr 8 min 58 sec) 
Heartbeat CPU  0 instructions:  158000001 cycles:  609593675 heartbeat IPC: 0.17235 cumulative IPC: 0.10997 (Simulation time: 0 hr 9 min 2 sec) 
Heartbeat CPU  0 instructions:  159000000 cycles:  623682895 heartbeat IPC: 0.07098 cumulative IPC: 0.10896 (Simulation time: 0 hr 9 min 9 sec) 
Heartbeat CPU  0 instructions:  160000000 cycles:  635249328 heartbeat IPC: 0.08646 cumulative IPC: 0.10849 (Simulation time: 0 hr 9 min 16 sec) 
Heartbeat CPU  0 instructions:  161000003 cycles:  641701781 heartbeat IPC: 0.15498 cumulative IPC: 0.10903 (Simulation time: 0 hr 9 min 20 sec) 
Heartbeat CPU  0 instructions:  162000000 cycles:  650561717 heartbeat IPC: 0.11287 cumulative IPC: 0.10909 (Simulation time: 0 hr 9 min 26 sec) 
Heartbeat CPU  0 instructions:  163000000 cycles:  660975577 heartbeat IPC: 0.09603 cumulative IPC: 0.10885 (Simulation time: 0 hr 9 min 32 sec) 
Heartbeat CPU  0 instructions:  164000000 cycles:  674891520 heartbeat IPC: 0.07186 cumulative IPC: 0.10798 (Simulation time: 0 hr 9 min 40 sec) 
Heartbeat CPU  0 instructions:  165000002 cycles:  685698404 heartbeat IPC: 0.09253 cumulative IPC: 0.10771 (Simulation time: 0 hr 9 min 46 sec) 
Heartbeat CPU  0 instructions:  166000003 cycles:  692024184 heartbeat IPC: 0.15808 cumulative IPC: 0.10823 (Simulation time: 0 hr 9 min 51 sec) 
Heartbeat CPU  0 instructions:  167000000 cycles:  700456115 heartbeat IPC: 0.11860 cumulative IPC: 0.10837 (Simulation time: 0 hr 9 min 56 sec) 
Heartbeat CPU  0 instructions:  168000000 cycles:  716212226 heartbeat IPC: 0.06347 cumulative IPC: 0.10725 (Simulation time: 0 hr 10 min 5 sec) 
Heartbeat CPU  0 instructions:  169000000 cycles:  722210524 heartbeat IPC: 0.16671 cumulative IPC: 0.10781 (Simulation time: 0 hr 10 min 9 sec) 
Heartbeat CPU  0 instructions:  170000000 cycles:  727382717 heartbeat IPC: 0.19334 cumulative IPC: 0.10850 (Simulation time: 0 hr 10 min 13 sec) 
Heartbeat CPU  0 instructions:  171000002 cycles:  737649637 heartbeat IPC: 0.09740 cumulative IPC: 0.10832 (Simulation time: 0 hr 10 min 19 sec) 
Heartbeat CPU  0 instructions:  172000000 cycles:  751941703 heartbeat IPC: 0.06997 cumulative IPC: 0.10750 (Simulation time: 0 hr 10 min 27 sec) 
Heartbeat CPU  0 instructions:  173000000 cycles:  758788518 heartbeat IPC: 0.14605 cumulative IPC: 0.10789 (Simulation time: 0 hr 10 min 31 sec) 
Heartbeat CPU  0 instructions:  174000002 cycles:  765475803 heartbeat IPC: 0.14954 cumulative IPC: 0.10830 (Simulation time: 0 hr 10 min 36 sec) 
Heartbeat CPU  0 instructions:  175000003 cycles:  774537984 heartbeat IPC: 0.11035 cumulative IPC: 0.10833 (Simulation time: 0 hr 10 min 42 sec) 
Heartbeat CPU  0 instructions:  176000000 cycles:  789816234 heartbeat IPC: 0.06545 cumulative IPC: 0.10740 (Simulation time: 0 hr 10 min 50 sec) 
Heartbeat CPU  0 instructions:  177000002 cycles:  795718999 heartbeat IPC: 0.16941 cumulative IPC: 0.10792 (Simulation time: 0 hr 10 min 54 sec) 
Heartbeat CPU  0 instructions:  178000001 cycles:  800901661 heartbeat IPC: 0.19295 cumulative IPC: 0.10853 (Simulation time: 0 hr 10 min 58 sec) 
Heartbeat CPU  0 instructions:  179000000 cycles:  811088531 heartbeat IPC: 0.09817 cumulative IPC: 0.10838 (Simulation time: 0 hr 11 min 4 sec) 
Heartbeat CPU  0 instructions:  180000000 cycles:  825277281 heartbeat IPC: 0.07048 cumulative IPC: 0.10766 (Simulation time: 0 hr 11 min 12 sec) 
Heartbeat CPU  0 instructions:  181000002 cycles:  831021824 heartbeat IPC: 0.17408 cumulative IPC: 0.10817 (Simulation time: 0 hr 11 min 16 sec) 
Heartbeat CPU  0 instructions:  182000000 cycles:  836681509 heartbeat IPC: 0.17669 cumulative IPC: 0.10868 (Simulation time: 0 hr 11 min 20 sec) 
Heartbeat CPU  0 instructions:  183000002 cycles:  845936846 heartbeat IPC: 0.10805 cumulative IPC: 0.10868 (Simulation time: 0 hr 11 min 26 sec) 
Heartbeat CPU  0 instructions:  184000000 cycles:  861044630 heartbeat IPC: 0.06619 cumulative IPC: 0.10785 (Simulation time: 0 hr 11 min 34 sec) 
Heartbeat CPU  0 instructions:  185000001 cycles:  867168977 heartbeat IPC: 0.16328 cumulative IPC: 0.10828 (Simulation time: 0 hr 11 min 38 sec) 
Heartbeat CPU  0 instructions:  186000000 cycles:  872691592 heartbeat IPC: 0.18107 cumulative IPC: 0.10879 (Simulation time: 0 hr 11 min 42 sec) 
Heartbeat CPU  0 instructions:  187000001 cycles:  880299118 heartbeat IPC: 0.13145 cumulative IPC: 0.10901 (Simulation time: 0 hr 11 min 47 sec) 
Heartbeat CPU  0 instructions:  188000000 cycles:  896911075 heartbeat IPC: 0.06020 cumulative IPC: 0.10801 (Simulation time: 0 hr 11 min 56 sec) 
Heartbeat CPU  0 instructions:  189000001 cycles:  903529036 heartbeat IPC: 0.15110 cumulative IPC: 0.10836 (Simulation time: 0 hr 12 min 0 sec) 
Heartbeat CPU  0 instructions:  190000001 cycles:  910890581 heartbeat IPC: 0.13584 cumulative IPC: 0.10860 (Simulation time: 0 hr 12 min 5 sec) 
Heartbeat CPU  0 instructions:  191000000 cycles:  918799528 heartbeat IPC: 0.12644 cumulative IPC: 0.10877 (Simulation time: 0 hr 12 min 10 sec) 
Heartbeat CPU  0 instructions:  192000000 cycles:  933431046 heartbeat IPC: 0.06835 cumulative IPC: 0.10808 (Simulation time: 0 hr 12 min 17 sec) 
Heartbeat CPU  0 instructions:  193000001 cycles:  943913181 heartbeat IPC: 0.09540 cumulative IPC: 0.10792 (Simulation time: 0 hr 12 min 24 sec) 
Heartbeat CPU  0 instructions:  194000000 cycles:  949540494 heartbeat IPC: 0.17770 cumulative IPC: 0.10838 (Simulation time: 0 hr 12 min 27 sec) 
Heartbeat CPU  0 instructions:  195000000 cycles:  955274107 heartbeat IPC: 0.17441 cumulative IPC: 0.10881 (Simulation time: 0 hr 12 min 32 sec) 
Heartbeat CPU  0 instructions:  196000000 cycles:  969126448 heartbeat IPC: 0.07219 cumulative IPC: 0.10824 (Simulation time: 0 hr 12 min 39 sec) 
Heartbeat CPU  0 instructions:  197000000 cycles:  980016928 heartbeat IPC: 0.09182 cumulative IPC: 0.10804 (Simulation time: 0 hr 12 min 46 sec) 
Heartbeat CPU  0 instructions:  198000000 cycles:  985389697 heartbeat IPC: 0.18612 cumulative IPC: 0.10850 (Simulation time: 0 hr 12 min 50 sec) 
Heartbeat CPU  0 instructions:  199000000 cycles:  990396860 heartbeat IPC: 0.19971 cumulative IPC: 0.10901 (Simulation time: 0 hr 12 min 54 sec) 
Heartbeat CPU  0 instructions:  200000000 cycles: 1007339178 heartbeat IPC: 0.05902 cumulative IPC: 0.10809 (Simulation time: 0 hr 13 min 3 sec) 
Heartbeat CPU  0 instructions:  201000001 cycles: 1015341892 heartbeat IPC: 0.12496 cumulative IPC: 0.10824 (Simulation time: 0 hr 13 min 8 sec) 
Heartbeat CPU  0 instructions:  202000003 cycles: 1020602335 heartbeat IPC: 0.19010 cumulative IPC: 0.10870 (Simulation time: 0 hr 13 min 12 sec) 
Heartbeat CPU  0 instructions:  203000003 cycles: 1027731861 heartbeat IPC: 0.14026 cumulative IPC: 0.10893 (Simulation time: 0 hr 13 min 17 sec) 
Heartbeat CPU  0 instructions:  204000000 cycles: 1044379656 heartbeat IPC: 0.06007 cumulative IPC: 0.10809 (Simulation time: 0 hr 13 min 26 sec) 
Heartbeat CPU  0 instructions:  205000000 cycles: 1051299392 heartbeat IPC: 0.14451 cumulative IPC: 0.10835 (Simulation time: 0 hr 13 min 31 sec) 
Heartbeat CPU  0 instructions:  206000002 cycles: 1057829318 heartbeat IPC: 0.15314 cumulative IPC: 0.10865 (Simulation time: 0 hr 13 min 35 sec) 
Heartbeat CPU  0 instructions:  207000002 cycles: 1066336863 heartbeat IPC: 0.11754 cumulative IPC: 0.10872 (Simulation time: 0 hr 13 min 41 sec) 
Heartbeat CPU  0 instructions:  208000000 cycles: 1082151676 heartbeat IPC: 0.06323 cumulative IPC: 0.10801 (Simulation time: 0 hr 13 min 49 sec) 
Heartbeat CPU  0 instructions:  209000002 cycles: 1088447687 heartbeat IPC: 0.15883 cumulative IPC: 0.10832 (Simulation time: 0 hr 13 min 54 sec) 
Heartbeat CPU  0 instructions:  210000002 cycles: 1095050822 heartbeat IPC: 0.15144 cumulative IPC: 0.10860 (Simulation time: 0 hr 13 min 58 sec) 
Heartbeat CPU  0 instructions:  211000000 cycles: 1106122652 heartbeat IPC: 0.09032 cumulative IPC: 0.10841 (Simulation time: 0 hr 14 min 5 sec) 
Heartbeat CPU  0 instructions:  212000000 cycles: 1120035846 heartbeat IPC: 0.07187 cumulative IPC: 0.10792 (Simulation time: 0 hr 14 min 12 sec) 
Heartbeat CPU  0 instructions:  213000002 cycles: 1126083905 heartbeat IPC: 0.16534 cumulative IPC: 0.10825 (Simulation time: 0 hr 14 min 17 sec) 
Heartbeat CPU  0 instructions:  214000001 cycles: 1132295170 heartbeat IPC: 0.16100 cumulative IPC: 0.10856 (Simulation time: 0 hr 14 min 21 sec) 
Heartbeat CPU  0 instructions:  215000000 cycles: 1146036297 heartbeat IPC: 0.07277 cumulative IPC: 0.10810 (Simulation time: 0 hr 14 min 28 sec) 
Heartbeat CPU  0 instructions:  216000000 cycles: 1158422114 heartbeat IPC: 0.08074 cumulative IPC: 0.10778 (Simulation time: 0 hr 14 min 35 sec) 
Heartbeat CPU  0 instructions:  217000000 cycles: 1166886652 heartbeat IPC: 0.11814 cumulative IPC: 0.10787 (Simulation time: 0 hr 14 min 41 sec) 
Heartbeat CPU  0 instructions:  218000001 cycles: 1172497701 heartbeat IPC: 0.17822 cumulative IPC: 0.10823 (Simulation time: 0 hr 14 min 45 sec) 
Heartbeat CPU  0 instructions:  219000003 cycles: 1185924157 heartbeat IPC: 0.07448 cumulative IPC: 0.10782 (Simulation time: 0 hr 14 min 52 sec) 
Heartbeat CPU  0 instructions:  220000000 cycles: 1197983825 heartbeat IPC: 0.08292 cumulative IPC: 0.10755 (Simulation time: 0 hr 14 min 59 sec) 
Heartbeat CPU  0 instructions:  221000003 cycles: 1204012581 heartbeat IPC: 0.16587 cumulative IPC: 0.10786 (Simulation time: 0 hr 15 min 4 sec) 
Heartbeat CPU  0 instructions:  222000002 cycles: 1209330626 heartbeat IPC: 0.18804 cumulative IPC: 0.10824 (Simulation time: 0 hr 15 min 8 sec) 
Heartbeat CPU  0 instructions:  223000001 cycles: 1227293665 heartbeat IPC: 0.05567 cumulative IPC: 0.10741 (Simulation time: 0 hr 15 min 17 sec) 
Heartbeat CPU  0 instructions:  224000000 cycles: 1234462073 heartbeat IPC: 0.13950 cumulative IPC: 0.10761 (Simulation time: 0 hr 15 min 22 sec) 
Heartbeat CPU  0 instructions:  225000000 cycles: 1239672596 heartbeat IPC: 0.19192 cumulative IPC: 0.10799 (Simulation time: 0 hr 15 min 26 sec) 
Heartbeat CPU  0 instructions:  226000003 cycles: 1248784845 heartbeat IPC: 0.10974 cumulative IPC: 0.10801 (Simulation time: 0 hr 15 min 32 sec) 
Heartbeat CPU  0 instructions:  227000001 cycles: 1264167389 heartbeat IPC: 0.06501 cumulative IPC: 0.10745 (Simulation time: 0 hr 15 min 41 sec) 
Heartbeat CPU  0 instructions:  228000000 cycles: 1269988441 heartbeat IPC: 0.17179 cumulative IPC: 0.10776 (Simulation time: 0 hr 15 min 45 sec) 
Heartbeat CPU  0 instructions:  229000000 cycles: 1275180492 heartbeat IPC: 0.19260 cumulative IPC: 0.10813 (Simulation time: 0 hr 15 min 49 sec) 
Heartbeat CPU  0 instructions:  230000002 cycles: 1288714945 heartbeat IPC: 0.07389 cumulative IPC: 0.10775 (Simulation time: 0 hr 15 min 57 sec) 
Heartbeat CPU  0 instructions:  231000003 cycles: 1300226644 heartbeat IPC: 0.08687 cumulative IPC: 0.10755 (Simulation time: 0 hr 16 min 4 sec) 
Heartbeat CPU  0 instructions:  232000000 cycles: 1305780455 heartbeat IPC: 0.18006 cumulative IPC: 0.10788 (Simulation time: 0 hr 16 min 8 sec) 
Heartbeat CPU  0 instructions:  233000002 cycles: 1311558796 heartbeat IPC: 0.17306 cumulative IPC: 0.10819 (Simulation time: 0 hr 16 min 13 sec) 
Heartbeat CPU  0 instructions:  234000000 cycles: 1329514707 heartbeat IPC: 0.05569 cumulative IPC: 0.10743 (Simulation time: 0 hr 16 min 22 sec) 
Heartbeat CPU  0 instructions:  235000000 cycles: 1336950566 heartbeat IPC: 0.13448 cumulative IPC: 0.10759 (Simulation time: 0 hr 16 min 27 sec) 
Heartbeat CPU  0 instructions:  236000000 cycles: 1343137080 heartbeat IPC: 0.16164 cumulative IPC: 0.10786 (Simulation time: 0 hr 16 min 32 sec) 
Heartbeat CPU  0 instructions:  237000003 cycles: 1351804017 heartbeat IPC: 0.11538 cumulative IPC: 0.10791 (Simulation time: 0 hr 16 min 37 sec) 
Heartbeat CPU  0 instructions:  238000003 cycles: 1367207229 heartbeat IPC: 0.06492 cumulative IPC: 0.10739 (Simulation time: 0 hr 16 min 46 sec) 
Heartbeat CPU  0 instructions:  239000000 cycles: 1373034551 heartbeat IPC: 0.17160 cumulative IPC: 0.10768 (Simulation time: 0 hr 16 min 50 sec) 
Heartbeat CPU  0 instructions:  240000000 cycles: 1377924269 heartbeat IPC: 0.20451 cumulative IPC: 0.10805 (Simulation time: 0 hr 16 min 54 sec) 
Heartbeat CPU  0 instructions:  241000001 cycles: 1391066424 heartbeat IPC: 0.07609 cumulative IPC: 0.10773 (Simulation time: 0 hr 17 min 2 sec) 
Heartbeat CPU  0 instructions:  242000000 cycles: 1403586826 heartbeat IPC: 0.07987 cumulative IPC: 0.10746 (Simulation time: 0 hr 17 min 9 sec) 
Heartbeat CPU  0 instructions:  243000003 cycles: 1417917461 heartbeat IPC: 0.06978 cumulative IPC: 0.10706 (Simulation time: 0 hr 17 min 16 sec) 
Heartbeat CPU  0 instructions:  244000000 cycles: 1423118862 heartbeat IPC: 0.19226 cumulative IPC: 0.10739 (Simulation time: 0 hr 17 min 20 sec) 
Heartbeat CPU  0 instructions:  245000003 cycles: 1432998120 heartbeat IPC: 0.10122 cumulative IPC: 0.10734 (Simulation time: 0 hr 17 min 26 sec) 
Heartbeat CPU  0 instructions:  246000001 cycles: 1447597679 heartbeat IPC: 0.06850 cumulative IPC: 0.10693 (Simulation time: 0 hr 17 min 34 sec) 
Heartbeat CPU  0 instructions:  247000000 cycles: 1453268577 heartbeat IPC: 0.17634 cumulative IPC: 0.10722 (Simulation time: 0 hr 17 min 38 sec) 
Heartbeat CPU  0 instructions:  248000000 cycles: 1458197534 heartbeat IPC: 0.20288 cumulative IPC: 0.10756 (Simulation time: 0 hr 17 min 42 sec) 
Heartbeat CPU  0 instructions:  249000000 cycles: 1471545442 heartbeat IPC: 0.07492 cumulative IPC: 0.10724 (Simulation time: 0 hr 17 min 50 sec) 
Heartbeat CPU  0 instructions:  250000003 cycles: 1483273499 heartbeat IPC: 0.08527 cumulative IPC: 0.10706 (Simulation time: 0 hr 17 min 56 sec) 
Heartbeat CPU  0 instructions:  251000002 cycles: 1488721516 heartbeat IPC: 0.18355 cumulative IPC: 0.10736 (Simulation time: 0 hr 18 min 1 sec) 
Heartbeat CPU  0 instructions:  252000000 cycles: 1493692839 heartbeat IPC: 0.20115 cumulative IPC: 0.10769 (Simulation time: 0 hr 18 min 5 sec) 
Heartbeat CPU  0 instructions:  253000002 cycles: 1510797371 heartbeat IPC: 0.05846 cumulative IPC: 0.10710 (Simulation time: 0 hr 18 min 13 sec) 
Heartbeat CPU  0 instructions:  254000000 cycles: 1518728644 heartbeat IPC: 0.12608 cumulative IPC: 0.10720 (Simulation time: 0 hr 18 min 19 sec) 
Heartbeat CPU  0 instructions:  255000000 cycles: 1529535435 heartbeat IPC: 0.09253 cumulative IPC: 0.10709 (Simulation time: 0 hr 18 min 25 sec) 
Heartbeat CPU  0 instructions:  256000000 cycles: 1546015802 heartbeat IPC: 0.06068 cumulative IPC: 0.10657 (Simulation time: 0 hr 18 min 33 sec) 
Heartbeat CPU  0 instructions:  257000000 cycles: 1557602600 heartbeat IPC: 0.08631 cumulative IPC: 0.10641 (Simulation time: 0 hr 18 min 39 sec) 
Heartbeat CPU  0 instructions:  258000002 cycles: 1573181660 heartbeat IPC: 0.06419 cumulative IPC: 0.10597 (Simulation time: 0 hr 18 min 48 sec) 
Heartbeat CPU  0 instructions:  259000002 cycles: 1580604532 heartbeat IPC: 0.13472 cumulative IPC: 0.10611 (Simulation time: 0 hr 18 min 53 sec) 
Heartbeat CPU  0 instructions:  260000000 cycles: 1587062857 heartbeat IPC: 0.15484 cumulative IPC: 0.10632 (Simulation time: 0 hr 18 min 57 sec) 
Heartbeat CPU  0 instructions:  261000002 cycles: 1598188712 heartbeat IPC: 0.08988 cumulative IPC: 0.10620 (Simulation time: 0 hr 19 min 4 sec) 
Heartbeat CPU  0 instructions:  262000002 cycles: 1612415945 heartbeat IPC: 0.07029 cumulative IPC: 0.10587 (Simulation time: 0 hr 19 min 12 sec) 
Heartbeat CPU  0 instructions:  263000002 cycles: 1618037706 heartbeat IPC: 0.17788 cumulative IPC: 0.10613 (Simulation time: 0 hr 19 min 16 sec) 
Heartbeat CPU  0 instructions:  264000000 cycles: 1623174130 heartbeat IPC: 0.19469 cumulative IPC: 0.10643 (Simulation time: 0 hr 19 min 20 sec) 
Heartbeat CPU  0 instructions:  265000002 cycles: 1637312052 heartbeat IPC: 0.07073 cumulative IPC: 0.10610 (Simulation time: 0 hr 19 min 28 sec) 
Heartbeat CPU  0 instructions:  266000000 cycles: 1651597161 heartbeat IPC: 0.07000 cumulative IPC: 0.10577 (Simulation time: 0 hr 19 min 35 sec) 
Heartbeat CPU  0 instructions:  267000000 cycles: 1661682455 heartbeat IPC: 0.09915 cumulative IPC: 0.10573 (Simulation time: 0 hr 19 min 41 sec) 
Heartbeat CPU  0 instructions:  268000000 cycles: 1666257855 heartbeat IPC: 0.21856 cumulative IPC: 0.10606 (Simulation time: 0 hr 19 min 45 sec) 
Heartbeat CPU  0 instructions:  269000002 cycles: 1676094697 heartbeat IPC: 0.10166 cumulative IPC: 0.10603 (Simulation time: 0 hr 19 min 51 sec) 
Heartbeat CPU  0 instructions:  270000001 cycles: 1690352272 heartbeat IPC: 0.07014 cumulative IPC: 0.10571 (Simulation time: 0 hr 19 min 59 sec) 
Heartbeat CPU  0 instructions:  271000001 cycles: 1699879726 heartbeat IPC: 0.10496 cumulative IPC: 0.10571 (Simulation time: 0 hr 20 min 5 sec) 
Heartbeat CPU  0 instructions:  272000000 cycles: 1709306790 heartbeat IPC: 0.10608 cumulative IPC: 0.10571 (Simulation time: 0 hr 20 min 10 sec) 
Heartbeat CPU  0 instructions:  273000003 cycles: 1716329240 heartbeat IPC: 0.14240 cumulative IPC: 0.10587 (Simulation time: 0 hr 20 min 15 sec) 
Heartbeat CPU  0 instructions:  274000002 cycles: 1733119955 heartbeat IPC: 0.05956 cumulative IPC: 0.10540 (Simulation time: 0 hr 20 min 24 sec) 
Heartbeat CPU  0 instructions:  275000002 cycles: 1739701698 heartbeat IPC: 0.15194 cumulative IPC: 0.10558 (Simulation time: 0 hr 20 min 29 sec) 
Heartbeat CPU  0 instructions:  276000000 cycles: 1745430260 heartbeat IPC: 0.17456 cumulative IPC: 0.10582 (Simulation time: 0 hr 20 min 33 sec) 
Heartbeat CPU  0 instructions:  277000002 cycles: 1754431776 heartbeat IPC: 0.11109 cumulative IPC: 0.10585 (Simulation time: 0 hr 20 min 39 sec) 
Heartbeat CPU  0 instructions:  278000001 cycles: 1769789540 heartbeat IPC: 0.06511 cumulative IPC: 0.10548 (Simulation time: 0 hr 20 min 47 sec) 
Heartbeat CPU  0 instructions:  279000000 cycles: 1775524712 heartbeat IPC: 0.17436 cumulative IPC: 0.10571 (Simulation time: 0 hr 20 min 52 sec) 
Heartbeat CPU  0 instructions:  280000000 cycles: 1780610211 heartbeat IPC: 0.19664 cumulative IPC: 0.10598 (Simulation time: 0 hr 20 min 56 sec) 
Heartbeat CPU  0 instructions:  281000002 cycles: 1792779375 heartbeat IPC: 0.08218 cumulative IPC: 0.10581 (Simulation time: 0 hr 21 min 3 sec) 
Heartbeat CPU  0 instructions:  282000000 cycles: 1805237749 heartbeat IPC: 0.08027 cumulative IPC: 0.10563 (Simulation time: 0 hr 21 min 10 sec) 
Heartbeat CPU  0 instructions:  283000003 cycles: 1810742025 heartbeat IPC: 0.18168 cumulative IPC: 0.10587 (Simulation time: 0 hr 21 min 14 sec) 
Heartbeat CPU  0 instructions:  284000000 cycles: 1816119658 heartbeat IPC: 0.18595 cumulative IPC: 0.10612 (Simulation time: 0 hr 21 min 19 sec) 
Heartbeat CPU  0 instructions:  285000003 cycles: 1831479729 heartbeat IPC: 0.06510 cumulative IPC: 0.10576 (Simulation time: 0 hr 21 min 27 sec) 
Heartbeat CPU  0 instructions:  286000001 cycles: 1841154475 heartbeat IPC: 0.10336 cumulative IPC: 0.10574 (Simulation time: 0 hr 21 min 33 sec) 
Heartbeat CPU  0 instructions:  287000003 cycles: 1846854582 heartbeat IPC: 0.17544 cumulative IPC: 0.10597 (Simulation time: 0 hr 21 min 38 sec) 
Heartbeat CPU  0 instructions:  288000000 cycles: 1851965688 heartbeat IPC: 0.19565 cumulative IPC: 0.10623 (Simulation time: 0 hr 21 min 42 sec) 
Heartbeat CPU  0 instructions:  289000002 cycles: 1870078461 heartbeat IPC: 0.05521 cumulative IPC: 0.10571 (Simulation time: 0 hr 21 min 51 sec) 
Heartbeat CPU  0 instructions:  290000002 cycles: 1877056482 heartbeat IPC: 0.14331 cumulative IPC: 0.10586 (Simulation time: 0 hr 21 min 56 sec) 
Heartbeat CPU  0 instructions:  291000000 cycles: 1882362358 heartbeat IPC: 0.18847 cumulative IPC: 0.10610 (Simulation time: 0 hr 22 min 0 sec) 
Heartbeat CPU  0 instructions:  292000000 cycles: 1890484991 heartbeat IPC: 0.12311 cumulative IPC: 0.10618 (Simulation time: 0 hr 22 min 6 sec) 
Heartbeat CPU  0 instructions:  293000000 cycles: 1906632990 heartbeat IPC: 0.06193 cumulative IPC: 0.10579 (Simulation time: 0 hr 22 min 14 sec) 
Heartbeat CPU  0 instructions:  294000000 cycles: 1912734361 heartbeat IPC: 0.16390 cumulative IPC: 0.10598 (Simulation time: 0 hr 22 min 19 sec) 
Heartbeat CPU  0 instructions:  295000001 cycles: 1917878909 heartbeat IPC: 0.19438 cumulative IPC: 0.10623 (Simulation time: 0 hr 22 min 23 sec) 
Heartbeat CPU  0 instructions:  296000000 cycles: 1928477274 heartbeat IPC: 0.09435 cumulative IPC: 0.10616 (Simulation time: 0 hr 22 min 29 sec) 
Heartbeat CPU  0 instructions:  297000000 cycles: 1942536299 heartbeat IPC: 0.07113 cumulative IPC: 0.10589 (Simulation time: 0 hr 22 min 37 sec) 
Heartbeat CPU  0 instructions:  298000001 cycles: 1948307225 heartbeat IPC: 0.17328 cumulative IPC: 0.10610 (Simulation time: 0 hr 22 min 41 sec) 
Heartbeat CPU  0 instructions:  299000002 cycles: 1953711485 heartbeat IPC: 0.18504 cumulative IPC: 0.10633 (Simulation time: 0 hr 22 min 45 sec) 
Heartbeat CPU  0 instructions:  300000000 cycles: 1966278258 heartbeat IPC: 0.07957 cumulative IPC: 0.10615 (Simulation time: 0 hr 22 min 52 sec) 
Heartbeat CPU  0 instructions:  301000003 cycles: 1978380547 heartbeat IPC: 0.08263 cumulative IPC: 0.10600 (Simulation time: 0 hr 22 min 59 sec) 
Heartbeat CPU  0 instructions:  302000003 cycles: 1984014220 heartbeat IPC: 0.17750 cumulative IPC: 0.10621 (Simulation time: 0 hr 23 min 3 sec) 
Heartbeat CPU  0 instructions:  303000000 cycles: 1989423332 heartbeat IPC: 0.18487 cumulative IPC: 0.10644 (Simulation time: 0 hr 23 min 7 sec) 
Heartbeat CPU  0 instructions:  304000000 cycles: 2002679438 heartbeat IPC: 0.07544 cumulative IPC: 0.10622 (Simulation time: 0 hr 23 min 15 sec) 
Heartbeat CPU  0 instructions:  305000002 cycles: 2014205717 heartbeat IPC: 0.08676 cumulative IPC: 0.10611 (Simulation time: 0 hr 23 min 21 sec) 
Heartbeat CPU  0 instructions:  306000000 cycles: 2019885350 heartbeat IPC: 0.17607 cumulative IPC: 0.10631 (Simulation time: 0 hr 23 min 26 sec) 
Heartbeat CPU  0 instructions:  307000001 cycles: 2025653697 heartbeat IPC: 0.17336 cumulative IPC: 0.10651 (Simulation time: 0 hr 23 min 30 sec) 
Heartbeat CPU  0 instructions:  308000000 cycles: 2039130318 heartbeat IPC: 0.07420 cumulative IPC: 0.10629 (Simulation time: 0 hr 23 min 37 sec) 
Heartbeat CPU  0 instructions:  309000000 cycles: 2057164890 heartbeat IPC: 0.05545 cumulative IPC: 0.10582 (Simulation time: 0 hr 23 min 47 sec) 
Heartbeat CPU  0 instructions:  310000000 cycles: 2064472811 heartbeat IPC: 0.13684 cumulative IPC: 0.10594 (Simulation time: 0 hr 23 min 52 sec) 
Heartbeat CPU  0 instructions:  311000001 cycles: 2069441342 heartbeat IPC: 0.20127 cumulative IPC: 0.10618 (Simulation time: 0 hr 23 min 56 sec) 
Heartbeat CPU  0 instructions:  312000000 cycles: 2077908119 heartbeat IPC: 0.11811 cumulative IPC: 0.10623 (Simulation time: 0 hr 24 min 2 sec) 
Heartbeat CPU  0 instructions:  313000002 cycles: 2094520608 heartbeat IPC: 0.06020 cumulative IPC: 0.10585 (Simulation time: 0 hr 24 min 10 sec) 
Heartbeat CPU  0 instructions:  314000001 cycles: 2100653420 heartbeat IPC: 0.16306 cumulative IPC: 0.10602 (Simulation time: 0 hr 24 min 15 sec) 
Heartbeat CPU  0 instructions:  315000001 cycles: 2105845996 heartbeat IPC: 0.19258 cumulative IPC: 0.10624 (Simulation time: 0 hr 24 min 19 sec) 
Heartbeat CPU  0 instructions:  316000000 cycles: 2116759328 heartbeat IPC: 0.09163 cumulative IPC: 0.10617 (Simulation time: 0 hr 24 min 25 sec) 
Heartbeat CPU  0 instructions:  317000002 cycles: 2133950234 heartbeat IPC: 0.05817 cumulative IPC: 0.10576 (Simulation time: 0 hr 24 min 34 sec) 
Heartbeat CPU  0 instructions:  318000003 cycles: 2141782842 heartbeat IPC: 0.12767 cumulative IPC: 0.10585 (Simulation time: 0 hr 24 min 39 sec) 
Heartbeat CPU  0 instructions:  319000000 cycles: 2147439464 heartbeat IPC: 0.17678 cumulative IPC: 0.10604 (Simulation time: 0 hr 24 min 44 sec) 
Heartbeat CPU  0 instructions:  320000000 cycles: 2160218617 heartbeat IPC: 0.07825 cumulative IPC: 0.10587 (Simulation time: 0 hr 24 min 50 sec) 
Heartbeat CPU  0 instructions:  321000001 cycles: 2175475344 heartbeat IPC: 0.06554 cumulative IPC: 0.10558 (Simulation time: 0 hr 24 min 58 sec) 
Heartbeat CPU  0 instructions:  322000000 cycles: 2193366109 heartbeat IPC: 0.05589 cumulative IPC: 0.10516 (Simulation time: 0 hr 25 min 8 sec) 
Heartbeat CPU  0 instructions:  323000000 cycles: 2200388066 heartbeat IPC: 0.14241 cumulative IPC: 0.10528 (Simulation time: 0 hr 25 min 12 sec) 
Heartbeat CPU  0 instructions:  324000000 cycles: 2206312835 heartbeat IPC: 0.16878 cumulative IPC: 0.10546 (Simulation time: 0 hr 25 min 16 sec) 
Heartbeat CPU  0 instructions:  325000002 cycles: 2211613644 heartbeat IPC: 0.18865 cumulative IPC: 0.10566 (Simulation time: 0 hr 25 min 20 sec) 
Heartbeat CPU  0 instructions:  326000002 cycles: 2226435526 heartbeat IPC: 0.06747 cumulative IPC: 0.10540 (Simulation time: 0 hr 25 min 28 sec) 
Heartbeat CPU  0 instructions:  327000000 cycles: 2236446953 heartbeat IPC: 0.09989 cumulative IPC: 0.10537 (Simulation time: 0 hr 25 min 34 sec) 
Heartbeat CPU  0 instructions:  328000000 cycles: 2242096910 heartbeat IPC: 0.17699 cumulative IPC: 0.10556 (Simulation time: 0 hr 25 min 38 sec) 
Heartbeat CPU  0 instructions:  329000000 cycles: 2247505145 heartbeat IPC: 0.18490 cumulative IPC: 0.10576 (Simulation time: 0 hr 25 min 42 sec) 
Heartbeat CPU  0 instructions:  330000001 cycles: 2259460177 heartbeat IPC: 0.08365 cumulative IPC: 0.10564 (Simulation time: 0 hr 25 min 48 sec) 
Heartbeat CPU  0 instructions:  331000001 cycles: 2272386243 heartbeat IPC: 0.07736 cumulative IPC: 0.10547 (Simulation time: 0 hr 25 min 56 sec) 
Heartbeat CPU  0 instructions:  332000000 cycles: 2278476385 heartbeat IPC: 0.16420 cumulative IPC: 0.10563 (Simulation time: 0 hr 26 min 0 sec) 
Heartbeat CPU  0 instructions:  333000000 cycles: 2283778629 heartbeat IPC: 0.18860 cumulative IPC: 0.10583 (Simulation time: 0 hr 26 min 4 sec) 
Heartbeat CPU  0 instructions:  334000001 cycles: 2294501997 heartbeat IPC: 0.09325 cumulative IPC: 0.10577 (Simulation time: 0 hr 26 min 10 sec) 
Heartbeat CPU  0 instructions:  335000000 cycles: 2308439985 heartbeat IPC: 0.07175 cumulative IPC: 0.10556 (Simulation time: 0 hr 26 min 18 sec) 
Heartbeat CPU  0 instructions:  336000000 cycles: 2318044621 heartbeat IPC: 0.10412 cumulative IPC: 0.10555 (Simulation time: 0 hr 26 min 23 sec) 
Heartbeat CPU  0 instructions:  337000000 cycles: 2323387754 heartbeat IPC: 0.18716 cumulative IPC: 0.10575 (Simulation time: 0 hr 26 min 27 sec) 
Heartbeat CPU  0 instructions:  338000000 cycles: 2331493476 heartbeat IPC: 0.12337 cumulative IPC: 0.10581 (Simulation time: 0 hr 26 min 33 sec) 
Heartbeat CPU  0 instructions:  339000002 cycles: 2347527147 heartbeat IPC: 0.06237 cumulative IPC: 0.10550 (Simulation time: 0 hr 26 min 41 sec) 
Heartbeat CPU  0 instructions:  340000000 cycles: 2353720088 heartbeat IPC: 0.16147 cumulative IPC: 0.10566 (Simulation time: 0 hr 26 min 46 sec) 
Heartbeat CPU  0 instructions:  341000001 cycles: 2359247649 heartbeat IPC: 0.18091 cumulative IPC: 0.10584 (Simulation time: 0 hr 26 min 50 sec) 
Heartbeat CPU  0 instructions:  342000000 cycles: 2368667865 heartbeat IPC: 0.10615 cumulative IPC: 0.10584 (Simulation time: 0 hr 26 min 56 sec) 
Heartbeat CPU  0 instructions:  343000003 cycles: 2383579895 heartbeat IPC: 0.06706 cumulative IPC: 0.10559 (Simulation time: 0 hr 27 min 4 sec) 
Heartbeat CPU  0 instructions:  344000000 cycles: 2389583913 heartbeat IPC: 0.16655 cumulative IPC: 0.10575 (Simulation time: 0 hr 27 min 8 sec) 
Heartbeat CPU  0 instructions:  345000000 cycles: 2394736806 heartbeat IPC: 0.19407 cumulative IPC: 0.10594 (Simulation time: 0 hr 27 min 12 sec) 
Heartbeat CPU  0 instructions:  346000003 cycles: 2405096892 heartbeat IPC: 0.09652 cumulative IPC: 0.10590 (Simulation time: 0 hr 27 min 18 sec) 
Heartbeat CPU  0 instructions:  347000001 cycles: 2419061004 heartbeat IPC: 0.07161 cumulative IPC: 0.10570 (Simulation time: 0 hr 27 min 26 sec) 
Heartbeat CPU  0 instructions:  348000000 cycles: 2425124714 heartbeat IPC: 0.16492 cumulative IPC: 0.10585 (Simulation time: 0 hr 27 min 31 sec) 
Heartbeat CPU  0 instructions:  349000001 cycles: 2430476900 heartbeat IPC: 0.18684 cumulative IPC: 0.10604 (Simulation time: 0 hr 27 min 35 sec) 
Heartbeat CPU  0 instructions:  350000000 cycles: 2442138302 heartbeat IPC: 0.08575 cumulative IPC: 0.10593 (Simulation time: 0 hr 27 min 42 sec) 
Heartbeat CPU  0 instructions:  351000003 cycles: 2455197615 heartbeat IPC: 0.07657 cumulative IPC: 0.10577 (Simulation time: 0 hr 27 min 49 sec) 
Heartbeat CPU  0 instructions:  352000000 cycles: 2460679910 heartbeat IPC: 0.18240 cumulative IPC: 0.10595 (Simulation time: 0 hr 27 min 54 sec) 
Heartbeat CPU  0 instructions:  353000001 cycles: 2465837588 heartbeat IPC: 0.19389 cumulative IPC: 0.10614 (Simulation time: 0 hr 27 min 58 sec) 
Heartbeat CPU  0 instructions:  354000003 cycles: 2478844643 heartbeat IPC: 0.07688 cumulative IPC: 0.10598 (Simulation time: 0 hr 28 min 5 sec) 
Heartbeat CPU  0 instructions:  355000001 cycles: 2490636283 heartbeat IPC: 0.08481 cumulative IPC: 0.10588 (Simulation time: 0 hr 28 min 12 sec) 
Heartbeat CPU  0 instructions:  356000000 cycles: 2496557426 heartbeat IPC: 0.16889 cumulative IPC: 0.10603 (Simulation time: 0 hr 28 min 16 sec) 
Heartbeat CPU  0 instructions:  357000001 cycles: 2501587170 heartbeat IPC: 0.19882 cumulative IPC: 0.10623 (Simulation time: 0 hr 28 min 21 sec) 
Heartbeat CPU  0 instructions:  358000002 cycles: 2516629889 heartbeat IPC: 0.06648 cumulative IPC: 0.10598 (Simulation time: 0 hr 28 min 29 sec) 
Heartbeat CPU  0 instructions:  359000002 cycles: 2526326182 heartbeat IPC: 0.10313 cumulative IPC: 0.10597 (Simulation time: 0 hr 28 min 35 sec) 
Heartbeat CPU  0 instructions:  360000000 cycles: 2531623874 heartbeat IPC: 0.18876 cumulative IPC: 0.10615 (Simulation time: 0 hr 28 min 39 sec) 
Heartbeat CPU  0 instructions:  361000003 cycles: 2536620467 heartbeat IPC: 0.20014 cumulative IPC: 0.10634 (Simulation time: 0 hr 28 min 43 sec) 
Heartbeat CPU  0 instructions:  362000001 cycles: 2554476069 heartbeat IPC: 0.05600 cumulative IPC: 0.10598 (Simulation time: 0 hr 28 min 53 sec) 
Heartbeat CPU  0 instructions:  363000000 cycles: 2561350027 heartbeat IPC: 0.14548 cumulative IPC: 0.10608 (Simulation time: 0 hr 28 min 58 sec) 
Heartbeat CPU  0 instructions:  364000000 cycles: 2567218869 heartbeat IPC: 0.17039 cumulative IPC: 0.10624 (Simulation time: 0 hr 29 min 2 sec) 
Heartbeat CPU  0 instructions:  365000000 cycles: 2574708437 heartbeat IPC: 0.13352 cumulative IPC: 0.10632 (Simulation time: 0 hr 29 min 7 sec) 
Heartbeat CPU  0 instructions:  366000000 cycles: 2591122526 heartbeat IPC: 0.06092 cumulative IPC: 0.10602 (Simulation time: 0 hr 29 min 16 sec) 
Heartbeat CPU  0 instructions:  367000002 cycles: 2597246683 heartbeat IPC: 0.16329 cumulative IPC: 0.10616 (Simulation time: 0 hr 29 min 21 sec) 
Heartbeat CPU  0 instructions:  368000000 cycles: 2602692736 heartbeat IPC: 0.18362 cumulative IPC: 0.10633 (Simulation time: 0 hr 29 min 25 sec) 
Heartbeat CPU  0 instructions:  369000003 cycles: 2613040443 heartbeat IPC: 0.09664 cumulative IPC: 0.10629 (Simulation time: 0 hr 29 min 31 sec) 
Heartbeat CPU  0 instructions:  370000003 cycles: 2627148300 heartbeat IPC: 0.07088 cumulative IPC: 0.10609 (Simulation time: 0 hr 29 min 39 sec) 
Heartbeat CPU  0 instructions:  371000002 cycles: 2632745872 heartbeat IPC: 0.17865 cumulative IPC: 0.10625 (Simulation time: 0 hr 29 min 44 sec) 
Heartbeat CPU  0 instructions:  372000000 cycles: 2637732163 heartbeat IPC: 0.20055 cumulative IPC: 0.10644 (Simulation time: 0 hr 29 min 48 sec) 
Heartbeat CPU  0 instructions:  373000002 cycles: 2652041927 heartbeat IPC: 0.06988 cumulative IPC: 0.10623 (Simulation time: 0 hr 29 min 56 sec) 
Heartbeat CPU  0 instructions:  374000001 cycles: 2662322170 heartbeat IPC: 0.09727 cumulative IPC: 0.10620 (Simulation time: 0 hr 30 min 2 sec) 
Heartbeat CPU  0 instructions:  375000002 cycles: 2667670576 heartbeat IPC: 0.18697 cumulative IPC: 0.10636 (Simulation time: 0 hr 30 min 7 sec) 
Heartbeat CPU  0 instructions:  376000000 cycles: 2674250797 heartbeat IPC: 0.15197 cumulative IPC: 0.10648 (Simulation time: 0 hr 30 min 12 sec) 
Heartbeat CPU  0 instructions:  377000000 cycles: 2691378941 heartbeat IPC: 0.05838 cumulative IPC: 0.10616 (Simulation time: 0 hr 30 min 21 sec) 
Heartbeat CPU  0 instructions:  378000000 cycles: 2697922214 heartbeat IPC: 0.15283 cumulative IPC: 0.10628 (Simulation time: 0 hr 30 min 26 sec) 
Heartbeat CPU  0 instructions:  379000002 cycles: 2702957860 heartbeat IPC: 0.19858 cumulative IPC: 0.10646 (Simulation time: 0 hr 30 min 30 sec) 
Heartbeat CPU  0 instructions:  380000000 cycles: 2714136617 heartbeat IPC: 0.08946 cumulative IPC: 0.10639 (Simulation time: 0 hr 30 min 37 sec) 
Heartbeat CPU  0 instructions:  381000000 cycles: 2727392486 heartbeat IPC: 0.07544 cumulative IPC: 0.10623 (Simulation time: 0 hr 30 min 44 sec) 
Heartbeat CPU  0 instructions:  382000002 cycles: 2733050380 heartbeat IPC: 0.17674 cumulative IPC: 0.10638 (Simulation time: 0 hr 30 min 49 sec) 
Heartbeat CPU  0 instructions:  383000000 cycles: 2738214878 heartbeat IPC: 0.19363 cumulative IPC: 0.10655 (Simulation time: 0 hr 30 min 53 sec) 
Heartbeat CPU  0 instructions:  384000000 cycles: 2754000386 heartbeat IPC: 0.06335 cumulative IPC: 0.10630 (Simulation time: 0 hr 31 min 2 sec) 
Heartbeat CPU  0 instructions:  385000001 cycles: 2763386354 heartbeat IPC: 0.10654 cumulative IPC: 0.10630 (Simulation time: 0 hr 31 min 8 sec) 
Heartbeat CPU  0 instructions:  386000002 cycles: 2768626886 heartbeat IPC: 0.19082 cumulative IPC: 0.10646 (Simulation time: 0 hr 31 min 12 sec) 
Heartbeat CPU  0 instructions:  387000003 cycles: 2776149684 heartbeat IPC: 0.13293 cumulative IPC: 0.10653 (Simulation time: 0 hr 31 min 17 sec) 
Heartbeat CPU  0 instructions:  388000000 cycles: 2792587572 heartbeat IPC: 0.06083 cumulative IPC: 0.10626 (Simulation time: 0 hr 31 min 26 sec) 
Heartbeat CPU  0 instructions:  389000001 cycles: 2798729911 heartbeat IPC: 0.16280 cumulative IPC: 0.10639 (Simulation time: 0 hr 31 min 31 sec) 
Heartbeat CPU  0 instructions:  390000000 cycles: 2803766581 heartbeat IPC: 0.19854 cumulative IPC: 0.10656 (Simulation time: 0 hr 31 min 35 sec) 
Heartbeat CPU  0 instructions:  391000002 cycles: 2814936863 heartbeat IPC: 0.08952 cumulative IPC: 0.10649 (Simulation time: 0 hr 31 min 42 sec) 
Heartbeat CPU  0 instructions:  392000000 cycles: 2828129747 heartbeat IPC: 0.07580 cumulative IPC: 0.10634 (Simulation time: 0 hr 31 min 49 sec) 
Heartbeat CPU  0 instructions:  393000000 cycles: 2833631483 heartbeat IPC: 0.18176 cumulative IPC: 0.10649 (Simulation time: 0 hr 31 min 54 sec) 
Heartbeat CPU  0 instructions:  394000001 cycles: 2839005175 heartbeat IPC: 0.18609 cumulative IPC: 0.10665 (Simulation time: 0 hr 31 min 58 sec) 
Heartbeat CPU  0 instructions:  395000000 cycles: 2854107882 heartbeat IPC: 0.06621 cumulative IPC: 0.10642 (Simulation time: 0 hr 32 min 6 sec) 
Heartbeat CPU  0 instructions:  396000000 cycles: 2863628023 heartbeat IPC: 0.10504 cumulative IPC: 0.10642 (Simulation time: 0 hr 32 min 13 sec) 
Heartbeat CPU  0 instructions:  397000000 cycles: 2869406259 heartbeat IPC: 0.17306 cumulative IPC: 0.10656 (Simulation time: 0 hr 32 min 17 sec) 
Heartbeat CPU  0 instructions:  398000001 cycles: 2875701093 heartbeat IPC: 0.15886 cumulative IPC: 0.10668 (Simulation time: 0 hr 32 min 22 sec) 
Heartbeat CPU  0 instructions:  399000001 cycles: 2893050296 heartbeat IPC: 0.05764 cumulative IPC: 0.10637 (Simulation time: 0 hr 32 min 31 sec) 
Heartbeat CPU  0 instructions:  400000000 cycles: 2899583236 heartbeat IPC: 0.15307 cumulative IPC: 0.10648 (Simulation time: 0 hr 32 min 36 sec) 
Heartbeat CPU  0 instructions:  401000002 cycles: 2904811320 heartbeat IPC: 0.19128 cumulative IPC: 0.10664 (Simulation time: 0 hr 32 min 40 sec) 
Heartbeat CPU  0 instructions:  402000003 cycles: 2915786971 heartbeat IPC: 0.09111 cumulative IPC: 0.10658 (Simulation time: 0 hr 32 min 47 sec) 
Heartbeat CPU  0 instructions:  403000000 cycles: 2929546339 heartbeat IPC: 0.07268 cumulative IPC: 0.10641 (Simulation time: 0 hr 32 min 54 sec) 
Heartbeat CPU  0 instructions:  404000000 cycles: 2936397700 heartbeat IPC: 0.14596 cumulative IPC: 0.10651 (Simulation time: 0 hr 32 min 59 sec) 
Heartbeat CPU  0 instructions:  405000001 cycles: 2945236675 heartbeat IPC: 0.11314 cumulative IPC: 0.10653 (Simulation time: 0 hr 33 min 5 sec) 
Heartbeat CPU  0 instructions:  406000003 cycles: 2957570740 heartbeat IPC: 0.08108 cumulative IPC: 0.10642 (Simulation time: 0 hr 33 min 12 sec) 
Heartbeat CPU  0 instructions:  407000001 cycles: 2969836777 heartbeat IPC: 0.08153 cumulative IPC: 0.10632 (Simulation time: 0 hr 33 min 19 sec) 
Heartbeat CPU  0 instructions:  408000000 cycles: 2975559691 heartbeat IPC: 0.17474 cumulative IPC: 0.10645 (Simulation time: 0 hr 33 min 24 sec) 
Heartbeat CPU  0 instructions:  409000000 cycles: 2983747299 heartbeat IPC: 0.12214 cumulative IPC: 0.10649 (Simulation time: 0 hr 33 min 29 sec) 
Heartbeat CPU  0 instructions:  410000003 cycles: 2999232977 heartbeat IPC: 0.06458 cumulative IPC: 0.10627 (Simulation time: 0 hr 33 min 38 sec) 
Heartbeat CPU  0 instructions:  411000000 cycles: 3008810561 heartbeat IPC: 0.10441 cumulative IPC: 0.10627 (Simulation time: 0 hr 33 min 44 sec) 
Heartbeat CPU  0 instructions:  412000000 cycles: 3014130270 heartbeat IPC: 0.18798 cumulative IPC: 0.10641 (Simulation time: 0 hr 33 min 48 sec) 
Heartbeat CPU  0 instructions:  413000003 cycles: 3022504293 heartbeat IPC: 0.11942 cumulative IPC: 0.10645 (Simulation time: 0 hr 33 min 54 sec) 
Heartbeat CPU  0 instructions:  414000003 cycles: 3038425180 heartbeat IPC: 0.06281 cumulative IPC: 0.10622 (Simulation time: 0 hr 34 min 3 sec) 
Heartbeat CPU  0 instructions:  415000000 cycles: 3044481274 heartbeat IPC: 0.16512 cumulative IPC: 0.10634 (Simulation time: 0 hr 34 min 8 sec) 
Heartbeat CPU  0 instructions:  416000000 cycles: 3049701570 heartbeat IPC: 0.19156 cumulative IPC: 0.10649 (Simulation time: 0 hr 34 min 12 sec) 
Heartbeat CPU  0 instructions:  417000000 cycles: 3063185506 heartbeat IPC: 0.07416 cumulative IPC: 0.10634 (Simulation time: 0 hr 34 min 20 sec) 
Heartbeat CPU  0 instructions:  418000001 cycles: 3074764136 heartbeat IPC: 0.08637 cumulative IPC: 0.10626 (Simulation time: 0 hr 34 min 27 sec) 
Heartbeat CPU  0 instructions:  419000000 cycles: 3084240754 heartbeat IPC: 0.10552 cumulative IPC: 0.10626 (Simulation time: 0 hr 34 min 33 sec) 
Heartbeat CPU  0 instructions:  420000000 cycles: 3097857531 heartbeat IPC: 0.07344 cumulative IPC: 0.10611 (Simulation time: 0 hr 34 min 40 sec) 
Heartbeat CPU  0 instructions:  421000003 cycles: 3108278296 heartbeat IPC: 0.09596 cumulative IPC: 0.10608 (Simulation time: 0 hr 34 min 46 sec) 
Heartbeat CPU  0 instructions:  422000002 cycles: 3124611744 heartbeat IPC: 0.06122 cumulative IPC: 0.10584 (Simulation time: 0 hr 34 min 55 sec) 
Heartbeat CPU  0 instructions:  423000002 cycles: 3130884165 heartbeat IPC: 0.15943 cumulative IPC: 0.10595 (Simulation time: 0 hr 35 min 0 sec) 
Heartbeat CPU  0 instructions:  424000000 cycles: 3145575570 heartbeat IPC: 0.06807 cumulative IPC: 0.10577 (Simulation time: 0 hr 35 min 7 sec) 
Heartbeat CPU  0 instructions:  425000002 cycles: 3150553498 heartbeat IPC: 0.20089 cumulative IPC: 0.10592 (Simulation time: 0 hr 35 min 12 sec) 
Heartbeat CPU  0 instructions:  426000000 cycles: 3167145792 heartbeat IPC: 0.06027 cumulative IPC: 0.10567 (Simulation time: 0 hr 35 min 21 sec) 
Heartbeat CPU  0 instructions:  427000002 cycles: 3175386325 heartbeat IPC: 0.12135 cumulative IPC: 0.10572 (Simulation time: 0 hr 35 min 26 sec) 
Heartbeat CPU  0 instructions:  428000000 cycles: 3181007944 heartbeat IPC: 0.17788 cumulative IPC: 0.10585 (Simulation time: 0 hr 35 min 31 sec) 
Heartbeat CPU  0 instructions:  429000001 cycles: 3191124628 heartbeat IPC: 0.09885 cumulative IPC: 0.10582 (Simulation time: 0 hr 35 min 36 sec) 
Heartbeat CPU  0 instructions:  430000002 cycles: 3204487569 heartbeat IPC: 0.07483 cumulative IPC: 0.10569 (Simulation time: 0 hr 35 min 44 sec) 
Heartbeat CPU  0 instructions:  431000003 cycles: 3216833997 heartbeat IPC: 0.08100 cumulative IPC: 0.10559 (Simulation time: 0 hr 35 min 51 sec) 
Heartbeat CPU  0 instructions:  432000000 cycles: 3222261310 heartbeat IPC: 0.18425 cumulative IPC: 0.10573 (Simulation time: 0 hr 35 min 55 sec) 
Heartbeat CPU  0 instructions:  433000001 cycles: 3227417635 heartbeat IPC: 0.19394 cumulative IPC: 0.10587 (Simulation time: 0 hr 35 min 59 sec) 
Heartbeat CPU  0 instructions:  434000000 cycles: 3238901269 heartbeat IPC: 0.08708 cumulative IPC: 0.10581 (Simulation time: 0 hr 36 min 6 sec) 
Heartbeat CPU  0 instructions:  435000003 cycles: 3251818093 heartbeat IPC: 0.07742 cumulative IPC: 0.10569 (Simulation time: 0 hr 36 min 13 sec) 
Heartbeat CPU  0 instructions:  436000000 cycles: 3257338779 heartbeat IPC: 0.18114 cumulative IPC: 0.10582 (Simulation time: 0 hr 36 min 17 sec) 
Heartbeat CPU  0 instructions:  437000001 cycles: 3262371336 heartbeat IPC: 0.19871 cumulative IPC: 0.10597 (Simulation time: 0 hr 36 min 21 sec) 
Heartbeat CPU  0 instructions:  438000002 cycles: 3273057735 heartbeat IPC: 0.09358 cumulative IPC: 0.10593 (Simulation time: 0 hr 36 min 27 sec) 
Heartbeat CPU  0 instructions:  439000000 cycles: 3286579828 heartbeat IPC: 0.07395 cumulative IPC: 0.10579 (Simulation time: 0 hr 36 min 35 sec) 
Heartbeat CPU  0 instructions:  440000000 cycles: 3292659473 heartbeat IPC: 0.16448 cumulative IPC: 0.10590 (Simulation time: 0 hr 36 min 39 sec) 
Heartbeat CPU  0 instructions:  441000002 cycles: 3297832990 heartbeat IPC: 0.19329 cumulative IPC: 0.10604 (Simulation time: 0 hr 36 min 44 sec) 
Heartbeat CPU  0 instructions:  442000000 cycles: 3307482163 heartbeat IPC: 0.10364 cumulative IPC: 0.10604 (Simulation time: 0 hr 36 min 49 sec) 
Heartbeat CPU  0 instructions:  443000001 cycles: 3322014420 heartbeat IPC: 0.06881 cumulative IPC: 0.10587 (Simulation time: 0 hr 36 min 57 sec) 
Heartbeat CPU  0 instructions:  444000000 cycles: 3327799102 heartbeat IPC: 0.17287 cumulative IPC: 0.10599 (Simulation time: 0 hr 37 min 2 sec) 
Heartbeat CPU  0 instructions:  445000003 cycles: 3332866564 heartbeat IPC: 0.19734 cumulative IPC: 0.10613 (Simulation time: 0 hr 37 min 6 sec) 
Heartbeat CPU  0 instructions:  446000001 cycles: 3342120644 heartbeat IPC: 0.10806 cumulative IPC: 0.10614 (Simulation time: 0 hr 37 min 11 sec) 
Heartbeat CPU  0 instructions:  447000000 cycles: 3357434722 heartbeat IPC: 0.06530 cumulative IPC: 0.10595 (Simulation time: 0 hr 37 min 20 sec) 
Heartbeat CPU  0 instructions:  448000000 cycles: 3363318335 heartbeat IPC: 0.16996 cumulative IPC: 0.10606 (Simulation time: 0 hr 37 min 24 sec) 
Heartbeat CPU  0 instructions:  449000001 cycles: 3368397585 heartbeat IPC: 0.19688 cumulative IPC: 0.10620 (Simulation time: 0 hr 37 min 29 sec) 
Heartbeat CPU  0 instructions:  450000000 cycles: 3377462735 heartbeat IPC: 0.11031 cumulative IPC: 0.10621 (Simulation time: 0 hr 37 min 34 sec) 
Heartbeat CPU  0 instructions:  451000001 cycles: 3392519138 heartbeat IPC: 0.06642 cumulative IPC: 0.10603 (Simulation time: 0 hr 37 min 43 sec) 
Heartbeat CPU  0 instructions:  452000000 cycles: 3398233094 heartbeat IPC: 0.17501 cumulative IPC: 0.10615 (Simulation time: 0 hr 37 min 47 sec) 
Heartbeat CPU  0 instructions:  453000000 cycles: 3403290839 heartbeat IPC: 0.19772 cumulative IPC: 0.10629 (Simulation time: 0 hr 37 min 51 sec) 
Heartbeat CPU  0 instructions:  454000000 cycles: 3413124642 heartbeat IPC: 0.10169 cumulative IPC: 0.10628 (Simulation time: 0 hr 37 min 57 sec) 
Heartbeat CPU  0 instructions:  455000003 cycles: 3427493232 heartbeat IPC: 0.06960 cumulative IPC: 0.10612 (Simulation time: 0 hr 38 min 5 sec) 
Heartbeat CPU  0 instructions:  456000000 cycles: 3433138436 heartbeat IPC: 0.17714 cumulative IPC: 0.10624 (Simulation time: 0 hr 38 min 10 sec) 
Heartbeat CPU  0 instructions:  457000000 cycles: 3438203268 heartbeat IPC: 0.19744 cumulative IPC: 0.10638 (Simulation time: 0 hr 38 min 14 sec) 
Heartbeat CPU  0 instructions:  458000001 cycles: 3448821042 heartbeat IPC: 0.09418 cumulative IPC: 0.10634 (Simulation time: 0 hr 38 min 20 sec) 
Heartbeat CPU  0 instructions:  459000002 cycles: 3462502956 heartbeat IPC: 0.07309 cumulative IPC: 0.10620 (Simulation time: 0 hr 38 min 28 sec) 
Heartbeat CPU  0 instructions:  460000000 cycles: 3468076751 heartbeat IPC: 0.17941 cumulative IPC: 0.10632 (Simulation time: 0 hr 38 min 32 sec) 
Heartbeat CPU  0 instructions:  461000003 cycles: 3473516254 heartbeat IPC: 0.18384 cumulative IPC: 0.10645 (Simulation time: 0 hr 38 min 37 sec) 
Heartbeat CPU  0 instructions:  462000001 cycles: 3485438182 heartbeat IPC: 0.08388 cumulative IPC: 0.10637 (Simulation time: 0 hr 38 min 44 sec) 
Heartbeat CPU  0 instructions:  463000002 cycles: 3498298999 heartbeat IPC: 0.07776 cumulative IPC: 0.10626 (Simulation time: 0 hr 38 min 51 sec) 
Heartbeat CPU  0 instructions:  464000000 cycles: 3503920394 heartbeat IPC: 0.17789 cumulative IPC: 0.10638 (Simulation time: 0 hr 38 min 56 sec) 
Heartbeat CPU  0 instructions:  465000000 cycles: 3518901690 heartbeat IPC: 0.06675 cumulative IPC: 0.10621 (Simulation time: 0 hr 39 min 3 sec) 
Heartbeat CPU  0 instructions:  466000000 cycles: 3529077981 heartbeat IPC: 0.09827 cumulative IPC: 0.10618 (Simulation time: 0 hr 39 min 10 sec) 
Heartbeat CPU  0 instructions:  467000002 cycles: 3544424186 heartbeat IPC: 0.06516 cumulative IPC: 0.10600 (Simulation time: 0 hr 39 min 18 sec) 
Heartbeat CPU  0 instructions:  468000000 cycles: 3551435550 heartbeat IPC: 0.14263 cumulative IPC: 0.10608 (Simulation time: 0 hr 39 min 23 sec) 
Heartbeat CPU  0 instructions:  469000000 cycles: 3565971452 heartbeat IPC: 0.06880 cumulative IPC: 0.10592 (Simulation time: 0 hr 39 min 30 sec) 
Heartbeat CPU  0 instructions:  470000000 cycles: 3572476869 heartbeat IPC: 0.15372 cumulative IPC: 0.10601 (Simulation time: 0 hr 39 min 35 sec) 
Heartbeat CPU  0 instructions:  471000000 cycles: 3589989940 heartbeat IPC: 0.05710 cumulative IPC: 0.10576 (Simulation time: 0 hr 39 min 44 sec) 
Heartbeat CPU  0 instructions:  472000000 cycles: 3599969637 heartbeat IPC: 0.10020 cumulative IPC: 0.10575 (Simulation time: 0 hr 39 min 50 sec) 
Heartbeat CPU  0 instructions:  473000001 cycles: 3611539606 heartbeat IPC: 0.08643 cumulative IPC: 0.10569 (Simulation time: 0 hr 39 min 57 sec) 
Heartbeat CPU  0 instructions:  474000001 cycles: 3616639408 heartbeat IPC: 0.19609 cumulative IPC: 0.10582 (Simulation time: 0 hr 40 min 1 sec) 
Heartbeat CPU  0 instructions:  475000003 cycles: 3631127847 heartbeat IPC: 0.06902 cumulative IPC: 0.10567 (Simulation time: 0 hr 40 min 9 sec) 
Heartbeat CPU  0 instructions:  476000000 cycles: 3648228768 heartbeat IPC: 0.05848 cumulative IPC: 0.10544 (Simulation time: 0 hr 40 min 18 sec) 
Heartbeat CPU  0 instructions:  477000000 cycles: 3662346390 heartbeat IPC: 0.07083 cumulative IPC: 0.10530 (Simulation time: 0 hr 40 min 25 sec) 
Heartbeat CPU  0 instructions:  478000000 cycles: 3671175079 heartbeat IPC: 0.11327 cumulative IPC: 0.10532 (Simulation time: 0 hr 40 min 30 sec) 
Heartbeat CPU  0 instructions:  479000000 cycles: 3676579871 heartbeat IPC: 0.18502 cumulative IPC: 0.10544 (Simulation time: 0 hr 40 min 34 sec) 
Heartbeat CPU  0 instructions:  480000000 cycles: 3693513915 heartbeat IPC: 0.05905 cumulative IPC: 0.10522 (Simulation time: 0 hr 40 min 43 sec) 
Heartbeat CPU  0 instructions:  481000000 cycles: 3702631058 heartbeat IPC: 0.10968 cumulative IPC: 0.10524 (Simulation time: 0 hr 40 min 49 sec) 
Heartbeat CPU  0 instructions:  482000000 cycles: 3708914672 heartbeat IPC: 0.15914 cumulative IPC: 0.10533 (Simulation time: 0 hr 40 min 53 sec) 
Heartbeat CPU  0 instructions:  483000002 cycles: 3714551879 heartbeat IPC: 0.17739 cumulative IPC: 0.10544 (Simulation time: 0 hr 40 min 58 sec) 
Heartbeat CPU  0 instructions:  484000000 cycles: 3732496119 heartbeat IPC: 0.05573 cumulative IPC: 0.10520 (Simulation time: 0 hr 41 min 7 sec) 
Heartbeat CPU  0 instructions:  485000000 cycles: 3740145774 heartbeat IPC: 0.13072 cumulative IPC: 0.10525 (Simulation time: 0 hr 41 min 12 sec) 
Heartbeat CPU  0 instructions:  486000000 cycles: 3748213005 heartbeat IPC: 0.12396 cumulative IPC: 0.10529 (Simulation time: 0 hr 41 min 17 sec) 
Heartbeat CPU  0 instructions:  487000002 cycles: 3754094856 heartbeat IPC: 0.17001 cumulative IPC: 0.10540 (Simulation time: 0 hr 41 min 22 sec) 
Heartbeat CPU  0 instructions:  488000000 cycles: 3771929242 heartbeat IPC: 0.05607 cumulative IPC: 0.10516 (Simulation time: 0 hr 41 min 31 sec) 
Heartbeat CPU  0 instructions:  489000001 cycles: 3778519661 heartbeat IPC: 0.15174 cumulative IPC: 0.10524 (Simulation time: 0 hr 41 min 36 sec) 
Heartbeat CPU  0 instructions:  490000002 cycles: 3783586543 heartbeat IPC: 0.19736 cumulative IPC: 0.10537 (Simulation time: 0 hr 41 min 40 sec) 
Heartbeat CPU  0 instructions:  491000000 cycles: 3791131958 heartbeat IPC: 0.13253 cumulative IPC: 0.10542 (Simulation time: 0 hr 41 min 45 sec) 
Heartbeat CPU  0 instructions:  492000000 cycles: 3807348286 heartbeat IPC: 0.06167 cumulative IPC: 0.10523 (Simulation time: 0 hr 41 min 53 sec) 
Heartbeat CPU  0 instructions:  493000001 cycles: 3813348909 heartbeat IPC: 0.16665 cumulative IPC: 0.10533 (Simulation time: 0 hr 41 min 58 sec) 
Heartbeat CPU  0 instructions:  494000002 cycles: 3822280426 heartbeat IPC: 0.11196 cumulative IPC: 0.10535 (Simulation time: 0 hr 42 min 3 sec) 
Heartbeat CPU  0 instructions:  495000002 cycles: 3829059660 heartbeat IPC: 0.14751 cumulative IPC: 0.10542 (Simulation time: 0 hr 42 min 8 sec) 
Heartbeat CPU  0 instructions:  496000000 cycles: 3845691091 heartbeat IPC: 0.06013 cumulative IPC: 0.10522 (Simulation time: 0 hr 42 min 16 sec) 
Heartbeat CPU  0 instructions:  497000002 cycles: 3851751586 heartbeat IPC: 0.16500 cumulative IPC: 0.10532 (Simulation time: 0 hr 42 min 21 sec) 
Heartbeat CPU  0 instructions:  498000000 cycles: 3856717046 heartbeat IPC: 0.20139 cumulative IPC: 0.10544 (Simulation time: 0 hr 42 min 25 sec) 
Heartbeat CPU  0 instructions:  499000003 cycles: 3865428757 heartbeat IPC: 0.11479 cumulative IPC: 0.10547 (Simulation time: 0 hr 42 min 30 sec) 
Heartbeat CPU  0 instructions:  500000000 cycles: 3880680284 heartbeat IPC: 0.06557 cumulative IPC: 0.10531 (Simulation time: 0 hr 42 min 39 sec) 
Heartbeat CPU  0 instructions:  501000002 cycles: 3886470686 heartbeat IPC: 0.17270 cumulative IPC: 0.10541 (Simulation time: 0 hr 42 min 43 sec) 
Heartbeat CPU  0 instructions:  502000000 cycles: 3892173211 heartbeat IPC: 0.17536 cumulative IPC: 0.10551 (Simulation time: 0 hr 42 min 47 sec) 
Heartbeat CPU  0 instructions:  503000002 cycles: 3903277715 heartbeat IPC: 0.09005 cumulative IPC: 0.10547 (Simulation time: 0 hr 42 min 54 sec) 
Heartbeat CPU  0 instructions:  504000000 cycles: 3916934755 heartbeat IPC: 0.07322 cumulative IPC: 0.10535 (Simulation time: 0 hr 43 min 1 sec) 
Heartbeat CPU  0 instructions:  505000002 cycles: 3922783493 heartbeat IPC: 0.17098 cumulative IPC: 0.10545 (Simulation time: 0 hr 43 min 5 sec) 
Heartbeat CPU  0 instructions:  506000001 cycles: 3928530769 heartbeat IPC: 0.17400 cumulative IPC: 0.10556 (Simulation time: 0 hr 43 min 9 sec) 
Heartbeat CPU  0 instructions:  507000001 cycles: 3941645081 heartbeat IPC: 0.07625 cumulative IPC: 0.10546 (Simulation time: 0 hr 43 min 17 sec) 
Heartbeat CPU  0 instructions:  508000000 cycles: 3954520520 heartbeat IPC: 0.07767 cumulative IPC: 0.10536 (Simulation time: 0 hr 43 min 24 sec) 
Heartbeat CPU  0 instructions:  509000000 cycles: 3960176810 heartbeat IPC: 0.17679 cumulative IPC: 0.10547 (Simulation time: 0 hr 43 min 28 sec) 
Heartbeat CPU  0 instructions:  510000000 cycles: 3965487349 heartbeat IPC: 0.18830 cumulative IPC: 0.10558 (Simulation time: 0 hr 43 min 32 sec) 
Heartbeat CPU  0 instructions:  511000001 cycles: 3979707221 heartbeat IPC: 0.07032 cumulative IPC: 0.10545 (Simulation time: 0 hr 43 min 40 sec) 
Heartbeat CPU  0 instructions:  512000000 cycles: 3990508292 heartbeat IPC: 0.09258 cumulative IPC: 0.10542 (Simulation time: 0 hr 43 min 46 sec) 
Heartbeat CPU  0 instructions:  513000000 cycles: 3996486294 heartbeat IPC: 0.16728 cumulative IPC: 0.10551 (Simulation time: 0 hr 43 min 51 sec) 
Heartbeat CPU  0 instructions:  514000000 cycles: 4001722918 heartbeat IPC: 0.19096 cumulative IPC: 0.10563 (Simulation time: 0 hr 43 min 55 sec) 
Heartbeat CPU  0 instructions:  515000000 cycles: 4017619645 heartbeat IPC: 0.06291 cumulative IPC: 0.10545 (Simulation time: 0 hr 44 min 3 sec) 
Heartbeat CPU  0 instructions:  516000000 cycles: 4026878284 heartbeat IPC: 0.10801 cumulative IPC: 0.10546 (Simulation time: 0 hr 44 min 9 sec) 
Heartbeat CPU  0 instructions:  517000000 cycles: 4032358807 heartbeat IPC: 0.18246 cumulative IPC: 0.10557 (Simulation time: 0 hr 44 min 13 sec) 
Heartbeat CPU  0 instructions:  518000001 cycles: 4037829453 heartbeat IPC: 0.18279 cumulative IPC: 0.10567 (Simulation time: 0 hr 44 min 18 sec) 
Heartbeat CPU  0 instructions:  519000000 cycles: 4055728917 heartbeat IPC: 0.05587 cumulative IPC: 0.10545 (Simulation time: 0 hr 44 min 27 sec) 
Heartbeat CPU  0 instructions:  520000000 cycles: 4062612066 heartbeat IPC: 0.14528 cumulative IPC: 0.10552 (Simulation time: 0 hr 44 min 32 sec) 
Heartbeat CPU  0 instructions:  521000002 cycles: 4068237129 heartbeat IPC: 0.17778 cumulative IPC: 0.10562 (Simulation time: 0 hr 44 min 36 sec) 
Heartbeat CPU  0 instructions:  522000002 cycles: 4075027373 heartbeat IPC: 0.14727 cumulative IPC: 0.10569 (Simulation time: 0 hr 44 min 41 sec) 
Heartbeat CPU  0 instructions:  523000002 cycles: 4092330076 heartbeat IPC: 0.05779 cumulative IPC: 0.10548 (Simulation time: 0 hr 44 min 49 sec) 
Heartbeat CPU  0 instructions:  524000000 cycles: 4098962688 heartbeat IPC: 0.15077 cumulative IPC: 0.10556 (Simulation time: 0 hr 44 min 54 sec) 
Heartbeat CPU  0 instructions:  525000002 cycles: 4104201028 heartbeat IPC: 0.19090 cumulative IPC: 0.10567 (Simulation time: 0 hr 44 min 58 sec) 
Heartbeat CPU  0 instructions:  526000000 cycles: 4110742102 heartbeat IPC: 0.15288 cumulative IPC: 0.10575 (Simulation time: 0 hr 45 min 3 sec) 
Heartbeat CPU  0 instructions:  527000000 cycles: 4127617179 heartbeat IPC: 0.05926 cumulative IPC: 0.10555 (Simulation time: 0 hr 45 min 12 sec) 
[...]
I44IIIAA222444444A24A242444444444444444I44IIIIIIIIIIIIIIIIIIIIII
I44IIIAA222444444A24A242444444444444444I44I4IIIIIIIIIIIIIIIIIIII
I44IIIAA222444444A24A242444444444444444I44I44IIIIIIIIIIIIIIIIIII
I44IIIAA222444444A24A242444444444444444I44I44I4IIIIIIIIIIIIIIIII
I44IIIAA222444444A22A242444444444444444I44I44I4IIIIIIIIIIIIIIIII
I44IIIAA222444444A22A222444444444444444I44I44I4IIIIIIIIIIIIIIIII
I44IIIAI222444444A22A222444444444444444I44I44I4IIIIIIIIIIIIIIIII
I44IIIAA222444444A22A222444444444444444I44I44I4IIIIIIIIIIIIIIIII
I44IIIAA222444444A22A222444444444444444444I44I4IIIIIIIIIIIIIIIII
I44IIIAA222444444A2IA222444444444444444444I44I4IIIIIIIIIIIIIIIII
I44IIIAA222444444A24A222444444444444444444I44I4IIIIIIIIIIIIIIIII
I44IIIAA222444444A22A222444444444444444444I44I4IIIIIIIIIIIIIIIII
I44IIIAI222444444A22A222444444444444444444I44I4IIIIIIIIIIIIIIIII
I44IIIAA222444444A22A222444444444444444444I44I4IIIIIIIIIIIIIIIII
I44IIIAA222444444A22A222444444444444444444444I4IIIIIIIIIIIIIIIII
I44IIIAI222444444A22A222444444444444444444444I4IIIIIIIIIIIIIIIII
I44IIIAA222444444A22A222444444444444444444444I4IIIIIIIIIIIIIIIII
I44IIIAI222444444A22A222444444444444444444444I4IIIIIIIIIIIIIIIII
I44IIIII222444444A22A222444444444444444444444I4IIIIIIIIIIIIIIIII
I44IIIIA222444444A22A222444444444444444444444I4IIIIIIIIIIIIIIIII
I44IIIAA222444444A22A222444444444444444444444I4IIIIIIIIIIIIIIIII
I44IIIAI222444444A22A222444444444444444444444I4IIIIIIIIIIIIIIIII
I44IIIII222444444A22A222444444444444444444444I4IIIIIIIIIIIIIIIII
I44IIIIA222444444A22A222444444444444444444444I4IIIIIIIIIIIIIIIII
I44IIIAA222444444A22A222444444444444444444444I4IIIIIIIIIIIIIIIII
I44IIIAA222424444A22A222444444444444444444444I4IIIIIIIIIIIIIIIII
I44IIIAA222224444A22A222444444444444444444444I4IIIIIIIIIIIIIIIII
I44IIIAA222224444A22A222424444444444444444444I4IIIIIIIIIIIIIIIII
I44IIIAA2222I4444A22A222424444444444444444444I4IIIIIIIIIIIIIIIII
I44IIIIA2222I4444A22A222424444444444444444444I4IIIIIIIIIIIIIIIII
I44IIIAA2222I4444A22A222424444444444444444444I4IIIIIIIIIIIIIIIII
I44IIIAA2222I4444A22A222A24444444444444444444I4IIIIIIIIIIIIIIIII
I44IIIAA2222I4444A22A222AI4444444444444444444I4IIIIIIIIIIIIIIIII
I44IIIAA2222I4444A22A222II4444444444444444444I4IIIIIIIIIIIIIIIII
I44IIIAA222244444A22A222II4444444444444444444I4IIIIIIIIIIIIIIIII
I44IIIAA222244444A22A222444444444444444444444I4IIIIIIIIIIIIIIIII
I44IIIAI222244444A22A222444444444444444444444I4IIIIIIIIIIIIIIIII
I44IIIAA222244444A22A222444444444444444444444I4IIIIIIIIIIIIIIIII
I44IIIAA222244444A22A222424444444444444444444I4IIIIIIIIIIIIIIIII
I44IIIAA222224444A22A222424444444444444444444I4IIIIIIIIIIIIIIIII
I44IIIAI222224444A22A222424444444444444444444I4IIIIIIIIIIIIIIIII
I44IIIAA222224444A22A222424444444444444444444I4IIIIIIIIIIIIIIIII
I44IIIAI222224444A22A222424444444444444444444I4IIIIIIIIIIIIIIIII
I44IIIAA222224444A22A222424444444444444444444I4IIIIIIIIIIIIIIIII
I44IIIAA222224444A22A222424444444444444444444A424I4II444IIIIIII4
I44IIIAA222224444A22I222424444444444444444444A424I4II444IIIIIII4
I44IIIAA222224444A222222424444444444444444444A424I4II444IIIIIII4
I44IIIAA222224444A22A222424444444444444444444A424I4II444IIIIIII4
I44IIIAA222224444A22A222424444444444444444444A424I4I4444IIA44I44
I44IIIAA222224444A22A222424444444444444444444A424I4I4444IIAA4444
IIIIIIIIIIIIIIIIIIIIIIIIIIIIIIIIIIIIIIIIIIIII4IA4444IIIIIIIIIIII
IIIIIIIIIIIIIIIIIIIIIIIIIIIIIIIIIIIIIIIIA4III4IA4444IIIIIIIIIIII
IIIIIIIIIIIIIIIIIIIIIIIIIIIIIIIIIIIIIIIIAA4II4IA4444IIIIIIIIIIII
IIIIIIIIIIIIA4IIIIIIIIIIIIIIIIIIIIIIIIIIAA4II4IA4444IIIIIIIIIIII
IIIIIIIIIIIIAA4IIIIIIIIIIIIIIIIIIIIIIIIIAA4II4IA4444IIIIIIIIIIII
IIIIIIIIIIIA4IIIIIIIIIIIIIIIIIIIIIIIIIIIIIIIIIIIIIIIIIIIIIIIIIII
IIIIIIIIIIIA4IIIIIIA4IIIIIIIIIIIIIIIIIIIIIIIIIIIIIIIIIIIIIIIIIII
IIIIIIIIIIIA4IIIIIIAA4IIIIIIIIIIIIIIIIIIIIIIIIIIIIIIIIIIIIIIIIII
IIIIIIIIIIIIIIIIIIIIIIIIIIIIIIA4IIIIIIIIIIIIIIIIIIIIIIIIIIIIIIII
IIIIIIIIIIIIIIIIIIIIIIIIIIIIIIAA4IIIIIIIIIIIIIIIIIIIIIIIIIIIIIII
IIIIIIIIIIIIIIIIIIIIIIIIIIIIIAAA4IIIIIIIIIIIIIIIIIIIIIIIIIIIIIII
IIIIIIIIIIIIIIIIIIIIIIIIIIIIIAAA4IIIIIIIIIIIIIIIIIIIIIIIA4IIIIII
IIIIIIIIIIIIIIIIIIIIIIIIIIIIIAAA4IIIIIIIIIIIIIIIIIIIIIIIAA4IIIII
IIIIIIA4IIIIIIIIIIIIIIIIIIIIIAAA4IIIIIIIIIIIIIIIIIIIIIIIAA4IIIII
IIIIIIA4IIIIIIIIIIIIIIIIIA4IIAAA4IIIIIIIIIIIIIIIIIIIIIIIAA4IIIII
IIIIIIA4IIIIIIIIIIIIIIIIIAA4IAAA4IIIIIIIIIIIIIIIIIIIIIIIAA4IIIII
IIIIIIA4IIIIIIIIIIIIIIIIIAAA4AAA4IIIIIIIIIIIIIIIIIIIIIIIAA4IIIII
IIIIIIA4IIIIIIIIIIIIIIIIIAAAAAAA4IIIIIIIIIIIIIIIIIIIIIIIAA4IIIII
IIIIIIA4IIIIIIIIIIIIIIIIIAAAAAAA4IIIIIIIIIIIIIIIIIA4IIIIAA4IIIII
IIIA4IA4IIIIIIIIIIIIIIIIIAAAAAAA4IIIIIIIIIIIIIIIIIA4IIIIAA4IIIII
IIIA4IA4IIIIIIIIIIIIIIIIIAAAAAAA4IIIIIA4IIIIIIIIIIA4IIIIAA4IIIII
IIIA4IA4IIIIIIIIIIIIIIIIIAAAAAAA4IIIIIAA4IIIIIIIIIA4IIIIAA4IIIII
IIIA4IA4IIIIIIIIIIIIIIIIIAAAAAAA4IIIIIAA4IIIIIIIIIA4IA4IAA4IIIII
IIIA4IA4IIIIIIIIIIIIIIIIIAAAAAAA4IIIIIAA4IIIIIIIIIA4IAA4AA4IIIII
IIIA4IA4IIIIIIIIIIIIIA4IIAAAAAAA4IIIIIAA4IIIIIIIIIA4IAA4AA4IIIII
IIIA4IA4IIIIIIIIIIIIIA4IIAAAAAAA4IIIIIAA4IIIIIIIIIA4IAA4AA4IIA4I
IIIA4IA4IIIIIIIIIIIIIA4IIAAAAAAA4IIIIIAA4IIIIIIIIIA4IAA4AA4IIAA4
IIIA4IA4IIIIIIIIIIIIIA4IIAAAAAAA4IIIIIAA4IIIIIIIIIA4IAAAAA4IIAA4
IIIAA4A4IIIIIIIIIIIIIA4IIAAAAAAA4IIIIIAA4IIIIIIIIIA4IAAAAA4IIAA4
IIIAAAA4IIIIIIIIIIIIIA4IIAAAAAAA4IIIIIAA4IIIIIIIIIA4IAAAAA4IIAA4
IIIAAAA4IIIIIIIIIIIIIA4IIAAAAAAA4IIA4IAA4IIIIIIIIIA4IAAAAA4IIAA4
IIIAAAA4IIIIIIIIIIIIIA4IIAAAAAAA4IIAA4AA4IIIIIIIIIA4IAAAAA4IIAA4
A4IAAAA4IIIIIIIIIIIIIA4IIAAAAAAA4IIAA4AA4IIIIIIIIIA4IAAAAA4IIAA4
A4IAAAA4IIIIIIIIIIIIIA4IIAAAAAAAA4IAA4AA4IIIIIIIIIA4IAAAAA4IIAA4
A4IAAAA4IIIIIIIIIIIIIA4IIAAAAAAAAA4AA4AA4IIIIIIIIIA4IAAAAA4IIAA4
A4IAAAA4IIIIIIIIIIIIIA4IIAAAAAAAAA4AA4AA4IA4IIIIIIA4IAAAAA4IIAA4
A4IAAAA4IIIIIIA44IIIIA4IIAAAAAAAAA4AA4AA4IA4IIIIIIA4IAAAAA4IIAA4
A4IAAAA4IIIIIIAA44IIIA4IIAAAAAAAAA4AA4AA4IA4IIIIIIA4IAAAAA4IIAA4
A4IAAAA4IIIIIIAA4A4IIA4IIAAAAAAAAA4AA4AA4IA4IIIIIIA4IAAAAA4IIAA4
A4IAAAA4IIIIIIAA4AA4IA4IIAAAAAAAAA4AA4AA4IA4IIIIIIA4IAAAAA4IIAA4
AA4AAAA4IIIIIIAA4AA4IA4IIAAAAAAAAA4AA4AA4IA4IIIIIIA4IAAAAA4IIAA4
AAAAAAA4IIIIIIAA4AA4IA4IIAAAAAAAAA4AA4AA4IA4IIIIIIA4IAAAAA4IIAA4
AAAAAAA4IIIIIIAA4AA4IA4IIAAAAAAAAA4AA4AA4IA4IIIIA4A4IAAAAA4IIAA4
AAAAAAA4IIIIIIAA4AA4IA4IIAAAAAAAAA4AA4AA4IA4IIIIAAA4IAAAAA4IIAA4
AAAAAAA4IIIIIIAA4AA4IA4IIAAAAAAAAA4AA4AA4IA4IIIIAAAA4AAAAA4IIAA4
AAAAAAA4IIIIIIAA4AA4IA4IIAAAAAAAAA4AA4AA4IA4IIIIAAAAAAAAAA4IIAA4
AAAAAAA4IIIIIIAA4AA4IA4IIAAAAAAAAA4AA4AA4IA4IIIIAAAAAAAAAA4IIAAA
AAAAAAA4IIIIIIAA4AA4IA4IAAAAAAAAAA4AA4AA4IA4IIIIAAAAAAAAAA4IIAAA
AAAAAAA4IIIIIIAA4AA4IA4IAAAAAAAAAA4AAAAA44A4IIIIAAAAAAAAAA4IIAAA
AAAAAAA4A4IIIIAA4AA4IA4IAAAAAAAAAA4AAAAA44A4IIIIAAAAAAAAAA4IIAAA
AAAAAAA4A4IIIIAA4AA4IA4IAAAAAAAAAAAAAAAA44A4IIIIAAAAAAAAAA4IIAAA
AAAAAAA4A4IIIIAA4AA4IA4IAAAAAAAAAAAAAAAA44AA4IIIAAAAAAAAAA4IIAAA
AAAAAAA4A4IIIIAA4AA4IA4IAAAAAAAAAAAAAAAA44AAA4IIAAAAAAAAAA4IIAAA
AAAAAAA4A4IIIIAA4AA44AA4AAAAAAAAAAAAAAAA44AAA4IIAAAAAAAAAA4IIAAA
AAAAAAA4A4IIIIAA4AA44AAAAAAAAAAAAAAAAAAA44AAA4IIAAAAAAAAAA4IIAAA
AAAAAAA4A4IIIIAA4AA44AAAAAAAAAAAAAAAAAAA44AAA4IIAAAAAAAAAA4IAAAA
AAAAAAA4A4IIIIAA4AA44AAAAAAAAAAAAAAAAAAA44AAAA44AAAAAAAAAA4IAAAA
AAAAAAA4A4IIIIAA4AA44AAAAAAAAAAAAAAAAAAA44AAAAA4AAAAAAAAAA4IAAAA
AAAAAAA4A4IIIIAAAAA44AAAAAAAAAAAAAAAAAAA44AAAAA4AAAAAAAAAA4IAAAA
IIIIIIIIIA4IIIIIIIIIIIIIIIIIIIIIIIIIIIIIIIIIIIIIIIIIIIIIIIIIIIII
IIIIIIIIIAA4IIIIIIIIIIIIIIIIIIIIIIIIIIIIIIIIIIIIIIIIIIIIIIIIIIII
IIIIIIII4IIIIIIIIA4IIIIIIIIIIIIIIIIIIIIIIIIIIIIIIIIIIIIIIIIIIIII
IIIIIIIA44IIIIIIIA4IIIIIIIIIIIIIIIIIIIIIIIIIIIIIIIIIIIIIIIIIIIII
IIIIIIAA44IIIIIIIA4IIIIIIIIIIIIIIIIIIIIIIIIIIIIIIIIIIIIIIIIIIIII
IIIIIIAA44IIIIIIIA44IIIIIIIIIIIIIIIIIIIIIIIIIIIIIIIIIIIIIIIIIIII
IIIIIIAA44IIIIIIIA44A4IIIIIIIIIIIIIIIIIIIIIIIIIIIIIIIIIIIIIIIIII
IIIIIIAA44IIIIIIIA44A44IIIIIIIIIIIIIIIIIIIIIIIIIIIIIIIIIIIIIIIII
IIIIIIAA444IIIIIIA44A44IIIIIIIIIIIIIIIIIIIIIIIIIIIIIIIIIIIIIIIII
IIIIIIAA444IIIIIIA44A4444IIIIIIIIIIIIIIIIIIIIIIIIIIIIIIIIIIIIIII
IIIIIIAA444I4IIIIA44A4444IIIIIIIIIIIIIIIIIIIIIIIIIIIIIIIIIIIIIII
IIIIIIAA44444IIIIA44A4444IIIIIIIIIIIIIIIIIIIIIIIIIIIIIIIIIIIIIII
IIIIIIAA44444IIIIA44A44444IIIIIIIIIIIIIIIIIIIIIIIIIIIIIIIIIIIIII
IIIIIIAA444444IIIA44A44444IIIIIIIIIIIIIIIIIIIIIIIIIIIIIIIIIIIIII
IIIIIIAA444444IIIA44A444444IIIIIIIIIIIIIIIIIIIIIIIIIIIIIIIIIIIII
IIIIIIAA4444444IIA44A444444IIIIIIIIIIIIIIIIIIIIIIIIIIIIIIIIIIIII
IIIIIIAA4444444IIA44A444444I4IIIIIIIIIIIIIIIIIIIIIIIIIIIIIIIIIII
IIIIIIAA44444444IA44A444444I4IIIIIIIIIIIIIIIIIIIIIIIIIIIIIIIIIII
IIIIIIAA44444444IA44A444444I44IIIIIIIIIIIIIIIIIIIIIIIIIIIIIIIIII
IIIIIIAA444444444A44A444444I44IIIIIIIIIIIIIIIIIIIIIIIIIIIIIIIIII
IIIIIIAA444444444A44A444444444IIIIIIIIIIIIIIIIIIIIIIIIIIIIIIIIII
IIIIIIAA444444444A44A44444444444IIIIIIIIIIIIIIIIIIIIIIIIIIIIIIII
IIIIIIAA444444444A44A444444444444IIIIIIIIIIIIIIIIIIIIIIIIIIIIIII
IIIIIIAA444444444A44A4444444444444IIIIIIIIIIIIIIIIIIIIIIIIIIIIII
IIIIIIAA444444444A44A4444444444444II4IIIIIIIIIIIIIIIIIIIIIIIIIII
IIIIIIAA444444444A44A4444444444444I44IIIIIIIIIIIIIIIIIIIIIIIIIII
IIIIIIAA444444444A44A4444444444444I44I4IIIIIIIIIIIIIIIIIIIIIIIII
IIIIIIAA444444444A44A4444444444444444I4IIIIIIIIIIIIIIIIIIIIIIIII
IIIIIIAA444444444A44A4444444444444444I4II4IIIIIIIIIIIIIIIIIIIIII
IIIIIIAA442444444A44A4444444444444444I4II4IIIIIIIIIIIIIIIIIIIIII
IIIIIIAA422444444A44A4444444444444444I4II4IIIIIIIIIIIIIIIIIIIIII
IIIIIIAA422444444A44A4424444444444444I4II4IIIIIIIIIIIIIIIIIIIIII
IIIIIIAA222444444A44A4424444444444444I4II4IIIIIIIIIIIIIIIIIIIIII
IIIIIIAA222444444A42A4424444444444444I4II4IIIIIIIIIIIIIIIIIIIIII
IIIIIIAA222444444A42A4224444444444444I4II4IIIIIIIIIIIIIIIIIIIIII
IIIIIIAA222444444A42A422444444444444444II4IIIIIIIIIIIIIIIIIIIIII
IIIIIIAA222444444A42A422444444444444444I44IIIIIIIIIIIIIIIIIIIIII
IIIIIIAA222444444A42A422444444444444444I44IIIIIIIIIIIIIIIIIIIA44
IIIIIIAA222444444A42A422444444444444444I44IIIIIIIIIIIIIIIIIIAA44
IIIIIIAA222444444A4IA422444444444444444I44IIIIIIIIIIIIIIIIIIAA44
IIIIIIAA222444444A44A422444444444444444I44IIIIIIIIIIIIIIIIIIAA44
IIIIIIAA222444444A24A422444444444444444I44IIIIIIIIIIIIIIIIIIAA44
IIIIIIAA222444444A24A222444444444444444I44IIIIIIIIIIIIIIIIIIAA44
IIIIIIAA222444444A24A222444444444444444I44I4IIIIIIIIIIIIIIIIAA44
IIIIIIAA222444444A24A222444444444444444I44I4II4IIIIIIIIIIIIIAA44
IIIIIIAA222444444A22A222444444444444444I44I4II4IIIIIIIIIIIIIAA44
IIIIIIIA222444444A22A222444444444444444I44I4II4IIIIIIIIIIIIIAA44
IIIIIIII222444444A22A222444444444444444I44I4II4IIIIIIIIIIIIIAA44
IIIIIIAI222444444A22A222444444444444444I44I4II4IIIIIIIIIIIIIAA44
IIIIIIAA222444444A22A222444444444444444I44I4II4IIIIIIIIIIIIIAA44
IIIIIIAA222444444A2IA222444444444444444I44I4II4IIIIIIIIIIIIIAA44
IIIIIIAA222444444A2IA222444444444444444444I4II4IIIIIIIIIIIIIAA44
IIIIIIAA222444444A24A222444444444444444444I4II4IIIIIIIIIIIIIAA44
IIIIIIAA222444444A22A222444444444444444444I4II4IIIIIIIIIIIIIAA44
IIIIIIAA222444444A2IA222444444444444444444I4II4IIIIIIIIIIIIIAA44
IIIIIIAA222444444A24A222444444444444444444I4II4IIIIIIIIIIIIIAA44
IIIIIIAA222444444A24A2A2444444444444444444I4II4IIIIIIIIIIIIIAA44
IIIIIIAA222444444A24I2A2444444444444444444I4II4IIIIIIIIIIIIIAA44
IIIIIIAA222444444A2442A2444444444444444444I4II4IIIIIIIIIIIIIAA44
IIIIIIAA222444444A24A2A2444444444444444444I4II4IIIIIIIIIIIIIAA44
IIIIIIAA222444444A24A2A2424444444444444444I4II4IIIIIIIIIIIIIAA44
IIIIIIAA222444444A22A2A2424444444444444444I4II4IIIIIIIIIIIIIAA44
IIIIIIAA222444444A2IA2A2424444444444444444I4II4IIIIIIIIIIIIIAA44
IIIIIIAA222444444A24A2A2424444444444444444I4II4IIIIIIIIIIIIIAA44
IIIIIIAA222444444A24A2A2424444444444444444I4IA44444IIII444IIAA44
IIIIIIIA222444444A24A2A2424444444444444444I4IA44444IIII444IIAA44
IIIIIIAA222444444A24A2A2424444444444444444I4IA44444IIII444IIAA44
IIIIIIAA222444444A24A2A242444444444444444444IA44444IIII444IIAA44
IIIIIIAA222444444A24A2A242444444444444444444IA44444IIII44444AA44
IIIIIIAI222444444A24A2A242444444444444444444IA44444IIII44444AA44
IIIIIIAA222444444A24A2A242444444444444444444IA44444IIII44444AA44
IIIIIIIA222444444A24A2A242444444444444444444IA44444IIII44444AA44
IIIIIIAA222444444A24A2A242444444444444444444IA44444IIII44444AA44
IIIIIIAA222444444A24A2A2424444444444444444444A44444IIII44444AA44
IIIIIIAA222444444A24A2A2424444444444444444444A24444III444444AA44
IIIIIIAA222444444A24A2A2424444444444444444444I24444III444444AA44
IIIIIIAA222444444A24A2A2424444444444444444444II4444III444444AA44
IIIIIIAI222444444A24A2A2424444444444444444444II4444III444444AA44
IIIIIIII222444444A24A2A2424444444444444444444II4444III444444AA44
IIIIIIIA222444444A24A2A2424444444444444444444II4444III444444AA44
IIIIIIAA222444444A24A2A2424444444444444444444II4444III444444AA44
IIIIIIAI222444444A24A2A2424444444444444444444II4444III444444AA44
IIIIIIAA222444444A24A2A2424444444444444444444II4444III444444AA44
IIIIIIAA222444444A24A2A2424444444444444444444II4444III4444A4AA44
IIIIIIAA222444444A24A2A2424444444444444444444II4444III4444AAAA44
IIIIIIIIIIIIIIIIIIIIIIIIIIIIIIIIIIIIIIIIIIIII4IA4III4IIIIIIIIIII
IIIIIIIIIIIIIIIIIIIIIIIIIIIIIIIIIIIIIIIIA4III4IA4III4IIIIIIIIIII
IIIIIIIIIIIIIIIIIIIIIIIIIIIIIIIIIIIIIIIIAA4II4IA4III4IIIIIIIIIII
IIIIIIIIIIIIA4IIIIIIIIIIIIIIIIIIIIIIIIIIAA4II4IA4III4IIIIIIIIIII
IIIIIIIIIIIIAA4IIIIIIIIIIIIIIIIIIIIIIIIIAA4II4IA4III4IIIIIIIIIII
IIIIIIIIIIIA4IIIIIIIIIIIIIIIIIIIIIIIIIIIIIIIIIIIIIIIIIIIIIIIIIII
IIIIIIIIIIIA4IIIIIIA4IIIIIIIIIIIIIIIIIIIIIIIIIIIIIIIIIIIIIIIIIII
IIIIIIIIIIIA4IIIIIIAA4IIIIIIIIIIIIIIIIIIIIIIIIIIIIIIIIIIIIIIIIII
IIIIIIIIIIIIIIIIIIIIIIIIIIIIIIA4IIIIIIIIIIIIIIIIIIIIIIIIIIIIIIII
IIIIIIIIIIIIIIIIIIIIIIIIIIIIIIAA4IIIIIIIIIIIIIIIIIIIIIIIIIIIIIII
IIIIIIIIIIIIIIIIIIIIIIIIIIIIIAAA4IIIIIIIIIIIIIIIIIIIIIIIIIIIIIII
IIIIIIIIIIIIIIIIIIIIIIIIIIIIIAAA4IIIIIIIIIIIIIIIIIIIIIIIA4IIIIII
IIIIIIIIIIIIIIIIIIIIIIIIIIIIIAAA4IIIIIIIIIIIIIIIIIIIIIIIAA4IIIII
IIIIIIA4IIIIIIIIIIIIIIIIIIIIIAAA4IIIIIIIIIIIIIIIIIIIIIIIAA4IIIII
IIIIIIA4IIIIIIIIIIIIIIIIIA4IIAAA4IIIIIIIIIIIIIIIIIIIIIIIAA4IIIII
IIIIIIA4IIIIIIIIIIIIIIIIIAA4IAAA4IIIIIIIIIIIIIIIIIIIIIIIAA4IIIII
IIIIIIA4IIIIIIIIIIIIIIIIIAAA4AAA4IIIIIIIIIIIIIIIIIIIIIIIAA4IIIII
IIIIIIA4IIIIIIIIIIIIIIIIIAAAAAAA4IIIIIIIIIIIIIIIIIIIIIIIAA4IIIII
IIIIIIA4IIIIIIIIIIIIIIIIIAAAAAAA4IIIIIIIIIIIIIIIIIA4IIIIAA4IIIII
IIIA4IA4IIIIIIIIIIIIIIIIIAAAAAAA4IIIIIIIIIIIIIIIIIA4IIIIAA4IIIII
IIIA4IA4IIIIIIIIIIIIIIIIIAAAAAAA4IIIIIA4IIIIIIIIIIA4IIIIAA4IIIII
IIIA4IA4IIIIIIIIIIIIIIIIIAAAAAAA4IIIIIAA4IIIIIIIIIA4IIIIAA4IIIII
IIIA4IA4IIIIIIIIIIIIIIIIIAAAAAAA4IIIIIAA4IIIIIIIIIA4IA4IAA4IIIII
IIIA4IA4IIIIIIIIIIIIIIIIIAAAAAAA4IIIIIAA4IIIIIIIIIA4IAA4AA4IIIII
IIIA4IA4IIIIIIIIIIIIIA4IIAAAAAAA4IIIIIAA4IIIIIIIIIA4IAA4AA4IIIII
IIIA4IA4IIIIIIIIIIIIIA4IIAAAAAAA4IIIIIAA4IIIIIIIIIA4IAA4AA4IIA4I
IIIA4IA4IIIIIIIIIIIIIA4IIAAAAAAA4IIIIIAA4IIIIIIIIIA4IAA4AA4IIAA4
IIIA4IA4IIIIIIIIIIIIIA4IIAAAAAAA4IIIIIAA4IIIIIIIIIA4IAAAAA4IIAA4
IIIAA4A4IIIIIIIIIIIIIA4IIAAAAAAA4IIIIIAA4IIIIIIIIIA4IAAAAA4IIAA4
IIIAAAA4IIIIIIIIIIIIIA4IIAAAAAAA4IIIIIAA4IIIIIIIIIA4IAAAAA4IIAA4
IIIAAAA4IIIIIIIIIIIIIA4IIAAAAAAA4IIA4IAA4IIIIIIIIIA4IAAAAA4IIAA4
IIIAAAA4IIIIIIIIIIIIIA4IIAAAAAAA4IIAA4AA4IIIIIIIIIA4IAAAAA4IIAA4
A4IAAAA4IIIIIIIIIIIIIA4IIAAAAAAA4IIAA4AA4IIIIIIIIIA4IAAAAA4IIAA4
A4IAAAA4IIIIIIIIIIIIIA4IIAAAAAAAA4IAA4AA4IIIIIIIIIA4IAAAAA4IIAA4
A4IAAAA4IIIIIIIIIIIIIA4IIAAAAAAAAA4AA4AA4IIIIIIIIIA4IAAAAA4IIAA4
A4IAAAA4IIIIIIIIIIIIIA4IIAAAAAAAAA4AA4AA4IA4IIIIIIA4IAAAAA4IIAA4
A4IAAAA4IIIIIIA44IIIIA4IIAAAAAAAAA4AA4AA4IA4IIIIIIA4IAAAAA4IIAA4
A4IAAAA4IIIIIIAA44IIIA4IIAAAAAAAAA4AA4AA4IA4IIIIIIA4IAAAAA4IIAA4
A4IAAAA4IIIIIIAA4A44IA4IIAAAAAAAAA4AA4AA4IA4IIIIIIA4IAAAAA4IIAA4
A4IAAAA4IIIIIIAA4AA44A4IIAAAAAAAAA4AA4AA4IA4IIIIIIA4IAAAAA4IIAA4
AA4AAAA4IIIIIIAA4AA44A4IIAAAAAAAAA4AA4AA4IA4IIIIIIA4IAAAAA4IIAA4
AAAAAAA4IIIIIIAA4AA44A4IIAAAAAAAAA4AA4AA4IA4IIIIIIA4IAAAAA4IIAA4
AAAAAAA4IIIIIIAA4AA44A4IIAAAAAAAAA4AA4AA4IA4IIIIA4A4IAAAAA4IIAA4
AAAAAAA4IIIIIIAA4AA44A4IIAAAAAAAAA4AA4AA4IA4IIIIAAA4IAAAAA4IIAA4
AAAAAAA4IIIIIIAA4AA44A4IIAAAAAAAAA4AA4AA4IA4IIIIAAAA4AAAAA4IIAA4
AAAAAAA4IIIIIIAA4AA44A4IIAAAAAAAAA4AA4AA4IA4IIIIAAAAAAAAAA4IIAA4
AAAAAAA4IIIIIIAA4AA44A4IIAAAAAAAAA4AA4AA4IA4IIIIAAAAAAAAAA4IIAAA
AAAAAAA4IIIIIIAA4AA44A4IAAAAAAAAAA4AA4AA4IA4IIIIAAAAAAAAAA4IIAAA
AAAAAAA4IIIIIIAA4AA44A4IAAAAAAAAAA4AAAAA4IA4IIIIAAAAAAAAAA4IIAAA
AAAAAAA4A4IIIIAA4AA44A4IAAAAAAAAAA4AAAAA4IA4IIIIAAAAAAAAAA4IIAAA
AAAAAAA4A4IIIIAA4AA44A4IAAAAAAAAAAAAAAAA4IA4IIIIAAAAAAAAAA4IIAAA
AAAAAAA4A4IIIIAA4AA44A4IAAAAAAAAAAAAAAAA4IAA44IIAAAAAAAAAA4IIAAA
AAAAAAA4A4IIIIAA4AA44A4IAAAAAAAAAAAAAAAA44AAA44IAAAAAAAAAA4IIAAA
AAAAAAA4A4IIIIAA4AA44AA4AAAAAAAAAAAAAAAA44AAA44IAAAAAAAAAA4IIAAA
AAAAAAA4A4IIIIAA4AA44AAAAAAAAAAAAAAAAAAA44AAA44IAAAAAAAAAA4IIAAA
AAAAAAA4A4IIIIAA4AA44AAAAAAAAAAAAAAAAAAA44AAA44IAAAAAAAAAA4IAAAA
AAAAAAA4A4IIIIAA4AA44AAAAAAAAAAAAAAAAAAA44AAAA4IAAAAAAAAAA4IAAAA
AAAAAAA4A4IIIIAA4AA44AAAAAAAAAAAAAAAAAAA44AAAAA4AAAAAAAAAA4IAAAA
AAAAAAA4A4III4AAAAA44AAAAAAAAAAAAAAAAAAA44AAAAA4AAAAAAAAAA4IAAAA
IIIIIIIIIA4IIIIIIIIIIIIIIIIIIIIIIIIIIIIIIIIIIIIIIIIIIIIIIIIIIIII
IIIIIIIIIAA4IIIIIIIIIIIIIIIIIIIIIIIIIIIIIIIIIIIIIIIIIIIIIIIIIIII
IIIIIIIIIIIIIIIII4IIA44IIIIIIIIIIIIIIIIIIIIIIIIIIIIIIIIIIIIIIIII
IIIIIIIA4IIIIIIII4IIA44IIIIIIIIIIIIIIIIIIIIIIIIIIIIIIIIIIIIIIIII
IIIIIIAA4IIIIIIII4IIA44IIIIIIIIIIIIIIIIIIIIIIIIIIIIIIIIIIIIIIIII
IIIIIIAA44IIIIIII4IIA44IIIIIIIIIIIIIIIIIIIIIIIIIIIIIIIIIIIIIIIII
IIIIIIAA444IIIIII4IIA44IIIIIIIIIIIIIIIIIIIIIIIIIIIIIIIIIIIIIIIII
IIIIIIAA444IIIIII4IIA444IIIIIIIIIIIIIIIIIIIIIIIIIIIIIIIIIIIIIIII
IIIIIIAA4444IIIII4IIA444IIIIIIIIIIIIIIIIIIIIIIIIIIIIIIIIIIIIIIII
IIIIIIAA4444IIIII4IIA4444IIIIIIIIIIIIIIIIIIIIIIIIIIIIIIIIIIIIIII
IIIIIIAA4444IIIII4IIA44444IIIIIIIIIIIIIIIIIIIIIIIIIIIIIIIIIIIIII
IIIIIIAA44444IIII4IIA44444IIIIIIIIIIIIIIIIIIIIIIIIIIIIIIIIIIIIII
IIIIIIAA444444III4IIA44444IIIIIIIIIIIIIIIIIIIIIIIIIIIIIIIIIIIIII
IIIIIIAA444444III4IIA444444IIIIIIIIIIIIIIIIIIIIIIIIIIIIIIIIIIIII
IIIIIIAA444444III4IIA4444444IIIIIIIIIIIIIIIIIIIIIIIIIIIIIIIIIIII
IIIIIIAA444444III4IIA44444444IIIIIIIIIIIIIIIIIIIIIIIIIIIIIIIIIII
IIIIIIAA444444III4IIA444444444IIIIIIIIIIIIIIIIIIIIIIIIIIIIIIIIII
IIIIIIAA4444444444IIA444444444IIIIIIIIIIIIIIIIIIIIIIIIIIIIIIIIII
IIIIIIAA4444444444IIA4444444444IIIIIIIIIIIIIIIIIIIIIIIIIIIIIIIII
IIIIIIAA44444444444IA4444444444IIIIIIIIIIIIIIIIIIIIIIIIIIIIIIIII
IIIIIIAA44444444444IA44444444444IIIIIIIIIIIIIIIIIIIIIIIIIIIIIIII
IIIIIIAA44444444444IA444444444444IIIIIIIIIIIIIIIIIIIIIIIIIIIIIII
IIIIIIAA444444444444A444444444444IIIIIIIIIIIIIIIIIIIIIIIIIIIIIII
IIIIIIAA444444444444A4444444444444IIIIIIIIIIIIIIIIIIIIIIIIIIIIII
IIIIIIAA444444444444A44444444444444IIIIIIIIIIIIIIIIIIIIIIIIIIIII
IIIIIIAA444444444444A444444444444444IIIIIIIIIIIIIIIIIIIIIIIIIIII
IIIIIIAA444444444444A4444444444444444IIIIIIIIIIIIIIIIIIIIIIIIIII
IIIIIIAA444444444444A44444444444444444IIIIIIIIIIIIIIIIIIIIIIIIII
IIIIIIAA444444444444A444444444444444444IIIIIIIIIIIIIIIIIIIIIIIII
IIIIIIAA444444444444A444444444444444444I4IIIIIIIIIIIIIIIIIIIIIII
IIIIIIAA444444444444A444444444444444444I44IIIIIIIIIIIIIIIIIIIIII
IIIIIIAA424444444444A444444444444444444I44IIIIIIIIIIIIIIIIIIIIII
IIIIIIAA224444444444A444444444444444444I44IIIIIIIIIIIIIIIIIIIIII
IIIIIIAA224444444444A424444444444444444I44IIIIIIIIIIIIIIIIIIIIII
IIIIIIAA224444444444A422444444444444444I44IIIIIIIIIIIIIIIIIIIIII
IIIIIIIA224444444444A422444444444444444I44IIIIIIIIIIIIIIIIIIIIII
IIIIIIIA2I4444444444A422444444444444444I44IIIIIIIIIIIIIIIIIIIIII
IIIIIIIA244444444444A422444444444444444I44IIIIIIIIIIIIIIIIIIIIII
IIIIIIAA244444444444A422444444444444444I44IIIIIIIIIIIIIIIIIIIIII
IIIIIIAA244444444444A422444444444444444444IIIIIIIIIIIIIIIIIIIIII
IIIIIIAA244444444444A42I444444444444444444IIIIIIIIIIIIIIIIIIIIII
IIIIIIAA242444444444A424444444444444444444IIIIIIIIIIIIIIIIIIIIII
IIIIIIAA222444444444A424444444444444444444IIIIIIIIIIIIIIIIIIIIII
IIIIIIAA222444444444I424444444444444444444IIIIIIIIIIIIIIIIIIIIII
IIIIIIAA222444444444A424444444444444444444IIIIIIIIIIIIIIIIIIIIII
[MLOP] Prefetch Degree Mean: 4.20012
[MLOP] Prefetch Degree SD: 3.09795
[MLOP] Max Score Left Mean (%): 26.79171
[MLOP] Max Score Left SD (%): 19.50086
[MLOP] Max Score Right Mean (%): 59.87862
[MLOP] Max Score Right SD (%): 15.13562

Channel_0_RQ_row_buffer_hit 3898470
Channel_0_RQ_row_buffer_miss 48541442
Channel_0_WQ_row_buffer_hit 2909747
Channel_0_WQ_row_buffer_miss 4675418
Channel_0_WQ_full 0
Channel_0_dbus_congested 24547294

avg_congested_cycle 9

DRAM_bw_pochs 18635128
DRAM_bw_level_0 9082638
DRAM_bw_level_1 7440778
DRAM_bw_level_2 1489120
DRAM_bw_level_3 622592
