*************************************************
   ChampSim Multicore Out-of-Order Simulator
   Last compiled: Dec 11 2024 17:59:53
*************************************************
parsing config file: /home/functionmain/桌面/Pythia/config/pythia.ini

trace_0 /home/functionmain/桌面/Pythia/traces/429.mcf-192B.champsimtrace.xz
adding L2C_PREFETCHER: Scooby
Initialize SHIP state
warmup_instructions 100000000
simulation_instructions 500000000
champsim_seed 222
measure_ipc 0
measure_ipc_epoch 1000
measure_dram_bw 1
measure_dram_bw_epoch 256
measure_cache_acc 1
measure_cache_acc_epoch 1024
l1d_perfect 0
l2c_perfect 0
llc_perfect 0
l1d_semi_perfect 0
l2c_semi_perfect 0
llc_semi_perfect 0
semi_perfect_cache_page_buffer_size 64

num_cpus 1
cpu_freq 4000
dram_io_freq 1200
page_size 4096
block_size 64
max_read_per_cycle 8
max_fill_per_cycle 1
dram_channels 1
log2_dram_channels 0
dram_ranks 1
dram_banks 8
dram_rows 65536
dram_columns 128
dram_row_size 8
dram_size 4096
dram_pages 1048576

fetch_width 6
decode_width 6
exec_width 4
lq_width 2
sq_width 2
retire_width 4
scheduler_size 128
branch_mispredict_penalty 20
rob_size 256
lq_size 72
sq_size 56
num_instr_destinations_sparc 4
num_instr_destinations 2
num_instr_sources 4

itlb_set 16
itlb_way 8
itlb_rq_size 16
itlb_wq_size 16
itlb_pq_size 0
itlb_mshr_size 8
itlb_latency 1

dtlb_set 16
dtlb_way 4
dtlb_rq_size 16
dtlb_wq_size 16
dtlb_pq_size 0
dtlb_mshr_size 8
dtlb_latency 1

stlb_set 128
stlb_way 12
stlb_rq_size 32
stlb_wq_size 32
stlb_pq_size 0
stlb_mshr_size 16
stlb_latency 8

l1i_size 32
l1i_set 64
l1i_way 8
l1i_rq_size 64
l1i_wq_size 64
l1i_pq_size 8
l1i_mshr_size 8
l1i_latency 1

l1d_size 32
l1d_set 64
l1d_way 8
l1d_rq_size 64
l1d_wq_size 64
l1d_pq_size 8
l1d_mshr_size 16
l1d_latency 4

l2c_size 256
l2c_set 512
l2c_way 8
l2c_rq_size 32
l2c_wq_size 32
l2c_pq_size 32
l2c_mshr_size 32
l2c_latency 10

llc_size 2048
llc_set 2048
llc_way 16
llc_rq_size 32
llc_wq_size 32
llc_pq_size 32
llc_mshr_size 64
llc_latency 20

dram_channel_width 8
dram_wq_size 64
dram_rq_size 64
tRP 15
tRCD 15
tCAS 12.5
dram_dbus_turn_around_time 30
dram_write_high_wm 56
dram_write_low_wm 48
min_dram_writes_per_switch 16
dram_mtps 1200
dram_dbus_return_time 26

scooby_alpha 0.0065088
scooby_gamma 0.556301
scooby_epsilon 0.00182284
scooby_state_num_bits 10
scooby_max_states 1024
scooby_seed 200
scooby_policy EGreedy
scooby_learning_type SARSA
scooby_actions 1,3,4,5,10,11,12,22,23,30,32,-1,-3,-6,0,
scooby_max_actions 15
scooby_pt_size 256
scooby_st_size 64
scooby_max_pcs 5
scooby_max_offsets 5
scooby_max_deltas 5
scooby_reward_none -4
scooby_reward_incorrect -8
scooby_reward_correct_untimely 12
scooby_reward_correct_timely 20
scooby_brain_zero_init 0
scooby_enable_reward_all 0
scooby_enable_track_multiple 0
scooby_enable_reward_out_of_bounds 1
scooby_reward_out_of_bounds -12
scooby_state_type 1
scooby_state_hash_type 11
scooby_access_debug 0
scooby_print_access_debug 0
scooby_print_access_debug_pc deadbeef
scooby_print_access_debug_pc_count 0
scooby_print_trace 0
scooby_enable_state_action_stats 1
scooby_enable_reward_tracker_hit 0
scooby_reward_tracker_hit -2
scooby_enable_featurewise_engine 1
scooby_pref_degree 1
scooby_enable_dyn_degree 1
scooby_max_to_avg_q_thresholds 0.5,1,2,
scooby_dyn_degrees 1,2,4,4,
scooby_multi_deg_select_type 2
scooby_last_pref_offset_conf_thresholds 1,3,8,
scooby_dyn_degrees_type2 1,2,4,6,
scooby_action_tracker_size 2
scooby_high_bw_thresh 4
scooby_enable_hbw_reward 1
scooby_reward_hbw_correct_timely 20
scooby_reward_hbw_correct_untimely 12
scooby_reward_hbw_incorrect -14
scooby_reward_hbw_none -2
scooby_reward_hbw_out_of_bounds -12
scooby_reward_hbw_tracker_hit -2
scooby_last_pref_offset_conf_thresholds_hbw 1,3,8,
scooby_dyn_degrees_type2_hbw 1,2,4,6,

le_enable_trace 0
le_trace_interval 0
le_trace_file_name 
le_trace_state 0
le_enable_score_plot 0
le_plot_file_name 
le_plot_actions 
le_enable_action_trace 0
le_action_trace_interval 0
le_action_trace_name 
le_enable_action_plot 0

le_featurewise_active_features PC, PC_Delta
le_featurewise_num_tilings 3,3,
le_featurewise_num_tiles 128,128,
le_featurewise_hash_types 2,2,
le_featurewise_enable_tiling_offset 1,1,
le_featurewise_max_q_thresh 0.5
le_featurewise_enable_action_fallback 1
le_featurewise_feature_weights 1,1,
le_featurewise_enable_dynamic_weight 0
le_featurewise_weight_gradient 0.001
le_featurewise_disable_adjust_weight_all_features_align 1
le_featurewise_selective_update 0
le_featurewise_pooling_type 2
le_featurewise_enable_dyn_action_fallback 1
le_featurewise_bw_acc_check_level 1
le_featurewise_acc_thresh 2
le_featurewise_enable_trace 0
le_featurewise_trace_feature_type 0
le_featurewise_trace_feature 
le_featurewise_trace_interval 0
le_featurewise_trace_record_count 0
le_featurewise_trace_file_name 
le_featurewise_enable_score_plot 0
le_featurewise_plot_actions 
le_featurewise_plot_file_name 


Heartbeat CPU  0 instructions:    1000002 cycles:    1163897 heartbeat IPC: 0.85918 cumulative IPC: 0.85918 (Simulation time: 0 hr 0 min 3 sec) 
Heartbeat CPU  0 instructions:    2000002 cycles:    2334963 heartbeat IPC: 0.85392 cumulative IPC: 0.85655 (Simulation time: 0 hr 0 min 7 sec) 
Heartbeat CPU  0 instructions:    3000000 cycles:    3488762 heartbeat IPC: 0.86670 cumulative IPC: 0.85990 (Simulation time: 0 hr 0 min 11 sec) 
Heartbeat CPU  0 instructions:    4000000 cycles:    4619883 heartbeat IPC: 0.88408 cumulative IPC: 0.86582 (Simulation time: 0 hr 0 min 14 sec) 
Heartbeat CPU  0 instructions:    5000001 cycles:    5768455 heartbeat IPC: 0.87065 cumulative IPC: 0.86678 (Simulation time: 0 hr 0 min 18 sec) 
Heartbeat CPU  0 instructions:    6000002 cycles:    6912851 heartbeat IPC: 0.87382 cumulative IPC: 0.86795 (Simulation time: 0 hr 0 min 21 sec) 
Heartbeat CPU  0 instructions:    7000000 cycles:    8075591 heartbeat IPC: 0.86004 cumulative IPC: 0.86681 (Simulation time: 0 hr 0 min 25 sec) 
Heartbeat CPU  0 instructions:    8000000 cycles:    9222485 heartbeat IPC: 0.87192 cumulative IPC: 0.86745 (Simulation time: 0 hr 0 min 28 sec) 
Heartbeat CPU  0 instructions:    9000002 cycles:   10378820 heartbeat IPC: 0.86480 cumulative IPC: 0.86715 (Simulation time: 0 hr 0 min 32 sec) 
Heartbeat CPU  0 instructions:   10000000 cycles:   11532474 heartbeat IPC: 0.86681 cumulative IPC: 0.86712 (Simulation time: 0 hr 0 min 35 sec) 
Heartbeat CPU  0 instructions:   11000003 cycles:   12660321 heartbeat IPC: 0.88665 cumulative IPC: 0.86886 (Simulation time: 0 hr 0 min 39 sec) 
Heartbeat CPU  0 instructions:   12000000 cycles:   13763616 heartbeat IPC: 0.90637 cumulative IPC: 0.87186 (Simulation time: 0 hr 0 min 42 sec) 
Heartbeat CPU  0 instructions:   13000001 cycles:   14896217 heartbeat IPC: 0.88292 cumulative IPC: 0.87270 (Simulation time: 0 hr 0 min 46 sec) 
Heartbeat CPU  0 instructions:   14000000 cycles:   16037720 heartbeat IPC: 0.87604 cumulative IPC: 0.87294 (Simulation time: 0 hr 0 min 49 sec) 
Heartbeat CPU  0 instructions:   15000000 cycles:   17192177 heartbeat IPC: 0.86621 cumulative IPC: 0.87249 (Simulation time: 0 hr 0 min 53 sec) 
Heartbeat CPU  0 instructions:   16000000 cycles:   18349437 heartbeat IPC: 0.86411 cumulative IPC: 0.87196 (Simulation time: 0 hr 0 min 56 sec) 
Heartbeat CPU  0 instructions:   17000001 cycles:   19513126 heartbeat IPC: 0.85934 cumulative IPC: 0.87121 (Simulation time: 0 hr 1 min 0 sec) 
Heartbeat CPU  0 instructions:   18000000 cycles:   20673079 heartbeat IPC: 0.86210 cumulative IPC: 0.87070 (Simulation time: 0 hr 1 min 4 sec) 
Heartbeat CPU  0 instructions:   19000003 cycles:   21817974 heartbeat IPC: 0.87345 cumulative IPC: 0.87084 (Simulation time: 0 hr 1 min 7 sec) 
Heartbeat CPU  0 instructions:   20000000 cycles:   22956854 heartbeat IPC: 0.87805 cumulative IPC: 0.87120 (Simulation time: 0 hr 1 min 11 sec) 
Heartbeat CPU  0 instructions:   21000000 cycles:   24102762 heartbeat IPC: 0.87267 cumulative IPC: 0.87127 (Simulation time: 0 hr 1 min 14 sec) 
Heartbeat CPU  0 instructions:   22000002 cycles:   25253818 heartbeat IPC: 0.86877 cumulative IPC: 0.87116 (Simulation time: 0 hr 1 min 18 sec) 
Heartbeat CPU  0 instructions:   23000001 cycles:   26390201 heartbeat IPC: 0.87998 cumulative IPC: 0.87154 (Simulation time: 0 hr 1 min 21 sec) 
Heartbeat CPU  0 instructions:   24000000 cycles:   27526314 heartbeat IPC: 0.88019 cumulative IPC: 0.87189 (Simulation time: 0 hr 1 min 25 sec) 
Heartbeat CPU  0 instructions:   25000001 cycles:   28661350 heartbeat IPC: 0.88103 cumulative IPC: 0.87225 (Simulation time: 0 hr 1 min 28 sec) 
Heartbeat CPU  0 instructions:   26000000 cycles:   29803001 heartbeat IPC: 0.87592 cumulative IPC: 0.87240 (Simulation time: 0 hr 1 min 32 sec) 
Heartbeat CPU  0 instructions:   27000000 cycles:   30944918 heartbeat IPC: 0.87572 cumulative IPC: 0.87252 (Simulation time: 0 hr 1 min 36 sec) 
Heartbeat CPU  0 instructions:   28000000 cycles:   32065376 heartbeat IPC: 0.89249 cumulative IPC: 0.87322 (Simulation time: 0 hr 1 min 39 sec) 
Heartbeat CPU  0 instructions:   29000000 cycles:   33228380 heartbeat IPC: 0.85984 cumulative IPC: 0.87275 (Simulation time: 0 hr 1 min 43 sec) 
Heartbeat CPU  0 instructions:   30000002 cycles:   34390197 heartbeat IPC: 0.86072 cumulative IPC: 0.87234 (Simulation time: 0 hr 1 min 46 sec) 
Heartbeat CPU  0 instructions:   31000002 cycles:   35558945 heartbeat IPC: 0.85562 cumulative IPC: 0.87179 (Simulation time: 0 hr 1 min 50 sec) 
Heartbeat CPU  0 instructions:   32000000 cycles:   36714081 heartbeat IPC: 0.86570 cumulative IPC: 0.87160 (Simulation time: 0 hr 1 min 53 sec) 
Heartbeat CPU  0 instructions:   33000000 cycles:   37866210 heartbeat IPC: 0.86796 cumulative IPC: 0.87149 (Simulation time: 0 hr 1 min 57 sec) 
Heartbeat CPU  0 instructions:   34000002 cycles:   39014448 heartbeat IPC: 0.87090 cumulative IPC: 0.87147 (Simulation time: 0 hr 2 min 0 sec) 
Heartbeat CPU  0 instructions:   35000000 cycles:   40174681 heartbeat IPC: 0.86189 cumulative IPC: 0.87120 (Simulation time: 0 hr 2 min 4 sec) 
Heartbeat CPU  0 instructions:   36000000 cycles:   41346039 heartbeat IPC: 0.85371 cumulative IPC: 0.87070 (Simulation time: 0 hr 2 min 7 sec) 
Heartbeat CPU  0 instructions:   37000001 cycles:   42510819 heartbeat IPC: 0.85853 cumulative IPC: 0.87037 (Simulation time: 0 hr 2 min 11 sec) 
Heartbeat CPU  0 instructions:   38000000 cycles:   43662606 heartbeat IPC: 0.86822 cumulative IPC: 0.87031 (Simulation time: 0 hr 2 min 14 sec) 
Heartbeat CPU  0 instructions:   39000000 cycles:   44813544 heartbeat IPC: 0.86886 cumulative IPC: 0.87027 (Simulation time: 0 hr 2 min 18 sec) 
Heartbeat CPU  0 instructions:   40000000 cycles:   45959756 heartbeat IPC: 0.87244 cumulative IPC: 0.87033 (Simulation time: 0 hr 2 min 22 sec) 
Heartbeat CPU  0 instructions:   41000001 cycles:   47150340 heartbeat IPC: 0.83992 cumulative IPC: 0.86956 (Simulation time: 0 hr 2 min 25 sec) 
Heartbeat CPU  0 instructions:   42000000 cycles:   48325541 heartbeat IPC: 0.85092 cumulative IPC: 0.86911 (Simulation time: 0 hr 2 min 29 sec) 
Heartbeat CPU  0 instructions:   43000000 cycles:   49494209 heartbeat IPC: 0.85567 cumulative IPC: 0.86879 (Simulation time: 0 hr 2 min 32 sec) 
Heartbeat CPU  0 instructions:   44000000 cycles:   50644357 heartbeat IPC: 0.86945 cumulative IPC: 0.86880 (Simulation time: 0 hr 2 min 35 sec) 
Heartbeat CPU  0 instructions:   45000000 cycles:   51794702 heartbeat IPC: 0.86930 cumulative IPC: 0.86881 (Simulation time: 0 hr 2 min 39 sec) 
Heartbeat CPU  0 instructions:   46000002 cycles:   52921176 heartbeat IPC: 0.88773 cumulative IPC: 0.86922 (Simulation time: 0 hr 2 min 42 sec) 
Heartbeat CPU  0 instructions:   47000000 cycles:   54066769 heartbeat IPC: 0.87291 cumulative IPC: 0.86930 (Simulation time: 0 hr 2 min 46 sec) 
Heartbeat CPU  0 instructions:   48000000 cycles:   55210490 heartbeat IPC: 0.87434 cumulative IPC: 0.86940 (Simulation time: 0 hr 2 min 49 sec) 
Heartbeat CPU  0 instructions:   49000001 cycles:   56358684 heartbeat IPC: 0.87093 cumulative IPC: 0.86943 (Simulation time: 0 hr 2 min 53 sec) 
Heartbeat CPU  0 instructions:   50000002 cycles:   57489178 heartbeat IPC: 0.88457 cumulative IPC: 0.86973 (Simulation time: 0 hr 2 min 56 sec) 
Heartbeat CPU  0 instructions:   51000000 cycles:   58615520 heartbeat IPC: 0.88783 cumulative IPC: 0.87008 (Simulation time: 0 hr 3 min 0 sec) 
Heartbeat CPU  0 instructions:   52000000 cycles:   59737446 heartbeat IPC: 0.89132 cumulative IPC: 0.87048 (Simulation time: 0 hr 3 min 3 sec) 
Heartbeat CPU  0 instructions:   53000001 cycles:   60856562 heartbeat IPC: 0.89356 cumulative IPC: 0.87090 (Simulation time: 0 hr 3 min 7 sec) 
Heartbeat CPU  0 instructions:   54000000 cycles:   61975816 heartbeat IPC: 0.89345 cumulative IPC: 0.87131 (Simulation time: 0 hr 3 min 10 sec) 
Heartbeat CPU  0 instructions:   55000001 cycles:   63095030 heartbeat IPC: 0.89349 cumulative IPC: 0.87170 (Simulation time: 0 hr 3 min 14 sec) 
Heartbeat CPU  0 instructions:   56000000 cycles:   64236948 heartbeat IPC: 0.87572 cumulative IPC: 0.87177 (Simulation time: 0 hr 3 min 17 sec) 
Heartbeat CPU  0 instructions:   57000000 cycles:   65368405 heartbeat IPC: 0.88382 cumulative IPC: 0.87198 (Simulation time: 0 hr 3 min 21 sec) 
Heartbeat CPU  0 instructions:   58000003 cycles:   66508397 heartbeat IPC: 0.87720 cumulative IPC: 0.87207 (Simulation time: 0 hr 3 min 24 sec) 
Heartbeat CPU  0 instructions:   59000003 cycles:   67658659 heartbeat IPC: 0.86937 cumulative IPC: 0.87202 (Simulation time: 0 hr 3 min 28 sec) 
Heartbeat CPU  0 instructions:   60000000 cycles:   68816067 heartbeat IPC: 0.86400 cumulative IPC: 0.87189 (Simulation time: 0 hr 3 min 32 sec) 
Heartbeat CPU  0 instructions:   61000002 cycles:   69984482 heartbeat IPC: 0.85586 cumulative IPC: 0.87162 (Simulation time: 0 hr 3 min 36 sec) 
Heartbeat CPU  0 instructions:   62000000 cycles:   71152729 heartbeat IPC: 0.85598 cumulative IPC: 0.87137 (Simulation time: 0 hr 3 min 40 sec) 
Heartbeat CPU  0 instructions:   63000000 cycles:   72332982 heartbeat IPC: 0.84728 cumulative IPC: 0.87097 (Simulation time: 0 hr 3 min 44 sec) 
Heartbeat CPU  0 instructions:   64000000 cycles:   73516600 heartbeat IPC: 0.84487 cumulative IPC: 0.87055 (Simulation time: 0 hr 3 min 48 sec) 
Heartbeat CPU  0 instructions:   65000000 cycles:   74703791 heartbeat IPC: 0.84232 cumulative IPC: 0.87010 (Simulation time: 0 hr 3 min 52 sec) 
Heartbeat CPU  0 instructions:   66000002 cycles:   75887706 heartbeat IPC: 0.84466 cumulative IPC: 0.86971 (Simulation time: 0 hr 3 min 55 sec) 
Heartbeat CPU  0 instructions:   67000001 cycles:   77059288 heartbeat IPC: 0.85355 cumulative IPC: 0.86946 (Simulation time: 0 hr 3 min 59 sec) 
Heartbeat CPU  0 instructions:   68000000 cycles:   78227052 heartbeat IPC: 0.85634 cumulative IPC: 0.86926 (Simulation time: 0 hr 4 min 3 sec) 
Heartbeat CPU  0 instructions:   69000001 cycles:   79394209 heartbeat IPC: 0.85678 cumulative IPC: 0.86908 (Simulation time: 0 hr 4 min 8 sec) 
Heartbeat CPU  0 instructions:   70000001 cycles:   80560945 heartbeat IPC: 0.85709 cumulative IPC: 0.86891 (Simulation time: 0 hr 4 min 12 sec) 
Heartbeat CPU  0 instructions:   71000003 cycles:   81722824 heartbeat IPC: 0.86068 cumulative IPC: 0.86879 (Simulation time: 0 hr 4 min 16 sec) 
Heartbeat CPU  0 instructions:   72000000 cycles:   82876865 heartbeat IPC: 0.86652 cumulative IPC: 0.86876 (Simulation time: 0 hr 4 min 20 sec) 
Heartbeat CPU  0 instructions:   73000000 cycles:   84042878 heartbeat IPC: 0.85762 cumulative IPC: 0.86860 (Simulation time: 0 hr 4 min 24 sec) 
Heartbeat CPU  0 instructions:   74000000 cycles:   85211629 heartbeat IPC: 0.85561 cumulative IPC: 0.86843 (Simulation time: 0 hr 4 min 28 sec) 
Heartbeat CPU  0 instructions:   75000001 cycles:   86353381 heartbeat IPC: 0.87585 cumulative IPC: 0.86852 (Simulation time: 0 hr 4 min 32 sec) 
Heartbeat CPU  0 instructions:   76000000 cycles:   87406145 heartbeat IPC: 0.94988 cumulative IPC: 0.86950 (Simulation time: 0 hr 4 min 36 sec) 
Heartbeat CPU  0 instructions:   77000000 cycles:   88387192 heartbeat IPC: 1.01932 cumulative IPC: 0.87117 (Simulation time: 0 hr 4 min 40 sec) 
Heartbeat CPU  0 instructions:   78000001 cycles:   89561299 heartbeat IPC: 0.85171 cumulative IPC: 0.87091 (Simulation time: 0 hr 4 min 45 sec) 
Heartbeat CPU  0 instructions:   79000003 cycles:   90737945 heartbeat IPC: 0.84987 cumulative IPC: 0.87064 (Simulation time: 0 hr 4 min 49 sec) 
Heartbeat CPU  0 instructions:   80000000 cycles:   91919941 heartbeat IPC: 0.84602 cumulative IPC: 0.87032 (Simulation time: 0 hr 4 min 54 sec) 
Heartbeat CPU  0 instructions:   81000003 cycles:   93084190 heartbeat IPC: 0.85893 cumulative IPC: 0.87018 (Simulation time: 0 hr 4 min 58 sec) 
Heartbeat CPU  0 instructions:   82000003 cycles:   94249830 heartbeat IPC: 0.85790 cumulative IPC: 0.87003 (Simulation time: 0 hr 5 min 4 sec) 
Heartbeat CPU  0 instructions:   83000003 cycles:   95406982 heartbeat IPC: 0.86419 cumulative IPC: 0.86996 (Simulation time: 0 hr 5 min 8 sec) 
Heartbeat CPU  0 instructions:   84000000 cycles:   96555654 heartbeat IPC: 0.87057 cumulative IPC: 0.86996 (Simulation time: 0 hr 5 min 12 sec) 
Heartbeat CPU  0 instructions:   85000001 cycles:   97706301 heartbeat IPC: 0.86908 cumulative IPC: 0.86995 (Simulation time: 0 hr 5 min 17 sec) 
Heartbeat CPU  0 instructions:   86000000 cycles:   98838649 heartbeat IPC: 0.88312 cumulative IPC: 0.87010 (Simulation time: 0 hr 5 min 21 sec) 
Heartbeat CPU  0 instructions:   87000001 cycles:   99990838 heartbeat IPC: 0.86791 cumulative IPC: 0.87008 (Simulation time: 0 hr 5 min 24 sec) 
Heartbeat CPU  0 instructions:   88000000 cycles:  101121470 heartbeat IPC: 0.88446 cumulative IPC: 0.87024 (Simulation time: 0 hr 5 min 28 sec) 
Heartbeat CPU  0 instructions:   89000000 cycles:  102277529 heartbeat IPC: 0.86501 cumulative IPC: 0.87018 (Simulation time: 0 hr 5 min 32 sec) 
Heartbeat CPU  0 instructions:   90000000 cycles:  103397001 heartbeat IPC: 0.89328 cumulative IPC: 0.87043 (Simulation time: 0 hr 5 min 36 sec) 
Heartbeat CPU  0 instructions:   91000003 cycles:  104511824 heartbeat IPC: 0.89701 cumulative IPC: 0.87071 (Simulation time: 0 hr 5 min 40 sec) 
Heartbeat CPU  0 instructions:   92000000 cycles:  105624842 heartbeat IPC: 0.89846 cumulative IPC: 0.87101 (Simulation time: 0 hr 5 min 43 sec) 
Heartbeat CPU  0 instructions:   93000002 cycles:  106737135 heartbeat IPC: 0.89905 cumulative IPC: 0.87130 (Simulation time: 0 hr 5 min 47 sec) 
Heartbeat CPU  0 instructions:   94000001 cycles:  107856595 heartbeat IPC: 0.89329 cumulative IPC: 0.87153 (Simulation time: 0 hr 5 min 51 sec) 
Heartbeat CPU  0 instructions:   95000001 cycles:  109002342 heartbeat IPC: 0.87279 cumulative IPC: 0.87154 (Simulation time: 0 hr 5 min 55 sec) 
Heartbeat CPU  0 instructions:   96000000 cycles:  110149978 heartbeat IPC: 0.87136 cumulative IPC: 0.87154 (Simulation time: 0 hr 5 min 59 sec) 
Heartbeat CPU  0 instructions:   97000000 cycles:  111296890 heartbeat IPC: 0.87191 cumulative IPC: 0.87154 (Simulation time: 0 hr 6 min 3 sec) 
Heartbeat CPU  0 instructions:   98000001 cycles:  112432696 heartbeat IPC: 0.88043 cumulative IPC: 0.87163 (Simulation time: 0 hr 6 min 8 sec) 
Heartbeat CPU  0 instructions:   99000000 cycles:  113584603 heartbeat IPC: 0.86812 cumulative IPC: 0.87160 (Simulation time: 0 hr 6 min 12 sec) 
Heartbeat CPU  0 instructions:  100000000 cycles:  114718753 heartbeat IPC: 0.88172 cumulative IPC: 0.87170 (Simulation time: 0 hr 6 min 16 sec) 

Warmup complete CPU  0 instructions:  100000002 cycles:  114718754 (Simulation time: 0 hr 6 min 16 sec) 

Heartbeat CPU  0 instructions:  101000000 cycles:  124170355 heartbeat IPC: 0.10580 cumulative IPC: 0.10580 (Simulation time: 0 hr 6 min 23 sec) 
Heartbeat CPU  0 instructions:  102000000 cycles:  133602685 heartbeat IPC: 0.10602 cumulative IPC: 0.10591 (Simulation time: 0 hr 6 min 31 sec) 
Heartbeat CPU  0 instructions:  103000000 cycles:  143136895 heartbeat IPC: 0.10489 cumulative IPC: 0.10557 (Simulation time: 0 hr 6 min 38 sec) 
Heartbeat CPU  0 instructions:  104000000 cycles:  152665634 heartbeat IPC: 0.10495 cumulative IPC: 0.10541 (Simulation time: 0 hr 6 min 46 sec) 
Heartbeat CPU  0 instructions:  105000000 cycles:  162341351 heartbeat IPC: 0.10335 cumulative IPC: 0.10499 (Simulation time: 0 hr 6 min 53 sec) 
Heartbeat CPU  0 instructions:  106000000 cycles:  172054103 heartbeat IPC: 0.10296 cumulative IPC: 0.10465 (Simulation time: 0 hr 7 min 1 sec) 
Heartbeat CPU  0 instructions:  107000001 cycles:  181574576 heartbeat IPC: 0.10504 cumulative IPC: 0.10470 (Simulation time: 0 hr 7 min 8 sec) 
Heartbeat CPU  0 instructions:  108000000 cycles:  191205379 heartbeat IPC: 0.10383 cumulative IPC: 0.10459 (Simulation time: 0 hr 7 min 16 sec) 
Heartbeat CPU  0 instructions:  109000000 cycles:  200712223 heartbeat IPC: 0.10519 cumulative IPC: 0.10466 (Simulation time: 0 hr 7 min 23 sec) 
Heartbeat CPU  0 instructions:  110000000 cycles:  210378012 heartbeat IPC: 0.10346 cumulative IPC: 0.10454 (Simulation time: 0 hr 7 min 31 sec) 
Heartbeat CPU  0 instructions:  111000001 cycles:  219996026 heartbeat IPC: 0.10397 cumulative IPC: 0.10449 (Simulation time: 0 hr 7 min 38 sec) 
Heartbeat CPU  0 instructions:  112000000 cycles:  229727366 heartbeat IPC: 0.10276 cumulative IPC: 0.10434 (Simulation time: 0 hr 7 min 46 sec) 
Heartbeat CPU  0 instructions:  113000000 cycles:  239267951 heartbeat IPC: 0.10482 cumulative IPC: 0.10438 (Simulation time: 0 hr 7 min 53 sec) 
Heartbeat CPU  0 instructions:  114000000 cycles:  248734222 heartbeat IPC: 0.10564 cumulative IPC: 0.10447 (Simulation time: 0 hr 8 min 0 sec) 
Heartbeat CPU  0 instructions:  115000001 cycles:  258299636 heartbeat IPC: 0.10454 cumulative IPC: 0.10447 (Simulation time: 0 hr 8 min 8 sec) 
Heartbeat CPU  0 instructions:  116000000 cycles:  267894775 heartbeat IPC: 0.10422 cumulative IPC: 0.10445 (Simulation time: 0 hr 8 min 15 sec) 
Heartbeat CPU  0 instructions:  117000000 cycles:  277507095 heartbeat IPC: 0.10403 cumulative IPC: 0.10443 (Simulation time: 0 hr 8 min 23 sec) 
Heartbeat CPU  0 instructions:  118000000 cycles:  287150731 heartbeat IPC: 0.10370 cumulative IPC: 0.10439 (Simulation time: 0 hr 8 min 31 sec) 
Heartbeat CPU  0 instructions:  119000002 cycles:  296759612 heartbeat IPC: 0.10407 cumulative IPC: 0.10437 (Simulation time: 0 hr 8 min 40 sec) 
Heartbeat CPU  0 instructions:  120000000 cycles:  306231778 heartbeat IPC: 0.10557 cumulative IPC: 0.10443 (Simulation time: 0 hr 8 min 47 sec) 
Heartbeat CPU  0 instructions:  121000000 cycles:  315720367 heartbeat IPC: 0.10539 cumulative IPC: 0.10448 (Simulation time: 0 hr 8 min 54 sec) 
Heartbeat CPU  0 instructions:  122000000 cycles:  325335439 heartbeat IPC: 0.10400 cumulative IPC: 0.10446 (Simulation time: 0 hr 9 min 1 sec) 
Heartbeat CPU  0 instructions:  123000000 cycles:  334795356 heartbeat IPC: 0.10571 cumulative IPC: 0.10451 (Simulation time: 0 hr 9 min 8 sec) 
Heartbeat CPU  0 instructions:  124000000 cycles:  344290198 heartbeat IPC: 0.10532 cumulative IPC: 0.10454 (Simulation time: 0 hr 9 min 15 sec) 
Heartbeat CPU  0 instructions:  125000000 cycles:  353713870 heartbeat IPC: 0.10612 cumulative IPC: 0.10460 (Simulation time: 0 hr 9 min 23 sec) 
Heartbeat CPU  0 instructions:  126000001 cycles:  363054910 heartbeat IPC: 0.10705 cumulative IPC: 0.10470 (Simulation time: 0 hr 9 min 30 sec) 
Heartbeat CPU  0 instructions:  127000001 cycles:  372273985 heartbeat IPC: 0.10847 cumulative IPC: 0.10483 (Simulation time: 0 hr 9 min 37 sec) 
Heartbeat CPU  0 instructions:  128000000 cycles:  381454759 heartbeat IPC: 0.10892 cumulative IPC: 0.10497 (Simulation time: 0 hr 9 min 44 sec) 
Heartbeat CPU  0 instructions:  129000002 cycles:  390580048 heartbeat IPC: 0.10959 cumulative IPC: 0.10513 (Simulation time: 0 hr 9 min 51 sec) 
Heartbeat CPU  0 instructions:  130000001 cycles:  399782633 heartbeat IPC: 0.10867 cumulative IPC: 0.10524 (Simulation time: 0 hr 9 min 58 sec) 
Heartbeat CPU  0 instructions:  131000001 cycles:  409059290 heartbeat IPC: 0.10780 cumulative IPC: 0.10532 (Simulation time: 0 hr 10 min 5 sec) 
Heartbeat CPU  0 instructions:  132000000 cycles:  418333817 heartbeat IPC: 0.10782 cumulative IPC: 0.10540 (Simulation time: 0 hr 10 min 12 sec) 
Heartbeat CPU  0 instructions:  133000000 cycles:  427700590 heartbeat IPC: 0.10676 cumulative IPC: 0.10544 (Simulation time: 0 hr 10 min 19 sec) 
Heartbeat CPU  0 instructions:  134000001 cycles:  436757630 heartbeat IPC: 0.11041 cumulative IPC: 0.10558 (Simulation time: 0 hr 10 min 27 sec) 
Heartbeat CPU  0 instructions:  135000000 cycles:  445983394 heartbeat IPC: 0.10839 cumulative IPC: 0.10566 (Simulation time: 0 hr 10 min 34 sec) 
Heartbeat CPU  0 instructions:  136000000 cycles:  455735260 heartbeat IPC: 0.10254 cumulative IPC: 0.10557 (Simulation time: 0 hr 10 min 41 sec) 
Heartbeat CPU  0 instructions:  137000000 cycles:  465271268 heartbeat IPC: 0.10487 cumulative IPC: 0.10555 (Simulation time: 0 hr 10 min 48 sec) 
Heartbeat CPU  0 instructions:  138000000 cycles:  474566997 heartbeat IPC: 0.10758 cumulative IPC: 0.10560 (Simulation time: 0 hr 10 min 55 sec) 
Heartbeat CPU  0 instructions:  139000000 cycles:  484032831 heartbeat IPC: 0.10564 cumulative IPC: 0.10560 (Simulation time: 0 hr 11 min 2 sec) 
Heartbeat CPU  0 instructions:  140000000 cycles:  493529142 heartbeat IPC: 0.10530 cumulative IPC: 0.10559 (Simulation time: 0 hr 11 min 9 sec) 
Heartbeat CPU  0 instructions:  141000000 cycles:  503010588 heartbeat IPC: 0.10547 cumulative IPC: 0.10559 (Simulation time: 0 hr 11 min 16 sec) 
Heartbeat CPU  0 instructions:  142000001 cycles:  512306322 heartbeat IPC: 0.10758 cumulative IPC: 0.10564 (Simulation time: 0 hr 11 min 24 sec) 
Heartbeat CPU  0 instructions:  143000003 cycles:  521540775 heartbeat IPC: 0.10829 cumulative IPC: 0.10570 (Simulation time: 0 hr 11 min 31 sec) 
Heartbeat CPU  0 instructions:  144000000 cycles:  530777634 heartbeat IPC: 0.10826 cumulative IPC: 0.10575 (Simulation time: 0 hr 11 min 38 sec) 
Heartbeat CPU  0 instructions:  145000000 cycles:  540118444 heartbeat IPC: 0.10706 cumulative IPC: 0.10578 (Simulation time: 0 hr 11 min 45 sec) 
Heartbeat CPU  0 instructions:  146000003 cycles:  549621699 heartbeat IPC: 0.10523 cumulative IPC: 0.10577 (Simulation time: 0 hr 11 min 52 sec) 
Heartbeat CPU  0 instructions:  147000002 cycles:  559018495 heartbeat IPC: 0.10642 cumulative IPC: 0.10578 (Simulation time: 0 hr 11 min 59 sec) 
Heartbeat CPU  0 instructions:  148000000 cycles:  568467898 heartbeat IPC: 0.10583 cumulative IPC: 0.10579 (Simulation time: 0 hr 12 min 6 sec) 
Heartbeat CPU  0 instructions:  149000000 cycles:  578076269 heartbeat IPC: 0.10408 cumulative IPC: 0.10575 (Simulation time: 0 hr 12 min 14 sec) 
Heartbeat CPU  0 instructions:  150000000 cycles:  587778727 heartbeat IPC: 0.10307 cumulative IPC: 0.10569 (Simulation time: 0 hr 12 min 21 sec) 
Heartbeat CPU  0 instructions:  151000002 cycles:  597442112 heartbeat IPC: 0.10348 cumulative IPC: 0.10565 (Simulation time: 0 hr 12 min 28 sec) 
Heartbeat CPU  0 instructions:  152000000 cycles:  607126605 heartbeat IPC: 0.10326 cumulative IPC: 0.10560 (Simulation time: 0 hr 12 min 35 sec) 
Heartbeat CPU  0 instructions:  153000000 cycles:  617652327 heartbeat IPC: 0.09501 cumulative IPC: 0.10538 (Simulation time: 0 hr 12 min 42 sec) 
Heartbeat CPU  0 instructions:  154000000 cycles:  628016892 heartbeat IPC: 0.09648 cumulative IPC: 0.10520 (Simulation time: 0 hr 12 min 50 sec) 
Heartbeat CPU  0 instructions:  155000000 cycles:  637585691 heartbeat IPC: 0.10451 cumulative IPC: 0.10519 (Simulation time: 0 hr 12 min 57 sec) 
Heartbeat CPU  0 instructions:  156000000 cycles:  647097127 heartbeat IPC: 0.10514 cumulative IPC: 0.10519 (Simulation time: 0 hr 13 min 4 sec) 
Heartbeat CPU  0 instructions:  157000000 cycles:  656717225 heartbeat IPC: 0.10395 cumulative IPC: 0.10517 (Simulation time: 0 hr 13 min 11 sec) 
Heartbeat CPU  0 instructions:  158000002 cycles:  666369104 heartbeat IPC: 0.10361 cumulative IPC: 0.10514 (Simulation time: 0 hr 13 min 18 sec) 
Heartbeat CPU  0 instructions:  159000000 cycles:  675959683 heartbeat IPC: 0.10427 cumulative IPC: 0.10512 (Simulation time: 0 hr 13 min 25 sec) 
Heartbeat CPU  0 instructions:  160000000 cycles:  685573971 heartbeat IPC: 0.10401 cumulative IPC: 0.10511 (Simulation time: 0 hr 13 min 32 sec) 
Heartbeat CPU  0 instructions:  161000001 cycles:  695229257 heartbeat IPC: 0.10357 cumulative IPC: 0.10508 (Simulation time: 0 hr 13 min 39 sec) 
Heartbeat CPU  0 instructions:  162000000 cycles:  704840717 heartbeat IPC: 0.10404 cumulative IPC: 0.10506 (Simulation time: 0 hr 13 min 47 sec) 
Heartbeat CPU  0 instructions:  163000002 cycles:  714426680 heartbeat IPC: 0.10432 cumulative IPC: 0.10505 (Simulation time: 0 hr 13 min 54 sec) 
Heartbeat CPU  0 instructions:  164000000 cycles:  723931685 heartbeat IPC: 0.10521 cumulative IPC: 0.10505 (Simulation time: 0 hr 14 min 1 sec) 
Heartbeat CPU  0 instructions:  165000001 cycles:  733440126 heartbeat IPC: 0.10517 cumulative IPC: 0.10506 (Simulation time: 0 hr 14 min 8 sec) 
Heartbeat CPU  0 instructions:  166000000 cycles:  742998849 heartbeat IPC: 0.10462 cumulative IPC: 0.10505 (Simulation time: 0 hr 14 min 15 sec) 
Heartbeat CPU  0 instructions:  167000000 cycles:  752664465 heartbeat IPC: 0.10346 cumulative IPC: 0.10502 (Simulation time: 0 hr 14 min 22 sec) 
Heartbeat CPU  0 instructions:  168000000 cycles:  762153393 heartbeat IPC: 0.10539 cumulative IPC: 0.10503 (Simulation time: 0 hr 14 min 29 sec) 
Heartbeat CPU  0 instructions:  169000000 cycles:  771680654 heartbeat IPC: 0.10496 cumulative IPC: 0.10503 (Simulation time: 0 hr 14 min 37 sec) 
Heartbeat CPU  0 instructions:  170000000 cycles:  781294169 heartbeat IPC: 0.10402 cumulative IPC: 0.10501 (Simulation time: 0 hr 14 min 44 sec) 
Heartbeat CPU  0 instructions:  171000000 cycles:  790928702 heartbeat IPC: 0.10379 cumulative IPC: 0.10500 (Simulation time: 0 hr 14 min 51 sec) 
Heartbeat CPU  0 instructions:  172000000 cycles:  800558741 heartbeat IPC: 0.10384 cumulative IPC: 0.10498 (Simulation time: 0 hr 14 min 58 sec) 
Heartbeat CPU  0 instructions:  173000000 cycles:  810133428 heartbeat IPC: 0.10444 cumulative IPC: 0.10497 (Simulation time: 0 hr 15 min 5 sec) 
Heartbeat CPU  0 instructions:  174000002 cycles:  819440795 heartbeat IPC: 0.10744 cumulative IPC: 0.10501 (Simulation time: 0 hr 15 min 12 sec) 
Heartbeat CPU  0 instructions:  175000000 cycles:  828852025 heartbeat IPC: 0.10626 cumulative IPC: 0.10502 (Simulation time: 0 hr 15 min 20 sec) 
Heartbeat CPU  0 instructions:  176000000 cycles:  838446479 heartbeat IPC: 0.10423 cumulative IPC: 0.10501 (Simulation time: 0 hr 15 min 27 sec) 
Heartbeat CPU  0 instructions:  177000002 cycles:  847890357 heartbeat IPC: 0.10589 cumulative IPC: 0.10502 (Simulation time: 0 hr 15 min 34 sec) 
Heartbeat CPU  0 instructions:  178000003 cycles:  857420329 heartbeat IPC: 0.10493 cumulative IPC: 0.10502 (Simulation time: 0 hr 15 min 41 sec) 
Heartbeat CPU  0 instructions:  179000001 cycles:  866794686 heartbeat IPC: 0.10667 cumulative IPC: 0.10504 (Simulation time: 0 hr 15 min 48 sec) 
Heartbeat CPU  0 instructions:  180000000 cycles:  876331857 heartbeat IPC: 0.10485 cumulative IPC: 0.10504 (Simulation time: 0 hr 15 min 55 sec) 
Heartbeat CPU  0 instructions:  181000000 cycles:  885877745 heartbeat IPC: 0.10476 cumulative IPC: 0.10504 (Simulation time: 0 hr 16 min 3 sec) 
Heartbeat CPU  0 instructions:  182000000 cycles:  895443883 heartbeat IPC: 0.10454 cumulative IPC: 0.10503 (Simulation time: 0 hr 16 min 10 sec) 
Heartbeat CPU  0 instructions:  183000002 cycles:  905074012 heartbeat IPC: 0.10384 cumulative IPC: 0.10502 (Simulation time: 0 hr 16 min 17 sec) 
Heartbeat CPU  0 instructions:  184000000 cycles:  914642119 heartbeat IPC: 0.10451 cumulative IPC: 0.10501 (Simulation time: 0 hr 16 min 24 sec) 
Heartbeat CPU  0 instructions:  185000001 cycles:  924203124 heartbeat IPC: 0.10459 cumulative IPC: 0.10501 (Simulation time: 0 hr 16 min 31 sec) 
Heartbeat CPU  0 instructions:  186000000 cycles:  933789837 heartbeat IPC: 0.10431 cumulative IPC: 0.10500 (Simulation time: 0 hr 16 min 38 sec) 
Heartbeat CPU  0 instructions:  187000000 cycles:  943477123 heartbeat IPC: 0.10323 cumulative IPC: 0.10498 (Simulation time: 0 hr 16 min 45 sec) 
Heartbeat CPU  0 instructions:  188000000 cycles:  953229867 heartbeat IPC: 0.10254 cumulative IPC: 0.10495 (Simulation time: 0 hr 16 min 53 sec) 
Heartbeat CPU  0 instructions:  189000000 cycles:  962973427 heartbeat IPC: 0.10263 cumulative IPC: 0.10492 (Simulation time: 0 hr 17 min 0 sec) 
Heartbeat CPU  0 instructions:  190000000 cycles:  972675156 heartbeat IPC: 0.10307 cumulative IPC: 0.10490 (Simulation time: 0 hr 17 min 7 sec) 
Heartbeat CPU  0 instructions:  191000000 cycles:  982328658 heartbeat IPC: 0.10359 cumulative IPC: 0.10489 (Simulation time: 0 hr 17 min 14 sec) 
Heartbeat CPU  0 instructions:  192000000 cycles:  992052376 heartbeat IPC: 0.10284 cumulative IPC: 0.10486 (Simulation time: 0 hr 17 min 21 sec) 
Heartbeat CPU  0 instructions:  193000001 cycles: 1001617669 heartbeat IPC: 0.10454 cumulative IPC: 0.10486 (Simulation time: 0 hr 17 min 28 sec) 
Heartbeat CPU  0 instructions:  194000001 cycles: 1011241857 heartbeat IPC: 0.10390 cumulative IPC: 0.10485 (Simulation time: 0 hr 17 min 36 sec) 
Heartbeat CPU  0 instructions:  195000000 cycles: 1021005330 heartbeat IPC: 0.10242 cumulative IPC: 0.10482 (Simulation time: 0 hr 17 min 43 sec) 
Heartbeat CPU  0 instructions:  196000000 cycles: 1030724590 heartbeat IPC: 0.10289 cumulative IPC: 0.10480 (Simulation time: 0 hr 17 min 50 sec) 
Heartbeat CPU  0 instructions:  197000000 cycles: 1040449281 heartbeat IPC: 0.10283 cumulative IPC: 0.10478 (Simulation time: 0 hr 17 min 57 sec) 
Heartbeat CPU  0 instructions:  198000001 cycles: 1050068932 heartbeat IPC: 0.10395 cumulative IPC: 0.10477 (Simulation time: 0 hr 18 min 4 sec) 
Heartbeat CPU  0 instructions:  199000003 cycles: 1059523779 heartbeat IPC: 0.10577 cumulative IPC: 0.10478 (Simulation time: 0 hr 18 min 11 sec) 
Heartbeat CPU  0 instructions:  200000000 cycles: 1069210787 heartbeat IPC: 0.10323 cumulative IPC: 0.10477 (Simulation time: 0 hr 18 min 19 sec) 
Heartbeat CPU  0 instructions:  201000000 cycles: 1078834306 heartbeat IPC: 0.10391 cumulative IPC: 0.10476 (Simulation time: 0 hr 18 min 26 sec) 
Heartbeat CPU  0 instructions:  202000000 cycles: 1088266503 heartbeat IPC: 0.10602 cumulative IPC: 0.10477 (Simulation time: 0 hr 18 min 33 sec) 
Heartbeat CPU  0 instructions:  203000003 cycles: 1097639762 heartbeat IPC: 0.10669 cumulative IPC: 0.10479 (Simulation time: 0 hr 18 min 40 sec) 
Heartbeat CPU  0 instructions:  204000000 cycles: 1107049795 heartbeat IPC: 0.10627 cumulative IPC: 0.10480 (Simulation time: 0 hr 18 min 47 sec) 
Heartbeat CPU  0 instructions:  205000000 cycles: 1116408761 heartbeat IPC: 0.10685 cumulative IPC: 0.10482 (Simulation time: 0 hr 18 min 54 sec) 
Heartbeat CPU  0 instructions:  206000000 cycles: 1125896493 heartbeat IPC: 0.10540 cumulative IPC: 0.10483 (Simulation time: 0 hr 19 min 1 sec) 
Heartbeat CPU  0 instructions:  207000000 cycles: 1135425364 heartbeat IPC: 0.10494 cumulative IPC: 0.10483 (Simulation time: 0 hr 19 min 9 sec) 
Heartbeat CPU  0 instructions:  208000000 cycles: 1144875700 heartbeat IPC: 0.10582 cumulative IPC: 0.10484 (Simulation time: 0 hr 19 min 16 sec) 
Heartbeat CPU  0 instructions:  209000002 cycles: 1154306028 heartbeat IPC: 0.10604 cumulative IPC: 0.10485 (Simulation time: 0 hr 19 min 23 sec) 
Heartbeat CPU  0 instructions:  210000002 cycles: 1163807570 heartbeat IPC: 0.10525 cumulative IPC: 0.10485 (Simulation time: 0 hr 19 min 30 sec) 
Heartbeat CPU  0 instructions:  211000000 cycles: 1173179550 heartbeat IPC: 0.10670 cumulative IPC: 0.10487 (Simulation time: 0 hr 19 min 37 sec) 
Heartbeat CPU  0 instructions:  212000000 cycles: 1182674042 heartbeat IPC: 0.10532 cumulative IPC: 0.10487 (Simulation time: 0 hr 19 min 44 sec) 
Heartbeat CPU  0 instructions:  213000000 cycles: 1192133907 heartbeat IPC: 0.10571 cumulative IPC: 0.10488 (Simulation time: 0 hr 19 min 51 sec) 
Heartbeat CPU  0 instructions:  214000000 cycles: 1201444550 heartbeat IPC: 0.10740 cumulative IPC: 0.10490 (Simulation time: 0 hr 19 min 58 sec) 
Heartbeat CPU  0 instructions:  215000000 cycles: 1210601484 heartbeat IPC: 0.10921 cumulative IPC: 0.10494 (Simulation time: 0 hr 20 min 6 sec) 
Heartbeat CPU  0 instructions:  216000000 cycles: 1220055442 heartbeat IPC: 0.10578 cumulative IPC: 0.10495 (Simulation time: 0 hr 20 min 13 sec) 
Heartbeat CPU  0 instructions:  217000002 cycles: 1229364734 heartbeat IPC: 0.10742 cumulative IPC: 0.10497 (Simulation time: 0 hr 20 min 20 sec) 
Heartbeat CPU  0 instructions:  218000003 cycles: 1238669339 heartbeat IPC: 0.10747 cumulative IPC: 0.10499 (Simulation time: 0 hr 20 min 27 sec) 
Heartbeat CPU  0 instructions:  219000001 cycles: 1248221958 heartbeat IPC: 0.10468 cumulative IPC: 0.10498 (Simulation time: 0 hr 20 min 34 sec) 
Heartbeat CPU  0 instructions:  220000000 cycles: 1257634978 heartbeat IPC: 0.10624 cumulative IPC: 0.10499 (Simulation time: 0 hr 20 min 41 sec) 
Heartbeat CPU  0 instructions:  221000000 cycles: 1267085120 heartbeat IPC: 0.10582 cumulative IPC: 0.10500 (Simulation time: 0 hr 20 min 48 sec) 
Heartbeat CPU  0 instructions:  222000000 cycles: 1276616346 heartbeat IPC: 0.10492 cumulative IPC: 0.10500 (Simulation time: 0 hr 20 min 55 sec) 
Heartbeat CPU  0 instructions:  223000000 cycles: 1286021927 heartbeat IPC: 0.10632 cumulative IPC: 0.10501 (Simulation time: 0 hr 21 min 3 sec) 
Heartbeat CPU  0 instructions:  224000000 cycles: 1295339020 heartbeat IPC: 0.10733 cumulative IPC: 0.10503 (Simulation time: 0 hr 21 min 10 sec) 
Heartbeat CPU  0 instructions:  225000000 cycles: 1304720978 heartbeat IPC: 0.10659 cumulative IPC: 0.10504 (Simulation time: 0 hr 21 min 17 sec) 
Heartbeat CPU  0 instructions:  226000001 cycles: 1314143804 heartbeat IPC: 0.10613 cumulative IPC: 0.10505 (Simulation time: 0 hr 21 min 24 sec) 
Heartbeat CPU  0 instructions:  227000002 cycles: 1323610043 heartbeat IPC: 0.10564 cumulative IPC: 0.10505 (Simulation time: 0 hr 21 min 31 sec) 
Heartbeat CPU  0 instructions:  228000000 cycles: 1332986925 heartbeat IPC: 0.10665 cumulative IPC: 0.10507 (Simulation time: 0 hr 21 min 38 sec) 
Heartbeat CPU  0 instructions:  229000000 cycles: 1342378739 heartbeat IPC: 0.10648 cumulative IPC: 0.10508 (Simulation time: 0 hr 21 min 45 sec) 
Heartbeat CPU  0 instructions:  230000001 cycles: 1351600022 heartbeat IPC: 0.10844 cumulative IPC: 0.10510 (Simulation time: 0 hr 21 min 52 sec) 
Heartbeat CPU  0 instructions:  231000000 cycles: 1360847612 heartbeat IPC: 0.10814 cumulative IPC: 0.10513 (Simulation time: 0 hr 21 min 59 sec) 
Heartbeat CPU  0 instructions:  232000000 cycles: 1369994801 heartbeat IPC: 0.10932 cumulative IPC: 0.10516 (Simulation time: 0 hr 22 min 6 sec) 
Heartbeat CPU  0 instructions:  233000000 cycles: 1379393766 heartbeat IPC: 0.10639 cumulative IPC: 0.10517 (Simulation time: 0 hr 22 min 13 sec) 
Heartbeat CPU  0 instructions:  234000000 cycles: 1388601190 heartbeat IPC: 0.10861 cumulative IPC: 0.10519 (Simulation time: 0 hr 22 min 20 sec) 
Heartbeat CPU  0 instructions:  235000000 cycles: 1397977574 heartbeat IPC: 0.10665 cumulative IPC: 0.10520 (Simulation time: 0 hr 22 min 27 sec) 
Heartbeat CPU  0 instructions:  236000000 cycles: 1407311071 heartbeat IPC: 0.10714 cumulative IPC: 0.10521 (Simulation time: 0 hr 22 min 35 sec) 
Heartbeat CPU  0 instructions:  237000001 cycles: 1416556695 heartbeat IPC: 0.10816 cumulative IPC: 0.10524 (Simulation time: 0 hr 22 min 42 sec) 
Heartbeat CPU  0 instructions:  238000000 cycles: 1425898801 heartbeat IPC: 0.10704 cumulative IPC: 0.10525 (Simulation time: 0 hr 22 min 49 sec) 
Heartbeat CPU  0 instructions:  239000002 cycles: 1435284346 heartbeat IPC: 0.10655 cumulative IPC: 0.10526 (Simulation time: 0 hr 22 min 56 sec) 
Heartbeat CPU  0 instructions:  240000000 cycles: 1444711964 heartbeat IPC: 0.10607 cumulative IPC: 0.10526 (Simulation time: 0 hr 23 min 3 sec) 
Heartbeat CPU  0 instructions:  241000000 cycles: 1453972342 heartbeat IPC: 0.10799 cumulative IPC: 0.10528 (Simulation time: 0 hr 23 min 10 sec) 
Heartbeat CPU  0 instructions:  242000000 cycles: 1463431993 heartbeat IPC: 0.10571 cumulative IPC: 0.10529 (Simulation time: 0 hr 23 min 18 sec) 
Heartbeat CPU  0 instructions:  243000001 cycles: 1472964935 heartbeat IPC: 0.10490 cumulative IPC: 0.10528 (Simulation time: 0 hr 23 min 25 sec) 
Heartbeat CPU  0 instructions:  244000000 cycles: 1482611973 heartbeat IPC: 0.10366 cumulative IPC: 0.10527 (Simulation time: 0 hr 23 min 32 sec) 
Heartbeat CPU  0 instructions:  245000000 cycles: 1492140619 heartbeat IPC: 0.10495 cumulative IPC: 0.10527 (Simulation time: 0 hr 23 min 39 sec) 
Heartbeat CPU  0 instructions:  246000000 cycles: 1501663635 heartbeat IPC: 0.10501 cumulative IPC: 0.10527 (Simulation time: 0 hr 23 min 46 sec) 
Heartbeat CPU  0 instructions:  247000000 cycles: 1511164822 heartbeat IPC: 0.10525 cumulative IPC: 0.10527 (Simulation time: 0 hr 23 min 53 sec) 
Heartbeat CPU  0 instructions:  248000000 cycles: 1520624992 heartbeat IPC: 0.10571 cumulative IPC: 0.10527 (Simulation time: 0 hr 24 min 0 sec) 
Heartbeat CPU  0 instructions:  249000003 cycles: 1530147174 heartbeat IPC: 0.10502 cumulative IPC: 0.10527 (Simulation time: 0 hr 24 min 8 sec) 
Heartbeat CPU  0 instructions:  250000002 cycles: 1539618948 heartbeat IPC: 0.10558 cumulative IPC: 0.10527 (Simulation time: 0 hr 24 min 15 sec) 
Heartbeat CPU  0 instructions:  251000000 cycles: 1549190831 heartbeat IPC: 0.10447 cumulative IPC: 0.10527 (Simulation time: 0 hr 24 min 22 sec) 
Heartbeat CPU  0 instructions:  252000000 cycles: 1558787896 heartbeat IPC: 0.10420 cumulative IPC: 0.10526 (Simulation time: 0 hr 24 min 29 sec) 
Heartbeat CPU  0 instructions:  253000000 cycles: 1568365378 heartbeat IPC: 0.10441 cumulative IPC: 0.10525 (Simulation time: 0 hr 24 min 36 sec) 
Heartbeat CPU  0 instructions:  254000000 cycles: 1578110576 heartbeat IPC: 0.10261 cumulative IPC: 0.10523 (Simulation time: 0 hr 24 min 43 sec) 
Heartbeat CPU  0 instructions:  255000002 cycles: 1587732575 heartbeat IPC: 0.10393 cumulative IPC: 0.10523 (Simulation time: 0 hr 24 min 51 sec) 
Heartbeat CPU  0 instructions:  256000000 cycles: 1597266337 heartbeat IPC: 0.10489 cumulative IPC: 0.10522 (Simulation time: 0 hr 24 min 58 sec) 
Heartbeat CPU  0 instructions:  257000000 cycles: 1606858057 heartbeat IPC: 0.10426 cumulative IPC: 0.10522 (Simulation time: 0 hr 25 min 5 sec) 
Heartbeat CPU  0 instructions:  258000002 cycles: 1616428137 heartbeat IPC: 0.10449 cumulative IPC: 0.10521 (Simulation time: 0 hr 25 min 12 sec) 
Heartbeat CPU  0 instructions:  259000001 cycles: 1626109395 heartbeat IPC: 0.10329 cumulative IPC: 0.10520 (Simulation time: 0 hr 25 min 19 sec) 
Heartbeat CPU  0 instructions:  260000000 cycles: 1635668131 heartbeat IPC: 0.10462 cumulative IPC: 0.10520 (Simulation time: 0 hr 25 min 26 sec) 
Heartbeat CPU  0 instructions:  261000002 cycles: 1645199164 heartbeat IPC: 0.10492 cumulative IPC: 0.10520 (Simulation time: 0 hr 25 min 34 sec) 
Heartbeat CPU  0 instructions:  262000003 cycles: 1654855749 heartbeat IPC: 0.10356 cumulative IPC: 0.10519 (Simulation time: 0 hr 25 min 41 sec) 
Heartbeat CPU  0 instructions:  263000000 cycles: 1664524652 heartbeat IPC: 0.10342 cumulative IPC: 0.10517 (Simulation time: 0 hr 25 min 48 sec) 
Heartbeat CPU  0 instructions:  264000000 cycles: 1674154460 heartbeat IPC: 0.10384 cumulative IPC: 0.10517 (Simulation time: 0 hr 25 min 55 sec) 
Heartbeat CPU  0 instructions:  265000000 cycles: 1683619028 heartbeat IPC: 0.10566 cumulative IPC: 0.10517 (Simulation time: 0 hr 26 min 2 sec) 
Heartbeat CPU  0 instructions:  266000000 cycles: 1694686893 heartbeat IPC: 0.09035 cumulative IPC: 0.10507 (Simulation time: 0 hr 26 min 9 sec) 
Heartbeat CPU  0 instructions:  267000003 cycles: 1704915618 heartbeat IPC: 0.09776 cumulative IPC: 0.10502 (Simulation time: 0 hr 26 min 17 sec) 
Heartbeat CPU  0 instructions:  268000000 cycles: 1714737828 heartbeat IPC: 0.10181 cumulative IPC: 0.10500 (Simulation time: 0 hr 26 min 24 sec) 
Heartbeat CPU  0 instructions:  269000000 cycles: 1724475561 heartbeat IPC: 0.10269 cumulative IPC: 0.10498 (Simulation time: 0 hr 26 min 31 sec) 
Heartbeat CPU  0 instructions:  270000000 cycles: 1734197720 heartbeat IPC: 0.10286 cumulative IPC: 0.10497 (Simulation time: 0 hr 26 min 38 sec) 
Heartbeat CPU  0 instructions:  271000001 cycles: 1743951630 heartbeat IPC: 0.10252 cumulative IPC: 0.10496 (Simulation time: 0 hr 26 min 46 sec) 
Heartbeat CPU  0 instructions:  272000000 cycles: 1753605388 heartbeat IPC: 0.10359 cumulative IPC: 0.10495 (Simulation time: 0 hr 26 min 53 sec) 
Heartbeat CPU  0 instructions:  273000000 cycles: 1763215543 heartbeat IPC: 0.10406 cumulative IPC: 0.10494 (Simulation time: 0 hr 27 min 0 sec) 
Heartbeat CPU  0 instructions:  274000000 cycles: 1772736237 heartbeat IPC: 0.10503 cumulative IPC: 0.10494 (Simulation time: 0 hr 27 min 7 sec) 
Heartbeat CPU  0 instructions:  275000001 cycles: 1782128970 heartbeat IPC: 0.10647 cumulative IPC: 0.10495 (Simulation time: 0 hr 27 min 14 sec) 
Heartbeat CPU  0 instructions:  276000000 cycles: 1791506993 heartbeat IPC: 0.10663 cumulative IPC: 0.10496 (Simulation time: 0 hr 27 min 21 sec) 
Heartbeat CPU  0 instructions:  277000001 cycles: 1801097144 heartbeat IPC: 0.10427 cumulative IPC: 0.10496 (Simulation time: 0 hr 27 min 28 sec) 
Heartbeat CPU  0 instructions:  278000000 cycles: 1810663931 heartbeat IPC: 0.10453 cumulative IPC: 0.10496 (Simulation time: 0 hr 27 min 35 sec) 
Heartbeat CPU  0 instructions:  279000001 cycles: 1820231370 heartbeat IPC: 0.10452 cumulative IPC: 0.10495 (Simulation time: 0 hr 27 min 43 sec) 
Heartbeat CPU  0 instructions:  280000000 cycles: 1829774236 heartbeat IPC: 0.10479 cumulative IPC: 0.10495 (Simulation time: 0 hr 27 min 50 sec) 
Heartbeat CPU  0 instructions:  281000001 cycles: 1839277312 heartbeat IPC: 0.10523 cumulative IPC: 0.10495 (Simulation time: 0 hr 27 min 57 sec) 
Heartbeat CPU  0 instructions:  282000000 cycles: 1848822014 heartbeat IPC: 0.10477 cumulative IPC: 0.10495 (Simulation time: 0 hr 28 min 4 sec) 
Heartbeat CPU  0 instructions:  283000000 cycles: 1858342856 heartbeat IPC: 0.10503 cumulative IPC: 0.10495 (Simulation time: 0 hr 28 min 11 sec) 
Heartbeat CPU  0 instructions:  284000000 cycles: 1867948838 heartbeat IPC: 0.10410 cumulative IPC: 0.10495 (Simulation time: 0 hr 28 min 18 sec) 
Heartbeat CPU  0 instructions:  285000001 cycles: 1877403606 heartbeat IPC: 0.10577 cumulative IPC: 0.10495 (Simulation time: 0 hr 28 min 25 sec) 
Heartbeat CPU  0 instructions:  286000001 cycles: 1886805638 heartbeat IPC: 0.10636 cumulative IPC: 0.10496 (Simulation time: 0 hr 28 min 32 sec) 
Heartbeat CPU  0 instructions:  287000002 cycles: 1896443025 heartbeat IPC: 0.10376 cumulative IPC: 0.10495 (Simulation time: 0 hr 28 min 40 sec) 
Heartbeat CPU  0 instructions:  288000000 cycles: 1906089352 heartbeat IPC: 0.10367 cumulative IPC: 0.10495 (Simulation time: 0 hr 28 min 47 sec) 
Heartbeat CPU  0 instructions:  289000001 cycles: 1915734931 heartbeat IPC: 0.10367 cumulative IPC: 0.10494 (Simulation time: 0 hr 28 min 54 sec) 
Heartbeat CPU  0 instructions:  290000001 cycles: 1925303757 heartbeat IPC: 0.10451 cumulative IPC: 0.10494 (Simulation time: 0 hr 29 min 1 sec) 
Heartbeat CPU  0 instructions:  291000000 cycles: 1934838299 heartbeat IPC: 0.10488 cumulative IPC: 0.10494 (Simulation time: 0 hr 29 min 8 sec) 
Heartbeat CPU  0 instructions:  292000000 cycles: 1944418653 heartbeat IPC: 0.10438 cumulative IPC: 0.10494 (Simulation time: 0 hr 29 min 15 sec) 
Heartbeat CPU  0 instructions:  293000000 cycles: 1953950219 heartbeat IPC: 0.10491 cumulative IPC: 0.10494 (Simulation time: 0 hr 29 min 22 sec) 
Heartbeat CPU  0 instructions:  294000002 cycles: 1963293966 heartbeat IPC: 0.10702 cumulative IPC: 0.10495 (Simulation time: 0 hr 29 min 29 sec) 
Heartbeat CPU  0 instructions:  295000000 cycles: 1972557323 heartbeat IPC: 0.10795 cumulative IPC: 0.10496 (Simulation time: 0 hr 29 min 37 sec) 
Heartbeat CPU  0 instructions:  296000000 cycles: 1981852018 heartbeat IPC: 0.10759 cumulative IPC: 0.10497 (Simulation time: 0 hr 29 min 44 sec) 
Heartbeat CPU  0 instructions:  297000000 cycles: 1991282590 heartbeat IPC: 0.10604 cumulative IPC: 0.10498 (Simulation time: 0 hr 29 min 51 sec) 
Heartbeat CPU  0 instructions:  298000002 cycles: 2000832209 heartbeat IPC: 0.10472 cumulative IPC: 0.10498 (Simulation time: 0 hr 29 min 58 sec) 
Heartbeat CPU  0 instructions:  299000001 cycles: 2010394633 heartbeat IPC: 0.10458 cumulative IPC: 0.10498 (Simulation time: 0 hr 30 min 5 sec) 
Heartbeat CPU  0 instructions:  300000000 cycles: 2019948075 heartbeat IPC: 0.10467 cumulative IPC: 0.10497 (Simulation time: 0 hr 30 min 12 sec) 
Heartbeat CPU  0 instructions:  301000000 cycles: 2029533239 heartbeat IPC: 0.10433 cumulative IPC: 0.10497 (Simulation time: 0 hr 30 min 20 sec) 
Heartbeat CPU  0 instructions:  302000000 cycles: 2039193255 heartbeat IPC: 0.10352 cumulative IPC: 0.10496 (Simulation time: 0 hr 30 min 27 sec) 
Heartbeat CPU  0 instructions:  303000000 cycles: 2048773630 heartbeat IPC: 0.10438 cumulative IPC: 0.10496 (Simulation time: 0 hr 30 min 34 sec) 
Heartbeat CPU  0 instructions:  304000000 cycles: 2058264973 heartbeat IPC: 0.10536 cumulative IPC: 0.10496 (Simulation time: 0 hr 30 min 41 sec) 
Heartbeat CPU  0 instructions:  305000003 cycles: 2067746144 heartbeat IPC: 0.10547 cumulative IPC: 0.10497 (Simulation time: 0 hr 30 min 48 sec) 
Heartbeat CPU  0 instructions:  306000000 cycles: 2077204927 heartbeat IPC: 0.10572 cumulative IPC: 0.10497 (Simulation time: 0 hr 30 min 55 sec) 
Heartbeat CPU  0 instructions:  307000000 cycles: 2086837500 heartbeat IPC: 0.10381 cumulative IPC: 0.10496 (Simulation time: 0 hr 31 min 3 sec) 
Heartbeat CPU  0 instructions:  308000000 cycles: 2096403223 heartbeat IPC: 0.10454 cumulative IPC: 0.10496 (Simulation time: 0 hr 31 min 10 sec) 
Heartbeat CPU  0 instructions:  309000000 cycles: 2106035684 heartbeat IPC: 0.10382 cumulative IPC: 0.10496 (Simulation time: 0 hr 31 min 17 sec) 
Heartbeat CPU  0 instructions:  310000001 cycles: 2115694910 heartbeat IPC: 0.10353 cumulative IPC: 0.10495 (Simulation time: 0 hr 31 min 24 sec) 
Heartbeat CPU  0 instructions:  311000000 cycles: 2125368585 heartbeat IPC: 0.10337 cumulative IPC: 0.10494 (Simulation time: 0 hr 31 min 31 sec) 
Heartbeat CPU  0 instructions:  312000000 cycles: 2135198875 heartbeat IPC: 0.10173 cumulative IPC: 0.10493 (Simulation time: 0 hr 31 min 39 sec) 
Heartbeat CPU  0 instructions:  313000000 cycles: 2144992897 heartbeat IPC: 0.10210 cumulative IPC: 0.10491 (Simulation time: 0 hr 31 min 46 sec) 
Heartbeat CPU  0 instructions:  314000002 cycles: 2154702950 heartbeat IPC: 0.10299 cumulative IPC: 0.10490 (Simulation time: 0 hr 31 min 53 sec) 
Heartbeat CPU  0 instructions:  315000000 cycles: 2164296981 heartbeat IPC: 0.10423 cumulative IPC: 0.10490 (Simulation time: 0 hr 32 min 0 sec) 
Heartbeat CPU  0 instructions:  316000000 cycles: 2173778153 heartbeat IPC: 0.10547 cumulative IPC: 0.10490 (Simulation time: 0 hr 32 min 7 sec) 
Heartbeat CPU  0 instructions:  317000001 cycles: 2183392235 heartbeat IPC: 0.10401 cumulative IPC: 0.10490 (Simulation time: 0 hr 32 min 14 sec) 
Heartbeat CPU  0 instructions:  318000003 cycles: 2193031569 heartbeat IPC: 0.10374 cumulative IPC: 0.10489 (Simulation time: 0 hr 32 min 22 sec) 
Heartbeat CPU  0 instructions:  319000001 cycles: 2202868088 heartbeat IPC: 0.10166 cumulative IPC: 0.10488 (Simulation time: 0 hr 32 min 29 sec) 
Heartbeat CPU  0 instructions:  320000000 cycles: 2212772795 heartbeat IPC: 0.10096 cumulative IPC: 0.10486 (Simulation time: 0 hr 32 min 36 sec) 
Heartbeat CPU  0 instructions:  321000000 cycles: 2222777804 heartbeat IPC: 0.09995 cumulative IPC: 0.10484 (Simulation time: 0 hr 32 min 43 sec) 
Heartbeat CPU  0 instructions:  322000001 cycles: 2232670352 heartbeat IPC: 0.10109 cumulative IPC: 0.10482 (Simulation time: 0 hr 32 min 50 sec) 
Heartbeat CPU  0 instructions:  323000003 cycles: 2242760629 heartbeat IPC: 0.09911 cumulative IPC: 0.10479 (Simulation time: 0 hr 32 min 58 sec) 
Heartbeat CPU  0 instructions:  324000000 cycles: 2252912757 heartbeat IPC: 0.09850 cumulative IPC: 0.10476 (Simulation time: 0 hr 33 min 5 sec) 
Heartbeat CPU  0 instructions:  325000000 cycles: 2262902005 heartbeat IPC: 0.10011 cumulative IPC: 0.10474 (Simulation time: 0 hr 33 min 12 sec) 
Heartbeat CPU  0 instructions:  326000000 cycles: 2272823328 heartbeat IPC: 0.10079 cumulative IPC: 0.10472 (Simulation time: 0 hr 33 min 19 sec) 
Heartbeat CPU  0 instructions:  327000000 cycles: 2282529294 heartbeat IPC: 0.10303 cumulative IPC: 0.10471 (Simulation time: 0 hr 33 min 26 sec) 
Heartbeat CPU  0 instructions:  328000000 cycles: 2292080460 heartbeat IPC: 0.10470 cumulative IPC: 0.10471 (Simulation time: 0 hr 33 min 34 sec) 
Heartbeat CPU  0 instructions:  329000000 cycles: 2301686766 heartbeat IPC: 0.10410 cumulative IPC: 0.10471 (Simulation time: 0 hr 33 min 41 sec) 
Heartbeat CPU  0 instructions:  330000000 cycles: 2311349139 heartbeat IPC: 0.10349 cumulative IPC: 0.10471 (Simulation time: 0 hr 33 min 48 sec) 
Heartbeat CPU  0 instructions:  331000000 cycles: 2320945203 heartbeat IPC: 0.10421 cumulative IPC: 0.10470 (Simulation time: 0 hr 33 min 55 sec) 
Heartbeat CPU  0 instructions:  332000000 cycles: 2330332856 heartbeat IPC: 0.10652 cumulative IPC: 0.10471 (Simulation time: 0 hr 34 min 2 sec) 
Heartbeat CPU  0 instructions:  333000000 cycles: 2339855910 heartbeat IPC: 0.10501 cumulative IPC: 0.10471 (Simulation time: 0 hr 34 min 9 sec) 
Heartbeat CPU  0 instructions:  334000001 cycles: 2349262579 heartbeat IPC: 0.10631 cumulative IPC: 0.10472 (Simulation time: 0 hr 34 min 16 sec) 
Heartbeat CPU  0 instructions:  335000000 cycles: 2358887880 heartbeat IPC: 0.10389 cumulative IPC: 0.10472 (Simulation time: 0 hr 34 min 24 sec) 
Heartbeat CPU  0 instructions:  336000000 cycles: 2368459863 heartbeat IPC: 0.10447 cumulative IPC: 0.10471 (Simulation time: 0 hr 34 min 31 sec) 
Heartbeat CPU  0 instructions:  337000002 cycles: 2377963688 heartbeat IPC: 0.10522 cumulative IPC: 0.10472 (Simulation time: 0 hr 34 min 38 sec) 
Heartbeat CPU  0 instructions:  338000002 cycles: 2387306518 heartbeat IPC: 0.10703 cumulative IPC: 0.10473 (Simulation time: 0 hr 34 min 45 sec) 
Heartbeat CPU  0 instructions:  339000000 cycles: 2396824347 heartbeat IPC: 0.10507 cumulative IPC: 0.10473 (Simulation time: 0 hr 34 min 52 sec) 
Heartbeat CPU  0 instructions:  340000000 cycles: 2406360440 heartbeat IPC: 0.10486 cumulative IPC: 0.10473 (Simulation time: 0 hr 34 min 59 sec) 
Heartbeat CPU  0 instructions:  341000001 cycles: 2415797582 heartbeat IPC: 0.10596 cumulative IPC: 0.10473 (Simulation time: 0 hr 35 min 6 sec) 
Heartbeat CPU  0 instructions:  342000000 cycles: 2425241801 heartbeat IPC: 0.10588 cumulative IPC: 0.10474 (Simulation time: 0 hr 35 min 14 sec) 
Heartbeat CPU  0 instructions:  343000000 cycles: 2434774183 heartbeat IPC: 0.10491 cumulative IPC: 0.10474 (Simulation time: 0 hr 35 min 21 sec) 
Heartbeat CPU  0 instructions:  344000000 cycles: 2444329467 heartbeat IPC: 0.10465 cumulative IPC: 0.10474 (Simulation time: 0 hr 35 min 28 sec) 
Heartbeat CPU  0 instructions:  345000000 cycles: 2453669924 heartbeat IPC: 0.10706 cumulative IPC: 0.10475 (Simulation time: 0 hr 35 min 35 sec) 
Heartbeat CPU  0 instructions:  346000000 cycles: 2463103632 heartbeat IPC: 0.10600 cumulative IPC: 0.10475 (Simulation time: 0 hr 35 min 42 sec) 
Heartbeat CPU  0 instructions:  347000001 cycles: 2472767102 heartbeat IPC: 0.10348 cumulative IPC: 0.10475 (Simulation time: 0 hr 35 min 50 sec) 
Heartbeat CPU  0 instructions:  348000000 cycles: 2482434014 heartbeat IPC: 0.10345 cumulative IPC: 0.10474 (Simulation time: 0 hr 35 min 57 sec) 
Heartbeat CPU  0 instructions:  349000000 cycles: 2492000792 heartbeat IPC: 0.10453 cumulative IPC: 0.10474 (Simulation time: 0 hr 36 min 4 sec) 
Heartbeat CPU  0 instructions:  350000000 cycles: 2501529229 heartbeat IPC: 0.10495 cumulative IPC: 0.10474 (Simulation time: 0 hr 36 min 11 sec) 
Heartbeat CPU  0 instructions:  351000000 cycles: 2510999389 heartbeat IPC: 0.10559 cumulative IPC: 0.10475 (Simulation time: 0 hr 36 min 18 sec) 
Heartbeat CPU  0 instructions:  352000000 cycles: 2520367462 heartbeat IPC: 0.10675 cumulative IPC: 0.10475 (Simulation time: 0 hr 36 min 25 sec) 
Heartbeat CPU  0 instructions:  353000000 cycles: 2529687371 heartbeat IPC: 0.10730 cumulative IPC: 0.10476 (Simulation time: 0 hr 36 min 32 sec) 
Heartbeat CPU  0 instructions:  354000001 cycles: 2539024313 heartbeat IPC: 0.10710 cumulative IPC: 0.10477 (Simulation time: 0 hr 36 min 40 sec) 
Heartbeat CPU  0 instructions:  355000000 cycles: 2548353233 heartbeat IPC: 0.10719 cumulative IPC: 0.10478 (Simulation time: 0 hr 36 min 47 sec) 
Heartbeat CPU  0 instructions:  356000000 cycles: 2557514662 heartbeat IPC: 0.10915 cumulative IPC: 0.10480 (Simulation time: 0 hr 36 min 54 sec) 
Heartbeat CPU  0 instructions:  357000003 cycles: 2566863418 heartbeat IPC: 0.10697 cumulative IPC: 0.10481 (Simulation time: 0 hr 37 min 1 sec) 
Heartbeat CPU  0 instructions:  358000000 cycles: 2576298936 heartbeat IPC: 0.10598 cumulative IPC: 0.10481 (Simulation time: 0 hr 37 min 8 sec) 
Heartbeat CPU  0 instructions:  359000000 cycles: 2585701919 heartbeat IPC: 0.10635 cumulative IPC: 0.10482 (Simulation time: 0 hr 37 min 15 sec) 
Heartbeat CPU  0 instructions:  360000000 cycles: 2595023162 heartbeat IPC: 0.10728 cumulative IPC: 0.10483 (Simulation time: 0 hr 37 min 22 sec) 
Heartbeat CPU  0 instructions:  361000000 cycles: 2604377022 heartbeat IPC: 0.10691 cumulative IPC: 0.10483 (Simulation time: 0 hr 37 min 29 sec) 
Heartbeat CPU  0 instructions:  362000000 cycles: 2613833299 heartbeat IPC: 0.10575 cumulative IPC: 0.10484 (Simulation time: 0 hr 37 min 36 sec) 
Heartbeat CPU  0 instructions:  363000000 cycles: 2623297839 heartbeat IPC: 0.10566 cumulative IPC: 0.10484 (Simulation time: 0 hr 37 min 43 sec) 
Heartbeat CPU  0 instructions:  364000000 cycles: 2632786228 heartbeat IPC: 0.10539 cumulative IPC: 0.10484 (Simulation time: 0 hr 37 min 51 sec) 
Heartbeat CPU  0 instructions:  365000002 cycles: 2642202569 heartbeat IPC: 0.10620 cumulative IPC: 0.10485 (Simulation time: 0 hr 37 min 58 sec) 
Heartbeat CPU  0 instructions:  366000000 cycles: 2651934777 heartbeat IPC: 0.10275 cumulative IPC: 0.10484 (Simulation time: 0 hr 38 min 5 sec) 
Heartbeat CPU  0 instructions:  367000000 cycles: 2661574502 heartbeat IPC: 0.10374 cumulative IPC: 0.10484 (Simulation time: 0 hr 38 min 12 sec) 
Heartbeat CPU  0 instructions:  368000000 cycles: 2671235158 heartbeat IPC: 0.10351 cumulative IPC: 0.10483 (Simulation time: 0 hr 38 min 19 sec) 
Heartbeat CPU  0 instructions:  369000001 cycles: 2680628007 heartbeat IPC: 0.10646 cumulative IPC: 0.10484 (Simulation time: 0 hr 38 min 26 sec) 
Heartbeat CPU  0 instructions:  370000002 cycles: 2690228541 heartbeat IPC: 0.10416 cumulative IPC: 0.10483 (Simulation time: 0 hr 38 min 33 sec) 
Heartbeat CPU  0 instructions:  371000002 cycles: 2699871605 heartbeat IPC: 0.10370 cumulative IPC: 0.10483 (Simulation time: 0 hr 38 min 41 sec) 
Heartbeat CPU  0 instructions:  372000000 cycles: 2709777008 heartbeat IPC: 0.10095 cumulative IPC: 0.10481 (Simulation time: 0 hr 38 min 48 sec) 
Heartbeat CPU  0 instructions:  373000000 cycles: 2719364204 heartbeat IPC: 0.10431 cumulative IPC: 0.10481 (Simulation time: 0 hr 38 min 55 sec) 
Heartbeat CPU  0 instructions:  374000002 cycles: 2729035579 heartbeat IPC: 0.10340 cumulative IPC: 0.10481 (Simulation time: 0 hr 39 min 2 sec) 
Heartbeat CPU  0 instructions:  375000000 cycles: 2738626756 heartbeat IPC: 0.10426 cumulative IPC: 0.10481 (Simulation time: 0 hr 39 min 9 sec) 
Heartbeat CPU  0 instructions:  376000000 cycles: 2748146222 heartbeat IPC: 0.10505 cumulative IPC: 0.10481 (Simulation time: 0 hr 39 min 16 sec) 
Heartbeat CPU  0 instructions:  377000001 cycles: 2757686888 heartbeat IPC: 0.10481 cumulative IPC: 0.10481 (Simulation time: 0 hr 39 min 23 sec) 
Heartbeat CPU  0 instructions:  378000003 cycles: 2767224438 heartbeat IPC: 0.10485 cumulative IPC: 0.10481 (Simulation time: 0 hr 39 min 31 sec) 
Heartbeat CPU  0 instructions:  379000001 cycles: 2776864810 heartbeat IPC: 0.10373 cumulative IPC: 0.10480 (Simulation time: 0 hr 39 min 38 sec) 
Heartbeat CPU  0 instructions:  380000000 cycles: 2786352715 heartbeat IPC: 0.10540 cumulative IPC: 0.10480 (Simulation time: 0 hr 39 min 45 sec) 
Heartbeat CPU  0 instructions:  381000000 cycles: 2795867914 heartbeat IPC: 0.10510 cumulative IPC: 0.10481 (Simulation time: 0 hr 39 min 52 sec) 
Heartbeat CPU  0 instructions:  382000000 cycles: 2805325209 heartbeat IPC: 0.10574 cumulative IPC: 0.10481 (Simulation time: 0 hr 39 min 59 sec) 
Heartbeat CPU  0 instructions:  383000001 cycles: 2814857643 heartbeat IPC: 0.10491 cumulative IPC: 0.10481 (Simulation time: 0 hr 40 min 6 sec) 
Heartbeat CPU  0 instructions:  384000000 cycles: 2824327054 heartbeat IPC: 0.10560 cumulative IPC: 0.10481 (Simulation time: 0 hr 40 min 14 sec) 
Heartbeat CPU  0 instructions:  385000002 cycles: 2833948524 heartbeat IPC: 0.10393 cumulative IPC: 0.10481 (Simulation time: 0 hr 40 min 21 sec) 
Heartbeat CPU  0 instructions:  386000000 cycles: 2843624641 heartbeat IPC: 0.10335 cumulative IPC: 0.10480 (Simulation time: 0 hr 40 min 28 sec) 
Heartbeat CPU  0 instructions:  387000000 cycles: 2853191873 heartbeat IPC: 0.10452 cumulative IPC: 0.10480 (Simulation time: 0 hr 40 min 35 sec) 
Heartbeat CPU  0 instructions:  388000000 cycles: 2862785517 heartbeat IPC: 0.10424 cumulative IPC: 0.10480 (Simulation time: 0 hr 40 min 42 sec) 
Heartbeat CPU  0 instructions:  389000000 cycles: 2872353472 heartbeat IPC: 0.10452 cumulative IPC: 0.10480 (Simulation time: 0 hr 40 min 49 sec) 
Heartbeat CPU  0 instructions:  390000000 cycles: 2881865554 heartbeat IPC: 0.10513 cumulative IPC: 0.10480 (Simulation time: 0 hr 40 min 56 sec) 
Heartbeat CPU  0 instructions:  391000000 cycles: 2891550294 heartbeat IPC: 0.10326 cumulative IPC: 0.10480 (Simulation time: 0 hr 41 min 4 sec) 
Heartbeat CPU  0 instructions:  392000000 cycles: 2901235104 heartbeat IPC: 0.10325 cumulative IPC: 0.10479 (Simulation time: 0 hr 41 min 11 sec) 
Heartbeat CPU  0 instructions:  393000000 cycles: 2910841053 heartbeat IPC: 0.10410 cumulative IPC: 0.10479 (Simulation time: 0 hr 41 min 18 sec) 
Heartbeat CPU  0 instructions:  394000001 cycles: 2920324423 heartbeat IPC: 0.10545 cumulative IPC: 0.10479 (Simulation time: 0 hr 41 min 25 sec) 
Heartbeat CPU  0 instructions:  395000003 cycles: 2929814464 heartbeat IPC: 0.10537 cumulative IPC: 0.10479 (Simulation time: 0 hr 41 min 32 sec) 
Heartbeat CPU  0 instructions:  396000000 cycles: 2939210460 heartbeat IPC: 0.10643 cumulative IPC: 0.10480 (Simulation time: 0 hr 41 min 39 sec) 
Heartbeat CPU  0 instructions:  397000002 cycles: 2948789771 heartbeat IPC: 0.10439 cumulative IPC: 0.10480 (Simulation time: 0 hr 41 min 46 sec) 
Heartbeat CPU  0 instructions:  398000001 cycles: 2958269672 heartbeat IPC: 0.10549 cumulative IPC: 0.10480 (Simulation time: 0 hr 41 min 53 sec) 
Heartbeat CPU  0 instructions:  399000002 cycles: 2967864843 heartbeat IPC: 0.10422 cumulative IPC: 0.10480 (Simulation time: 0 hr 42 min 0 sec) 
Heartbeat CPU  0 instructions:  400000000 cycles: 2977367769 heartbeat IPC: 0.10523 cumulative IPC: 0.10480 (Simulation time: 0 hr 42 min 8 sec) 
Heartbeat CPU  0 instructions:  401000001 cycles: 2986767800 heartbeat IPC: 0.10638 cumulative IPC: 0.10480 (Simulation time: 0 hr 42 min 15 sec) 
Heartbeat CPU  0 instructions:  402000000 cycles: 2996187300 heartbeat IPC: 0.10616 cumulative IPC: 0.10481 (Simulation time: 0 hr 42 min 22 sec) 
Heartbeat CPU  0 instructions:  403000001 cycles: 3005499582 heartbeat IPC: 0.10739 cumulative IPC: 0.10482 (Simulation time: 0 hr 42 min 29 sec) 
Heartbeat CPU  0 instructions:  404000000 cycles: 3014949140 heartbeat IPC: 0.10582 cumulative IPC: 0.10482 (Simulation time: 0 hr 42 min 36 sec) 
Heartbeat CPU  0 instructions:  405000003 cycles: 3024388636 heartbeat IPC: 0.10594 cumulative IPC: 0.10482 (Simulation time: 0 hr 42 min 43 sec) 
Heartbeat CPU  0 instructions:  406000003 cycles: 3033753090 heartbeat IPC: 0.10679 cumulative IPC: 0.10483 (Simulation time: 0 hr 42 min 50 sec) 
Heartbeat CPU  0 instructions:  407000001 cycles: 3043143535 heartbeat IPC: 0.10649 cumulative IPC: 0.10483 (Simulation time: 0 hr 42 min 57 sec) 
Heartbeat CPU  0 instructions:  408000000 cycles: 3052670963 heartbeat IPC: 0.10496 cumulative IPC: 0.10483 (Simulation time: 0 hr 43 min 4 sec) 
Heartbeat CPU  0 instructions:  409000000 cycles: 3062047936 heartbeat IPC: 0.10664 cumulative IPC: 0.10484 (Simulation time: 0 hr 43 min 11 sec) 
Heartbeat CPU  0 instructions:  410000001 cycles: 3071270436 heartbeat IPC: 0.10843 cumulative IPC: 0.10485 (Simulation time: 0 hr 43 min 18 sec) 
Heartbeat CPU  0 instructions:  411000000 cycles: 3080570493 heartbeat IPC: 0.10753 cumulative IPC: 0.10486 (Simulation time: 0 hr 43 min 26 sec) 
Heartbeat CPU  0 instructions:  412000000 cycles: 3089772908 heartbeat IPC: 0.10867 cumulative IPC: 0.10487 (Simulation time: 0 hr 43 min 33 sec) 
Heartbeat CPU  0 instructions:  413000003 cycles: 3099181354 heartbeat IPC: 0.10629 cumulative IPC: 0.10488 (Simulation time: 0 hr 43 min 40 sec) 
Heartbeat CPU  0 instructions:  414000000 cycles: 3108442127 heartbeat IPC: 0.10798 cumulative IPC: 0.10489 (Simulation time: 0 hr 43 min 47 sec) 
Heartbeat CPU  0 instructions:  415000001 cycles: 3117698341 heartbeat IPC: 0.10804 cumulative IPC: 0.10490 (Simulation time: 0 hr 43 min 54 sec) 
Heartbeat CPU  0 instructions:  416000000 cycles: 3126969221 heartbeat IPC: 0.10786 cumulative IPC: 0.10490 (Simulation time: 0 hr 44 min 2 sec) 
Heartbeat CPU  0 instructions:  417000001 cycles: 3136295311 heartbeat IPC: 0.10723 cumulative IPC: 0.10491 (Simulation time: 0 hr 44 min 9 sec) 
Heartbeat CPU  0 instructions:  418000002 cycles: 3145722495 heartbeat IPC: 0.10608 cumulative IPC: 0.10492 (Simulation time: 0 hr 44 min 17 sec) 
Heartbeat CPU  0 instructions:  419000000 cycles: 3155154082 heartbeat IPC: 0.10603 cumulative IPC: 0.10492 (Simulation time: 0 hr 44 min 24 sec) 
Heartbeat CPU  0 instructions:  420000000 cycles: 3164598694 heartbeat IPC: 0.10588 cumulative IPC: 0.10492 (Simulation time: 0 hr 44 min 32 sec) 
Heartbeat CPU  0 instructions:  421000001 cycles: 3173941835 heartbeat IPC: 0.10703 cumulative IPC: 0.10493 (Simulation time: 0 hr 44 min 39 sec) 
Heartbeat CPU  0 instructions:  422000001 cycles: 3183415303 heartbeat IPC: 0.10556 cumulative IPC: 0.10493 (Simulation time: 0 hr 44 min 47 sec) 
Heartbeat CPU  0 instructions:  423000000 cycles: 3193038462 heartbeat IPC: 0.10392 cumulative IPC: 0.10493 (Simulation time: 0 hr 44 min 55 sec) 
Heartbeat CPU  0 instructions:  424000000 cycles: 3202566045 heartbeat IPC: 0.10496 cumulative IPC: 0.10493 (Simulation time: 0 hr 45 min 3 sec) 
Heartbeat CPU  0 instructions:  425000000 cycles: 3212059988 heartbeat IPC: 0.10533 cumulative IPC: 0.10493 (Simulation time: 0 hr 45 min 10 sec) 
Heartbeat CPU  0 instructions:  426000001 cycles: 3221455007 heartbeat IPC: 0.10644 cumulative IPC: 0.10493 (Simulation time: 0 hr 45 min 18 sec) 
Heartbeat CPU  0 instructions:  427000000 cycles: 3230910381 heartbeat IPC: 0.10576 cumulative IPC: 0.10494 (Simulation time: 0 hr 45 min 26 sec) 
Heartbeat CPU  0 instructions:  428000000 cycles: 3240335725 heartbeat IPC: 0.10610 cumulative IPC: 0.10494 (Simulation time: 0 hr 45 min 34 sec) 
Heartbeat CPU  0 instructions:  429000000 cycles: 3249710891 heartbeat IPC: 0.10666 cumulative IPC: 0.10494 (Simulation time: 0 hr 45 min 41 sec) 
Heartbeat CPU  0 instructions:  430000000 cycles: 3259204411 heartbeat IPC: 0.10534 cumulative IPC: 0.10495 (Simulation time: 0 hr 45 min 49 sec) 
Heartbeat CPU  0 instructions:  431000001 cycles: 3268593277 heartbeat IPC: 0.10651 cumulative IPC: 0.10495 (Simulation time: 0 hr 45 min 56 sec) 
Heartbeat CPU  0 instructions:  432000000 cycles: 3278015726 heartbeat IPC: 0.10613 cumulative IPC: 0.10495 (Simulation time: 0 hr 46 min 4 sec) 
Heartbeat CPU  0 instructions:  433000000 cycles: 3287504575 heartbeat IPC: 0.10539 cumulative IPC: 0.10496 (Simulation time: 0 hr 46 min 12 sec) 
Heartbeat CPU  0 instructions:  434000002 cycles: 3296927169 heartbeat IPC: 0.10613 cumulative IPC: 0.10496 (Simulation time: 0 hr 46 min 19 sec) 
Heartbeat CPU  0 instructions:  435000000 cycles: 3306377394 heartbeat IPC: 0.10582 cumulative IPC: 0.10496 (Simulation time: 0 hr 46 min 28 sec) 
Heartbeat CPU  0 instructions:  436000000 cycles: 3315853053 heartbeat IPC: 0.10553 cumulative IPC: 0.10496 (Simulation time: 0 hr 46 min 36 sec) 
Heartbeat CPU  0 instructions:  437000002 cycles: 3325160666 heartbeat IPC: 0.10744 cumulative IPC: 0.10497 (Simulation time: 0 hr 46 min 44 sec) 
Heartbeat CPU  0 instructions:  438000000 cycles: 3334485918 heartbeat IPC: 0.10724 cumulative IPC: 0.10498 (Simulation time: 0 hr 46 min 51 sec) 
Heartbeat CPU  0 instructions:  439000000 cycles: 3343905565 heartbeat IPC: 0.10616 cumulative IPC: 0.10498 (Simulation time: 0 hr 46 min 59 sec) 
Heartbeat CPU  0 instructions:  440000000 cycles: 3353397884 heartbeat IPC: 0.10535 cumulative IPC: 0.10498 (Simulation time: 0 hr 47 min 6 sec) 
Heartbeat CPU  0 instructions:  441000000 cycles: 3362932374 heartbeat IPC: 0.10488 cumulative IPC: 0.10498 (Simulation time: 0 hr 47 min 14 sec) 
Heartbeat CPU  0 instructions:  442000000 cycles: 3372518022 heartbeat IPC: 0.10432 cumulative IPC: 0.10498 (Simulation time: 0 hr 47 min 22 sec) 
Heartbeat CPU  0 instructions:  443000003 cycles: 3382061580 heartbeat IPC: 0.10478 cumulative IPC: 0.10498 (Simulation time: 0 hr 47 min 30 sec) 
Heartbeat CPU  0 instructions:  444000000 cycles: 3391580659 heartbeat IPC: 0.10505 cumulative IPC: 0.10498 (Simulation time: 0 hr 47 min 38 sec) 
Heartbeat CPU  0 instructions:  445000003 cycles: 3401204948 heartbeat IPC: 0.10390 cumulative IPC: 0.10498 (Simulation time: 0 hr 47 min 45 sec) 
Heartbeat CPU  0 instructions:  446000000 cycles: 3410957764 heartbeat IPC: 0.10253 cumulative IPC: 0.10497 (Simulation time: 0 hr 47 min 53 sec) 
Heartbeat CPU  0 instructions:  447000000 cycles: 3420733103 heartbeat IPC: 0.10230 cumulative IPC: 0.10496 (Simulation time: 0 hr 47 min 59 sec) 
Heartbeat CPU  0 instructions:  448000000 cycles: 3430390720 heartbeat IPC: 0.10355 cumulative IPC: 0.10496 (Simulation time: 0 hr 48 min 5 sec) 
Heartbeat CPU  0 instructions:  449000003 cycles: 3440165616 heartbeat IPC: 0.10230 cumulative IPC: 0.10495 (Simulation time: 0 hr 48 min 11 sec) 
Heartbeat CPU  0 instructions:  450000002 cycles: 3449744592 heartbeat IPC: 0.10440 cumulative IPC: 0.10495 (Simulation time: 0 hr 48 min 17 sec) 
Heartbeat CPU  0 instructions:  451000002 cycles: 3459333881 heartbeat IPC: 0.10428 cumulative IPC: 0.10494 (Simulation time: 0 hr 48 min 23 sec) 
Heartbeat CPU  0 instructions:  452000000 cycles: 3468918049 heartbeat IPC: 0.10434 cumulative IPC: 0.10494 (Simulation time: 0 hr 48 min 29 sec) 
Heartbeat CPU  0 instructions:  453000002 cycles: 3478566309 heartbeat IPC: 0.10365 cumulative IPC: 0.10494 (Simulation time: 0 hr 48 min 35 sec) 
Heartbeat CPU  0 instructions:  454000000 cycles: 3488223044 heartbeat IPC: 0.10355 cumulative IPC: 0.10494 (Simulation time: 0 hr 48 min 41 sec) 
Heartbeat CPU  0 instructions:  455000000 cycles: 3497933858 heartbeat IPC: 0.10298 cumulative IPC: 0.10493 (Simulation time: 0 hr 48 min 46 sec) 
Heartbeat CPU  0 instructions:  456000000 cycles: 3507536389 heartbeat IPC: 0.10414 cumulative IPC: 0.10493 (Simulation time: 0 hr 48 min 52 sec) 
Heartbeat CPU  0 instructions:  457000000 cycles: 3517112168 heartbeat IPC: 0.10443 cumulative IPC: 0.10493 (Simulation time: 0 hr 48 min 58 sec) 
Heartbeat CPU  0 instructions:  458000000 cycles: 3526780279 heartbeat IPC: 0.10343 cumulative IPC: 0.10492 (Simulation time: 0 hr 49 min 4 sec) 
Heartbeat CPU  0 instructions:  459000000 cycles: 3536368732 heartbeat IPC: 0.10429 cumulative IPC: 0.10492 (Simulation time: 0 hr 49 min 10 sec) 
Heartbeat CPU  0 instructions:  460000000 cycles: 3545883878 heartbeat IPC: 0.10510 cumulative IPC: 0.10492 (Simulation time: 0 hr 49 min 16 sec) 
Heartbeat CPU  0 instructions:  461000000 cycles: 3555442113 heartbeat IPC: 0.10462 cumulative IPC: 0.10492 (Simulation time: 0 hr 49 min 22 sec) 
Heartbeat CPU  0 instructions:  462000000 cycles: 3564998520 heartbeat IPC: 0.10464 cumulative IPC: 0.10492 (Simulation time: 0 hr 49 min 28 sec) 
Heartbeat CPU  0 instructions:  463000001 cycles: 3574466271 heartbeat IPC: 0.10562 cumulative IPC: 0.10492 (Simulation time: 0 hr 49 min 33 sec) 
Heartbeat CPU  0 instructions:  464000000 cycles: 3583996432 heartbeat IPC: 0.10493 cumulative IPC: 0.10492 (Simulation time: 0 hr 49 min 39 sec) 
Heartbeat CPU  0 instructions:  465000000 cycles: 3593622073 heartbeat IPC: 0.10389 cumulative IPC: 0.10492 (Simulation time: 0 hr 49 min 45 sec) 
Heartbeat CPU  0 instructions:  466000000 cycles: 3603253054 heartbeat IPC: 0.10383 cumulative IPC: 0.10492 (Simulation time: 0 hr 49 min 51 sec) 
Heartbeat CPU  0 instructions:  467000000 cycles: 3612805007 heartbeat IPC: 0.10469 cumulative IPC: 0.10491 (Simulation time: 0 hr 49 min 57 sec) 
Heartbeat CPU  0 instructions:  468000000 cycles: 3622333970 heartbeat IPC: 0.10494 cumulative IPC: 0.10491 (Simulation time: 0 hr 50 min 3 sec) 
Heartbeat CPU  0 instructions:  469000000 cycles: 3631745192 heartbeat IPC: 0.10626 cumulative IPC: 0.10492 (Simulation time: 0 hr 50 min 9 sec) 
Heartbeat CPU  0 instructions:  470000000 cycles: 3641226012 heartbeat IPC: 0.10548 cumulative IPC: 0.10492 (Simulation time: 0 hr 50 min 15 sec) 
Heartbeat CPU  0 instructions:  471000000 cycles: 3650729724 heartbeat IPC: 0.10522 cumulative IPC: 0.10492 (Simulation time: 0 hr 50 min 21 sec) 
Heartbeat CPU  0 instructions:  472000000 cycles: 3660016896 heartbeat IPC: 0.10768 cumulative IPC: 0.10493 (Simulation time: 0 hr 50 min 26 sec) 
Heartbeat CPU  0 instructions:  473000000 cycles: 3669464396 heartbeat IPC: 0.10585 cumulative IPC: 0.10493 (Simulation time: 0 hr 50 min 32 sec) 
Heartbeat CPU  0 instructions:  474000000 cycles: 3679141393 heartbeat IPC: 0.10334 cumulative IPC: 0.10493 (Simulation time: 0 hr 50 min 38 sec) 
Heartbeat CPU  0 instructions:  475000001 cycles: 3688585148 heartbeat IPC: 0.10589 cumulative IPC: 0.10493 (Simulation time: 0 hr 50 min 44 sec) 
Heartbeat CPU  0 instructions:  476000000 cycles: 3698117234 heartbeat IPC: 0.10491 cumulative IPC: 0.10493 (Simulation time: 0 hr 50 min 50 sec) 
Heartbeat CPU  0 instructions:  477000000 cycles: 3707684102 heartbeat IPC: 0.10453 cumulative IPC: 0.10493 (Simulation time: 0 hr 50 min 56 sec) 
Heartbeat CPU  0 instructions:  478000001 cycles: 3717272999 heartbeat IPC: 0.10429 cumulative IPC: 0.10493 (Simulation time: 0 hr 51 min 2 sec) 
Heartbeat CPU  0 instructions:  479000003 cycles: 3726869390 heartbeat IPC: 0.10421 cumulative IPC: 0.10492 (Simulation time: 0 hr 51 min 7 sec) 
Heartbeat CPU  0 instructions:  480000000 cycles: 3736613333 heartbeat IPC: 0.10263 cumulative IPC: 0.10492 (Simulation time: 0 hr 51 min 13 sec) 
Heartbeat CPU  0 instructions:  481000000 cycles: 3746314142 heartbeat IPC: 0.10308 cumulative IPC: 0.10491 (Simulation time: 0 hr 51 min 19 sec) 
Heartbeat CPU  0 instructions:  482000000 cycles: 3755864946 heartbeat IPC: 0.10470 cumulative IPC: 0.10491 (Simulation time: 0 hr 51 min 25 sec) 
Heartbeat CPU  0 instructions:  483000000 cycles: 3765379504 heartbeat IPC: 0.10510 cumulative IPC: 0.10491 (Simulation time: 0 hr 51 min 31 sec) 
Heartbeat CPU  0 instructions:  484000000 cycles: 3774983950 heartbeat IPC: 0.10412 cumulative IPC: 0.10491 (Simulation time: 0 hr 51 min 37 sec) 
Heartbeat CPU  0 instructions:  485000000 cycles: 3784664643 heartbeat IPC: 0.10330 cumulative IPC: 0.10491 (Simulation time: 0 hr 51 min 43 sec) 
Heartbeat CPU  0 instructions:  486000002 cycles: 3794325825 heartbeat IPC: 0.10351 cumulative IPC: 0.10490 (Simulation time: 0 hr 51 min 49 sec) 
Heartbeat CPU  0 instructions:  487000000 cycles: 3803966491 heartbeat IPC: 0.10373 cumulative IPC: 0.10490 (Simulation time: 0 hr 51 min 54 sec) 
Heartbeat CPU  0 instructions:  488000000 cycles: 3813460840 heartbeat IPC: 0.10533 cumulative IPC: 0.10490 (Simulation time: 0 hr 52 min 0 sec) 
Heartbeat CPU  0 instructions:  489000000 cycles: 3823020554 heartbeat IPC: 0.10461 cumulative IPC: 0.10490 (Simulation time: 0 hr 52 min 6 sec) 
Heartbeat CPU  0 instructions:  490000000 cycles: 3832572852 heartbeat IPC: 0.10469 cumulative IPC: 0.10490 (Simulation time: 0 hr 52 min 12 sec) 
Heartbeat CPU  0 instructions:  491000000 cycles: 3842040457 heartbeat IPC: 0.10562 cumulative IPC: 0.10490 (Simulation time: 0 hr 52 min 18 sec) 
Heartbeat CPU  0 instructions:  492000000 cycles: 3851621464 heartbeat IPC: 0.10437 cumulative IPC: 0.10490 (Simulation time: 0 hr 52 min 24 sec) 
Heartbeat CPU  0 instructions:  493000001 cycles: 3861262993 heartbeat IPC: 0.10372 cumulative IPC: 0.10490 (Simulation time: 0 hr 52 min 30 sec) 
Heartbeat CPU  0 instructions:  494000001 cycles: 3870913578 heartbeat IPC: 0.10362 cumulative IPC: 0.10489 (Simulation time: 0 hr 52 min 36 sec) 
Heartbeat CPU  0 instructions:  495000002 cycles: 3880630861 heartbeat IPC: 0.10291 cumulative IPC: 0.10489 (Simulation time: 0 hr 52 min 41 sec) 
Heartbeat CPU  0 instructions:  496000000 cycles: 3890187161 heartbeat IPC: 0.10464 cumulative IPC: 0.10489 (Simulation time: 0 hr 52 min 47 sec) 
Heartbeat CPU  0 instructions:  497000001 cycles: 3899549135 heartbeat IPC: 0.10682 cumulative IPC: 0.10489 (Simulation time: 0 hr 52 min 53 sec) 
Heartbeat CPU  0 instructions:  498000000 cycles: 3909044626 heartbeat IPC: 0.10531 cumulative IPC: 0.10489 (Simulation time: 0 hr 52 min 59 sec) 
Heartbeat CPU  0 instructions:  499000003 cycles: 3918311687 heartbeat IPC: 0.10791 cumulative IPC: 0.10490 (Simulation time: 0 hr 53 min 5 sec) 
Heartbeat CPU  0 instructions:  500000000 cycles: 3927810680 heartbeat IPC: 0.10527 cumulative IPC: 0.10490 (Simulation time: 0 hr 53 min 11 sec) 
Heartbeat CPU  0 instructions:  501000000 cycles: 3937382536 heartbeat IPC: 0.10447 cumulative IPC: 0.10490 (Simulation time: 0 hr 53 min 17 sec) 
Heartbeat CPU  0 instructions:  502000001 cycles: 3947089848 heartbeat IPC: 0.10302 cumulative IPC: 0.10490 (Simulation time: 0 hr 53 min 23 sec) 
Heartbeat CPU  0 instructions:  503000003 cycles: 3956505235 heartbeat IPC: 0.10621 cumulative IPC: 0.10490 (Simulation time: 0 hr 53 min 28 sec) 
Heartbeat CPU  0 instructions:  504000000 cycles: 3966019521 heartbeat IPC: 0.10510 cumulative IPC: 0.10490 (Simulation time: 0 hr 53 min 34 sec) 
Heartbeat CPU  0 instructions:  505000001 cycles: 3975405266 heartbeat IPC: 0.10654 cumulative IPC: 0.10490 (Simulation time: 0 hr 53 min 40 sec) 
Heartbeat CPU  0 instructions:  506000003 cycles: 3984838114 heartbeat IPC: 0.10601 cumulative IPC: 0.10491 (Simulation time: 0 hr 53 min 46 sec) 
Heartbeat CPU  0 instructions:  507000000 cycles: 3994257205 heartbeat IPC: 0.10617 cumulative IPC: 0.10491 (Simulation time: 0 hr 53 min 52 sec) 
Heartbeat CPU  0 instructions:  508000000 cycles: 4003698704 heartbeat IPC: 0.10592 cumulative IPC: 0.10491 (Simulation time: 0 hr 53 min 58 sec) 
Heartbeat CPU  0 instructions:  509000001 cycles: 4013095919 heartbeat IPC: 0.10641 cumulative IPC: 0.10492 (Simulation time: 0 hr 54 min 3 sec) 
Heartbeat CPU  0 instructions:  510000001 cycles: 4022622029 heartbeat IPC: 0.10497 cumulative IPC: 0.10492 (Simulation time: 0 hr 54 min 9 sec) 
Heartbeat CPU  0 instructions:  511000003 cycles: 4031964738 heartbeat IPC: 0.10704 cumulative IPC: 0.10492 (Simulation time: 0 hr 54 min 15 sec) 
[...]
scooby_state_4005e1|2|-58 1,0,0,0,0,0,0,0,0,0,0,0,0,0,0,1,
scooby_state_40061c|18|4 1,0,0,0,0,0,0,0,0,0,0,0,0,0,0,1,
scooby_state_401d77|31|-29 0,0,0,0,0,0,0,0,0,0,0,1,0,0,0,1,
scooby_state_4005f2|11|-16 1,0,0,0,0,0,0,0,0,0,0,0,0,0,0,1,
scooby_state_40061c|21|-10 0,0,0,0,0,0,0,0,0,0,0,1,0,0,0,1,
scooby_state_4005ef|38|11 0,0,0,1,0,0,0,0,0,0,0,0,0,0,0,1,
scooby_state_4005ef|26|-12 0,0,0,0,0,0,0,0,0,0,0,0,0,0,1,1,
scooby_state_4005ef|45|17 0,0,0,0,0,0,0,0,0,0,0,0,0,0,1,1,
scooby_state_40061c|48|13 1,0,0,0,0,0,0,0,0,0,0,0,0,0,0,1,
scooby_state_4005ef|57|16 0,0,0,0,0,0,0,0,0,0,0,0,0,0,1,1,
scooby_state_4005f2|31|7 1,0,0,0,0,0,0,0,0,0,0,0,0,0,0,1,
scooby_state_4005f2|30|17 1,0,0,0,0,0,0,0,0,0,0,0,0,0,0,1,
scooby_state_401c5c|3|-50 1,0,0,0,0,0,0,0,0,0,0,0,0,0,0,1,
scooby_state_40061c|24|23 1,0,0,0,0,0,0,0,0,0,0,0,0,0,0,1,
scooby_state_4005f2|21|5 1,0,0,0,0,0,0,0,0,0,0,0,0,0,0,1,
scooby_state_401b28|2|-42 0,0,0,0,0,0,0,0,0,0,0,0,0,1,0,1,
scooby_state_4005eb|0|-39 0,1,0,0,0,0,0,0,0,0,0,0,0,0,0,1,
scooby_state_4005f2|2|-60 1,0,0,0,0,0,0,0,0,0,0,0,0,0,0,1,
scooby_state_40061c|55|32 0,0,0,0,0,0,0,0,0,0,0,0,0,0,1,1,
scooby_state_4005f2|41|-15 1,0,0,0,0,0,0,0,0,0,0,0,0,0,0,1,
scooby_state_401f5e|59|25 1,0,0,0,0,0,0,0,0,0,0,0,0,0,0,1,
scooby_state_4005cf|16|14 1,0,0,0,0,0,0,0,0,0,0,0,0,0,0,1,
scooby_state_4005ef|52|6 0,0,0,0,0,0,0,0,0,0,0,0,0,1,0,1,
scooby_state_401d7b|26|-10 0,0,0,0,0,0,0,0,0,0,0,1,0,0,0,1,
scooby_state_40061c|42|8 1,0,0,0,0,0,0,0,0,0,0,0,0,0,0,1,
scooby_state_4005ef|17|4 0,0,0,1,0,0,0,0,0,0,0,0,0,0,0,1,
scooby_state_4005f2|58|32 1,0,0,0,0,0,0,0,0,0,0,0,0,0,0,1,
scooby_state_40061c|56|18 1,0,0,0,0,0,0,0,0,0,0,0,0,0,0,1,
scooby_state_4005cf|31|6 0,0,0,0,0,0,1,0,0,0,0,0,0,0,0,1,
scooby_state_4005ef|10|-43 0,0,0,0,0,0,0,0,0,0,1,0,0,0,0,1,
scooby_state_40061c|16|-15 1,0,0,0,0,0,0,0,0,0,0,0,0,0,0,1,
scooby_state_4005cf|24|-21 0,0,0,0,1,0,0,0,0,0,0,0,0,0,0,1,
scooby_state_4005ef|40|4 0,0,0,0,0,0,0,0,0,0,1,0,0,0,0,1,
scooby_state_4005f2|63|27 0,0,0,0,0,0,0,0,0,0,0,0,1,0,0,1,
scooby_state_4005ef|37|16 0,0,0,1,0,0,0,0,0,0,0,0,0,0,0,1,
scooby_state_40061c|23|-36 1,0,0,0,0,0,0,0,0,0,0,0,0,0,0,1,
scooby_state_401c7c|8|2 1,0,0,0,0,0,0,0,0,0,0,0,0,0,0,1,
scooby_state_40061c|36|36 0,0,0,0,0,0,0,0,0,0,0,1,0,0,0,1,
scooby_state_4005ef|35|17 0,0,0,1,0,0,0,0,0,0,0,0,0,0,0,1,
scooby_state_40061c|45|13 1,0,0,0,0,0,0,0,0,0,0,0,0,0,0,1,
scooby_state_402146|15|-37 0,0,0,0,0,0,0,1,0,0,0,0,0,0,0,1,
scooby_state_4005e1|20|-8 1,0,0,0,0,0,0,0,0,0,0,0,0,0,0,1,
scooby_state_40061c|62|21 1,0,0,0,0,0,0,0,0,0,0,0,0,0,0,1,
scooby_state_4005cf|31|3 0,0,0,0,0,0,0,0,0,0,0,0,0,0,1,1,
scooby_state_401c78|56|52 0,0,0,0,0,0,0,0,0,1,0,0,0,0,0,1,
scooby_state_402146|14|-20 1,0,0,0,0,0,0,0,0,0,0,0,0,0,0,1,
scooby_state_4005f2|40|38 1,0,0,0,0,0,0,0,0,0,0,0,0,0,0,1,
scooby_state_4005cf|47|-15 1,0,0,0,0,0,0,0,0,0,0,0,0,0,0,1,
scooby_state_4005e1|47|25 1,0,0,0,0,0,0,0,0,0,0,0,0,0,0,1,
scooby_state_4005ef|19|18 1,0,0,0,0,0,0,0,0,0,0,0,0,0,0,1,
scooby_state_4005f2|48|9 0,0,0,0,0,1,0,0,0,0,0,0,0,0,0,1,
scooby_state_4005f2|54|7 1,0,0,0,0,0,0,0,0,0,0,0,0,0,0,1,
scooby_state_4005e1|13|-45 1,0,0,0,0,0,0,0,0,0,0,0,0,0,0,1,
scooby_state_4005e1|11|-49 1,0,0,0,0,0,0,0,0,0,0,0,0,0,0,1,
scooby_state_401c78|48|25 0,0,0,0,0,0,0,0,0,0,0,1,0,0,0,1,
scooby_state_4005ef|35|-13 1,0,0,0,0,0,0,0,0,0,0,0,0,0,0,1,
scooby_state_4005f2|12|-12 0,0,0,0,0,0,0,0,0,1,0,0,0,0,0,1,
scooby_state_401c58|34|4 0,0,0,0,0,0,0,0,0,0,0,1,0,0,0,1,
scooby_state_40061c|40|36 0,0,0,0,0,0,0,1,0,0,0,0,0,0,0,1,
scooby_state_401f9e|50|0 0,0,0,0,0,0,0,1,0,0,0,0,0,0,0,1,
scooby_state_4005f2|11|1 1,0,0,0,0,0,0,0,0,0,0,0,0,0,0,1,
scooby_state_4005f2|33|-18 1,0,0,0,0,0,0,0,0,0,0,0,0,0,0,1,
scooby_state_4005f2|56|32 1,0,0,0,0,0,0,0,0,0,0,0,0,0,0,1,
scooby_state_4005f2|62|28 1,0,0,0,0,0,0,0,0,0,0,0,0,0,0,1,
scooby_state_40061c|49|-12 1,0,0,0,0,0,0,0,0,0,0,0,0,0,0,1,
scooby_state_4005e1|24|2 1,0,0,0,0,0,0,0,0,0,0,0,0,0,0,1,
scooby_state_4005f2|46|6 1,0,0,0,0,0,0,0,0,0,0,0,0,0,0,1,
scooby_state_4005cf|40|-4 1,0,0,0,0,0,0,0,0,0,0,0,0,0,0,1,
scooby_state_40061c|26|-8 0,1,0,0,0,0,0,0,0,0,0,0,0,0,0,1,
scooby_state_4005f2|61|42 0,0,0,0,0,1,0,0,0,0,0,0,0,0,0,1,
scooby_state_4005e1|23|-9 1,0,0,0,0,0,0,0,0,0,0,0,0,0,0,1,
scooby_state_40221a|14|-41 1,0,0,0,0,0,0,0,0,0,0,0,0,0,0,1,
scooby_state_4005f2|51|38 1,0,0,0,0,0,0,0,0,0,0,0,0,0,0,1,
scooby_state_4005f2|58|15 1,0,0,0,0,0,0,0,0,0,0,0,0,0,0,1,
scooby_state_4005f2|40|29 1,0,0,0,0,0,0,0,0,0,0,0,0,0,0,1,
scooby_state_4005f2|62|45 1,0,0,0,0,0,0,0,0,0,0,0,0,0,0,1,
scooby_state_401c78|51|15 0,0,0,0,0,0,0,0,0,0,0,1,0,0,0,1,
scooby_state_401d7b|55|3 0,0,0,0,0,0,0,0,0,0,0,1,0,0,0,1,
scooby_state_4005f2|27|-22 0,0,0,0,0,0,0,0,1,0,0,0,0,0,0,1,
scooby_state_4005f2|40|21 1,0,0,0,0,0,0,0,0,0,0,0,0,0,0,1,
scooby_state_4005f2|7|-23 1,0,0,0,0,0,0,0,0,0,0,0,0,0,0,1,
scooby_state_4005e1|22|-13 1,0,0,0,0,0,0,0,0,0,0,0,0,0,0,1,
scooby_state_4005ef|4|-12 1,0,0,0,0,0,0,0,0,0,0,0,0,0,0,1,
scooby_state_4005f2|30|-19 1,0,0,0,0,0,0,0,0,0,0,0,0,0,0,1,
scooby_state_4005e1|35|15 1,0,0,0,0,0,0,0,0,0,0,0,0,0,0,1,
scooby_state_40061c|25|-35 0,0,0,0,0,0,0,0,0,0,0,1,0,0,0,1,
scooby_state_4005f2|2|-36 1,0,0,0,0,0,0,0,0,0,0,0,0,0,0,1,
scooby_state_4005cf|20|-32 1,0,0,0,0,0,0,0,0,0,0,0,0,0,0,1,
scooby_state_4005cf|31|7 1,0,0,0,0,0,0,0,0,0,0,0,0,0,0,1,
scooby_state_4005f2|49|8 1,0,0,0,0,0,0,0,0,0,0,0,0,0,0,1,
scooby_state_4005f2|28|-24 1,0,0,0,0,0,0,0,0,0,0,0,0,0,0,1,
scooby_state_40061c|9|-54 1,0,0,0,0,0,0,0,0,0,0,0,0,0,0,1,
scooby_state_4005ef|46|-7 1,0,0,0,0,0,0,0,0,0,0,0,0,0,0,1,
scooby_state_4005cf|41|3 1,0,0,0,0,0,0,0,0,0,0,0,0,0,0,1,
scooby_state_40221a|24|-18 0,0,0,0,0,0,0,1,0,0,0,0,0,0,0,1,
scooby_state_4005f2|53|9 0,0,0,1,0,0,0,0,0,0,0,0,0,0,0,1,
scooby_state_401c7c|15|-22 1,0,0,0,0,0,0,0,0,0,0,0,0,0,0,1,
scooby_state_40061c|18|10 0,0,0,1,0,0,0,0,0,0,0,0,0,0,0,1,
scooby_state_4005cf|7|3 0,0,0,1,0,0,0,0,0,0,0,0,0,0,0,1,
scooby_state_4005ef|28|27 1,0,0,0,0,0,0,0,0,0,0,0,0,0,0,1,
scooby_state_40061c|60|37 0,0,0,0,0,0,0,0,0,0,0,1,0,0,0,1,
scooby_state_40061c|21|21 1,0,0,0,0,0,0,0,0,0,0,0,0,0,0,1,
scooby_state_400610|22|0 1,0,0,0,0,0,0,0,0,0,0,0,0,0,0,1,
scooby_state_4005f2|19|-15 1,0,0,0,0,0,0,0,0,0,0,0,0,0,0,1,
scooby_state_4005cf|24|-5 0,0,0,0,0,0,1,0,0,0,0,0,0,0,0,1,
scooby_state_4005c0|0|-45 0,0,0,0,0,0,0,0,0,0,0,0,1,0,0,1,
scooby_state_40061c|45|4 1,0,0,0,0,0,0,0,0,0,0,0,0,0,0,1,
scooby_state_40061c|26|22 0,0,1,0,0,0,0,0,0,0,0,0,0,0,0,1,
scooby_state_401e1d|20|-1 0,0,0,0,0,0,0,0,0,0,1,0,0,0,0,1,
scooby_state_4005e1|43|-10 1,0,0,0,0,0,0,0,0,0,0,0,0,0,0,1,
scooby_state_4005f2|32|24 1,0,0,0,0,0,0,0,0,0,0,0,0,0,0,1,
scooby_state_4005f2|16|-29 1,0,0,0,0,0,0,0,0,0,0,0,0,0,0,1,
scooby_state_4005ef|4|-8 1,0,0,0,0,0,0,0,0,0,0,0,0,0,0,1,
scooby_state_4005e1|1|-24 0,0,0,0,0,0,0,1,0,0,0,0,0,0,0,1,
scooby_state_4005f2|18|-23 1,0,0,0,0,0,0,0,0,0,0,0,0,0,0,1,
scooby_state_4005e1|2|-47 0,0,0,0,0,0,0,1,0,0,0,0,0,0,0,1,
scooby_state_4005f2|51|18 0,0,0,0,0,0,0,0,1,0,0,0,0,0,0,1,
scooby_state_4005f2|48|48 0,0,0,0,1,0,0,0,0,0,0,0,0,0,0,1,
scooby_state_40061c|57|15 0,0,0,0,0,0,0,0,0,0,0,1,0,0,0,1,
scooby_state_40061c|26|-2 0,0,0,0,0,0,0,0,0,0,0,1,0,0,0,1,
scooby_state_401de4|57|49 1,0,0,0,0,0,0,0,0,0,0,0,0,0,0,1,
scooby_state_401db4|60|56 1,0,0,0,0,0,0,0,0,0,0,0,0,0,0,1,
scooby_state_4005f2|37|-15 1,0,0,0,0,0,0,0,0,0,0,0,0,0,0,1,
scooby_state_40061c|20|-10 0,0,0,0,0,0,0,0,0,0,0,1,0,0,0,1,
scooby_state_4005f2|29|-25 0,0,0,0,0,0,0,1,0,0,0,0,0,0,0,1,
scooby_state_4005f2|42|14 1,0,0,0,0,0,0,0,0,0,0,0,0,0,0,1,
scooby_state_401c5c|20|0 0,0,0,0,0,0,0,0,0,0,0,0,0,0,1,1,
scooby_state_4005f2|24|-36 1,0,0,0,0,0,0,0,0,0,0,0,0,0,0,1,
scooby_state_4005e7|0|-49 0,0,0,0,0,0,0,0,0,0,0,0,1,0,0,1,
scooby_state_4005c4|0|-22 0,0,0,0,0,0,0,0,0,0,0,1,0,0,0,1,
scooby_state_4005c4|0|-1 0,0,0,0,0,0,0,0,0,0,0,0,0,0,1,1,
scooby_state_4005f2|2|-58 0,0,0,0,0,0,1,0,0,0,0,0,0,0,0,1,
scooby_state_4005f2|0|-58 0,0,0,0,0,0,1,0,0,0,0,0,0,0,0,1,
scooby_state_4005f2|21|-22 0,0,0,0,1,0,0,0,0,0,0,0,0,0,0,1,
scooby_state_4005ef|14|-23 0,0,0,0,0,1,0,0,0,0,0,0,0,0,0,1,
scooby_state_4005f2|44|35 0,0,0,0,0,0,0,0,0,0,0,1,0,0,0,1,
scooby_state_4005f2|20|10 1,0,0,0,0,0,0,0,0,0,0,0,0,0,0,1,
scooby_state_4005cf|44|-4 1,0,0,0,0,0,0,0,0,0,0,0,0,0,0,1,
scooby_state_40061c|1|-57 1,0,0,0,0,0,0,0,0,0,0,0,0,0,0,1,
scooby_state_4005f2|20|-34 1,0,0,0,0,0,0,0,0,0,0,0,0,0,0,1,
scooby_state_401d7b|8|-48 0,0,0,0,0,0,0,0,0,0,0,1,0,0,0,1,
scooby_state_401d7b|48|33 0,0,0,0,0,0,0,0,0,0,0,1,0,0,0,1,
scooby_state_4005f2|3|-55 1,0,0,0,0,0,0,0,0,0,0,0,0,0,0,1,
scooby_state_4005e1|47|-8 1,0,0,0,0,0,0,0,0,0,0,0,0,0,0,1,
scooby_state_401d77|36|3 0,0,0,0,0,0,0,0,0,0,0,1,0,0,0,1,
scooby_state_40061c|23|16 1,0,0,0,0,0,0,0,0,0,0,0,0,0,0,1,
scooby_state_4005ef|16|14 1,0,0,0,0,0,0,0,0,0,0,0,0,0,0,1,
scooby_state_4005eb|0|-9 0,0,0,0,0,0,0,0,0,1,0,0,0,0,0,1,
scooby_state_4005f2|62|48 0,0,0,0,0,0,0,0,1,0,0,0,0,0,0,1,
scooby_state_40061c|18|-31 1,0,0,0,0,0,0,0,0,0,0,0,0,0,0,1,
scooby_state_4005ef|39|-13 0,0,0,0,0,0,0,0,0,0,0,0,0,1,0,1,
scooby_state_40061c|39|-3 1,0,0,0,0,0,0,0,0,0,0,0,0,0,0,1,
scooby_state_4005e1|39|23 1,0,0,0,0,0,0,0,0,0,0,0,0,0,0,1,
scooby_state_4005ef|38|-9 0,0,0,0,0,0,0,0,0,0,0,0,0,1,0,1,
scooby_state_401db4|50|42 1,0,0,0,0,0,0,0,0,0,0,0,0,0,0,1,
scooby_state_40061c|5|-30 0,0,0,0,0,0,0,0,0,0,0,1,0,0,0,1,
scooby_state_4005f2|35|-10 1,0,0,0,0,0,0,0,0,0,0,0,0,0,0,1,
scooby_state_401b78|62|0 0,1,0,0,0,0,0,0,0,0,0,0,0,0,0,1,
scooby_state_4005e1|46|44 1,0,0,0,0,0,0,0,0,0,0,0,0,0,0,1,
scooby_state_40211d|15|10 0,0,0,0,0,0,0,0,1,0,0,0,0,0,0,1,
scooby_state_4005ef|63|42 0,0,0,0,0,0,0,0,0,0,0,1,0,0,0,1,
scooby_state_40061c|5|-3 1,0,0,0,0,0,0,0,0,0,0,0,0,0,0,1,
scooby_state_4005e1|43|28 0,0,0,0,0,1,0,0,0,0,0,0,0,0,0,1,
scooby_state_4005f2|31|-24 1,0,0,0,0,0,0,0,0,0,0,0,0,0,0,1,
scooby_state_401c58|33|-8 0,0,0,0,0,0,0,0,0,0,0,1,0,0,0,1,
scooby_state_40061c|61|3 0,0,0,0,0,1,0,0,0,0,0,0,0,0,0,1,
scooby_state_40061c|27|-7 1,0,0,0,0,0,0,0,0,0,0,0,0,0,0,1,
scooby_state_4005ef|49|35 0,0,0,0,0,0,0,0,0,1,0,0,0,0,0,1,
scooby_state_40221a|0|-29 0,0,0,0,0,0,0,0,0,0,1,0,0,0,0,1,
scooby_state_40061c|37|7 1,0,0,0,0,0,0,0,0,0,0,0,0,0,0,1,
scooby_state_40061c|6|-4 1,0,0,0,0,0,0,0,0,0,0,0,0,0,0,1,
scooby_state_402146|55|46 0,0,0,0,0,1,0,0,0,0,0,0,0,0,0,1,
scooby_state_40061c|43|-3 1,0,0,0,0,0,0,0,0,0,0,0,0,0,0,1,
scooby_state_4005c4|0|-10 1,0,0,0,0,0,0,0,0,0,0,0,0,0,0,1,
scooby_state_401b40|26|18 1,0,0,0,0,0,0,0,0,0,0,0,0,0,0,1,
scooby_state_401b28|4|-24 1,0,0,0,0,0,0,0,0,0,0,0,0,0,0,1,
scooby_state_401c5c|61|54 0,0,1,0,0,0,0,0,0,0,0,0,0,0,0,1,
scooby_state_401b28|22|-31 1,0,0,0,0,0,0,0,0,0,0,0,0,0,0,1,
scooby_state_401d7b|12|-47 0,0,0,0,0,0,0,0,0,0,0,1,0,0,0,1,
scooby_state_4005cf|18|15 0,0,0,0,0,0,0,1,0,0,0,0,0,0,0,1,
scooby_state_40222b|61|24 1,0,0,0,0,0,0,0,0,0,0,0,0,0,0,1,
scooby_state_4005ef|28|-4 0,0,0,0,0,0,1,0,0,0,0,0,0,0,0,1,
scooby_state_4005cf|47|5 1,0,0,0,0,0,0,0,0,0,0,0,0,0,0,1,
scooby_state_4005f2|37|5 1,0,0,0,0,0,0,0,0,0,0,0,0,0,0,1,
scooby_state_401d50|35|-14 1,0,0,0,0,0,0,0,0,0,0,0,0,0,0,1,
scooby_state_4005ef|43|3 0,0,0,0,0,0,0,0,0,0,0,0,0,1,0,1,
scooby_state_402146|3|-44 0,0,0,0,0,1,0,0,0,0,0,0,0,0,0,1,
scooby_state_4005e1|27|-6 0,0,0,0,0,0,0,0,0,0,0,0,0,0,1,1,
scooby_state_401db0|31|-1 0,0,0,0,0,0,0,0,0,0,0,0,0,0,1,1,
scooby_state_4005f2|32|31 1,0,0,0,0,0,0,0,0,0,0,0,0,0,0,1,
scooby_state_4005cf|24|-14 1,0,0,0,0,0,0,0,0,0,0,0,0,0,0,1,
scooby_state_4005f2|61|51 1,0,0,0,0,0,0,0,0,0,0,0,0,0,0,1,
scooby_state_4005f2|58|44 1,0,0,0,0,0,0,0,0,0,0,0,0,0,0,1,
scooby_state_401c58|27|5 0,0,0,0,0,0,0,0,0,0,0,1,0,0,0,1,
scooby_state_4005f2|40|12 1,0,0,0,0,0,0,0,0,0,0,0,0,0,0,1,
scooby_state_4005f2|20|-13 1,0,0,0,0,0,0,0,0,0,0,0,0,0,0,1,
scooby_state_40211d|9|-46 0,0,0,0,0,0,0,0,0,0,0,0,0,0,1,1,
scooby_state_4005f2|55|26 1,0,0,0,0,0,0,0,0,0,0,0,0,0,0,1,
scooby_state_401c5c|20|-19 1,0,0,0,0,0,0,0,0,0,0,0,0,0,0,1,
scooby_state_4005ef|63|0 1,0,0,0,0,0,0,0,0,0,0,0,0,0,0,1,
scooby_state_40061c|41|41 0,0,0,0,0,0,0,0,0,0,0,1,0,0,0,1,
scooby_state_4005cf|15|4 1,0,0,0,0,0,0,0,0,0,0,0,0,0,0,1,
scooby_state_4005e7|0|-18 1,0,0,0,0,0,0,0,0,0,0,0,0,0,0,1,
scooby_state_4005e1|46|39 1,0,0,0,0,0,0,0,0,0,0,0,0,0,0,1,
scooby_state_4005f2|23|13 1,0,0,0,0,0,0,0,0,0,0,0,0,0,0,1,
scooby_state_4005ef|17|13 1,0,0,0,0,0,0,0,0,0,0,0,0,0,0,1,
scooby_state_4005ef|29|3 1,0,0,0,0,0,0,0,0,0,0,0,0,0,0,1,
scooby_state_4005ef|6|-5 1,0,0,0,0,0,0,0,0,0,0,0,0,0,0,1,
scooby_state_40061c|2|-36 1,0,0,0,0,0,0,0,0,0,0,0,0,0,0,1,
scooby_state_4005f2|49|46 1,0,0,0,0,0,0,0,0,0,0,0,0,0,0,1,
scooby_state_4005ef|43|6 0,0,0,0,0,0,0,0,0,0,0,0,0,1,0,1,

scooby_action_0_deg_dist 0,7846690,0,0,0,0,0,0,0,0,0,0,0,0,0,0,
scooby_action_-6_deg_dist 0,31761,100,0,61,0,5,0,0,0,0,0,0,0,0,0,
scooby_action_4_deg_dist 0,32709,288,0,323,0,92,0,0,0,0,0,0,0,0,0,
scooby_action_1_deg_dist 0,81438884,63545,0,15807,0,6628,0,0,0,0,0,0,0,0,0,
scooby_action_30_deg_dist 0,27426,62,0,24,0,0,0,0,0,0,0,0,0,0,0,
scooby_action_5_deg_dist 0,32090,237,0,174,0,20,0,0,0,0,0,0,0,0,0,
scooby_action_10_deg_dist 0,30582,128,0,82,0,9,0,0,0,0,0,0,0,0,0,
scooby_action_3_deg_dist 0,33817,138,0,69,0,22,0,0,0,0,0,0,0,0,0,
scooby_action_32_deg_dist 0,26792,50,0,13,0,0,0,0,0,0,0,0,0,0,0,
scooby_action_11_deg_dist 0,31159,167,0,117,0,6,0,0,0,0,0,0,0,0,0,
scooby_action_12_deg_dist 0,30365,139,0,58,0,12,0,0,0,0,0,0,0,0,0,
scooby_action_22_deg_dist 0,28887,83,0,50,0,4,0,0,0,0,0,0,0,0,0,
scooby_action_23_deg_dist 0,29145,65,0,24,0,0,0,0,0,0,0,0,0,0,0,
scooby_action_-1_deg_dist 0,74984,1054,0,622,0,235,0,0,0,0,0,0,0,0,0,
scooby_action_-3_deg_dist 0,32292,192,0,132,0,18,0,0,0,0,0,0,0,0,0,

scooby_track_called 89818438
scooby_track_same_address 48310
scooby_track_evict 89769872

scooby_reward_demand_called 89818438
scooby_reward_demand_pt_not_found 89636009
scooby_reward_demand_pt_found 182429
scooby_reward_demand_pt_found_total 182429
scooby_reward_demand_has_reward 2049
scooby_reward_train_called 88228377
scooby_reward_assign_reward_called 89769884
scooby_reward_no_pref 7846654
scooby_reward_incorrect 80381723
scooby_reward_correct_untimely 110047
scooby_reward_correct_timely 70333
scooby_reward_out_of_bounds 1361127
scooby_reward_tracker_hit 0

scooby_reward_none_low_bw 7846654
scooby_reward_none_high_bw 0
scooby_reward_incorrect_low_bw 80381723
scooby_reward_incorrect_high_bw 0
scooby_reward_correct_untimely_low_bw 110047
scooby_reward_correct_untimely_high_bw 0
scooby_reward_correct_timely_low_bw 70333
scooby_reward_correct_timely_high_bw 0
scooby_reward_out_of_bounds_low_bw 1361127
scooby_reward_out_of_bounds_high_bw 0
scooby_reward_tracker_hit_low_bw 0
scooby_reward_tracker_hit_high_bw 0

scooby_reward_1 0,80048375,92979,65969,1280548,0,
scooby_reward_3 0,30057,328,448,2221,0,
scooby_reward_4 0,29314,152,324,2482,0,
scooby_reward_5 0,28592,85,266,3037,0,
scooby_reward_10 0,24473,73,212,5624,0,
scooby_reward_11 0,24194,95,238,6008,0,
scooby_reward_12 0,23120,69,201,6607,0,
scooby_reward_22 0,17204,29,71,10756,0,
scooby_reward_23 0,16952,45,116,11177,0,
scooby_reward_30 0,13333,25,64,13614,0,
scooby_reward_32 0,12308,23,75,14230,0,
scooby_reward_-1 0,54942,16030,2071,1072,0,
scooby_reward_-3 0,30356,72,181,1287,0,
scooby_reward_-6 0,28503,42,97,2464,0,
scooby_reward_0 7846654,0,0,0,0,0,

scooby_train_called 89769871
scooby_train_compute_reward 88228377

scooby_register_fill_called 69003530
scooby_register_fill_set 68922114
scooby_register_fill_set_total 68922114

scooby_register_prefetch_hit_called 11615370
scooby_register_prefetch_hit_set 11584991
scooby_register_prefetch_hit_set_total 11584991

scooby_pref_issue_scooby 80703982

learning_engine_featurewise.action.called 89818438
learning_engine_featurewise.action.explore 163864
learning_engine_featurewise.action.exploit 89654574
learning_engine_featurewise.action.fallback 81429884
learning_engine_featurewise.action.dyn_fallback_saved_bw 0
learning_engine_featurewise.action.dyn_fallback_saved_bw_acc 8064080
learning_engine_featurewise.action.index_1_explored 10865
learning_engine_featurewise.action.index_1_exploited 81513999
learning_engine_featurewise.action.index_3_explored 11039
learning_engine_featurewise.action.index_3_exploited 23007
learning_engine_featurewise.action.index_4_explored 11100
learning_engine_featurewise.action.index_4_exploited 22312
learning_engine_featurewise.action.index_5_explored 11134
learning_engine_featurewise.action.index_5_exploited 21387
learning_engine_featurewise.action.index_10_explored 11134
learning_engine_featurewise.action.index_10_exploited 19667
learning_engine_featurewise.action.index_11_explored 11089
learning_engine_featurewise.action.index_11_exploited 20360
learning_engine_featurewise.action.index_12_explored 10974
learning_engine_featurewise.action.index_12_exploited 19600
learning_engine_featurewise.action.index_22_explored 11047
learning_engine_featurewise.action.index_22_exploited 17977
learning_engine_featurewise.action.index_23_explored 11126
learning_engine_featurewise.action.index_23_exploited 18108
learning_engine_featurewise.action.index_30_explored 10908
learning_engine_featurewise.action.index_30_exploited 16604
learning_engine_featurewise.action.index_32_explored 10623
learning_engine_featurewise.action.index_32_exploited 16232
learning_engine_featurewise.action.index_-1_explored 10788
learning_engine_featurewise.action.index_-1_exploited 66107
learning_engine_featurewise.action.index_-3_explored 10694
learning_engine_featurewise.action.index_-3_exploited 21940
learning_engine_featurewise.action.index_-6_explored 10727
learning_engine_featurewise.action.index_-6_exploited 21200
learning_engine_featurewise.action.index_0_explored 10616
learning_engine_featurewise.action.index_0_exploited 7836074
learning_engine_featurewise.learn.called 89769871
learning_engine_featurewise.learn.su_skip_PC 0
learning_engine_featurewise.learn.su_skip_PC_Delta 0

learning_engine_featurewise.q_value_histogram.bucket_0 8028600
learning_engine_featurewise.q_value_histogram.bucket_1 6143
learning_engine_featurewise.q_value_histogram.bucket_2 81475781
learning_engine_featurewise.q_value_histogram.bucket_3 42324
learning_engine_featurewise.q_value_histogram.bucket_4 61506
learning_engine_featurewise.q_value_histogram.bucket_5 25736
learning_engine_featurewise.q_value_histogram.bucket_6 14484
learning_engine_featurewise.q_value_histogram.bucket_7 0

learning_engine_featurewise.consensus.total 89654574
learning_engine_featurewise.consensus.feature_align_PC 81580281
learning_engine_featurewise.consensus.feature_align_PC_ratio 0.91
learning_engine_featurewise.consensus.feature_align_PC_Delta 81558964
learning_engine_featurewise.consensus.feature_align_PC_Delta_ratio 0.91
learning_engine_featurewise.consensus.feature_align_all 81518911
learning_engine_featurewise.consensus.feature_align_all_ratio 0.91

learning_engine_featurewise.feature_PC_min_weight 1000000.00000000
learning_engine_featurewise.feature_PC_max_weight 0.00000000
learning_engine_featurewise.feature_PC_Delta_min_weight 1000000.00000000
learning_engine_featurewise.feature_PC_Delta_max_weight 0.00000000
unique_pcs 115
unique_pages 428295
unique_trigger_pcs 81
total_bitmaps_seen 0
unique_bitmaps_seen 0

scooby_bw_epochs 18958726
scooby_bw_level_0 6402375
scooby_bw_level_1 6832043
scooby_bw_level_2 3325871
scooby_bw_level_3 2398437

scooby_ipc_epochs 0
scooby_ipc_level_0 0
scooby_ipc_level_1 0
scooby_ipc_level_2 0
scooby_ipc_level_3 0

scooby_cache_acc_epochs 4615723
scooby_cache_acc_level_0 45280
scooby_cache_acc_level_1 288554
scooby_cache_acc_level_2 861782
scooby_cache_acc_level_3 1836686
scooby_cache_acc_level_4 1101615
scooby_cache_acc_level_5 314079
scooby_cache_acc_level_6 96245
scooby_cache_acc_level_7 36153
scooby_cache_acc_level_8 16522
scooby_cache_acc_level_9 18807

Channel_0_RQ_row_buffer_hit 2650827
Channel_0_RQ_row_buffer_miss 37428997
Channel_0_WQ_row_buffer_hit 17385
Channel_0_WQ_row_buffer_miss 33304
Channel_0_WQ_full 0
Channel_0_dbus_congested 7476675

avg_congested_cycle 16

DRAM_bw_pochs 18958726
DRAM_bw_level_0 6402375
DRAM_bw_level_1 6832043
DRAM_bw_level_2 3325871
DRAM_bw_level_3 2398437
