*************************************************
   ChampSim Multicore Out-of-Order Simulator
   Last compiled: Dec 11 2024 17:59:53
*************************************************
parsing config file: /home/functionmain/桌面/Pythia/config/spp_dev2.ini

trace_0 /home/functionmain/桌面/Pythia/traces/429.mcf-51B.champsimtrace.xz
adding L2C_PREFETCHER: SPP_dev2
Initialize SIGNATURE TABLE
ST_SET: 1
ST_WAY: 256
ST_TAG_BIT: 16
ST_TAG_MASK: ffff

Initialize PATTERN TABLE
PT_SET: 512
PT_WAY: 4
SIG_DELTA_BIT: 7
C_SIG_BIT: 4
C_DELTA_BIT: 4

Initialize PREFETCH FILTER
FILTER_SET: 1024
fill_threshold: 90
pf_threshold: 40

Initialize SHIP state
warmup_instructions 100000000
simulation_instructions 500000000
champsim_seed 168
measure_ipc 0
measure_ipc_epoch 1000
measure_dram_bw 1
measure_dram_bw_epoch 256
measure_cache_acc 1
measure_cache_acc_epoch 1024
l1d_perfect 0
l2c_perfect 0
llc_perfect 0
l1d_semi_perfect 0
l2c_semi_perfect 0
llc_semi_perfect 0
semi_perfect_cache_page_buffer_size 64

num_cpus 1
cpu_freq 4000
dram_io_freq 150
page_size 4096
block_size 64
max_read_per_cycle 8
max_fill_per_cycle 1
dram_channels 1
log2_dram_channels 0
dram_ranks 1
dram_banks 8
dram_rows 65536
dram_columns 128
dram_row_size 8
dram_size 4096
dram_pages 1048576

fetch_width 6
decode_width 6
exec_width 4
lq_width 2
sq_width 2
retire_width 4
scheduler_size 128
branch_mispredict_penalty 20
rob_size 256
lq_size 72
sq_size 56
num_instr_destinations_sparc 4
num_instr_destinations 2
num_instr_sources 4

itlb_set 16
itlb_way 8
itlb_rq_size 16
itlb_wq_size 16
itlb_pq_size 0
itlb_mshr_size 8
itlb_latency 1

dtlb_set 16
dtlb_way 4
dtlb_rq_size 16
dtlb_wq_size 16
dtlb_pq_size 0
dtlb_mshr_size 8
dtlb_latency 1

stlb_set 128
stlb_way 12
stlb_rq_size 32
stlb_wq_size 32
stlb_pq_size 0
stlb_mshr_size 16
stlb_latency 8

l1i_size 32
l1i_set 64
l1i_way 8
l1i_rq_size 64
l1i_wq_size 64
l1i_pq_size 8
l1i_mshr_size 8
l1i_latency 1

l1d_size 32
l1d_set 64
l1d_way 8
l1d_rq_size 64
l1d_wq_size 64
l1d_pq_size 8
l1d_mshr_size 16
l1d_latency 4

l2c_size 256
l2c_set 512
l2c_way 8
l2c_rq_size 32
l2c_wq_size 32
l2c_pq_size 32
l2c_mshr_size 32
l2c_latency 10

llc_size 2048
llc_set 2048
llc_way 16
llc_rq_size 32
llc_wq_size 32
llc_pq_size 32
llc_mshr_size 64
llc_latency 20

dram_channel_width 8
dram_wq_size 64
dram_rq_size 64
tRP 15
tRCD 15
tCAS 12.5
dram_dbus_turn_around_time 30
dram_write_high_wm 56
dram_write_low_wm 48
min_dram_writes_per_switch 16
dram_mtps 150
dram_dbus_return_time 213


Heartbeat CPU  0 instructions:    1000003 cycles:     855225 heartbeat IPC: 1.16929 cumulative IPC: 1.16929 (Simulation time: 0 hr 0 min 1 sec) 
Heartbeat CPU  0 instructions:    2000000 cycles:    1635365 heartbeat IPC: 1.28182 cumulative IPC: 1.22297 (Simulation time: 0 hr 0 min 3 sec) 
Heartbeat CPU  0 instructions:    3000002 cycles:    2426863 heartbeat IPC: 1.26343 cumulative IPC: 1.23616 (Simulation time: 0 hr 0 min 5 sec) 
Heartbeat CPU  0 instructions:    4000000 cycles:    3246073 heartbeat IPC: 1.22069 cumulative IPC: 1.23226 (Simulation time: 0 hr 0 min 7 sec) 
Heartbeat CPU  0 instructions:    5000002 cycles:    4027533 heartbeat IPC: 1.27966 cumulative IPC: 1.24146 (Simulation time: 0 hr 0 min 8 sec) 
Heartbeat CPU  0 instructions:    6000001 cycles:    4799744 heartbeat IPC: 1.29498 cumulative IPC: 1.25007 (Simulation time: 0 hr 0 min 10 sec) 
Heartbeat CPU  0 instructions:    7000000 cycles:    5577137 heartbeat IPC: 1.28635 cumulative IPC: 1.25512 (Simulation time: 0 hr 0 min 12 sec) 
Heartbeat CPU  0 instructions:    8000000 cycles:    6425398 heartbeat IPC: 1.17888 cumulative IPC: 1.24506 (Simulation time: 0 hr 0 min 14 sec) 
Heartbeat CPU  0 instructions:    9000001 cycles:    7218333 heartbeat IPC: 1.26114 cumulative IPC: 1.24683 (Simulation time: 0 hr 0 min 16 sec) 
Heartbeat CPU  0 instructions:   10000000 cycles:    8022904 heartbeat IPC: 1.24290 cumulative IPC: 1.24643 (Simulation time: 0 hr 0 min 17 sec) 
Heartbeat CPU  0 instructions:   11000002 cycles:    8870620 heartbeat IPC: 1.17964 cumulative IPC: 1.24005 (Simulation time: 0 hr 0 min 19 sec) 
Heartbeat CPU  0 instructions:   12000000 cycles:    9721545 heartbeat IPC: 1.17519 cumulative IPC: 1.23437 (Simulation time: 0 hr 0 min 21 sec) 
Heartbeat CPU  0 instructions:   13000000 cycles:   10534472 heartbeat IPC: 1.23012 cumulative IPC: 1.23404 (Simulation time: 0 hr 0 min 23 sec) 
Heartbeat CPU  0 instructions:   14000002 cycles:   11305554 heartbeat IPC: 1.29688 cumulative IPC: 1.23833 (Simulation time: 0 hr 0 min 24 sec) 
Heartbeat CPU  0 instructions:   15000001 cycles:   12079761 heartbeat IPC: 1.29164 cumulative IPC: 1.24175 (Simulation time: 0 hr 0 min 26 sec) 
Heartbeat CPU  0 instructions:   16000000 cycles:   12871343 heartbeat IPC: 1.26329 cumulative IPC: 1.24307 (Simulation time: 0 hr 0 min 28 sec) 
Heartbeat CPU  0 instructions:   17000000 cycles:   13678285 heartbeat IPC: 1.23925 cumulative IPC: 1.24285 (Simulation time: 0 hr 0 min 30 sec) 
Heartbeat CPU  0 instructions:   18000002 cycles:   14453887 heartbeat IPC: 1.28932 cumulative IPC: 1.24534 (Simulation time: 0 hr 0 min 31 sec) 
Heartbeat CPU  0 instructions:   19000000 cycles:   15277153 heartbeat IPC: 1.21467 cumulative IPC: 1.24369 (Simulation time: 0 hr 0 min 33 sec) 
Heartbeat CPU  0 instructions:   20000000 cycles:   16119280 heartbeat IPC: 1.18747 cumulative IPC: 1.24075 (Simulation time: 0 hr 0 min 35 sec) 
Heartbeat CPU  0 instructions:   21000001 cycles:   16918296 heartbeat IPC: 1.25154 cumulative IPC: 1.24126 (Simulation time: 0 hr 0 min 37 sec) 
Heartbeat CPU  0 instructions:   22000000 cycles:   17709331 heartbeat IPC: 1.26417 cumulative IPC: 1.24228 (Simulation time: 0 hr 0 min 39 sec) 
Heartbeat CPU  0 instructions:   23000001 cycles:   18517120 heartbeat IPC: 1.23795 cumulative IPC: 1.24209 (Simulation time: 0 hr 0 min 40 sec) 
Heartbeat CPU  0 instructions:   24000000 cycles:   19312210 heartbeat IPC: 1.25772 cumulative IPC: 1.24274 (Simulation time: 0 hr 0 min 42 sec) 
Heartbeat CPU  0 instructions:   25000003 cycles:   20117771 heartbeat IPC: 1.24137 cumulative IPC: 1.24268 (Simulation time: 0 hr 0 min 44 sec) 
Heartbeat CPU  0 instructions:   26000002 cycles:   20922360 heartbeat IPC: 1.24287 cumulative IPC: 1.24269 (Simulation time: 0 hr 0 min 45 sec) 
Heartbeat CPU  0 instructions:   27000000 cycles:   21736396 heartbeat IPC: 1.22844 cumulative IPC: 1.24216 (Simulation time: 0 hr 0 min 47 sec) 
Heartbeat CPU  0 instructions:   28000000 cycles:   22582245 heartbeat IPC: 1.18224 cumulative IPC: 1.23991 (Simulation time: 0 hr 0 min 49 sec) 
Heartbeat CPU  0 instructions:   29000000 cycles:   23359260 heartbeat IPC: 1.28698 cumulative IPC: 1.24148 (Simulation time: 0 hr 0 min 51 sec) 
Heartbeat CPU  0 instructions:   30000000 cycles:   24180545 heartbeat IPC: 1.21760 cumulative IPC: 1.24067 (Simulation time: 0 hr 0 min 53 sec) 
Heartbeat CPU  0 instructions:   31000002 cycles:   25039256 heartbeat IPC: 1.16454 cumulative IPC: 1.23806 (Simulation time: 0 hr 0 min 54 sec) 
Heartbeat CPU  0 instructions:   32000000 cycles:   25902032 heartbeat IPC: 1.15905 cumulative IPC: 1.23542 (Simulation time: 0 hr 0 min 56 sec) 
Heartbeat CPU  0 instructions:   33000002 cycles:   26665535 heartbeat IPC: 1.30976 cumulative IPC: 1.23755 (Simulation time: 0 hr 0 min 58 sec) 
Heartbeat CPU  0 instructions:   34000003 cycles:   27526092 heartbeat IPC: 1.16204 cumulative IPC: 1.23519 (Simulation time: 0 hr 1 min 0 sec) 
Heartbeat CPU  0 instructions:   35000001 cycles:   28384120 heartbeat IPC: 1.16546 cumulative IPC: 1.23308 (Simulation time: 0 hr 1 min 1 sec) 
Heartbeat CPU  0 instructions:   36000000 cycles:   29208201 heartbeat IPC: 1.21347 cumulative IPC: 1.23253 (Simulation time: 0 hr 1 min 3 sec) 
Heartbeat CPU  0 instructions:   37000003 cycles:   29984352 heartbeat IPC: 1.28841 cumulative IPC: 1.23398 (Simulation time: 0 hr 1 min 5 sec) 
Heartbeat CPU  0 instructions:   38000003 cycles:   30789740 heartbeat IPC: 1.24164 cumulative IPC: 1.23418 (Simulation time: 0 hr 1 min 7 sec) 
Heartbeat CPU  0 instructions:   39000000 cycles:   31509837 heartbeat IPC: 1.38870 cumulative IPC: 1.23771 (Simulation time: 0 hr 1 min 8 sec) 
Heartbeat CPU  0 instructions:   40000000 cycles:   32216230 heartbeat IPC: 1.41564 cumulative IPC: 1.24161 (Simulation time: 0 hr 1 min 10 sec) 
Heartbeat CPU  0 instructions:   41000003 cycles:   32971587 heartbeat IPC: 1.32388 cumulative IPC: 1.24349 (Simulation time: 0 hr 1 min 12 sec) 
Heartbeat CPU  0 instructions:   42000001 cycles:   33651975 heartbeat IPC: 1.46975 cumulative IPC: 1.24807 (Simulation time: 0 hr 1 min 14 sec) 
Heartbeat CPU  0 instructions:   43000000 cycles:   34341922 heartbeat IPC: 1.44939 cumulative IPC: 1.25211 (Simulation time: 0 hr 1 min 15 sec) 
Heartbeat CPU  0 instructions:   44000000 cycles:   35088383 heartbeat IPC: 1.33965 cumulative IPC: 1.25398 (Simulation time: 0 hr 1 min 17 sec) 
Heartbeat CPU  0 instructions:   45000000 cycles:   35945677 heartbeat IPC: 1.16646 cumulative IPC: 1.25189 (Simulation time: 0 hr 1 min 19 sec) 
Heartbeat CPU  0 instructions:   46000000 cycles:   36901490 heartbeat IPC: 1.04623 cumulative IPC: 1.24656 (Simulation time: 0 hr 1 min 21 sec) 
Heartbeat CPU  0 instructions:   47000001 cycles:   37929076 heartbeat IPC: 0.97316 cumulative IPC: 1.23915 (Simulation time: 0 hr 1 min 22 sec) 
Heartbeat CPU  0 instructions:   48000000 cycles:   38927100 heartbeat IPC: 1.00198 cumulative IPC: 1.23307 (Simulation time: 0 hr 1 min 24 sec) 
Heartbeat CPU  0 instructions:   49000001 cycles:   39820958 heartbeat IPC: 1.11875 cumulative IPC: 1.23051 (Simulation time: 0 hr 1 min 26 sec) 
Heartbeat CPU  0 instructions:   50000001 cycles:   40677792 heartbeat IPC: 1.16709 cumulative IPC: 1.22917 (Simulation time: 0 hr 1 min 27 sec) 
Heartbeat CPU  0 instructions:   51000001 cycles:   41668229 heartbeat IPC: 1.00966 cumulative IPC: 1.22395 (Simulation time: 0 hr 1 min 29 sec) 
Heartbeat CPU  0 instructions:   52000000 cycles:   42613824 heartbeat IPC: 1.05753 cumulative IPC: 1.22026 (Simulation time: 0 hr 1 min 31 sec) 
Heartbeat CPU  0 instructions:   53000002 cycles:   43508526 heartbeat IPC: 1.11769 cumulative IPC: 1.21815 (Simulation time: 0 hr 1 min 32 sec) 
Heartbeat CPU  0 instructions:   54000002 cycles:   44303886 heartbeat IPC: 1.25729 cumulative IPC: 1.21885 (Simulation time: 0 hr 1 min 34 sec) 
Heartbeat CPU  0 instructions:   55000001 cycles:   45192054 heartbeat IPC: 1.12591 cumulative IPC: 1.21703 (Simulation time: 0 hr 1 min 36 sec) 
Heartbeat CPU  0 instructions:   56000000 cycles:   46156634 heartbeat IPC: 1.03672 cumulative IPC: 1.21326 (Simulation time: 0 hr 1 min 37 sec) 
Heartbeat CPU  0 instructions:   57000001 cycles:   47002360 heartbeat IPC: 1.18242 cumulative IPC: 1.21271 (Simulation time: 0 hr 1 min 39 sec) 
Heartbeat CPU  0 instructions:   58000000 cycles:   47826967 heartbeat IPC: 1.21270 cumulative IPC: 1.21271 (Simulation time: 0 hr 1 min 41 sec) 
Heartbeat CPU  0 instructions:   59000001 cycles:   48608184 heartbeat IPC: 1.28006 cumulative IPC: 1.21379 (Simulation time: 0 hr 1 min 43 sec) 
Heartbeat CPU  0 instructions:   60000000 cycles:   49429975 heartbeat IPC: 1.21685 cumulative IPC: 1.21384 (Simulation time: 0 hr 1 min 44 sec) 
Heartbeat CPU  0 instructions:   61000002 cycles:   50292991 heartbeat IPC: 1.15873 cumulative IPC: 1.21289 (Simulation time: 0 hr 1 min 46 sec) 
Heartbeat CPU  0 instructions:   62000000 cycles:   51108236 heartbeat IPC: 1.22662 cumulative IPC: 1.21311 (Simulation time: 0 hr 1 min 48 sec) 
Heartbeat CPU  0 instructions:   63000001 cycles:   51870025 heartbeat IPC: 1.31270 cumulative IPC: 1.21457 (Simulation time: 0 hr 1 min 50 sec) 
Heartbeat CPU  0 instructions:   64000000 cycles:   52660710 heartbeat IPC: 1.26472 cumulative IPC: 1.21533 (Simulation time: 0 hr 1 min 51 sec) 
Heartbeat CPU  0 instructions:   65000000 cycles:   53455305 heartbeat IPC: 1.25850 cumulative IPC: 1.21597 (Simulation time: 0 hr 1 min 53 sec) 
Heartbeat CPU  0 instructions:   66000002 cycles:   54247520 heartbeat IPC: 1.26229 cumulative IPC: 1.21665 (Simulation time: 0 hr 1 min 55 sec) 
Heartbeat CPU  0 instructions:   67000003 cycles:   55085509 heartbeat IPC: 1.19333 cumulative IPC: 1.21629 (Simulation time: 0 hr 1 min 57 sec) 
Heartbeat CPU  0 instructions:   68000000 cycles:   56003925 heartbeat IPC: 1.08883 cumulative IPC: 1.21420 (Simulation time: 0 hr 1 min 58 sec) 
Heartbeat CPU  0 instructions:   69000000 cycles:   56895123 heartbeat IPC: 1.12209 cumulative IPC: 1.21276 (Simulation time: 0 hr 2 min 0 sec) 
Heartbeat CPU  0 instructions:   70000001 cycles:   57752974 heartbeat IPC: 1.16570 cumulative IPC: 1.21206 (Simulation time: 0 hr 2 min 2 sec) 
Heartbeat CPU  0 instructions:   71000000 cycles:   58564070 heartbeat IPC: 1.23290 cumulative IPC: 1.21235 (Simulation time: 0 hr 2 min 4 sec) 
Heartbeat CPU  0 instructions:   72000000 cycles:   59494068 heartbeat IPC: 1.07527 cumulative IPC: 1.21020 (Simulation time: 0 hr 2 min 5 sec) 
Heartbeat CPU  0 instructions:   73000000 cycles:   60408835 heartbeat IPC: 1.09317 cumulative IPC: 1.20843 (Simulation time: 0 hr 2 min 7 sec) 
Heartbeat CPU  0 instructions:   74000000 cycles:   61260164 heartbeat IPC: 1.17463 cumulative IPC: 1.20796 (Simulation time: 0 hr 2 min 9 sec) 
Heartbeat CPU  0 instructions:   75000002 cycles:   62087636 heartbeat IPC: 1.20850 cumulative IPC: 1.20797 (Simulation time: 0 hr 2 min 11 sec) 
Heartbeat CPU  0 instructions:   76000000 cycles:   63011511 heartbeat IPC: 1.08240 cumulative IPC: 1.20613 (Simulation time: 0 hr 2 min 12 sec) 
Heartbeat CPU  0 instructions:   77000003 cycles:   63943322 heartbeat IPC: 1.07318 cumulative IPC: 1.20419 (Simulation time: 0 hr 2 min 14 sec) 
Heartbeat CPU  0 instructions:   78000000 cycles:   64784667 heartbeat IPC: 1.18857 cumulative IPC: 1.20399 (Simulation time: 0 hr 2 min 16 sec) 
Heartbeat CPU  0 instructions:   79000002 cycles:   65605315 heartbeat IPC: 1.21855 cumulative IPC: 1.20417 (Simulation time: 0 hr 2 min 18 sec) 
Heartbeat CPU  0 instructions:   80000000 cycles:   66479609 heartbeat IPC: 1.14378 cumulative IPC: 1.20338 (Simulation time: 0 hr 2 min 19 sec) 
Heartbeat CPU  0 instructions:   81000001 cycles:   67318849 heartbeat IPC: 1.19156 cumulative IPC: 1.20323 (Simulation time: 0 hr 2 min 21 sec) 
Heartbeat CPU  0 instructions:   82000000 cycles:   68339137 heartbeat IPC: 0.98011 cumulative IPC: 1.19990 (Simulation time: 0 hr 2 min 23 sec) 
Heartbeat CPU  0 instructions:   83000003 cycles:   69108113 heartbeat IPC: 1.30043 cumulative IPC: 1.20102 (Simulation time: 0 hr 2 min 25 sec) 
Heartbeat CPU  0 instructions:   84000000 cycles:   69894230 heartbeat IPC: 1.27207 cumulative IPC: 1.20182 (Simulation time: 0 hr 2 min 26 sec) 
Heartbeat CPU  0 instructions:   85000001 cycles:   70663872 heartbeat IPC: 1.29931 cumulative IPC: 1.20288 (Simulation time: 0 hr 2 min 28 sec) 
Heartbeat CPU  0 instructions:   86000002 cycles:   71438338 heartbeat IPC: 1.29121 cumulative IPC: 1.20384 (Simulation time: 0 hr 2 min 29 sec) 
Heartbeat CPU  0 instructions:   87000000 cycles:   72204414 heartbeat IPC: 1.30535 cumulative IPC: 1.20491 (Simulation time: 0 hr 2 min 31 sec) 
Heartbeat CPU  0 instructions:   88000000 cycles:   72966821 heartbeat IPC: 1.31164 cumulative IPC: 1.20603 (Simulation time: 0 hr 2 min 33 sec) 
Heartbeat CPU  0 instructions:   89000002 cycles:   73725811 heartbeat IPC: 1.31754 cumulative IPC: 1.20718 (Simulation time: 0 hr 2 min 35 sec) 
Heartbeat CPU  0 instructions:   90000001 cycles:   74493947 heartbeat IPC: 1.30185 cumulative IPC: 1.20815 (Simulation time: 0 hr 2 min 36 sec) 
Heartbeat CPU  0 instructions:   91000001 cycles:   75261436 heartbeat IPC: 1.30295 cumulative IPC: 1.20912 (Simulation time: 0 hr 2 min 38 sec) 
Heartbeat CPU  0 instructions:   92000000 cycles:   76002571 heartbeat IPC: 1.34928 cumulative IPC: 1.21049 (Simulation time: 0 hr 2 min 40 sec) 
Heartbeat CPU  0 instructions:   93000000 cycles:   76788687 heartbeat IPC: 1.27208 cumulative IPC: 1.21112 (Simulation time: 0 hr 2 min 41 sec) 
Heartbeat CPU  0 instructions:   94000001 cycles:   77669592 heartbeat IPC: 1.13520 cumulative IPC: 1.21025 (Simulation time: 0 hr 2 min 43 sec) 
Heartbeat CPU  0 instructions:   95000003 cycles:   78454270 heartbeat IPC: 1.27441 cumulative IPC: 1.21090 (Simulation time: 0 hr 2 min 45 sec) 
Heartbeat CPU  0 instructions:   96000000 cycles:   79286838 heartbeat IPC: 1.20110 cumulative IPC: 1.21079 (Simulation time: 0 hr 2 min 47 sec) 
Heartbeat CPU  0 instructions:   97000001 cycles:   80023707 heartbeat IPC: 1.35709 cumulative IPC: 1.21214 (Simulation time: 0 hr 2 min 49 sec) 
Heartbeat CPU  0 instructions:   98000000 cycles:   80739205 heartbeat IPC: 1.39763 cumulative IPC: 1.21378 (Simulation time: 0 hr 2 min 50 sec) 
Heartbeat CPU  0 instructions:   99000000 cycles:   81467515 heartbeat IPC: 1.37304 cumulative IPC: 1.21521 (Simulation time: 0 hr 2 min 52 sec) 
Heartbeat CPU  0 instructions:  100000000 cycles:   82203564 heartbeat IPC: 1.35861 cumulative IPC: 1.21649 (Simulation time: 0 hr 2 min 54 sec) 

Warmup complete CPU  0 instructions:  100000001 cycles:   82203565 (Simulation time: 0 hr 2 min 54 sec) 

Heartbeat CPU  0 instructions:  101000003 cycles:  112929170 heartbeat IPC: 0.03255 cumulative IPC: 0.03255 (Simulation time: 0 hr 3 min 6 sec) 
Heartbeat CPU  0 instructions:  102000000 cycles:  123306428 heartbeat IPC: 0.09636 cumulative IPC: 0.04866 (Simulation time: 0 hr 3 min 11 sec) 
Heartbeat CPU  0 instructions:  103000002 cycles:  131287040 heartbeat IPC: 0.12530 cumulative IPC: 0.06112 (Simulation time: 0 hr 3 min 16 sec) 
Heartbeat CPU  0 instructions:  104000000 cycles:  161203670 heartbeat IPC: 0.03343 cumulative IPC: 0.05063 (Simulation time: 0 hr 3 min 29 sec) 
Heartbeat CPU  0 instructions:  105000001 cycles:  176980829 heartbeat IPC: 0.06338 cumulative IPC: 0.05276 (Simulation time: 0 hr 3 min 36 sec) 
Heartbeat CPU  0 instructions:  106000002 cycles:  186079557 heartbeat IPC: 0.10991 cumulative IPC: 0.05776 (Simulation time: 0 hr 3 min 41 sec) 
Heartbeat CPU  0 instructions:  107000000 cycles:  194417273 heartbeat IPC: 0.11994 cumulative IPC: 0.06238 (Simulation time: 0 hr 3 min 45 sec) 
Heartbeat CPU  0 instructions:  108000000 cycles:  218102223 heartbeat IPC: 0.04222 cumulative IPC: 0.05887 (Simulation time: 0 hr 3 min 56 sec) 
Heartbeat CPU  0 instructions:  109000000 cycles:  239720242 heartbeat IPC: 0.04626 cumulative IPC: 0.05714 (Simulation time: 0 hr 4 min 6 sec) 
Heartbeat CPU  0 instructions:  110000000 cycles:  248979048 heartbeat IPC: 0.10801 cumulative IPC: 0.05996 (Simulation time: 0 hr 4 min 11 sec) 
Heartbeat CPU  0 instructions:  111000002 cycles:  257308047 heartbeat IPC: 0.12006 cumulative IPC: 0.06282 (Simulation time: 0 hr 4 min 15 sec) 
Heartbeat CPU  0 instructions:  112000000 cycles:  275961098 heartbeat IPC: 0.05361 cumulative IPC: 0.06193 (Simulation time: 0 hr 4 min 24 sec) 
Heartbeat CPU  0 instructions:  113000000 cycles:  303696607 heartbeat IPC: 0.03605 cumulative IPC: 0.05869 (Simulation time: 0 hr 4 min 36 sec) 
Heartbeat CPU  0 instructions:  114000003 cycles:  314608678 heartbeat IPC: 0.09164 cumulative IPC: 0.06024 (Simulation time: 0 hr 4 min 42 sec) 
Heartbeat CPU  0 instructions:  115000003 cycles:  322948909 heartbeat IPC: 0.11990 cumulative IPC: 0.06231 (Simulation time: 0 hr 4 min 46 sec) 
Heartbeat CPU  0 instructions:  116000000 cycles:  335031654 heartbeat IPC: 0.08276 cumulative IPC: 0.06328 (Simulation time: 0 hr 4 min 52 sec) 
Heartbeat CPU  0 instructions:  117000002 cycles:  366857638 heartbeat IPC: 0.03142 cumulative IPC: 0.05972 (Simulation time: 0 hr 5 min 6 sec) 
Heartbeat CPU  0 instructions:  118000001 cycles:  376625192 heartbeat IPC: 0.10238 cumulative IPC: 0.06114 (Simulation time: 0 hr 5 min 11 sec) 
Heartbeat CPU  0 instructions:  119000000 cycles:  395769962 heartbeat IPC: 0.05223 cumulative IPC: 0.06059 (Simulation time: 0 hr 5 min 20 sec) 
Heartbeat CPU  0 instructions:  120000000 cycles:  405276557 heartbeat IPC: 0.10519 cumulative IPC: 0.06191 (Simulation time: 0 hr 5 min 25 sec) 
Heartbeat CPU  0 instructions:  121000002 cycles:  428763364 heartbeat IPC: 0.04258 cumulative IPC: 0.06060 (Simulation time: 0 hr 5 min 35 sec) 
Heartbeat CPU  0 instructions:  122000000 cycles:  456672104 heartbeat IPC: 0.03583 cumulative IPC: 0.05875 (Simulation time: 0 hr 5 min 47 sec) 
Heartbeat CPU  0 instructions:  123000000 cycles:  465962880 heartbeat IPC: 0.10763 cumulative IPC: 0.05993 (Simulation time: 0 hr 5 min 52 sec) 
Heartbeat CPU  0 instructions:  124000000 cycles:  473773566 heartbeat IPC: 0.12803 cumulative IPC: 0.06129 (Simulation time: 0 hr 5 min 56 sec) 
Heartbeat CPU  0 instructions:  125000000 cycles:  488073237 heartbeat IPC: 0.06993 cumulative IPC: 0.06160 (Simulation time: 0 hr 6 min 2 sec) 
Heartbeat CPU  0 instructions:  126000000 cycles:  516583206 heartbeat IPC: 0.03508 cumulative IPC: 0.05986 (Simulation time: 0 hr 6 min 15 sec) 
Heartbeat CPU  0 instructions:  127000001 cycles:  525551816 heartbeat IPC: 0.11150 cumulative IPC: 0.06090 (Simulation time: 0 hr 6 min 19 sec) 
Heartbeat CPU  0 instructions:  128000000 cycles:  533614832 heartbeat IPC: 0.12402 cumulative IPC: 0.06203 (Simulation time: 0 hr 6 min 23 sec) 
Heartbeat CPU  0 instructions:  129000001 cycles:  545834369 heartbeat IPC: 0.08184 cumulative IPC: 0.06255 (Simulation time: 0 hr 6 min 29 sec) 
Heartbeat CPU  0 instructions:  130000003 cycles:  576070974 heartbeat IPC: 0.03307 cumulative IPC: 0.06075 (Simulation time: 0 hr 6 min 42 sec) 
Heartbeat CPU  0 instructions:  131000002 cycles:  587273907 heartbeat IPC: 0.08926 cumulative IPC: 0.06138 (Simulation time: 0 hr 6 min 48 sec) 
Heartbeat CPU  0 instructions:  132000000 cycles:  594940086 heartbeat IPC: 0.13044 cumulative IPC: 0.06241 (Simulation time: 0 hr 6 min 52 sec) 
Heartbeat CPU  0 instructions:  133000000 cycles:  602770609 heartbeat IPC: 0.12771 cumulative IPC: 0.06339 (Simulation time: 0 hr 6 min 56 sec) 
Heartbeat CPU  0 instructions:  134000001 cycles:  629664597 heartbeat IPC: 0.03718 cumulative IPC: 0.06210 (Simulation time: 0 hr 7 min 8 sec) 
Heartbeat CPU  0 instructions:  135000000 cycles:  648116072 heartbeat IPC: 0.05420 cumulative IPC: 0.06185 (Simulation time: 0 hr 7 min 17 sec) 
Heartbeat CPU  0 instructions:  136000000 cycles:  656065672 heartbeat IPC: 0.12579 cumulative IPC: 0.06273 (Simulation time: 0 hr 7 min 21 sec) 
Heartbeat CPU  0 instructions:  137000002 cycles:  663657981 heartbeat IPC: 0.13171 cumulative IPC: 0.06363 (Simulation time: 0 hr 7 min 26 sec) 
Heartbeat CPU  0 instructions:  138000001 cycles:  686205908 heartbeat IPC: 0.04435 cumulative IPC: 0.06291 (Simulation time: 0 hr 7 min 36 sec) 
Heartbeat CPU  0 instructions:  139000000 cycles:  708163686 heartbeat IPC: 0.04554 cumulative IPC: 0.06230 (Simulation time: 0 hr 7 min 46 sec) 
Heartbeat CPU  0 instructions:  140000000 cycles:  716466300 heartbeat IPC: 0.12044 cumulative IPC: 0.06307 (Simulation time: 0 hr 7 min 51 sec) 
Heartbeat CPU  0 instructions:  141000000 cycles:  724154074 heartbeat IPC: 0.13008 cumulative IPC: 0.06387 (Simulation time: 0 hr 7 min 55 sec) 
Heartbeat CPU  0 instructions:  142000001 cycles:  744131767 heartbeat IPC: 0.05006 cumulative IPC: 0.06345 (Simulation time: 0 hr 8 min 5 sec) 
Heartbeat CPU  0 instructions:  143000001 cycles:  768567430 heartbeat IPC: 0.04092 cumulative IPC: 0.06265 (Simulation time: 0 hr 8 min 16 sec) 
Heartbeat CPU  0 instructions:  144000000 cycles:  777106196 heartbeat IPC: 0.11711 cumulative IPC: 0.06332 (Simulation time: 0 hr 8 min 21 sec) 
Heartbeat CPU  0 instructions:  145000002 cycles:  784762343 heartbeat IPC: 0.13061 cumulative IPC: 0.06405 (Simulation time: 0 hr 8 min 25 sec) 
Heartbeat CPU  0 instructions:  146000000 cycles:  802113036 heartbeat IPC: 0.05763 cumulative IPC: 0.06390 (Simulation time: 0 hr 8 min 34 sec) 
Heartbeat CPU  0 instructions:  147000003 cycles:  828617546 heartbeat IPC: 0.03773 cumulative IPC: 0.06297 (Simulation time: 0 hr 8 min 45 sec) 
Heartbeat CPU  0 instructions:  148000000 cycles:  837450948 heartbeat IPC: 0.11321 cumulative IPC: 0.06356 (Simulation time: 0 hr 8 min 50 sec) 
Heartbeat CPU  0 instructions:  149000003 cycles:  845179252 heartbeat IPC: 0.12939 cumulative IPC: 0.06422 (Simulation time: 0 hr 8 min 55 sec) 
Heartbeat CPU  0 instructions:  150000002 cycles:  860710926 heartbeat IPC: 0.06438 cumulative IPC: 0.06423 (Simulation time: 0 hr 9 min 2 sec) 
Heartbeat CPU  0 instructions:  151000001 cycles:  888471381 heartbeat IPC: 0.03602 cumulative IPC: 0.06325 (Simulation time: 0 hr 9 min 15 sec) 
Heartbeat CPU  0 instructions:  152000000 cycles:  897727893 heartbeat IPC: 0.10803 cumulative IPC: 0.06376 (Simulation time: 0 hr 9 min 20 sec) 
Heartbeat CPU  0 instructions:  153000000 cycles:  905559159 heartbeat IPC: 0.12769 cumulative IPC: 0.06437 (Simulation time: 0 hr 9 min 24 sec) 
Heartbeat CPU  0 instructions:  154000000 cycles:  916635053 heartbeat IPC: 0.09029 cumulative IPC: 0.06471 (Simulation time: 0 hr 9 min 30 sec) 
Heartbeat CPU  0 instructions:  155000000 cycles:  948648113 heartbeat IPC: 0.03124 cumulative IPC: 0.06348 (Simulation time: 0 hr 9 min 44 sec) 
Heartbeat CPU  0 instructions:  156000000 cycles:  958331050 heartbeat IPC: 0.10327 cumulative IPC: 0.06392 (Simulation time: 0 hr 9 min 49 sec) 
Heartbeat CPU  0 instructions:  157000000 cycles:  970001811 heartbeat IPC: 0.08568 cumulative IPC: 0.06420 (Simulation time: 0 hr 9 min 54 sec) 
Heartbeat CPU  0 instructions:  158000001 cycles:  978366136 heartbeat IPC: 0.11956 cumulative IPC: 0.06472 (Simulation time: 0 hr 9 min 58 sec) 
Heartbeat CPU  0 instructions:  159000000 cycles: 1002730651 heartbeat IPC: 0.04104 cumulative IPC: 0.06409 (Simulation time: 0 hr 10 min 9 sec) 
Heartbeat CPU  0 instructions:  160000000 cycles: 1023498284 heartbeat IPC: 0.04815 cumulative IPC: 0.06374 (Simulation time: 0 hr 10 min 18 sec) 
Heartbeat CPU  0 instructions:  161000003 cycles: 1032160722 heartbeat IPC: 0.11544 cumulative IPC: 0.06421 (Simulation time: 0 hr 10 min 22 sec) 
Heartbeat CPU  0 instructions:  162000000 cycles: 1044073315 heartbeat IPC: 0.08394 cumulative IPC: 0.06446 (Simulation time: 0 hr 10 min 28 sec) 
Heartbeat CPU  0 instructions:  163000000 cycles: 1062382653 heartbeat IPC: 0.05462 cumulative IPC: 0.06427 (Simulation time: 0 hr 10 min 37 sec) 
Heartbeat CPU  0 instructions:  164000000 cycles: 1088508087 heartbeat IPC: 0.03828 cumulative IPC: 0.06360 (Simulation time: 0 hr 10 min 48 sec) 
Heartbeat CPU  0 instructions:  165000002 cycles: 1104520993 heartbeat IPC: 0.06245 cumulative IPC: 0.06358 (Simulation time: 0 hr 10 min 56 sec) 
Heartbeat CPU  0 instructions:  166000003 cycles: 1115184255 heartbeat IPC: 0.09378 cumulative IPC: 0.06389 (Simulation time: 0 hr 11 min 2 sec) 
Heartbeat CPU  0 instructions:  167000003 cycles: 1129257553 heartbeat IPC: 0.07106 cumulative IPC: 0.06399 (Simulation time: 0 hr 11 min 8 sec) 
Heartbeat CPU  0 instructions:  168000000 cycles: 1158200785 heartbeat IPC: 0.03455 cumulative IPC: 0.06320 (Simulation time: 0 hr 11 min 21 sec) 
Heartbeat CPU  0 instructions:  169000000 cycles: 1167412041 heartbeat IPC: 0.10856 cumulative IPC: 0.06358 (Simulation time: 0 hr 11 min 26 sec) 
Heartbeat CPU  0 instructions:  170000000 cycles: 1175185594 heartbeat IPC: 0.12864 cumulative IPC: 0.06404 (Simulation time: 0 hr 11 min 30 sec) 
Heartbeat CPU  0 instructions:  171000000 cycles: 1192350944 heartbeat IPC: 0.05826 cumulative IPC: 0.06396 (Simulation time: 0 hr 11 min 38 sec) 
Heartbeat CPU  0 instructions:  172000000 cycles: 1218462403 heartbeat IPC: 0.03830 cumulative IPC: 0.06337 (Simulation time: 0 hr 11 min 49 sec) 
Heartbeat CPU  0 instructions:  173000000 cycles: 1228271234 heartbeat IPC: 0.10195 cumulative IPC: 0.06370 (Simulation time: 0 hr 11 min 55 sec) 
Heartbeat CPU  0 instructions:  174000002 cycles: 1237628740 heartbeat IPC: 0.10687 cumulative IPC: 0.06405 (Simulation time: 0 hr 12 min 0 sec) 
Heartbeat CPU  0 instructions:  175000003 cycles: 1253055409 heartbeat IPC: 0.06482 cumulative IPC: 0.06406 (Simulation time: 0 hr 12 min 7 sec) 
Heartbeat CPU  0 instructions:  176000000 cycles: 1281451050 heartbeat IPC: 0.03522 cumulative IPC: 0.06337 (Simulation time: 0 hr 12 min 19 sec) 
Heartbeat CPU  0 instructions:  177000002 cycles: 1290559590 heartbeat IPC: 0.10979 cumulative IPC: 0.06372 (Simulation time: 0 hr 12 min 24 sec) 
Heartbeat CPU  0 instructions:  178000001 cycles: 1298692490 heartbeat IPC: 0.12296 cumulative IPC: 0.06412 (Simulation time: 0 hr 12 min 29 sec) 
Heartbeat CPU  0 instructions:  179000000 cycles: 1316061123 heartbeat IPC: 0.05757 cumulative IPC: 0.06403 (Simulation time: 0 hr 12 min 37 sec) 
Heartbeat CPU  0 instructions:  180000000 cycles: 1342513678 heartbeat IPC: 0.03780 cumulative IPC: 0.06348 (Simulation time: 0 hr 12 min 49 sec) 
Heartbeat CPU  0 instructions:  181000002 cycles: 1351326573 heartbeat IPC: 0.11347 cumulative IPC: 0.06382 (Simulation time: 0 hr 12 min 54 sec) 
Heartbeat CPU  0 instructions:  182000000 cycles: 1359478652 heartbeat IPC: 0.12267 cumulative IPC: 0.06420 (Simulation time: 0 hr 12 min 58 sec) 
Heartbeat CPU  0 instructions:  183000002 cycles: 1374615511 heartbeat IPC: 0.06606 cumulative IPC: 0.06422 (Simulation time: 0 hr 13 min 5 sec) 
Heartbeat CPU  0 instructions:  184000000 cycles: 1402524248 heartbeat IPC: 0.03583 cumulative IPC: 0.06362 (Simulation time: 0 hr 13 min 17 sec) 
Heartbeat CPU  0 instructions:  185000001 cycles: 1411621565 heartbeat IPC: 0.10992 cumulative IPC: 0.06394 (Simulation time: 0 hr 13 min 22 sec) 
Heartbeat CPU  0 instructions:  186000000 cycles: 1419554833 heartbeat IPC: 0.12605 cumulative IPC: 0.06431 (Simulation time: 0 hr 13 min 26 sec) 
Heartbeat CPU  0 instructions:  187000001 cycles: 1432805934 heartbeat IPC: 0.07547 cumulative IPC: 0.06442 (Simulation time: 0 hr 13 min 33 sec) 
Heartbeat CPU  0 instructions:  188000000 cycles: 1464953090 heartbeat IPC: 0.03111 cumulative IPC: 0.06364 (Simulation time: 0 hr 13 min 47 sec) 
Heartbeat CPU  0 instructions:  189000001 cycles: 1475011917 heartbeat IPC: 0.09942 cumulative IPC: 0.06390 (Simulation time: 0 hr 13 min 52 sec) 
Heartbeat CPU  0 instructions:  190000001 cycles: 1484879059 heartbeat IPC: 0.10135 cumulative IPC: 0.06416 (Simulation time: 0 hr 13 min 57 sec) 
Heartbeat CPU  0 instructions:  191000000 cycles: 1495920701 heartbeat IPC: 0.09057 cumulative IPC: 0.06437 (Simulation time: 0 hr 14 min 2 sec) 
Heartbeat CPU  0 instructions:  192000000 cycles: 1522085322 heartbeat IPC: 0.03822 cumulative IPC: 0.06389 (Simulation time: 0 hr 14 min 14 sec) 
Heartbeat CPU  0 instructions:  193000001 cycles: 1540793801 heartbeat IPC: 0.05345 cumulative IPC: 0.06376 (Simulation time: 0 hr 14 min 22 sec) 
Heartbeat CPU  0 instructions:  194000000 cycles: 1548880531 heartbeat IPC: 0.12366 cumulative IPC: 0.06409 (Simulation time: 0 hr 14 min 26 sec) 
Heartbeat CPU  0 instructions:  195000000 cycles: 1557281056 heartbeat IPC: 0.11904 cumulative IPC: 0.06440 (Simulation time: 0 hr 14 min 31 sec) 
Heartbeat CPU  0 instructions:  196000000 cycles: 1581800503 heartbeat IPC: 0.04078 cumulative IPC: 0.06402 (Simulation time: 0 hr 14 min 42 sec) 
Heartbeat CPU  0 instructions:  197000000 cycles: 1601634704 heartbeat IPC: 0.05042 cumulative IPC: 0.06384 (Simulation time: 0 hr 14 min 51 sec) 
Heartbeat CPU  0 instructions:  198000000 cycles: 1609670318 heartbeat IPC: 0.12445 cumulative IPC: 0.06416 (Simulation time: 0 hr 14 min 56 sec) 
Heartbeat CPU  0 instructions:  199000000 cycles: 1617372185 heartbeat IPC: 0.12984 cumulative IPC: 0.06449 (Simulation time: 0 hr 15 min 0 sec) 
Heartbeat CPU  0 instructions:  200000000 cycles: 1648479894 heartbeat IPC: 0.03215 cumulative IPC: 0.06385 (Simulation time: 0 hr 15 min 14 sec) 
Heartbeat CPU  0 instructions:  201000001 cycles: 1661295880 heartbeat IPC: 0.07803 cumulative IPC: 0.06396 (Simulation time: 0 hr 15 min 20 sec) 
Heartbeat CPU  0 instructions:  202000003 cycles: 1669268798 heartbeat IPC: 0.12542 cumulative IPC: 0.06427 (Simulation time: 0 hr 15 min 25 sec) 
Heartbeat CPU  0 instructions:  203000003 cycles: 1680726506 heartbeat IPC: 0.08728 cumulative IPC: 0.06443 (Simulation time: 0 hr 15 min 31 sec) 
Heartbeat CPU  0 instructions:  204000000 cycles: 1711397593 heartbeat IPC: 0.03260 cumulative IPC: 0.06384 (Simulation time: 0 hr 15 min 44 sec) 
Heartbeat CPU  0 instructions:  205000000 cycles: 1722049254 heartbeat IPC: 0.09388 cumulative IPC: 0.06403 (Simulation time: 0 hr 15 min 50 sec) 
Heartbeat CPU  0 instructions:  206000002 cycles: 1730950953 heartbeat IPC: 0.11234 cumulative IPC: 0.06429 (Simulation time: 0 hr 15 min 55 sec) 
Heartbeat CPU  0 instructions:  207000002 cycles: 1744170608 heartbeat IPC: 0.07564 cumulative IPC: 0.06438 (Simulation time: 0 hr 16 min 1 sec) 
Heartbeat CPU  0 instructions:  208000000 cycles: 1774031628 heartbeat IPC: 0.03349 cumulative IPC: 0.06384 (Simulation time: 0 hr 16 min 14 sec) 
Heartbeat CPU  0 instructions:  209000002 cycles: 1783845015 heartbeat IPC: 0.10190 cumulative IPC: 0.06406 (Simulation time: 0 hr 16 min 20 sec) 
Heartbeat CPU  0 instructions:  210000002 cycles: 1793236020 heartbeat IPC: 0.10648 cumulative IPC: 0.06429 (Simulation time: 0 hr 16 min 25 sec) 
Heartbeat CPU  0 instructions:  211000000 cycles: 1811853940 heartbeat IPC: 0.05371 cumulative IPC: 0.06417 (Simulation time: 0 hr 16 min 33 sec) 
Heartbeat CPU  0 instructions:  212000000 cycles: 1837963494 heartbeat IPC: 0.03830 cumulative IPC: 0.06379 (Simulation time: 0 hr 16 min 45 sec) 
Heartbeat CPU  0 instructions:  213000002 cycles: 1846954881 heartbeat IPC: 0.11122 cumulative IPC: 0.06403 (Simulation time: 0 hr 16 min 50 sec) 
Heartbeat CPU  0 instructions:  214000001 cycles: 1855879772 heartbeat IPC: 0.11205 cumulative IPC: 0.06427 (Simulation time: 0 hr 16 min 54 sec) 
Heartbeat CPU  0 instructions:  215000000 cycles: 1878519052 heartbeat IPC: 0.04417 cumulative IPC: 0.06402 (Simulation time: 0 hr 17 min 5 sec) 
Heartbeat CPU  0 instructions:  216000000 cycles: 1901652111 heartbeat IPC: 0.04323 cumulative IPC: 0.06376 (Simulation time: 0 hr 17 min 15 sec) 
Heartbeat CPU  0 instructions:  217000000 cycles: 1912508225 heartbeat IPC: 0.09211 cumulative IPC: 0.06392 (Simulation time: 0 hr 17 min 20 sec) 
Heartbeat CPU  0 instructions:  218000001 cycles: 1920912954 heartbeat IPC: 0.11898 cumulative IPC: 0.06418 (Simulation time: 0 hr 17 min 25 sec) 
Heartbeat CPU  0 instructions:  219000003 cycles: 1943896775 heartbeat IPC: 0.04351 cumulative IPC: 0.06392 (Simulation time: 0 hr 17 min 36 sec) 
Heartbeat CPU  0 instructions:  220000000 cycles: 1966818699 heartbeat IPC: 0.04363 cumulative IPC: 0.06367 (Simulation time: 0 hr 17 min 46 sec) 
Heartbeat CPU  0 instructions:  221000003 cycles: 1975731625 heartbeat IPC: 0.11220 cumulative IPC: 0.06390 (Simulation time: 0 hr 17 min 51 sec) 
Heartbeat CPU  0 instructions:  222000000 cycles: 1983886661 heartbeat IPC: 0.12262 cumulative IPC: 0.06415 (Simulation time: 0 hr 17 min 56 sec) 
Heartbeat CPU  0 instructions:  223000001 cycles: 2016937174 heartbeat IPC: 0.03026 cumulative IPC: 0.06357 (Simulation time: 0 hr 18 min 10 sec) 
Heartbeat CPU  0 instructions:  224000000 cycles: 2028313853 heartbeat IPC: 0.08790 cumulative IPC: 0.06372 (Simulation time: 0 hr 18 min 16 sec) 
Heartbeat CPU  0 instructions:  225000000 cycles: 2036274505 heartbeat IPC: 0.12562 cumulative IPC: 0.06397 (Simulation time: 0 hr 18 min 21 sec) 
Heartbeat CPU  0 instructions:  226000003 cycles: 2051574863 heartbeat IPC: 0.06536 cumulative IPC: 0.06398 (Simulation time: 0 hr 18 min 28 sec) 
Heartbeat CPU  0 instructions:  227000001 cycles: 2079277494 heartbeat IPC: 0.03610 cumulative IPC: 0.06359 (Simulation time: 0 hr 18 min 40 sec) 
Heartbeat CPU  0 instructions:  228000000 cycles: 2088425600 heartbeat IPC: 0.10931 cumulative IPC: 0.06380 (Simulation time: 0 hr 18 min 46 sec) 
Heartbeat CPU  0 instructions:  229000000 cycles: 2096461109 heartbeat IPC: 0.12445 cumulative IPC: 0.06404 (Simulation time: 0 hr 18 min 50 sec) 
Heartbeat CPU  0 instructions:  230000002 cycles: 2120003794 heartbeat IPC: 0.04248 cumulative IPC: 0.06379 (Simulation time: 0 hr 19 min 1 sec) 
Heartbeat CPU  0 instructions:  231000003 cycles: 2140427149 heartbeat IPC: 0.04896 cumulative IPC: 0.06365 (Simulation time: 0 hr 19 min 11 sec) 
Heartbeat CPU  0 instructions:  232000000 cycles: 2148591165 heartbeat IPC: 0.12249 cumulative IPC: 0.06388 (Simulation time: 0 hr 19 min 15 sec) 
Heartbeat CPU  0 instructions:  233000002 cycles: 2157369574 heartbeat IPC: 0.11392 cumulative IPC: 0.06409 (Simulation time: 0 hr 19 min 21 sec) 
Heartbeat CPU  0 instructions:  234000000 cycles: 2190687549 heartbeat IPC: 0.03001 cumulative IPC: 0.06355 (Simulation time: 0 hr 19 min 35 sec) 
Heartbeat CPU  0 instructions:  235000000 cycles: 2201047270 heartbeat IPC: 0.09653 cumulative IPC: 0.06371 (Simulation time: 0 hr 19 min 41 sec) 
Heartbeat CPU  0 instructions:  236000000 cycles: 2210095292 heartbeat IPC: 0.11052 cumulative IPC: 0.06391 (Simulation time: 0 hr 19 min 46 sec) 
Heartbeat CPU  0 instructions:  237000003 cycles: 2225181663 heartbeat IPC: 0.06629 cumulative IPC: 0.06393 (Simulation time: 0 hr 19 min 53 sec) 
Heartbeat CPU  0 instructions:  238000003 cycles: 2253456038 heartbeat IPC: 0.03537 cumulative IPC: 0.06356 (Simulation time: 0 hr 20 min 6 sec) 
Heartbeat CPU  0 instructions:  239000000 cycles: 2262449398 heartbeat IPC: 0.11119 cumulative IPC: 0.06375 (Simulation time: 0 hr 20 min 11 sec) 
Heartbeat CPU  0 instructions:  240000000 cycles: 2270137581 heartbeat IPC: 0.13007 cumulative IPC: 0.06399 (Simulation time: 0 hr 20 min 15 sec) 
Heartbeat CPU  0 instructions:  241000000 cycles: 2292561688 heartbeat IPC: 0.04459 cumulative IPC: 0.06379 (Simulation time: 0 hr 20 min 26 sec) 
Heartbeat CPU  0 instructions:  242000000 cycles: 2315683946 heartbeat IPC: 0.04325 cumulative IPC: 0.06358 (Simulation time: 0 hr 20 min 36 sec) 
Heartbeat CPU  0 instructions:  243000003 cycles: 2339921535 heartbeat IPC: 0.04126 cumulative IPC: 0.06334 (Simulation time: 0 hr 20 min 46 sec) 
Heartbeat CPU  0 instructions:  244000000 cycles: 2349077930 heartbeat IPC: 0.10921 cumulative IPC: 0.06352 (Simulation time: 0 hr 20 min 51 sec) 
Heartbeat CPU  0 instructions:  245000003 cycles: 2365692072 heartbeat IPC: 0.06019 cumulative IPC: 0.06350 (Simulation time: 0 hr 20 min 59 sec) 
Heartbeat CPU  0 instructions:  246000001 cycles: 2392865404 heartbeat IPC: 0.03680 cumulative IPC: 0.06319 (Simulation time: 0 hr 21 min 11 sec) 
Heartbeat CPU  0 instructions:  247000000 cycles: 2401899654 heartbeat IPC: 0.11069 cumulative IPC: 0.06337 (Simulation time: 0 hr 21 min 16 sec) 
Heartbeat CPU  0 instructions:  248000000 cycles: 2409699178 heartbeat IPC: 0.12821 cumulative IPC: 0.06359 (Simulation time: 0 hr 21 min 20 sec) 
Heartbeat CPU  0 instructions:  249000000 cycles: 2432533045 heartbeat IPC: 0.04379 cumulative IPC: 0.06340 (Simulation time: 0 hr 21 min 31 sec) 
Heartbeat CPU  0 instructions:  250000003 cycles: 2454699065 heartbeat IPC: 0.04511 cumulative IPC: 0.06322 (Simulation time: 0 hr 21 min 41 sec) 
Heartbeat CPU  0 instructions:  251000002 cycles: 2462883976 heartbeat IPC: 0.12218 cumulative IPC: 0.06343 (Simulation time: 0 hr 21 min 45 sec) 
Heartbeat CPU  0 instructions:  252000000 cycles: 2470690746 heartbeat IPC: 0.12809 cumulative IPC: 0.06364 (Simulation time: 0 hr 21 min 50 sec) 
Heartbeat CPU  0 instructions:  253000002 cycles: 2502213556 heartbeat IPC: 0.03172 cumulative IPC: 0.06322 (Simulation time: 0 hr 22 min 4 sec) 
Heartbeat CPU  0 instructions:  254000000 cycles: 2515494534 heartbeat IPC: 0.07530 cumulative IPC: 0.06329 (Simulation time: 0 hr 22 min 10 sec) 
Heartbeat CPU  0 instructions:  255000000 cycles: 2531208208 heartbeat IPC: 0.06364 cumulative IPC: 0.06329 (Simulation time: 0 hr 22 min 17 sec) 
Heartbeat CPU  0 instructions:  256000000 cycles: 2559489825 heartbeat IPC: 0.03536 cumulative IPC: 0.06297 (Simulation time: 0 hr 22 min 29 sec) 
Heartbeat CPU  0 instructions:  257000000 cycles: 2581097634 heartbeat IPC: 0.04628 cumulative IPC: 0.06283 (Simulation time: 0 hr 22 min 39 sec) 
Heartbeat CPU  0 instructions:  258000002 cycles: 2610742188 heartbeat IPC: 0.03373 cumulative IPC: 0.06249 (Simulation time: 0 hr 22 min 51 sec) 
Heartbeat CPU  0 instructions:  259000002 cycles: 2621554862 heartbeat IPC: 0.09248 cumulative IPC: 0.06261 (Simulation time: 0 hr 22 min 57 sec) 
Heartbeat CPU  0 instructions:  260000000 cycles: 2631001408 heartbeat IPC: 0.10586 cumulative IPC: 0.06277 (Simulation time: 0 hr 23 min 3 sec) 
Heartbeat CPU  0 instructions:  261000002 cycles: 2648959708 heartbeat IPC: 0.05568 cumulative IPC: 0.06273 (Simulation time: 0 hr 23 min 11 sec) 
Heartbeat CPU  0 instructions:  262000002 cycles: 2676424586 heartbeat IPC: 0.03641 cumulative IPC: 0.06245 (Simulation time: 0 hr 23 min 23 sec) 
Heartbeat CPU  0 instructions:  263000002 cycles: 2684684907 heartbeat IPC: 0.12106 cumulative IPC: 0.06263 (Simulation time: 0 hr 23 min 28 sec) 
Heartbeat CPU  0 instructions:  264000000 cycles: 2692513869 heartbeat IPC: 0.12773 cumulative IPC: 0.06283 (Simulation time: 0 hr 23 min 33 sec) 
Heartbeat CPU  0 instructions:  265000002 cycles: 2717232339 heartbeat IPC: 0.04046 cumulative IPC: 0.06262 (Simulation time: 0 hr 23 min 44 sec) 
Heartbeat CPU  0 instructions:  266000000 cycles: 2743268072 heartbeat IPC: 0.03841 cumulative IPC: 0.06238 (Simulation time: 0 hr 23 min 56 sec) 
Heartbeat CPU  0 instructions:  267000001 cycles: 2763161632 heartbeat IPC: 0.05027 cumulative IPC: 0.06229 (Simulation time: 0 hr 24 min 4 sec) 
Heartbeat CPU  0 instructions:  268000000 cycles: 2771131500 heartbeat IPC: 0.12547 cumulative IPC: 0.06248 (Simulation time: 0 hr 24 min 9 sec) 
Heartbeat CPU  0 instructions:  269000002 cycles: 2790284605 heartbeat IPC: 0.05221 cumulative IPC: 0.06241 (Simulation time: 0 hr 24 min 18 sec) 
Heartbeat CPU  0 instructions:  270000001 cycles: 2820679003 heartbeat IPC: 0.03290 cumulative IPC: 0.06208 (Simulation time: 0 hr 24 min 31 sec) 
Heartbeat CPU  0 instructions:  271000001 cycles: 2835390836 heartbeat IPC: 0.06797 cumulative IPC: 0.06211 (Simulation time: 0 hr 24 min 38 sec) 
Heartbeat CPU  0 instructions:  272000000 cycles: 2852807629 heartbeat IPC: 0.05742 cumulative IPC: 0.06208 (Simulation time: 0 hr 24 min 46 sec) 
Heartbeat CPU  0 instructions:  273000003 cycles: 2865106230 heartbeat IPC: 0.08131 cumulative IPC: 0.06217 (Simulation time: 0 hr 24 min 53 sec) 
Heartbeat CPU  0 instructions:  274000000 cycles: 2896568246 heartbeat IPC: 0.03178 cumulative IPC: 0.06183 (Simulation time: 0 hr 25 min 6 sec) 
Heartbeat CPU  0 instructions:  275000002 cycles: 2906869763 heartbeat IPC: 0.09707 cumulative IPC: 0.06195 (Simulation time: 0 hr 25 min 12 sec) 
Heartbeat CPU  0 instructions:  276000000 cycles: 2915310628 heartbeat IPC: 0.11847 cumulative IPC: 0.06212 (Simulation time: 0 hr 25 min 17 sec) 
Heartbeat CPU  0 instructions:  277000002 cycles: 2930628558 heartbeat IPC: 0.06528 cumulative IPC: 0.06214 (Simulation time: 0 hr 25 min 25 sec) 
Heartbeat CPU  0 instructions:  278000001 cycles: 2958385450 heartbeat IPC: 0.03603 cumulative IPC: 0.06189 (Simulation time: 0 hr 25 min 37 sec) 
Heartbeat CPU  0 instructions:  279000000 cycles: 2967469285 heartbeat IPC: 0.11009 cumulative IPC: 0.06204 (Simulation time: 0 hr 25 min 42 sec) 
Heartbeat CPU  0 instructions:  280000000 cycles: 2975314952 heartbeat IPC: 0.12746 cumulative IPC: 0.06222 (Simulation time: 0 hr 25 min 47 sec) 
Heartbeat CPU  0 instructions:  281000002 cycles: 2996456122 heartbeat IPC: 0.04730 cumulative IPC: 0.06211 (Simulation time: 0 hr 25 min 57 sec) 
Heartbeat CPU  0 instructions:  282000000 cycles: 3019623140 heartbeat IPC: 0.04316 cumulative IPC: 0.06196 (Simulation time: 0 hr 26 min 7 sec) 
Heartbeat CPU  0 instructions:  283000001 cycles: 3027855602 heartbeat IPC: 0.12147 cumulative IPC: 0.06213 (Simulation time: 0 hr 26 min 12 sec) 
Heartbeat CPU  0 instructions:  284000000 cycles: 3035899182 heartbeat IPC: 0.12432 cumulative IPC: 0.06229 (Simulation time: 0 hr 26 min 17 sec) 
Heartbeat CPU  0 instructions:  285000003 cycles: 3063545856 heartbeat IPC: 0.03617 cumulative IPC: 0.06205 (Simulation time: 0 hr 26 min 29 sec) 
Heartbeat CPU  0 instructions:  286000001 cycles: 3080938449 heartbeat IPC: 0.05750 cumulative IPC: 0.06203 (Simulation time: 0 hr 26 min 38 sec) 
Heartbeat CPU  0 instructions:  287000001 cycles: 3089265744 heartbeat IPC: 0.12009 cumulative IPC: 0.06219 (Simulation time: 0 hr 26 min 43 sec) 
Heartbeat CPU  0 instructions:  288000000 cycles: 3097169777 heartbeat IPC: 0.12652 cumulative IPC: 0.06236 (Simulation time: 0 hr 26 min 47 sec) 
Heartbeat CPU  0 instructions:  289000002 cycles: 3131221555 heartbeat IPC: 0.02937 cumulative IPC: 0.06199 (Simulation time: 0 hr 27 min 2 sec) 
Heartbeat CPU  0 instructions:  290000002 cycles: 3142160682 heartbeat IPC: 0.09141 cumulative IPC: 0.06209 (Simulation time: 0 hr 27 min 8 sec) 
Heartbeat CPU  0 instructions:  291000000 cycles: 3150171963 heartbeat IPC: 0.12482 cumulative IPC: 0.06226 (Simulation time: 0 hr 27 min 13 sec) 
Heartbeat CPU  0 instructions:  292000000 cycles: 3164138494 heartbeat IPC: 0.07160 cumulative IPC: 0.06230 (Simulation time: 0 hr 27 min 20 sec) 
Heartbeat CPU  0 instructions:  293000000 cycles: 3193914745 heartbeat IPC: 0.03358 cumulative IPC: 0.06202 (Simulation time: 0 hr 27 min 33 sec) 
Heartbeat CPU  0 instructions:  294000000 cycles: 3203473095 heartbeat IPC: 0.10462 cumulative IPC: 0.06215 (Simulation time: 0 hr 27 min 38 sec) 
Heartbeat CPU  0 instructions:  295000001 cycles: 3211320724 heartbeat IPC: 0.12743 cumulative IPC: 0.06232 (Simulation time: 0 hr 27 min 43 sec) 
Heartbeat CPU  0 instructions:  296000000 cycles: 3229640506 heartbeat IPC: 0.05459 cumulative IPC: 0.06227 (Simulation time: 0 hr 27 min 51 sec) 
Heartbeat CPU  0 instructions:  297000000 cycles: 3255766990 heartbeat IPC: 0.03828 cumulative IPC: 0.06208 (Simulation time: 0 hr 28 min 3 sec) 
Heartbeat CPU  0 instructions:  298000001 cycles: 3264511525 heartbeat IPC: 0.11436 cumulative IPC: 0.06222 (Simulation time: 0 hr 28 min 8 sec) 
Heartbeat CPU  0 instructions:  299000002 cycles: 3272522968 heartbeat IPC: 0.12482 cumulative IPC: 0.06238 (Simulation time: 0 hr 28 min 13 sec) 
Heartbeat CPU  0 instructions:  300000000 cycles: 3294513314 heartbeat IPC: 0.04547 cumulative IPC: 0.06226 (Simulation time: 0 hr 28 min 22 sec) 
Heartbeat CPU  0 instructions:  301000001 cycles: 3316524945 heartbeat IPC: 0.04543 cumulative IPC: 0.06215 (Simulation time: 0 hr 28 min 33 sec) 
Heartbeat CPU  0 instructions:  302000001 cycles: 3324686026 heartbeat IPC: 0.12253 cumulative IPC: 0.06230 (Simulation time: 0 hr 28 min 37 sec) 
Heartbeat CPU  0 instructions:  303000000 cycles: 3332486742 heartbeat IPC: 0.12819 cumulative IPC: 0.06246 (Simulation time: 0 hr 28 min 42 sec) 
Heartbeat CPU  0 instructions:  304000000 cycles: 3356207346 heartbeat IPC: 0.04216 cumulative IPC: 0.06231 (Simulation time: 0 hr 28 min 52 sec) 
Heartbeat CPU  0 instructions:  305000002 cycles: 3377022082 heartbeat IPC: 0.04804 cumulative IPC: 0.06222 (Simulation time: 0 hr 29 min 2 sec) 
Heartbeat CPU  0 instructions:  306000000 cycles: 3385232184 heartbeat IPC: 0.12180 cumulative IPC: 0.06237 (Simulation time: 0 hr 29 min 6 sec) 
Heartbeat CPU  0 instructions:  307000001 cycles: 3393476097 heartbeat IPC: 0.12130 cumulative IPC: 0.06251 (Simulation time: 0 hr 29 min 11 sec) 
Heartbeat CPU  0 instructions:  308000000 cycles: 3417885175 heartbeat IPC: 0.04097 cumulative IPC: 0.06236 (Simulation time: 0 hr 29 min 22 sec) 
Heartbeat CPU  0 instructions:  309000000 cycles: 3453500154 heartbeat IPC: 0.02808 cumulative IPC: 0.06199 (Simulation time: 0 hr 29 min 36 sec) 
Heartbeat CPU  0 instructions:  310000000 cycles: 3467868233 heartbeat IPC: 0.06960 cumulative IPC: 0.06203 (Simulation time: 0 hr 29 min 44 sec) 
Heartbeat CPU  0 instructions:  311000000 cycles: 3476047638 heartbeat IPC: 0.12226 cumulative IPC: 0.06217 (Simulation time: 0 hr 29 min 49 sec) 
Heartbeat CPU  0 instructions:  312000000 cycles: 3490295523 heartbeat IPC: 0.07019 cumulative IPC: 0.06220 (Simulation time: 0 hr 29 min 56 sec) 
Heartbeat CPU  0 instructions:  313000002 cycles: 3521574447 heartbeat IPC: 0.03197 cumulative IPC: 0.06193 (Simulation time: 0 hr 30 min 10 sec) 
Heartbeat CPU  0 instructions:  314000001 cycles: 3531368497 heartbeat IPC: 0.10210 cumulative IPC: 0.06204 (Simulation time: 0 hr 30 min 15 sec) 
Heartbeat CPU  0 instructions:  315000001 cycles: 3539299534 heartbeat IPC: 0.12609 cumulative IPC: 0.06219 (Simulation time: 0 hr 30 min 20 sec) 
Heartbeat CPU  0 instructions:  316000000 cycles: 3553141919 heartbeat IPC: 0.07224 cumulative IPC: 0.06223 (Simulation time: 0 hr 30 min 27 sec) 
Heartbeat CPU  0 instructions:  317000002 cycles: 3586686305 heartbeat IPC: 0.02981 cumulative IPC: 0.06192 (Simulation time: 0 hr 30 min 41 sec) 
Heartbeat CPU  0 instructions:  318000003 cycles: 3599876118 heartbeat IPC: 0.07582 cumulative IPC: 0.06197 (Simulation time: 0 hr 30 min 48 sec) 
Heartbeat CPU  0 instructions:  319000000 cycles: 3608168935 heartbeat IPC: 0.12059 cumulative IPC: 0.06211 (Simulation time: 0 hr 30 min 52 sec) 
Heartbeat CPU  0 instructions:  320000000 cycles: 3627325164 heartbeat IPC: 0.05220 cumulative IPC: 0.06206 (Simulation time: 0 hr 31 min 0 sec) 
Heartbeat CPU  0 instructions:  321000001 cycles: 3655052747 heartbeat IPC: 0.03607 cumulative IPC: 0.06186 (Simulation time: 0 hr 31 min 12 sec) 
Heartbeat CPU  0 instructions:  322000000 cycles: 3692215700 heartbeat IPC: 0.02691 cumulative IPC: 0.06150 (Simulation time: 0 hr 31 min 28 sec) 
Heartbeat CPU  0 instructions:  323000000 cycles: 3703169428 heartbeat IPC: 0.09129 cumulative IPC: 0.06159 (Simulation time: 0 hr 31 min 33 sec) 
Heartbeat CPU  0 instructions:  324000000 cycles: 3711610334 heartbeat IPC: 0.11847 cumulative IPC: 0.06172 (Simulation time: 0 hr 31 min 38 sec) 
Heartbeat CPU  0 instructions:  325000002 cycles: 3719338650 heartbeat IPC: 0.12939 cumulative IPC: 0.06186 (Simulation time: 0 hr 31 min 42 sec) 
Heartbeat CPU  0 instructions:  326000002 cycles: 3746118442 heartbeat IPC: 0.03734 cumulative IPC: 0.06168 (Simulation time: 0 hr 31 min 54 sec) 
Heartbeat CPU  0 instructions:  327000000 cycles: 3763977983 heartbeat IPC: 0.05599 cumulative IPC: 0.06166 (Simulation time: 0 hr 32 min 2 sec) 
Heartbeat CPU  0 instructions:  328000000 cycles: 3771962946 heartbeat IPC: 0.12524 cumulative IPC: 0.06179 (Simulation time: 0 hr 32 min 6 sec) 
Heartbeat CPU  0 instructions:  329000000 cycles: 3779703263 heartbeat IPC: 0.12919 cumulative IPC: 0.06193 (Simulation time: 0 hr 32 min 10 sec) 
Heartbeat CPU  0 instructions:  330000001 cycles: 3799417963 heartbeat IPC: 0.05072 cumulative IPC: 0.06187 (Simulation time: 0 hr 32 min 19 sec) 
Heartbeat CPU  0 instructions:  331000001 cycles: 3823705610 heartbeat IPC: 0.04117 cumulative IPC: 0.06174 (Simulation time: 0 hr 32 min 30 sec) 
Heartbeat CPU  0 instructions:  332000000 cycles: 3832382055 heartbeat IPC: 0.11525 cumulative IPC: 0.06186 (Simulation time: 0 hr 32 min 34 sec) 
Heartbeat CPU  0 instructions:  333000000 cycles: 3840259042 heartbeat IPC: 0.12695 cumulative IPC: 0.06200 (Simulation time: 0 hr 32 min 39 sec) 
Heartbeat CPU  0 instructions:  334000001 cycles: 3858254960 heartbeat IPC: 0.05557 cumulative IPC: 0.06197 (Simulation time: 0 hr 32 min 47 sec) 
Heartbeat CPU  0 instructions:  335000000 cycles: 3884459386 heartbeat IPC: 0.03816 cumulative IPC: 0.06181 (Simulation time: 0 hr 32 min 58 sec) 
Heartbeat CPU  0 instructions:  336000000 cycles: 3899241877 heartbeat IPC: 0.06765 cumulative IPC: 0.06183 (Simulation time: 0 hr 33 min 5 sec) 
Heartbeat CPU  0 instructions:  337000000 cycles: 3907445370 heartbeat IPC: 0.12190 cumulative IPC: 0.06196 (Simulation time: 0 hr 33 min 10 sec) 
Heartbeat CPU  0 instructions:  338000000 cycles: 3921011629 heartbeat IPC: 0.07371 cumulative IPC: 0.06200 (Simulation time: 0 hr 33 min 17 sec) 
Heartbeat CPU  0 instructions:  339000002 cycles: 3950897124 heartbeat IPC: 0.03346 cumulative IPC: 0.06178 (Simulation time: 0 hr 33 min 30 sec) 
Heartbeat CPU  0 instructions:  340000000 cycles: 3960707055 heartbeat IPC: 0.10194 cumulative IPC: 0.06188 (Simulation time: 0 hr 33 min 35 sec) 
Heartbeat CPU  0 instructions:  341000001 cycles: 3968803728 heartbeat IPC: 0.12351 cumulative IPC: 0.06201 (Simulation time: 0 hr 33 min 40 sec) 
Heartbeat CPU  0 instructions:  342000000 cycles: 3984233713 heartbeat IPC: 0.06481 cumulative IPC: 0.06202 (Simulation time: 0 hr 33 min 47 sec) 
Heartbeat CPU  0 instructions:  343000001 cycles: 4012555358 heartbeat IPC: 0.03531 cumulative IPC: 0.06183 (Simulation time: 0 hr 34 min 0 sec) 
Heartbeat CPU  0 instructions:  344000000 cycles: 4021845876 heartbeat IPC: 0.10764 cumulative IPC: 0.06193 (Simulation time: 0 hr 34 min 5 sec) 
Heartbeat CPU  0 instructions:  345000000 cycles: 4029632721 heartbeat IPC: 0.12842 cumulative IPC: 0.06207 (Simulation time: 0 hr 34 min 9 sec) 
Heartbeat CPU  0 instructions:  346000003 cycles: 4046885659 heartbeat IPC: 0.05796 cumulative IPC: 0.06205 (Simulation time: 0 hr 34 min 17 sec) 
Heartbeat CPU  0 instructions:  347000001 cycles: 4073094240 heartbeat IPC: 0.03816 cumulative IPC: 0.06189 (Simulation time: 0 hr 34 min 29 sec) 
Heartbeat CPU  0 instructions:  348000000 cycles: 4082439923 heartbeat IPC: 0.10700 cumulative IPC: 0.06200 (Simulation time: 0 hr 34 min 34 sec) 
Heartbeat CPU  0 instructions:  349000001 cycles: 4090437101 heartbeat IPC: 0.12504 cumulative IPC: 0.06212 (Simulation time: 0 hr 34 min 39 sec) 
Heartbeat CPU  0 instructions:  350000000 cycles: 4110632982 heartbeat IPC: 0.04951 cumulative IPC: 0.06206 (Simulation time: 0 hr 34 min 48 sec) 
Heartbeat CPU  0 instructions:  351000003 cycles: 4135503170 heartbeat IPC: 0.04021 cumulative IPC: 0.06192 (Simulation time: 0 hr 34 min 59 sec) 
Heartbeat CPU  0 instructions:  352000000 cycles: 4143891673 heartbeat IPC: 0.11921 cumulative IPC: 0.06204 (Simulation time: 0 hr 35 min 4 sec) 
Heartbeat CPU  0 instructions:  353000001 cycles: 4151670665 heartbeat IPC: 0.12855 cumulative IPC: 0.06217 (Simulation time: 0 hr 35 min 9 sec) 
Heartbeat CPU  0 instructions:  354000003 cycles: 4174827742 heartbeat IPC: 0.04318 cumulative IPC: 0.06206 (Simulation time: 0 hr 35 min 19 sec) 
Heartbeat CPU  0 instructions:  355000001 cycles: 4196393081 heartbeat IPC: 0.04637 cumulative IPC: 0.06198 (Simulation time: 0 hr 35 min 29 sec) 
Heartbeat CPU  0 instructions:  356000000 cycles: 4205142264 heartbeat IPC: 0.11430 cumulative IPC: 0.06209 (Simulation time: 0 hr 35 min 34 sec) 
Heartbeat CPU  0 instructions:  357000001 cycles: 4212934281 heartbeat IPC: 0.12834 cumulative IPC: 0.06222 (Simulation time: 0 hr 35 min 39 sec) 
Heartbeat CPU  0 instructions:  358000002 cycles: 4240601920 heartbeat IPC: 0.03614 cumulative IPC: 0.06204 (Simulation time: 0 hr 35 min 52 sec) 
Heartbeat CPU  0 instructions:  359000002 cycles: 4258174018 heartbeat IPC: 0.05691 cumulative IPC: 0.06202 (Simulation time: 0 hr 36 min 0 sec) 
Heartbeat CPU  0 instructions:  360000000 cycles: 4266168586 heartbeat IPC: 0.12508 cumulative IPC: 0.06214 (Simulation time: 0 hr 36 min 5 sec) 
Heartbeat CPU  0 instructions:  361000003 cycles: 4273837811 heartbeat IPC: 0.13039 cumulative IPC: 0.06227 (Simulation time: 0 hr 36 min 10 sec) 
Heartbeat CPU  0 instructions:  362000001 cycles: 4307071695 heartbeat IPC: 0.03009 cumulative IPC: 0.06201 (Simulation time: 0 hr 36 min 24 sec) 
Heartbeat CPU  0 instructions:  363000000 cycles: 4318435276 heartbeat IPC: 0.08800 cumulative IPC: 0.06208 (Simulation time: 0 hr 36 min 30 sec) 
Heartbeat CPU  0 instructions:  364000000 cycles: 4326983953 heartbeat IPC: 0.11698 cumulative IPC: 0.06219 (Simulation time: 0 hr 36 min 36 sec) 
Heartbeat CPU  0 instructions:  365000000 cycles: 4339084793 heartbeat IPC: 0.08264 cumulative IPC: 0.06225 (Simulation time: 0 hr 36 min 42 sec) 
Heartbeat CPU  0 instructions:  366000000 cycles: 4369865621 heartbeat IPC: 0.03249 cumulative IPC: 0.06204 (Simulation time: 0 hr 36 min 55 sec) 
Heartbeat CPU  0 instructions:  367000002 cycles: 4379540019 heartbeat IPC: 0.10337 cumulative IPC: 0.06213 (Simulation time: 0 hr 37 min 1 sec) 
Heartbeat CPU  0 instructions:  368000000 cycles: 4389620858 heartbeat IPC: 0.09920 cumulative IPC: 0.06222 (Simulation time: 0 hr 37 min 7 sec) 
Heartbeat CPU  0 instructions:  369000003 cycles: 4407688060 heartbeat IPC: 0.05535 cumulative IPC: 0.06219 (Simulation time: 0 hr 37 min 16 sec) 
Heartbeat CPU  0 instructions:  370000001 cycles: 4433710797 heartbeat IPC: 0.03843 cumulative IPC: 0.06205 (Simulation time: 0 hr 37 min 28 sec) 
Heartbeat CPU  0 instructions:  371000003 cycles: 4442328252 heartbeat IPC: 0.11604 cumulative IPC: 0.06215 (Simulation time: 0 hr 37 min 33 sec) 
Heartbeat CPU  0 instructions:  372000000 cycles: 4450103530 heartbeat IPC: 0.12861 cumulative IPC: 0.06227 (Simulation time: 0 hr 37 min 38 sec) 
Heartbeat CPU  0 instructions:  373000002 cycles: 4475501480 heartbeat IPC: 0.03937 cumulative IPC: 0.06214 (Simulation time: 0 hr 37 min 49 sec) 
Heartbeat CPU  0 instructions:  374000001 cycles: 4494277075 heartbeat IPC: 0.05326 cumulative IPC: 0.06210 (Simulation time: 0 hr 37 min 58 sec) 
Heartbeat CPU  0 instructions:  375000002 cycles: 4502391064 heartbeat IPC: 0.12324 cumulative IPC: 0.06221 (Simulation time: 0 hr 38 min 3 sec) 
Heartbeat CPU  0 instructions:  376000000 cycles: 4512883258 heartbeat IPC: 0.09531 cumulative IPC: 0.06229 (Simulation time: 0 hr 38 min 9 sec) 
Heartbeat CPU  0 instructions:  377000000 cycles: 4544694941 heartbeat IPC: 0.03143 cumulative IPC: 0.06207 (Simulation time: 0 hr 38 min 23 sec) 
Heartbeat CPU  0 instructions:  378000003 cycles: 4554790392 heartbeat IPC: 0.09905 cumulative IPC: 0.06216 (Simulation time: 0 hr 38 min 29 sec) 
Heartbeat CPU  0 instructions:  379000002 cycles: 4562733025 heartbeat IPC: 0.12590 cumulative IPC: 0.06227 (Simulation time: 0 hr 38 min 34 sec) 
Heartbeat CPU  0 instructions:  380000000 cycles: 4582513600 heartbeat IPC: 0.05055 cumulative IPC: 0.06222 (Simulation time: 0 hr 38 min 43 sec) 
Heartbeat CPU  0 instructions:  381000000 cycles: 4606794834 heartbeat IPC: 0.04118 cumulative IPC: 0.06211 (Simulation time: 0 hr 38 min 54 sec) 
Heartbeat CPU  0 instructions:  382000002 cycles: 4615272084 heartbeat IPC: 0.11796 cumulative IPC: 0.06221 (Simulation time: 0 hr 38 min 59 sec) 
Heartbeat CPU  0 instructions:  383000000 cycles: 4623287708 heartbeat IPC: 0.12476 cumulative IPC: 0.06232 (Simulation time: 0 hr 39 min 4 sec) 
Heartbeat CPU  0 instructions:  384000000 cycles: 4651839566 heartbeat IPC: 0.03502 cumulative IPC: 0.06215 (Simulation time: 0 hr 39 min 17 sec) 
Heartbeat CPU  0 instructions:  385000001 cycles: 4668124401 heartbeat IPC: 0.06141 cumulative IPC: 0.06215 (Simulation time: 0 hr 39 min 25 sec) 
Heartbeat CPU  0 instructions:  386000002 cycles: 4676211328 heartbeat IPC: 0.12366 cumulative IPC: 0.06226 (Simulation time: 0 hr 39 min 30 sec) 
Heartbeat CPU  0 instructions:  387000003 cycles: 4688637765 heartbeat IPC: 0.08047 cumulative IPC: 0.06230 (Simulation time: 0 hr 39 min 36 sec) 
Heartbeat CPU  0 instructions:  388000000 cycles: 4718936099 heartbeat IPC: 0.03301 cumulative IPC: 0.06211 (Simulation time: 0 hr 39 min 49 sec) 
Heartbeat CPU  0 instructions:  389000001 cycles: 4728710016 heartbeat IPC: 0.10231 cumulative IPC: 0.06220 (Simulation time: 0 hr 39 min 55 sec) 
Heartbeat CPU  0 instructions:  390000000 cycles: 4736525677 heartbeat IPC: 0.12795 cumulative IPC: 0.06231 (Simulation time: 0 hr 40 min 0 sec) 
Heartbeat CPU  0 instructions:  391000002 cycles: 4756106318 heartbeat IPC: 0.05107 cumulative IPC: 0.06226 (Simulation time: 0 hr 40 min 9 sec) 
Heartbeat CPU  0 instructions:  392000000 cycles: 4780258749 heartbeat IPC: 0.04140 cumulative IPC: 0.06215 (Simulation time: 0 hr 40 min 20 sec) 
Heartbeat CPU  0 instructions:  393000000 cycles: 4788642764 heartbeat IPC: 0.11927 cumulative IPC: 0.06226 (Simulation time: 0 hr 40 min 25 sec) 
Heartbeat CPU  0 instructions:  394000001 cycles: 4796849626 heartbeat IPC: 0.12185 cumulative IPC: 0.06236 (Simulation time: 0 hr 40 min 30 sec) 
Heartbeat CPU  0 instructions:  395000000 cycles: 4824120829 heartbeat IPC: 0.03667 cumulative IPC: 0.06221 (Simulation time: 0 hr 40 min 42 sec) 
Heartbeat CPU  0 instructions:  396000000 cycles: 4841215694 heartbeat IPC: 0.05850 cumulative IPC: 0.06220 (Simulation time: 0 hr 40 min 51 sec) 
Heartbeat CPU  0 instructions:  397000000 cycles: 4849820044 heartbeat IPC: 0.11622 cumulative IPC: 0.06230 (Simulation time: 0 hr 40 min 56 sec) 
Heartbeat CPU  0 instructions:  398000001 cycles: 4859906518 heartbeat IPC: 0.09914 cumulative IPC: 0.06237 (Simulation time: 0 hr 41 min 1 sec) 
Heartbeat CPU  0 instructions:  399000001 cycles: 4892337997 heartbeat IPC: 0.03083 cumulative IPC: 0.06216 (Simulation time: 0 hr 41 min 15 sec) 
Heartbeat CPU  0 instructions:  400000000 cycles: 4902610195 heartbeat IPC: 0.09735 cumulative IPC: 0.06224 (Simulation time: 0 hr 41 min 21 sec) 
Heartbeat CPU  0 instructions:  401000002 cycles: 4910683076 heartbeat IPC: 0.12387 cumulative IPC: 0.06234 (Simulation time: 0 hr 41 min 26 sec) 
Heartbeat CPU  0 instructions:  402000000 cycles: 4929678436 heartbeat IPC: 0.05264 cumulative IPC: 0.06230 (Simulation time: 0 hr 41 min 35 sec) 
Heartbeat CPU  0 instructions:  403000000 cycles: 4954736676 heartbeat IPC: 0.03991 cumulative IPC: 0.06219 (Simulation time: 0 hr 41 min 46 sec) 
Heartbeat CPU  0 instructions:  404000000 cycles: 4964498993 heartbeat IPC: 0.10243 cumulative IPC: 0.06227 (Simulation time: 0 hr 41 min 51 sec) 
Heartbeat CPU  0 instructions:  405000001 cycles: 4977113052 heartbeat IPC: 0.07928 cumulative IPC: 0.06231 (Simulation time: 0 hr 41 min 58 sec) 
Heartbeat CPU  0 instructions:  406000002 cycles: 4999804398 heartbeat IPC: 0.04407 cumulative IPC: 0.06223 (Simulation time: 0 hr 42 min 9 sec) 
Heartbeat CPU  0 instructions:  407000001 cycles: 5022317959 heartbeat IPC: 0.04442 cumulative IPC: 0.06214 (Simulation time: 0 hr 42 min 19 sec) 
Heartbeat CPU  0 instructions:  408000000 cycles: 5030932583 heartbeat IPC: 0.11608 cumulative IPC: 0.06224 (Simulation time: 0 hr 42 min 24 sec) 
Heartbeat CPU  0 instructions:  409000000 cycles: 5043064415 heartbeat IPC: 0.08243 cumulative IPC: 0.06229 (Simulation time: 0 hr 42 min 31 sec) 
Heartbeat CPU  0 instructions:  410000003 cycles: 5071161204 heartbeat IPC: 0.03559 cumulative IPC: 0.06214 (Simulation time: 0 hr 42 min 43 sec) 
Heartbeat CPU  0 instructions:  411000000 cycles: 5088365374 heartbeat IPC: 0.05813 cumulative IPC: 0.06212 (Simulation time: 0 hr 42 min 52 sec) 
Heartbeat CPU  0 instructions:  412000000 cycles: 5096697943 heartbeat IPC: 0.12001 cumulative IPC: 0.06222 (Simulation time: 0 hr 42 min 57 sec) 
Heartbeat CPU  0 instructions:  413000003 cycles: 5110775116 heartbeat IPC: 0.07104 cumulative IPC: 0.06224 (Simulation time: 0 hr 43 min 4 sec) 
Heartbeat CPU  0 instructions:  414000003 cycles: 5140134809 heartbeat IPC: 0.03406 cumulative IPC: 0.06208 (Simulation time: 0 hr 43 min 17 sec) 
Heartbeat CPU  0 instructions:  415000000 cycles: 5149775335 heartbeat IPC: 0.10373 cumulative IPC: 0.06216 (Simulation time: 0 hr 43 min 22 sec) 
Heartbeat CPU  0 instructions:  416000000 cycles: 5157777360 heartbeat IPC: 0.12497 cumulative IPC: 0.06226 (Simulation time: 0 hr 43 min 27 sec) 
Heartbeat CPU  0 instructions:  417000000 cycles: 5181479319 heartbeat IPC: 0.04219 cumulative IPC: 0.06217 (Simulation time: 0 hr 43 min 38 sec) 
Heartbeat CPU  0 instructions:  418000001 cycles: 5202629979 heartbeat IPC: 0.04728 cumulative IPC: 0.06210 (Simulation time: 0 hr 43 min 48 sec) 
Heartbeat CPU  0 instructions:  419000000 cycles: 5215972396 heartbeat IPC: 0.07495 cumulative IPC: 0.06214 (Simulation time: 0 hr 43 min 55 sec) 
Heartbeat CPU  0 instructions:  420000000 cycles: 5235608718 heartbeat IPC: 0.05093 cumulative IPC: 0.06209 (Simulation time: 0 hr 44 min 4 sec) 
Heartbeat CPU  0 instructions:  421000003 cycles: 5256461476 heartbeat IPC: 0.04796 cumulative IPC: 0.06204 (Simulation time: 0 hr 44 min 14 sec) 
Heartbeat CPU  0 instructions:  422000002 cycles: 5288105750 heartbeat IPC: 0.03160 cumulative IPC: 0.06185 (Simulation time: 0 hr 44 min 27 sec) 
Heartbeat CPU  0 instructions:  423000002 cycles: 5298416202 heartbeat IPC: 0.09699 cumulative IPC: 0.06192 (Simulation time: 0 hr 44 min 34 sec) 
Heartbeat CPU  0 instructions:  424000000 cycles: 5322804318 heartbeat IPC: 0.04100 cumulative IPC: 0.06182 (Simulation time: 0 hr 44 min 44 sec) 
Heartbeat CPU  0 instructions:  425000002 cycles: 5332246867 heartbeat IPC: 0.10590 cumulative IPC: 0.06190 (Simulation time: 0 hr 44 min 50 sec) 
Heartbeat CPU  0 instructions:  426000000 cycles: 5362890811 heartbeat IPC: 0.03263 cumulative IPC: 0.06173 (Simulation time: 0 hr 45 min 3 sec) 
Heartbeat CPU  0 instructions:  427000002 cycles: 5377033092 heartbeat IPC: 0.07071 cumulative IPC: 0.06176 (Simulation time: 0 hr 45 min 10 sec) 
Heartbeat CPU  0 instructions:  428000000 cycles: 5385192877 heartbeat IPC: 0.12255 cumulative IPC: 0.06185 (Simulation time: 0 hr 45 min 15 sec) 
Heartbeat CPU  0 instructions:  429000001 cycles: 5400463144 heartbeat IPC: 0.06549 cumulative IPC: 0.06186 (Simulation time: 0 hr 45 min 22 sec) 
Heartbeat CPU  0 instructions:  430000002 cycles: 5425787127 heartbeat IPC: 0.03949 cumulative IPC: 0.06176 (Simulation time: 0 hr 45 min 34 sec) 
Heartbeat CPU  0 instructions:  431000003 cycles: 5448056139 heartbeat IPC: 0.04491 cumulative IPC: 0.06169 (Simulation time: 0 hr 45 min 43 sec) 
Heartbeat CPU  0 instructions:  432000000 cycles: 5455898708 heartbeat IPC: 0.12751 cumulative IPC: 0.06178 (Simulation time: 0 hr 45 min 48 sec) 
Heartbeat CPU  0 instructions:  433000001 cycles: 5463609897 heartbeat IPC: 0.12968 cumulative IPC: 0.06188 (Simulation time: 0 hr 45 min 52 sec) 
Heartbeat CPU  0 instructions:  434000000 cycles: 5483504448 heartbeat IPC: 0.05026 cumulative IPC: 0.06184 (Simulation time: 0 hr 46 min 2 sec) 
Heartbeat CPU  0 instructions:  435000003 cycles: 5507374070 heartbeat IPC: 0.04189 cumulative IPC: 0.06175 (Simulation time: 0 hr 46 min 12 sec) 
Heartbeat CPU  0 instructions:  436000000 cycles: 5515618278 heartbeat IPC: 0.12130 cumulative IPC: 0.06184 (Simulation time: 0 hr 46 min 17 sec) 
Heartbeat CPU  0 instructions:  437000001 cycles: 5523151819 heartbeat IPC: 0.13274 cumulative IPC: 0.06194 (Simulation time: 0 hr 46 min 21 sec) 
Heartbeat CPU  0 instructions:  438000001 cycles: 5540967274 heartbeat IPC: 0.05613 cumulative IPC: 0.06192 (Simulation time: 0 hr 46 min 30 sec) 
Heartbeat CPU  0 instructions:  439000000 cycles: 5566497599 heartbeat IPC: 0.03917 cumulative IPC: 0.06181 (Simulation time: 0 hr 46 min 41 sec) 
Heartbeat CPU  0 instructions:  440000000 cycles: 5575491358 heartbeat IPC: 0.11119 cumulative IPC: 0.06189 (Simulation time: 0 hr 46 min 46 sec) 
Heartbeat CPU  0 instructions:  441000000 cycles: 5583109792 heartbeat IPC: 0.13126 cumulative IPC: 0.06199 (Simulation time: 0 hr 46 min 50 sec) 
Heartbeat CPU  0 instructions:  442000000 cycles: 5598862798 heartbeat IPC: 0.06348 cumulative IPC: 0.06199 (Simulation time: 0 hr 46 min 58 sec) 
Heartbeat CPU  0 instructions:  443000001 cycles: 5626163974 heartbeat IPC: 0.03663 cumulative IPC: 0.06187 (Simulation time: 0 hr 47 min 10 sec) 
Heartbeat CPU  0 instructions:  444000000 cycles: 5635019833 heartbeat IPC: 0.11292 cumulative IPC: 0.06195 (Simulation time: 0 hr 47 min 15 sec) 
Heartbeat CPU  0 instructions:  445000003 cycles: 5642614074 heartbeat IPC: 0.13168 cumulative IPC: 0.06205 (Simulation time: 0 hr 47 min 20 sec) 
Heartbeat CPU  0 instructions:  446000001 cycles: 5657995063 heartbeat IPC: 0.06502 cumulative IPC: 0.06205 (Simulation time: 0 hr 47 min 27 sec) 
Heartbeat CPU  0 instructions:  447000000 cycles: 5686968922 heartbeat IPC: 0.03451 cumulative IPC: 0.06191 (Simulation time: 0 hr 47 min 40 sec) 
Heartbeat CPU  0 instructions:  448000000 cycles: 5696175497 heartbeat IPC: 0.10862 cumulative IPC: 0.06199 (Simulation time: 0 hr 47 min 46 sec) 
Heartbeat CPU  0 instructions:  449000001 cycles: 5703825777 heartbeat IPC: 0.13071 cumulative IPC: 0.06208 (Simulation time: 0 hr 47 min 50 sec) 
Heartbeat CPU  0 instructions:  450000000 cycles: 5718670509 heartbeat IPC: 0.06736 cumulative IPC: 0.06210 (Simulation time: 0 hr 47 min 58 sec) 
Heartbeat CPU  0 instructions:  451000001 cycles: 5746530142 heartbeat IPC: 0.03589 cumulative IPC: 0.06197 (Simulation time: 0 hr 48 min 10 sec) 
Heartbeat CPU  0 instructions:  452000000 cycles: 5755739431 heartbeat IPC: 0.10859 cumulative IPC: 0.06204 (Simulation time: 0 hr 48 min 15 sec) 
Heartbeat CPU  0 instructions:  453000000 cycles: 5763483832 heartbeat IPC: 0.12913 cumulative IPC: 0.06213 (Simulation time: 0 hr 48 min 20 sec) 
Heartbeat CPU  0 instructions:  454000000 cycles: 5779784072 heartbeat IPC: 0.06135 cumulative IPC: 0.06213 (Simulation time: 0 hr 48 min 28 sec) 
Heartbeat CPU  0 instructions:  455000003 cycles: 5806387456 heartbeat IPC: 0.03759 cumulative IPC: 0.06202 (Simulation time: 0 hr 48 min 40 sec) 
Heartbeat CPU  0 instructions:  456000000 cycles: 5815209615 heartbeat IPC: 0.11335 cumulative IPC: 0.06210 (Simulation time: 0 hr 48 min 45 sec) 
Heartbeat CPU  0 instructions:  457000000 cycles: 5822894391 heartbeat IPC: 0.13013 cumulative IPC: 0.06219 (Simulation time: 0 hr 48 min 50 sec) 
Heartbeat CPU  0 instructions:  458000001 cycles: 5840844039 heartbeat IPC: 0.05571 cumulative IPC: 0.06217 (Simulation time: 0 hr 48 min 59 sec) 
Heartbeat CPU  0 instructions:  459000002 cycles: 5866021903 heartbeat IPC: 0.03972 cumulative IPC: 0.06207 (Simulation time: 0 hr 49 min 10 sec) 
Heartbeat CPU  0 instructions:  460000000 cycles: 5874616424 heartbeat IPC: 0.11635 cumulative IPC: 0.06215 (Simulation time: 0 hr 49 min 15 sec) 
Heartbeat CPU  0 instructions:  461000001 cycles: 5882700628 heartbeat IPC: 0.12370 cumulative IPC: 0.06224 (Simulation time: 0 hr 49 min 20 sec) 
Heartbeat CPU  0 instructions:  462000001 cycles: 5903462259 heartbeat IPC: 0.04817 cumulative IPC: 0.06219 (Simulation time: 0 hr 49 min 30 sec) 
Heartbeat CPU  0 instructions:  463000002 cycles: 5927405384 heartbeat IPC: 0.04177 cumulative IPC: 0.06210 (Simulation time: 0 hr 49 min 41 sec) 
Heartbeat CPU  0 instructions:  464000000 cycles: 5935911657 heartbeat IPC: 0.11756 cumulative IPC: 0.06218 (Simulation time: 0 hr 49 min 46 sec) 
Heartbeat CPU  0 instructions:  465000000 cycles: 5959959339 heartbeat IPC: 0.04158 cumulative IPC: 0.06210 (Simulation time: 0 hr 49 min 56 sec) 
Heartbeat CPU  0 instructions:  466000000 cycles: 5978121167 heartbeat IPC: 0.05506 cumulative IPC: 0.06208 (Simulation time: 0 hr 50 min 5 sec) 
Heartbeat CPU  0 instructions:  467000002 cycles: 6007172776 heartbeat IPC: 0.03442 cumulative IPC: 0.06194 (Simulation time: 0 hr 50 min 18 sec) 
Heartbeat CPU  0 instructions:  468000000 cycles: 6017951172 heartbeat IPC: 0.09278 cumulative IPC: 0.06200 (Simulation time: 0 hr 50 min 24 sec) 
Heartbeat CPU  0 instructions:  469000000 cycles: 6041187687 heartbeat IPC: 0.04304 cumulative IPC: 0.06192 (Simulation time: 0 hr 50 min 34 sec) 
Heartbeat CPU  0 instructions:  470000000 cycles: 6053171818 heartbeat IPC: 0.08344 cumulative IPC: 0.06197 (Simulation time: 0 hr 50 min 40 sec) 
Heartbeat CPU  0 instructions:  471000000 cycles: 6086814871 heartbeat IPC: 0.02972 cumulative IPC: 0.06179 (Simulation time: 0 hr 50 min 54 sec) 
Heartbeat CPU  0 instructions:  472000000 cycles: 6102891824 heartbeat IPC: 0.06220 cumulative IPC: 0.06179 (Simulation time: 0 hr 51 min 2 sec) 
Heartbeat CPU  0 instructions:  473000001 cycles: 6124720387 heartbeat IPC: 0.04581 cumulative IPC: 0.06173 (Simulation time: 0 hr 51 min 12 sec) 
Heartbeat CPU  0 instructions:  474000001 cycles: 6133138708 heartbeat IPC: 0.11879 cumulative IPC: 0.06181 (Simulation time: 0 hr 51 min 17 sec) 
Heartbeat CPU  0 instructions:  475000003 cycles: 6158551363 heartbeat IPC: 0.03935 cumulative IPC: 0.06171 (Simulation time: 0 hr 51 min 28 sec) 
Heartbeat CPU  0 instructions:  476000000 cycles: 6194538559 heartbeat IPC: 0.02779 cumulative IPC: 0.06151 (Simulation time: 0 hr 51 min 42 sec) 
Heartbeat CPU  0 instructions:  477000000 cycles: 6217513125 heartbeat IPC: 0.04353 cumulative IPC: 0.06145 (Simulation time: 0 hr 51 min 52 sec) 
Heartbeat CPU  0 instructions:  478000000 cycles: 6234254301 heartbeat IPC: 0.05973 cumulative IPC: 0.06144 (Simulation time: 0 hr 52 min 0 sec) 
Heartbeat CPU  0 instructions:  479000000 cycles: 6243073999 heartbeat IPC: 0.11338 cumulative IPC: 0.06152 (Simulation time: 0 hr 52 min 5 sec) 
Heartbeat CPU  0 instructions:  480000000 cycles: 6274434110 heartbeat IPC: 0.03189 cumulative IPC: 0.06137 (Simulation time: 0 hr 52 min 19 sec) 
Heartbeat CPU  0 instructions:  481000000 cycles: 6290357444 heartbeat IPC: 0.06280 cumulative IPC: 0.06137 (Simulation time: 0 hr 52 min 26 sec) 
Heartbeat CPU  0 instructions:  482000000 cycles: 6299679391 heartbeat IPC: 0.10727 cumulative IPC: 0.06144 (Simulation time: 0 hr 52 min 31 sec) 
Heartbeat CPU  0 instructions:  483000002 cycles: 6307996319 heartbeat IPC: 0.12024 cumulative IPC: 0.06152 (Simulation time: 0 hr 52 min 36 sec) 
Heartbeat CPU  0 instructions:  484000000 cycles: 6341503375 heartbeat IPC: 0.02984 cumulative IPC: 0.06135 (Simulation time: 0 hr 52 min 50 sec) 
Heartbeat CPU  0 instructions:  485000000 cycles: 6353131054 heartbeat IPC: 0.08600 cumulative IPC: 0.06139 (Simulation time: 0 hr 52 min 56 sec) 
Heartbeat CPU  0 instructions:  486000000 cycles: 6366840819 heartbeat IPC: 0.07294 cumulative IPC: 0.06142 (Simulation time: 0 hr 53 min 3 sec) 
Heartbeat CPU  0 instructions:  487000002 cycles: 6375684137 heartbeat IPC: 0.11308 cumulative IPC: 0.06149 (Simulation time: 0 hr 53 min 8 sec) 
Heartbeat CPU  0 instructions:  488000000 cycles: 6409776257 heartbeat IPC: 0.02933 cumulative IPC: 0.06132 (Simulation time: 0 hr 53 min 23 sec) 
Heartbeat CPU  0 instructions:  489000000 cycles: 6420440878 heartbeat IPC: 0.09377 cumulative IPC: 0.06137 (Simulation time: 0 hr 53 min 29 sec) 
Heartbeat CPU  0 instructions:  490000000 cycles: 6428319364 heartbeat IPC: 0.12693 cumulative IPC: 0.06145 (Simulation time: 0 hr 53 min 33 sec) 
Heartbeat CPU  0 instructions:  491000003 cycles: 6441037055 heartbeat IPC: 0.07863 cumulative IPC: 0.06149 (Simulation time: 0 hr 53 min 40 sec) 
Heartbeat CPU  0 instructions:  492000000 cycles: 6470904043 heartbeat IPC: 0.03348 cumulative IPC: 0.06136 (Simulation time: 0 hr 53 min 53 sec) 
Heartbeat CPU  0 instructions:  493000001 cycles: 6480534060 heartbeat IPC: 0.10384 cumulative IPC: 0.06142 (Simulation time: 0 hr 53 min 58 sec) 
Heartbeat CPU  0 instructions:  494000002 cycles: 6492630473 heartbeat IPC: 0.08267 cumulative IPC: 0.06146 (Simulation time: 0 hr 54 min 4 sec) 
Heartbeat CPU  0 instructions:  495000002 cycles: 6504858022 heartbeat IPC: 0.08178 cumulative IPC: 0.06150 (Simulation time: 0 hr 54 min 11 sec) 
Heartbeat CPU  0 instructions:  496000000 cycles: 6536026230 heartbeat IPC: 0.03208 cumulative IPC: 0.06136 (Simulation time: 0 hr 54 min 24 sec) 
Heartbeat CPU  0 instructions:  497000002 cycles: 6545460941 heartbeat IPC: 0.10599 cumulative IPC: 0.06142 (Simulation time: 0 hr 54 min 29 sec) 
Heartbeat CPU  0 instructions:  498000000 cycles: 6553099101 heartbeat IPC: 0.13092 cumulative IPC: 0.06151 (Simulation time: 0 hr 54 min 33 sec) 
Heartbeat CPU  0 instructions:  499000000 cycles: 6568337464 heartbeat IPC: 0.06562 cumulative IPC: 0.06152 (Simulation time: 0 hr 54 min 41 sec) 
Heartbeat CPU  0 instructions:  500000000 cycles: 6596401650 heartbeat IPC: 0.03563 cumulative IPC: 0.06140 (Simulation time: 0 hr 54 min 53 sec) 
Heartbeat CPU  0 instructions:  501000002 cycles: 6605404681 heartbeat IPC: 0.11107 cumulative IPC: 0.06147 (Simulation time: 0 hr 54 min 58 sec) 
Heartbeat CPU  0 instructions:  502000000 cycles: 6613737201 heartbeat IPC: 0.12001 cumulative IPC: 0.06155 (Simulation time: 0 hr 55 min 3 sec) 
Heartbeat CPU  0 instructions:  503000002 cycles: 6633119277 heartbeat IPC: 0.05159 cumulative IPC: 0.06152 (Simulation time: 0 hr 55 min 12 sec) 
Heartbeat CPU  0 instructions:  504000000 cycles: 6658092408 heartbeat IPC: 0.04004 cumulative IPC: 0.06144 (Simulation time: 0 hr 55 min 23 sec) 
Heartbeat CPU  0 instructions:  505000002 cycles: 6666900421 heartbeat IPC: 0.11353 cumulative IPC: 0.06151 (Simulation time: 0 hr 55 min 27 sec) 
Heartbeat CPU  0 instructions:  506000001 cycles: 6675283602 heartbeat IPC: 0.11929 cumulative IPC: 0.06158 (Simulation time: 0 hr 55 min 32 sec) 
Heartbeat CPU  0 instructions:  507000001 cycles: 6698224004 heartbeat IPC: 0.04359 cumulative IPC: 0.06152 (Simulation time: 0 hr 55 min 42 sec) 
Heartbeat CPU  0 instructions:  508000000 cycles: 6722098116 heartbeat IPC: 0.04189 cumulative IPC: 0.06145 (Simulation time: 0 hr 55 min 53 sec) 
Heartbeat CPU  0 instructions:  509000000 cycles: 6730557014 heartbeat IPC: 0.11822 cumulative IPC: 0.06152 (Simulation time: 0 hr 55 min 57 sec) 
Heartbeat CPU  0 instructions:  510000000 cycles: 6738548487 heartbeat IPC: 0.12513 cumulative IPC: 0.06160 (Simulation time: 0 hr 56 min 2 sec) 
Heartbeat CPU  0 instructions:  511000001 cycles: 6764243706 heartbeat IPC: 0.03892 cumulative IPC: 0.06151 (Simulation time: 0 hr 56 min 13 sec) 
Heartbeat CPU  0 instructions:  512000000 cycles: 6783182176 heartbeat IPC: 0.05280 cumulative IPC: 0.06148 (Simulation time: 0 hr 56 min 22 sec) 
Heartbeat CPU  0 instructions:  513000000 cycles: 6791875698 heartbeat IPC: 0.11503 cumulative IPC: 0.06155 (Simulation time: 0 hr 56 min 27 sec) 
Heartbeat CPU  0 instructions:  514000000 cycles: 6799760830 heartbeat IPC: 0.12682 cumulative IPC: 0.06163 (Simulation time: 0 hr 56 min 31 sec) 
Heartbeat CPU  0 instructions:  515000000 cycles: 6829279318 heartbeat IPC: 0.03388 cumulative IPC: 0.06151 (Simulation time: 0 hr 56 min 44 sec) 
Heartbeat CPU  0 instructions:  516000000 cycles: 6845183117 heartbeat IPC: 0.06288 cumulative IPC: 0.06151 (Simulation time: 0 hr 56 min 52 sec) 
Heartbeat CPU  0 instructions:  517000000 cycles: 6853382860 heartbeat IPC: 0.12196 cumulative IPC: 0.06158 (Simulation time: 0 hr 56 min 57 sec) 
Heartbeat CPU  0 instructions:  518000001 cycles: 6861590893 heartbeat IPC: 0.12183 cumulative IPC: 0.06166 (Simulation time: 0 hr 57 min 1 sec) 
Heartbeat CPU  0 instructions:  519000000 cycles: 6897107280 heartbeat IPC: 0.02816 cumulative IPC: 0.06148 (Simulation time: 0 hr 57 min 16 sec) 
Heartbeat CPU  0 instructions:  520000000 cycles: 6907212026 heartbeat IPC: 0.09896 cumulative IPC: 0.06154 (Simulation time: 0 hr 57 min 22 sec) 
Heartbeat CPU  0 instructions:  521000002 cycles: 6915545589 heartbeat IPC: 0.12000 cumulative IPC: 0.06161 (Simulation time: 0 hr 57 min 27 sec) 
Heartbeat CPU  0 instructions:  522000002 cycles: 6925832113 heartbeat IPC: 0.09721 cumulative IPC: 0.06166 (Simulation time: 0 hr 57 min 32 sec) 
Heartbeat CPU  0 instructions:  523000002 cycles: 6959193570 heartbeat IPC: 0.02997 cumulative IPC: 0.06151 (Simulation time: 0 hr 57 min 47 sec) 
Heartbeat CPU  0 instructions:  524000000 cycles: 6969531149 heartbeat IPC: 0.09673 cumulative IPC: 0.06156 (Simulation time: 0 hr 57 min 52 sec) 
Heartbeat CPU  0 instructions:  525000002 cycles: 6977346436 heartbeat IPC: 0.12795 cumulative IPC: 0.06164 (Simulation time: 0 hr 57 min 57 sec) 
Heartbeat CPU  0 instructions:  526000000 cycles: 6987818390 heartbeat IPC: 0.09549 cumulative IPC: 0.06169 (Simulation time: 0 hr 58 min 2 sec) 
Heartbeat CPU  0 instructions:  527000000 cycles: 7019778840 heartbeat IPC: 0.03129 cumulative IPC: 0.06155 (Simulation time: 0 hr 58 min 16 sec) 
Heartbeat CPU  0 instructions:  528000000 cycles: 7029459823 heartbeat IPC: 0.10330 cumulative IPC: 0.06161 (Simulation time: 0 hr 58 min 22 sec) 
[...]
Heartbeat CPU  0 instructions:  548000000 cycles: 7342783980 heartbeat IPC: 0.03672 cumulative IPC: 0.06170 (Simulation time: 1 hr 0 min 51 sec) 
Heartbeat CPU  0 instructions:  549000000 cycles: 7351705204 heartbeat IPC: 0.11209 cumulative IPC: 0.06176 (Simulation time: 1 hr 0 min 56 sec) 
Heartbeat CPU  0 instructions:  550000000 cycles: 7359685038 heartbeat IPC: 0.12532 cumulative IPC: 0.06183 (Simulation time: 1 hr 1 min 0 sec) 
Heartbeat CPU  0 instructions:  551000002 cycles: 7375450489 heartbeat IPC: 0.06343 cumulative IPC: 0.06184 (Simulation time: 1 hr 1 min 8 sec) 
Heartbeat CPU  0 instructions:  552000000 cycles: 7403208414 heartbeat IPC: 0.03603 cumulative IPC: 0.06174 (Simulation time: 1 hr 1 min 20 sec) 
Heartbeat CPU  0 instructions:  553000001 cycles: 7412274867 heartbeat IPC: 0.11030 cumulative IPC: 0.06180 (Simulation time: 1 hr 1 min 26 sec) 
Heartbeat CPU  0 instructions:  554000000 cycles: 7420514197 heartbeat IPC: 0.12137 cumulative IPC: 0.06187 (Simulation time: 1 hr 1 min 30 sec) 
Heartbeat CPU  0 instructions:  555000003 cycles: 7432733190 heartbeat IPC: 0.08184 cumulative IPC: 0.06190 (Simulation time: 1 hr 1 min 36 sec) 
Heartbeat CPU  0 instructions:  556000000 cycles: 7463470168 heartbeat IPC: 0.03253 cumulative IPC: 0.06178 (Simulation time: 1 hr 1 min 50 sec) 
Heartbeat CPU  0 instructions:  557000002 cycles: 7472808044 heartbeat IPC: 0.10709 cumulative IPC: 0.06184 (Simulation time: 1 hr 1 min 55 sec) 
Heartbeat CPU  0 instructions:  558000000 cycles: 7480388357 heartbeat IPC: 0.13192 cumulative IPC: 0.06191 (Simulation time: 1 hr 1 min 59 sec) 
Heartbeat CPU  0 instructions:  559000000 cycles: 7487679288 heartbeat IPC: 0.13716 cumulative IPC: 0.06198 (Simulation time: 1 hr 2 min 3 sec) 
Heartbeat CPU  0 instructions:  560000000 cycles: 7518280025 heartbeat IPC: 0.03268 cumulative IPC: 0.06186 (Simulation time: 1 hr 2 min 16 sec) 
Heartbeat CPU  0 instructions:  561000002 cycles: 7531835443 heartbeat IPC: 0.07377 cumulative IPC: 0.06188 (Simulation time: 1 hr 2 min 23 sec) 
Heartbeat CPU  0 instructions:  562000002 cycles: 7539213631 heartbeat IPC: 0.13553 cumulative IPC: 0.06196 (Simulation time: 1 hr 2 min 28 sec) 
Heartbeat CPU  0 instructions:  563000002 cycles: 7546316173 heartbeat IPC: 0.14079 cumulative IPC: 0.06203 (Simulation time: 1 hr 2 min 32 sec) 
Heartbeat CPU  0 instructions:  564000000 cycles: 7567561321 heartbeat IPC: 0.04707 cumulative IPC: 0.06199 (Simulation time: 1 hr 2 min 42 sec) 
Heartbeat CPU  0 instructions:  565000000 cycles: 7589891801 heartbeat IPC: 0.04478 cumulative IPC: 0.06194 (Simulation time: 1 hr 2 min 52 sec) 
Heartbeat CPU  0 instructions:  566000001 cycles: 7597813844 heartbeat IPC: 0.12623 cumulative IPC: 0.06200 (Simulation time: 1 hr 2 min 56 sec) 
Heartbeat CPU  0 instructions:  567000001 cycles: 7605232438 heartbeat IPC: 0.13480 cumulative IPC: 0.06208 (Simulation time: 1 hr 3 min 1 sec) 
Heartbeat CPU  0 instructions:  568000000 cycles: 7619835144 heartbeat IPC: 0.06848 cumulative IPC: 0.06209 (Simulation time: 1 hr 3 min 8 sec) 
Heartbeat CPU  0 instructions:  569000000 cycles: 7649323036 heartbeat IPC: 0.03391 cumulative IPC: 0.06198 (Simulation time: 1 hr 3 min 21 sec) 
Heartbeat CPU  0 instructions:  570000000 cycles: 7659286842 heartbeat IPC: 0.10036 cumulative IPC: 0.06203 (Simulation time: 1 hr 3 min 26 sec) 
Heartbeat CPU  0 instructions:  571000000 cycles: 7666935788 heartbeat IPC: 0.13074 cumulative IPC: 0.06210 (Simulation time: 1 hr 3 min 30 sec) 
Heartbeat CPU  0 instructions:  572000000 cycles: 7674893054 heartbeat IPC: 0.12567 cumulative IPC: 0.06217 (Simulation time: 1 hr 3 min 35 sec) 
Heartbeat CPU  0 instructions:  573000003 cycles: 7709060011 heartbeat IPC: 0.02927 cumulative IPC: 0.06202 (Simulation time: 1 hr 3 min 50 sec) 
Heartbeat CPU  0 instructions:  574000001 cycles: 7719215342 heartbeat IPC: 0.09847 cumulative IPC: 0.06207 (Simulation time: 1 hr 3 min 55 sec) 
Heartbeat CPU  0 instructions:  575000002 cycles: 7726588725 heartbeat IPC: 0.13562 cumulative IPC: 0.06214 (Simulation time: 1 hr 3 min 59 sec) 
Heartbeat CPU  0 instructions:  576000000 cycles: 7735658995 heartbeat IPC: 0.11025 cumulative IPC: 0.06219 (Simulation time: 1 hr 4 min 4 sec) 
Heartbeat CPU  0 instructions:  577000003 cycles: 7760188918 heartbeat IPC: 0.04077 cumulative IPC: 0.06213 (Simulation time: 1 hr 4 min 15 sec) 
Heartbeat CPU  0 instructions:  578000000 cycles: 7780615968 heartbeat IPC: 0.04895 cumulative IPC: 0.06209 (Simulation time: 1 hr 4 min 25 sec) 
Heartbeat CPU  0 instructions:  579000000 cycles: 7788572856 heartbeat IPC: 0.12568 cumulative IPC: 0.06216 (Simulation time: 1 hr 4 min 29 sec) 
Heartbeat CPU  0 instructions:  580000000 cycles: 7796536300 heartbeat IPC: 0.12557 cumulative IPC: 0.06222 (Simulation time: 1 hr 4 min 34 sec) 
Heartbeat CPU  0 instructions:  581000001 cycles: 7812182668 heartbeat IPC: 0.06391 cumulative IPC: 0.06223 (Simulation time: 1 hr 4 min 41 sec) 
Heartbeat CPU  0 instructions:  582000003 cycles: 7839651855 heartbeat IPC: 0.03640 cumulative IPC: 0.06213 (Simulation time: 1 hr 4 min 53 sec) 
Heartbeat CPU  0 instructions:  583000000 cycles: 7848528477 heartbeat IPC: 0.11266 cumulative IPC: 0.06219 (Simulation time: 1 hr 4 min 58 sec) 
Heartbeat CPU  0 instructions:  584000000 cycles: 7855915428 heartbeat IPC: 0.13537 cumulative IPC: 0.06226 (Simulation time: 1 hr 5 min 3 sec) 
Heartbeat CPU  0 instructions:  585000002 cycles: 7863609661 heartbeat IPC: 0.12997 cumulative IPC: 0.06233 (Simulation time: 1 hr 5 min 7 sec) 
Heartbeat CPU  0 instructions:  586000000 cycles: 7897524306 heartbeat IPC: 0.02949 cumulative IPC: 0.06219 (Simulation time: 1 hr 5 min 22 sec) 
Heartbeat CPU  0 instructions:  587000001 cycles: 7907938264 heartbeat IPC: 0.09603 cumulative IPC: 0.06223 (Simulation time: 1 hr 5 min 27 sec) 
Heartbeat CPU  0 instructions:  588000000 cycles: 7915718511 heartbeat IPC: 0.12853 cumulative IPC: 0.06230 (Simulation time: 1 hr 5 min 32 sec) 
Heartbeat CPU  0 instructions:  589000002 cycles: 7935178644 heartbeat IPC: 0.05139 cumulative IPC: 0.06227 (Simulation time: 1 hr 5 min 40 sec) 
Heartbeat CPU  0 instructions:  590000001 cycles: 7954621581 heartbeat IPC: 0.05143 cumulative IPC: 0.06224 (Simulation time: 1 hr 5 min 49 sec) 
Heartbeat CPU  0 instructions:  591000001 cycles: 7987488523 heartbeat IPC: 0.03043 cumulative IPC: 0.06211 (Simulation time: 1 hr 6 min 3 sec) 
Heartbeat CPU  0 instructions:  592000000 cycles: 7997514805 heartbeat IPC: 0.09974 cumulative IPC: 0.06216 (Simulation time: 1 hr 6 min 9 sec) 
Heartbeat CPU  0 instructions:  593000001 cycles: 8005093776 heartbeat IPC: 0.13194 cumulative IPC: 0.06222 (Simulation time: 1 hr 6 min 13 sec) 
Heartbeat CPU  0 instructions:  594000000 cycles: 8012522587 heartbeat IPC: 0.13461 cumulative IPC: 0.06229 (Simulation time: 1 hr 6 min 17 sec) 
Heartbeat CPU  0 instructions:  595000001 cycles: 8041044294 heartbeat IPC: 0.03506 cumulative IPC: 0.06219 (Simulation time: 1 hr 6 min 30 sec) 
Heartbeat CPU  0 instructions:  596000000 cycles: 8056924265 heartbeat IPC: 0.06297 cumulative IPC: 0.06220 (Simulation time: 1 hr 6 min 38 sec) 
Heartbeat CPU  0 instructions:  597000001 cycles: 8065003418 heartbeat IPC: 0.12378 cumulative IPC: 0.06226 (Simulation time: 1 hr 6 min 42 sec) 
Heartbeat CPU  0 instructions:  598000001 cycles: 8072651771 heartbeat IPC: 0.13075 cumulative IPC: 0.06232 (Simulation time: 1 hr 6 min 47 sec) 
Heartbeat CPU  0 instructions:  599000002 cycles: 8099163181 heartbeat IPC: 0.03772 cumulative IPC: 0.06224 (Simulation time: 1 hr 6 min 58 sec) 
Heartbeat CPU  0 instructions:  600000000 cycles: 8117061750 heartbeat IPC: 0.05587 cumulative IPC: 0.06223 (Simulation time: 1 hr 7 min 7 sec) 
Finished CPU 0 instructions: 500000000 cycles: 8034858193 cumulative IPC: 0.06223 (Simulation time: 1 hr 7 min 7 sec) 

ChampSim completed all CPUs

[ROI Statistics]
Core_0_instructions 500000000
Core_0_cycles 8034858193
Core_0_IPC 0.06223

Core_0_branch_prediction_accuracy 93.75037
Core_0_branch_MPKI 14.79093
Core_0_average_ROB_occupancy_at_mispredict 57.59231

Core_0_L1D_total_access 126394635
Core_0_L1D_total_hit 74174880
Core_0_L1D_total_miss 52219755
Core_0_L1D_loads 103772112
Core_0_L1D_load_hit 53445466
Core_0_L1D_load_miss 50326646
Core_0_L1D_RFOs 22622523
Core_0_L1D_RFO_hit 20729414
Core_0_L1D_RFO_miss 1893109
Core_0_L1D_prefetches 0
Core_0_L1D_prefetch_hit 0
Core_0_L1D_prefetch_miss 0
Core_0_L1D_writebacks 0
Core_0_L1D_writeback_hit 0
Core_0_L1D_writeback_miss 0
Core_0_L1D_prefetch_requested 0
Core_0_L1D_prefetch_dropped 0
Core_0_L1D_prefetch_issued 0
Core_0_L1D_prefetch_filled 0
Core_0_L1D_prefetch_useful 0
Core_0_L1D_prefetch_useless 0
Core_0_L1D_prefetch_late 0
Core_0_L1D_average_miss_latency 342.77460

Core_0_L1D_rq_access 158746859
Core_0_L1D_rq_forward 0
Core_0_L1D_rq_merged 54404514
Core_0_L1D_rq_to_cache 104342341
Core_0_L1D_rq_full 0

Core_0_L1D_wq_access 26393734
Core_0_L1D_wq_forward 4
Core_0_L1D_wq_merged 2415008
Core_0_L1D_wq_to_cache 23978726
Core_0_L1D_wq_full 0

Core_0_L1D_pq_access 0
Core_0_L1D_pq_forward 0
Core_0_L1D_pq_merged 0
Core_0_L1D_pq_to_cache 0
Core_0_L1D_pq_full 0

Core_0_L1D_acc_epochs 7398173
Core_0_L1D_acc_level_0 7398173
Core_0_L1D_acc_level_1 0
Core_0_L1D_acc_level_2 0
Core_0_L1D_acc_level_3 0
Core_0_L1D_acc_level_4 0
Core_0_L1D_acc_level_5 0
Core_0_L1D_acc_level_6 0
Core_0_L1D_acc_level_7 0
Core_0_L1D_acc_level_8 0
Core_0_L1D_acc_level_9 0

Core_0_L1I_total_access 108778233
Core_0_L1I_total_hit 108778233
Core_0_L1I_total_miss 0
Core_0_L1I_loads 108778233
Core_0_L1I_load_hit 108778233
Core_0_L1I_load_miss 0
Core_0_L1I_RFOs 0
Core_0_L1I_RFO_hit 0
Core_0_L1I_RFO_miss 0
Core_0_L1I_prefetches 0
Core_0_L1I_prefetch_hit 0
Core_0_L1I_prefetch_miss 0
Core_0_L1I_writebacks 0
Core_0_L1I_writeback_hit 0
Core_0_L1I_writeback_miss 0
Core_0_L1I_prefetch_requested 0
Core_0_L1I_prefetch_dropped 0
Core_0_L1I_prefetch_issued 0
Core_0_L1I_prefetch_filled 0
Core_0_L1I_prefetch_useful 0
Core_0_L1I_prefetch_useless 0
Core_0_L1I_prefetch_late 0
Core_0_L1I_average_miss_latency -nan

Core_0_L1I_rq_access 499999764
Core_0_L1I_rq_forward 0
Core_0_L1I_rq_merged 391221531
Core_0_L1I_rq_to_cache 108778233
Core_0_L1I_rq_full 0

Core_0_L1I_wq_access 0
Core_0_L1I_wq_forward 0
Core_0_L1I_wq_merged 0
Core_0_L1I_wq_to_cache 0
Core_0_L1I_wq_full 0

Core_0_L1I_pq_access 0
Core_0_L1I_pq_forward 0
Core_0_L1I_pq_merged 0
Core_0_L1I_pq_to_cache 0
Core_0_L1I_pq_full 0

Core_0_L1I_acc_epochs 7398173
Core_0_L1I_acc_level_0 7398173
Core_0_L1I_acc_level_1 0
Core_0_L1I_acc_level_2 0
Core_0_L1I_acc_level_3 0
Core_0_L1I_acc_level_4 0
Core_0_L1I_acc_level_5 0
Core_0_L1I_acc_level_6 0
Core_0_L1I_acc_level_7 0
Core_0_L1I_acc_level_8 0
Core_0_L1I_acc_level_9 0

Core_0_L2C_total_access 65385248
Core_0_L2C_total_hit 26995985
Core_0_L2C_total_miss 38389263
Core_0_L2C_loads 50325666
Core_0_L2C_load_hit 12781781
Core_0_L2C_load_miss 37543885
Core_0_L2C_RFOs 1893070
Core_0_L2C_RFO_hit 1063050
Core_0_L2C_RFO_miss 830020
Core_0_L2C_prefetches 783736
Core_0_L2C_prefetch_hit 771818
Core_0_L2C_prefetch_miss 11918
Core_0_L2C_writebacks 12382776
Core_0_L2C_writeback_hit 12379336
Core_0_L2C_writeback_miss 3440
Core_0_L2C_prefetch_requested 6617449
Core_0_L2C_prefetch_dropped 13
Core_0_L2C_prefetch_issued 6617436
Core_0_L2C_prefetch_filled 14750
Core_0_L2C_prefetch_useful 906
Core_0_L2C_prefetch_useless 13840
Core_0_L2C_prefetch_late 168
Core_0_L2C_average_miss_latency 442.35864

Core_0_L2C_rq_access 52219755
Core_0_L2C_rq_forward 0
Core_0_L2C_rq_merged 0
Core_0_L2C_rq_to_cache 52218736
Core_0_L2C_rq_full 0

Core_0_L2C_wq_access 12382776
Core_0_L2C_wq_forward 1056
Core_0_L2C_wq_merged 0
Core_0_L2C_wq_to_cache 12382776
Core_0_L2C_wq_full 0

Core_0_L2C_pq_access 6617436
Core_0_L2C_pq_forward 0
Core_0_L2C_pq_merged 29630
Core_0_L2C_pq_to_cache 6587769
Core_0_L2C_pq_full 0

Core_0_L2C_acc_epochs 7398173
Core_0_L2C_acc_level_0 7397378
Core_0_L2C_acc_level_1 267
Core_0_L2C_acc_level_2 265
Core_0_L2C_acc_level_3 5
Core_0_L2C_acc_level_4 0
Core_0_L2C_acc_level_5 255
Core_0_L2C_acc_level_6 2
Core_0_L2C_acc_level_7 1
Core_0_L2C_acc_level_8 0
Core_0_L2C_acc_level_9 0

Core_0_LLC_total_access 50225169
Core_0_LLC_total_hit 19828743
Core_0_LLC_total_miss 30396426
Core_0_LLC_loads 37543615
Core_0_LLC_load_hit 12899721
Core_0_LLC_load_miss 24643894
Core_0_LLC_RFOs 830019
Core_0_LLC_RFO_hit 361567
Core_0_LLC_RFO_miss 468452
Core_0_LLC_prefetches 3277121
Core_0_LLC_prefetch_hit 1240484
Core_0_LLC_prefetch_miss 2036637
Core_0_LLC_writebacks 8574414
Core_0_LLC_writeback_hit 5326971
Core_0_LLC_writeback_miss 3247443
Core_0_LLC_prefetch_requested 0
Core_0_LLC_prefetch_dropped 0
Core_0_LLC_prefetch_issued 0
Core_0_LLC_prefetch_filled 2502208
Core_0_LLC_prefetch_useful 411289
Core_0_LLC_prefetch_useless 2090291
Core_0_LLC_prefetch_late 39610
Core_0_LLC_average_miss_latency 569.82330

Core_0_LLC_rq_access 38373790
Core_0_LLC_rq_forward 0
Core_0_LLC_rq_merged 0
Core_0_LLC_rq_to_cache 38373634
Core_0_LLC_rq_full 0

Core_0_LLC_wq_access 8574414
Core_0_LLC_wq_forward 157
Core_0_LLC_wq_merged 0
Core_0_LLC_wq_to_cache 8574414
Core_0_LLC_wq_full 0

Core_0_LLC_pq_access 4087448
Core_0_LLC_pq_forward 0
Core_0_LLC_pq_merged 8
Core_0_LLC_pq_to_cache 4087439
Core_0_LLC_pq_full 0

Core_0_LLC_acc_epochs 7926819
Core_0_LLC_acc_level_0 7604780
Core_0_LLC_acc_level_1 107661
Core_0_LLC_acc_level_2 98480
Core_0_LLC_acc_level_3 10567
Core_0_LLC_acc_level_4 2190
Core_0_LLC_acc_level_5 84603
Core_0_LLC_acc_level_6 4726
Core_0_LLC_acc_level_7 3874
Core_0_LLC_acc_level_8 1055
Core_0_LLC_acc_level_9 8883

Core_0_major_page_fault 0
Core_0_minor_page_fault 158560

spp.pref.total 6617449
spp.pref.at_L2 30751
spp.pref.at_LLC 6586698

spp.depth.max 4
spp.depth.min 0
spp.depth.avg 0

spp.breadth.max 2
spp.breadth.min 0
spp.breadth.avg 0

delta_1 5855215
delta_-2 635193
delta_-1 520557
delta_33 24436
delta_2 15493
delta_-10 9547
delta_-4 7233
delta_5 5327
delta_-3 3570
delta_9 3024
delta_-30 2974
delta_-16 2909
delta_35 2836
delta_-7 2803
delta_-9 2701
delta_-8 2413
delta_-13 2302
delta_6 2297
delta_4 2275
delta_-15 2056
delta_-31 1991
delta_3 1920
delta_19 1910
delta_13 1852
delta_-28 1844
delta_-19 1695
delta_11 1691
delta_-12 1476
delta_-5 1471
delta_7 1405
delta_10 999
delta_20 992
delta_26 987
delta_15 963
delta_-26 945
delta_12 938
delta_14 937
delta_-21 935
delta_-6 931
delta_31 894
delta_-11 884
delta_8 835
delta_23 833
delta_36 809
delta_-23 792
delta_24 787
delta_-33 748
delta_-35 747
delta_-18 741
delta_-22 704
delta_-25 693
delta_27 656
delta_-29 623
delta_21 605
delta_-14 593
delta_-17 580
delta_29 578
delta_-37 575
delta_16 563
delta_-34 560
delta_51 542
delta_-38 504
delta_-20 502
delta_22 501
delta_-27 498
delta_18 489
delta_-24 451
delta_25 450
delta_17 417
delta_42 410
delta_-42 403
delta_-32 399
delta_49 336
delta_30 330
delta_39 329
delta_32 322
delta_53 320
delta_-49 310
delta_28 291
delta_50 287
delta_-44 268
delta_34 249
delta_38 237
delta_-47 236
delta_-39 231
delta_-50 223
delta_41 205
delta_-55 197
delta_-36 182
delta_40 180
delta_-53 164
delta_-41 161
delta_52 161
delta_-48 159
delta_45 154
delta_46 147
delta_-46 138
delta_-40 137
delta_-54 126
delta_48 109
delta_57 106
delta_37 98
delta_47 95
delta_-43 94
delta_-45 93
delta_-60 76
delta_44 68
delta_54 61
delta_-57 59
delta_-58 45
delta_43 39
delta_58 36
delta_62 33
delta_-56 32
delta_-61 29
delta_-52 22
delta_-51 19
delta_-59 15
delta_55 14
delta_56 12
delta_59 7

depth_1_delta_1 5805913
depth_1_delta_-2 630040
depth_1_delta_-1 514194
depth_1_delta_33 24436
depth_1_delta_2 14781
depth_1_delta_-10 9459
depth_1_delta_-4 7001
depth_1_delta_5 5229
depth_1_delta_-3 3524
depth_1_delta_35 2832
depth_1_delta_-16 2604
depth_1_delta_-7 2558
depth_1_delta_9 2555
depth_1_delta_-9 2402
depth_1_delta_-8 2389
depth_1_delta_-13 2299
depth_1_delta_-30 2293
depth_1_delta_4 2271
depth_1_delta_6 2165
depth_1_delta_-31 1991
depth_1_delta_19 1858
depth_1_delta_3 1839
depth_1_delta_-15 1821
depth_1_delta_-28 1807
depth_1_delta_13 1782
depth_1_delta_-19 1684
depth_1_delta_11 1646
depth_1_delta_-5 1470
depth_1_delta_7 1381
depth_1_delta_-12 1212
depth_1_delta_10 999
depth_1_delta_26 975
depth_1_delta_20 971
depth_1_delta_-26 945
depth_1_delta_12 938
depth_1_delta_-6 930
depth_1_delta_14 926
depth_1_delta_15 907
depth_1_delta_31 894
depth_1_delta_-21 843
depth_1_delta_23 825
depth_1_delta_8 824
depth_1_delta_-11 805
depth_1_delta_-23 792
depth_1_delta_24 775
depth_1_delta_36 738
depth_1_delta_-18 725
depth_1_delta_-33 718
depth_1_delta_-25 684
depth_1_delta_-22 669
depth_1_delta_-29 623
depth_1_delta_-35 622
depth_1_delta_21 605
depth_1_delta_27 592
depth_1_delta_-14 591
depth_1_delta_-17 580
depth_1_delta_29 577
depth_1_delta_-37 574
depth_1_delta_16 562
depth_1_delta_-34 560
depth_1_delta_51 529
depth_1_delta_-38 501
depth_1_delta_-20 500
depth_1_delta_22 499
depth_1_delta_18 489
depth_1_delta_-27 464
depth_1_delta_-24 451
depth_1_delta_25 432
depth_1_delta_17 413
depth_1_delta_-42 403
depth_1_delta_-32 384
depth_1_delta_42 354
depth_1_delta_30 330
depth_1_delta_39 320
depth_1_delta_53 318
depth_1_delta_32 315
depth_1_delta_-49 310
depth_1_delta_49 299
depth_1_delta_28 291
depth_1_delta_50 287
depth_1_delta_-44 265
depth_1_delta_34 247
depth_1_delta_38 237
depth_1_delta_-47 236
depth_1_delta_-39 231
depth_1_delta_41 205
depth_1_delta_-50 204
depth_1_delta_-55 197
depth_1_delta_-36 182
depth_1_delta_40 180
depth_1_delta_-53 164
depth_1_delta_-41 161
depth_1_delta_52 161
depth_1_delta_45 154
depth_1_delta_46 147
depth_1_delta_-40 137
depth_1_delta_-48 121
depth_1_delta_-46 117
depth_1_delta_-54 113
depth_1_delta_48 109
depth_1_delta_57 106
depth_1_delta_37 96
depth_1_delta_47 95
depth_1_delta_-43 94
depth_1_delta_-45 92
depth_1_delta_-60 76
depth_1_delta_44 68
depth_1_delta_54 61
depth_1_delta_-57 59
depth_1_delta_-58 45
depth_1_delta_43 39
depth_1_delta_58 34
depth_1_delta_-56 32
depth_1_delta_-61 29
depth_1_delta_62 28
depth_1_delta_-52 22
depth_1_delta_-51 19
depth_1_delta_-59 15
depth_1_delta_55 14
depth_1_delta_56 12
depth_1_delta_59 7
depth_2_delta_1 48658
depth_2_delta_-1 6280
depth_2_delta_-2 5137
depth_2_delta_2 709
depth_2_delta_-30 650
depth_2_delta_9 469
depth_2_delta_-16 302
depth_2_delta_-9 299
depth_2_delta_-12 264
depth_2_delta_-7 245
depth_2_delta_-15 235
depth_2_delta_-4 232
depth_2_delta_-35 125
depth_2_delta_6 120
depth_2_delta_5 98
depth_2_delta_-21 92
depth_2_delta_-10 88
depth_2_delta_3 81
depth_2_delta_-11 79
depth_2_delta_36 71
depth_2_delta_13 70
depth_2_delta_27 64
depth_2_delta_15 56
depth_2_delta_42 56
depth_2_delta_19 52
depth_2_delta_-3 46
depth_2_delta_11 45
depth_2_delta_-48 38
depth_2_delta_49 37
depth_2_delta_-28 37
depth_2_delta_-22 35
depth_2_delta_-27 34
depth_2_delta_-33 30
depth_2_delta_7 24
depth_2_delta_-8 24
depth_2_delta_20 21
depth_2_delta_-46 21
depth_2_delta_-50 19
depth_2_delta_25 18
depth_2_delta_-18 16
depth_2_delta_-32 15
depth_2_delta_51 13
depth_2_delta_-54 13
depth_2_delta_26 12
depth_2_delta_24 12
depth_2_delta_8 11
depth_2_delta_-19 11
depth_2_delta_14 11
depth_2_delta_-25 9
depth_2_delta_39 9
depth_2_delta_23 8
depth_2_delta_32 7
depth_2_delta_62 5
depth_2_delta_4 4
depth_2_delta_17 4
depth_2_delta_35 4
depth_2_delta_-38 3
depth_2_delta_-13 3
depth_2_delta_-44 3
depth_2_delta_37 2
depth_2_delta_22 2
depth_2_delta_-20 2
depth_2_delta_58 2
depth_2_delta_53 2
depth_2_delta_-14 2
depth_2_delta_34 2
depth_2_delta_-6 1
depth_2_delta_29 1
depth_2_delta_16 1
depth_2_delta_-5 1
depth_2_delta_-37 1
depth_2_delta_-45 1
depth_3_delta_1 619
depth_3_delta_-1 83
depth_3_delta_-30 31
depth_3_delta_-2 16
depth_3_delta_6 12
depth_3_delta_-16 3
depth_3_delta_2 3
depth_4_delta_1 25

Channel_0_RQ_row_buffer_hit 376074
Channel_0_RQ_row_buffer_miss 26766695
Channel_0_WQ_row_buffer_hit 2513623
Channel_0_WQ_row_buffer_miss 3702458
Channel_0_WQ_full 331
Channel_0_dbus_congested 33500381

avg_congested_cycle 146

DRAM_bw_pochs 31707273
DRAM_bw_level_0 10599472
DRAM_bw_level_1 0
DRAM_bw_level_2 0
DRAM_bw_level_3 21107801
