*************************************************
   ChampSim Multicore Out-of-Order Simulator
   Last compiled: Dec 11 2024 17:59:53
*************************************************
parsing config file: /home/functionmain/桌面/Pythia/config/bingo.ini

trace_0 /home/functionmain/桌面/Pythia/traces/429.mcf-51B.champsimtrace.xz
adding L2C_PREFETCHER: Bingo
Initialize SHIP state
warmup_instructions 100000000
simulation_instructions 500000000
champsim_seed 168
measure_ipc 0
measure_ipc_epoch 1000
measure_dram_bw 1
measure_dram_bw_epoch 256
measure_cache_acc 1
measure_cache_acc_epoch 1024
l1d_perfect 0
l2c_perfect 0
llc_perfect 0
l1d_semi_perfect 0
l2c_semi_perfect 0
llc_semi_perfect 0
semi_perfect_cache_page_buffer_size 64

num_cpus 1
cpu_freq 4000
dram_io_freq 600
page_size 4096
block_size 64
max_read_per_cycle 8
max_fill_per_cycle 1
dram_channels 1
log2_dram_channels 0
dram_ranks 1
dram_banks 8
dram_rows 65536
dram_columns 128
dram_row_size 8
dram_size 4096
dram_pages 1048576

fetch_width 6
decode_width 6
exec_width 4
lq_width 2
sq_width 2
retire_width 4
scheduler_size 128
branch_mispredict_penalty 20
rob_size 256
lq_size 72
sq_size 56
num_instr_destinations_sparc 4
num_instr_destinations 2
num_instr_sources 4

itlb_set 16
itlb_way 8
itlb_rq_size 16
itlb_wq_size 16
itlb_pq_size 0
itlb_mshr_size 8
itlb_latency 1

dtlb_set 16
dtlb_way 4
dtlb_rq_size 16
dtlb_wq_size 16
dtlb_pq_size 0
dtlb_mshr_size 8
dtlb_latency 1

stlb_set 128
stlb_way 12
stlb_rq_size 32
stlb_wq_size 32
stlb_pq_size 0
stlb_mshr_size 16
stlb_latency 8

l1i_size 32
l1i_set 64
l1i_way 8
l1i_rq_size 64
l1i_wq_size 64
l1i_pq_size 8
l1i_mshr_size 8
l1i_latency 1

l1d_size 32
l1d_set 64
l1d_way 8
l1d_rq_size 64
l1d_wq_size 64
l1d_pq_size 8
l1d_mshr_size 16
l1d_latency 4

l2c_size 256
l2c_set 512
l2c_way 8
l2c_rq_size 32
l2c_wq_size 32
l2c_pq_size 32
l2c_mshr_size 32
l2c_latency 10

llc_size 2048
llc_set 2048
llc_way 16
llc_rq_size 32
llc_wq_size 32
llc_pq_size 32
llc_mshr_size 64
llc_latency 20

dram_channel_width 8
dram_wq_size 64
dram_rq_size 64
tRP 15
tRCD 15
tCAS 12.5
dram_dbus_turn_around_time 30
dram_write_high_wm 56
dram_write_low_wm 48
min_dram_writes_per_switch 16
dram_mtps 600
dram_dbus_return_time 53

bingo_region_size 2048
bingo_pattern_len 32
bingo_pc_width 16
bingo_min_addr_width 5
bingo_max_addr_width 16
bingo_ft_size 64
bingo_at_size 128
bingo_pht_size 4096
bingo_pht_ways 16
bingo_pf_streamer_size 128
bingo_debug_level 0
bingo_l1d_thresh 1.01
bingo_l2c_thresh 0.8
bingo_llc_thresh 0.05
bingo_pc_address_fill_level L2


Heartbeat CPU  0 instructions:    1000002 cycles:     854827 heartbeat IPC: 1.16983 cumulative IPC: 1.16983 (Simulation time: 0 hr 0 min 1 sec) 
Heartbeat CPU  0 instructions:    2000000 cycles:    1627817 heartbeat IPC: 1.29368 cumulative IPC: 1.22864 (Simulation time: 0 hr 0 min 4 sec) 
Heartbeat CPU  0 instructions:    3000002 cycles:    2418980 heartbeat IPC: 1.26396 cumulative IPC: 1.24019 (Simulation time: 0 hr 0 min 6 sec) 
Heartbeat CPU  0 instructions:    4000000 cycles:    3238640 heartbeat IPC: 1.22002 cumulative IPC: 1.23509 (Simulation time: 0 hr 0 min 8 sec) 
Heartbeat CPU  0 instructions:    5000002 cycles:    4020074 heartbeat IPC: 1.27970 cumulative IPC: 1.24376 (Simulation time: 0 hr 0 min 11 sec) 
Heartbeat CPU  0 instructions:    6000001 cycles:    4787592 heartbeat IPC: 1.30290 cumulative IPC: 1.25324 (Simulation time: 0 hr 0 min 14 sec) 
Heartbeat CPU  0 instructions:    7000000 cycles:    5565417 heartbeat IPC: 1.28563 cumulative IPC: 1.25777 (Simulation time: 0 hr 0 min 16 sec) 
Heartbeat CPU  0 instructions:    8000000 cycles:    6414207 heartbeat IPC: 1.17815 cumulative IPC: 1.24723 (Simulation time: 0 hr 0 min 18 sec) 
Heartbeat CPU  0 instructions:    9000001 cycles:    7205821 heartbeat IPC: 1.26324 cumulative IPC: 1.24899 (Simulation time: 0 hr 0 min 20 sec) 
Heartbeat CPU  0 instructions:   10000000 cycles:    8006913 heartbeat IPC: 1.24829 cumulative IPC: 1.24892 (Simulation time: 0 hr 0 min 23 sec) 
Heartbeat CPU  0 instructions:   11000002 cycles:    8855004 heartbeat IPC: 1.17912 cumulative IPC: 1.24224 (Simulation time: 0 hr 0 min 25 sec) 
Heartbeat CPU  0 instructions:   12000000 cycles:    9706505 heartbeat IPC: 1.17439 cumulative IPC: 1.23628 (Simulation time: 0 hr 0 min 27 sec) 
Heartbeat CPU  0 instructions:   13000000 cycles:   10515738 heartbeat IPC: 1.23574 cumulative IPC: 1.23624 (Simulation time: 0 hr 0 min 29 sec) 
Heartbeat CPU  0 instructions:   14000002 cycles:   11285509 heartbeat IPC: 1.29909 cumulative IPC: 1.24053 (Simulation time: 0 hr 0 min 32 sec) 
Heartbeat CPU  0 instructions:   15000001 cycles:   12060081 heartbeat IPC: 1.29103 cumulative IPC: 1.24377 (Simulation time: 0 hr 0 min 34 sec) 
Heartbeat CPU  0 instructions:   16000000 cycles:   12852306 heartbeat IPC: 1.26227 cumulative IPC: 1.24491 (Simulation time: 0 hr 0 min 36 sec) 
Heartbeat CPU  0 instructions:   17000000 cycles:   13655264 heartbeat IPC: 1.24540 cumulative IPC: 1.24494 (Simulation time: 0 hr 0 min 39 sec) 
Heartbeat CPU  0 instructions:   18000002 cycles:   14430063 heartbeat IPC: 1.29066 cumulative IPC: 1.24740 (Simulation time: 0 hr 0 min 41 sec) 
Heartbeat CPU  0 instructions:   19000000 cycles:   15253761 heartbeat IPC: 1.21403 cumulative IPC: 1.24559 (Simulation time: 0 hr 0 min 43 sec) 
Heartbeat CPU  0 instructions:   20000000 cycles:   16096698 heartbeat IPC: 1.18633 cumulative IPC: 1.24249 (Simulation time: 0 hr 0 min 45 sec) 
Heartbeat CPU  0 instructions:   21000001 cycles:   16891813 heartbeat IPC: 1.25768 cumulative IPC: 1.24321 (Simulation time: 0 hr 0 min 48 sec) 
Heartbeat CPU  0 instructions:   22000000 cycles:   17682121 heartbeat IPC: 1.26533 cumulative IPC: 1.24419 (Simulation time: 0 hr 0 min 50 sec) 
Heartbeat CPU  0 instructions:   23000001 cycles:   18490415 heartbeat IPC: 1.23717 cumulative IPC: 1.24389 (Simulation time: 0 hr 0 min 52 sec) 
Heartbeat CPU  0 instructions:   24000000 cycles:   19285985 heartbeat IPC: 1.25696 cumulative IPC: 1.24443 (Simulation time: 0 hr 0 min 54 sec) 
Heartbeat CPU  0 instructions:   25000003 cycles:   20087679 heartbeat IPC: 1.24736 cumulative IPC: 1.24454 (Simulation time: 0 hr 0 min 57 sec) 
Heartbeat CPU  0 instructions:   26000002 cycles:   20891541 heartbeat IPC: 1.24399 cumulative IPC: 1.24452 (Simulation time: 0 hr 0 min 59 sec) 
Heartbeat CPU  0 instructions:   27000000 cycles:   21705847 heartbeat IPC: 1.22804 cumulative IPC: 1.24390 (Simulation time: 0 hr 1 min 1 sec) 
Heartbeat CPU  0 instructions:   28000000 cycles:   22552298 heartbeat IPC: 1.18140 cumulative IPC: 1.24156 (Simulation time: 0 hr 1 min 3 sec) 
Heartbeat CPU  0 instructions:   29000000 cycles:   23325415 heartbeat IPC: 1.29347 cumulative IPC: 1.24328 (Simulation time: 0 hr 1 min 6 sec) 
Heartbeat CPU  0 instructions:   30000000 cycles:   24146221 heartbeat IPC: 1.21831 cumulative IPC: 1.24243 (Simulation time: 0 hr 1 min 8 sec) 
Heartbeat CPU  0 instructions:   31000002 cycles:   25005916 heartbeat IPC: 1.16321 cumulative IPC: 1.23971 (Simulation time: 0 hr 1 min 10 sec) 
Heartbeat CPU  0 instructions:   32000000 cycles:   25869416 heartbeat IPC: 1.15808 cumulative IPC: 1.23698 (Simulation time: 0 hr 1 min 12 sec) 
Heartbeat CPU  0 instructions:   33000002 cycles:   26625615 heartbeat IPC: 1.32241 cumulative IPC: 1.23941 (Simulation time: 0 hr 1 min 15 sec) 
Heartbeat CPU  0 instructions:   34000003 cycles:   27486984 heartbeat IPC: 1.16094 cumulative IPC: 1.23695 (Simulation time: 0 hr 1 min 17 sec) 
Heartbeat CPU  0 instructions:   35000001 cycles:   28345393 heartbeat IPC: 1.16494 cumulative IPC: 1.23477 (Simulation time: 0 hr 1 min 19 sec) 
Heartbeat CPU  0 instructions:   36000000 cycles:   29169311 heartbeat IPC: 1.21371 cumulative IPC: 1.23417 (Simulation time: 0 hr 1 min 21 sec) 
Heartbeat CPU  0 instructions:   37000003 cycles:   29940473 heartbeat IPC: 1.29675 cumulative IPC: 1.23579 (Simulation time: 0 hr 1 min 24 sec) 
Heartbeat CPU  0 instructions:   38000003 cycles:   30746442 heartbeat IPC: 1.24074 cumulative IPC: 1.23592 (Simulation time: 0 hr 1 min 26 sec) 
Heartbeat CPU  0 instructions:   39000000 cycles:   31467321 heartbeat IPC: 1.38719 cumulative IPC: 1.23938 (Simulation time: 0 hr 1 min 28 sec) 
Heartbeat CPU  0 instructions:   40000000 cycles:   32174319 heartbeat IPC: 1.41443 cumulative IPC: 1.24323 (Simulation time: 0 hr 1 min 30 sec) 
Heartbeat CPU  0 instructions:   41000003 cycles:   32925973 heartbeat IPC: 1.33040 cumulative IPC: 1.24522 (Simulation time: 0 hr 1 min 33 sec) 
Heartbeat CPU  0 instructions:   42000001 cycles:   33607193 heartbeat IPC: 1.46795 cumulative IPC: 1.24973 (Simulation time: 0 hr 1 min 35 sec) 
Heartbeat CPU  0 instructions:   43000000 cycles:   34297904 heartbeat IPC: 1.44778 cumulative IPC: 1.25372 (Simulation time: 0 hr 1 min 37 sec) 
Heartbeat CPU  0 instructions:   44000000 cycles:   35042731 heartbeat IPC: 1.34259 cumulative IPC: 1.25561 (Simulation time: 0 hr 1 min 39 sec) 
Heartbeat CPU  0 instructions:   45000000 cycles:   35893701 heartbeat IPC: 1.17513 cumulative IPC: 1.25370 (Simulation time: 0 hr 1 min 42 sec) 
Heartbeat CPU  0 instructions:   46000000 cycles:   36847636 heartbeat IPC: 1.04829 cumulative IPC: 1.24838 (Simulation time: 0 hr 1 min 45 sec) 
Heartbeat CPU  0 instructions:   47000001 cycles:   37875958 heartbeat IPC: 0.97246 cumulative IPC: 1.24089 (Simulation time: 0 hr 1 min 46 sec) 
Heartbeat CPU  0 instructions:   48000000 cycles:   38874278 heartbeat IPC: 1.00168 cumulative IPC: 1.23475 (Simulation time: 0 hr 1 min 48 sec) 
Heartbeat CPU  0 instructions:   49000001 cycles:   39766885 heartbeat IPC: 1.12031 cumulative IPC: 1.23218 (Simulation time: 0 hr 1 min 51 sec) 
Heartbeat CPU  0 instructions:   50000001 cycles:   40621559 heartbeat IPC: 1.17004 cumulative IPC: 1.23087 (Simulation time: 0 hr 1 min 53 sec) 
Heartbeat CPU  0 instructions:   51000002 cycles:   41612570 heartbeat IPC: 1.00907 cumulative IPC: 1.22559 (Simulation time: 0 hr 1 min 55 sec) 
Heartbeat CPU  0 instructions:   52000000 cycles:   42558808 heartbeat IPC: 1.05681 cumulative IPC: 1.22184 (Simulation time: 0 hr 1 min 57 sec) 
Heartbeat CPU  0 instructions:   53000002 cycles:   43455193 heartbeat IPC: 1.11559 cumulative IPC: 1.21965 (Simulation time: 0 hr 1 min 59 sec) 
Heartbeat CPU  0 instructions:   54000002 cycles:   44247374 heartbeat IPC: 1.26234 cumulative IPC: 1.22041 (Simulation time: 0 hr 2 min 2 sec) 
Heartbeat CPU  0 instructions:   55000001 cycles:   45136108 heartbeat IPC: 1.12519 cumulative IPC: 1.21854 (Simulation time: 0 hr 2 min 4 sec) 
Heartbeat CPU  0 instructions:   56000000 cycles:   46097522 heartbeat IPC: 1.04013 cumulative IPC: 1.21482 (Simulation time: 0 hr 2 min 6 sec) 
Heartbeat CPU  0 instructions:   57000001 cycles:   46944168 heartbeat IPC: 1.18113 cumulative IPC: 1.21421 (Simulation time: 0 hr 2 min 8 sec) 
Heartbeat CPU  0 instructions:   58000000 cycles:   47767201 heartbeat IPC: 1.21502 cumulative IPC: 1.21422 (Simulation time: 0 hr 2 min 10 sec) 
Heartbeat CPU  0 instructions:   59000001 cycles:   48546200 heartbeat IPC: 1.28370 cumulative IPC: 1.21534 (Simulation time: 0 hr 2 min 13 sec) 
Heartbeat CPU  0 instructions:   60000000 cycles:   49368242 heartbeat IPC: 1.21648 cumulative IPC: 1.21536 (Simulation time: 0 hr 2 min 15 sec) 
Heartbeat CPU  0 instructions:   61000002 cycles:   50231769 heartbeat IPC: 1.15804 cumulative IPC: 1.21437 (Simulation time: 0 hr 2 min 17 sec) 
Heartbeat CPU  0 instructions:   62000000 cycles:   51044808 heartbeat IPC: 1.22995 cumulative IPC: 1.21462 (Simulation time: 0 hr 2 min 20 sec) 
Heartbeat CPU  0 instructions:   63000001 cycles:   51804620 heartbeat IPC: 1.31612 cumulative IPC: 1.21611 (Simulation time: 0 hr 2 min 22 sec) 
Heartbeat CPU  0 instructions:   64000000 cycles:   52595736 heartbeat IPC: 1.26404 cumulative IPC: 1.21683 (Simulation time: 0 hr 2 min 24 sec) 
Heartbeat CPU  0 instructions:   65000000 cycles:   53391119 heartbeat IPC: 1.25726 cumulative IPC: 1.21743 (Simulation time: 0 hr 2 min 26 sec) 
Heartbeat CPU  0 instructions:   66000002 cycles:   54180730 heartbeat IPC: 1.26645 cumulative IPC: 1.21815 (Simulation time: 0 hr 2 min 29 sec) 
Heartbeat CPU  0 instructions:   67000003 cycles:   55014070 heartbeat IPC: 1.19999 cumulative IPC: 1.21787 (Simulation time: 0 hr 2 min 31 sec) 
Heartbeat CPU  0 instructions:   68000000 cycles:   55933060 heartbeat IPC: 1.08815 cumulative IPC: 1.21574 (Simulation time: 0 hr 2 min 33 sec) 
Heartbeat CPU  0 instructions:   69000000 cycles:   56825175 heartbeat IPC: 1.12093 cumulative IPC: 1.21425 (Simulation time: 0 hr 2 min 35 sec) 
Heartbeat CPU  0 instructions:   70000001 cycles:   57680948 heartbeat IPC: 1.16854 cumulative IPC: 1.21357 (Simulation time: 0 hr 2 min 38 sec) 
Heartbeat CPU  0 instructions:   71000000 cycles:   58490165 heartbeat IPC: 1.23576 cumulative IPC: 1.21388 (Simulation time: 0 hr 2 min 40 sec) 
Heartbeat CPU  0 instructions:   72000000 cycles:   59420281 heartbeat IPC: 1.07513 cumulative IPC: 1.21171 (Simulation time: 0 hr 2 min 42 sec) 
Heartbeat CPU  0 instructions:   73000000 cycles:   60335527 heartbeat IPC: 1.09260 cumulative IPC: 1.20990 (Simulation time: 0 hr 2 min 44 sec) 
Heartbeat CPU  0 instructions:   74000000 cycles:   61185032 heartbeat IPC: 1.17716 cumulative IPC: 1.20945 (Simulation time: 0 hr 2 min 47 sec) 
Heartbeat CPU  0 instructions:   75000002 cycles:   62011130 heartbeat IPC: 1.21051 cumulative IPC: 1.20946 (Simulation time: 0 hr 2 min 49 sec) 
Heartbeat CPU  0 instructions:   76000000 cycles:   62933366 heartbeat IPC: 1.08432 cumulative IPC: 1.20763 (Simulation time: 0 hr 2 min 51 sec) 
Heartbeat CPU  0 instructions:   77000003 cycles:   63863407 heartbeat IPC: 1.07522 cumulative IPC: 1.20570 (Simulation time: 0 hr 2 min 54 sec) 
Heartbeat CPU  0 instructions:   78000000 cycles:   64703253 heartbeat IPC: 1.19069 cumulative IPC: 1.20550 (Simulation time: 0 hr 2 min 56 sec) 
Heartbeat CPU  0 instructions:   79000002 cycles:   65521117 heartbeat IPC: 1.22270 cumulative IPC: 1.20572 (Simulation time: 0 hr 2 min 59 sec) 
Heartbeat CPU  0 instructions:   80000000 cycles:   66396152 heartbeat IPC: 1.14281 cumulative IPC: 1.20489 (Simulation time: 0 hr 3 min 1 sec) 
Heartbeat CPU  0 instructions:   81000001 cycles:   67236297 heartbeat IPC: 1.19027 cumulative IPC: 1.20471 (Simulation time: 0 hr 3 min 3 sec) 
Heartbeat CPU  0 instructions:   82000000 cycles:   68246400 heartbeat IPC: 0.99000 cumulative IPC: 1.20153 (Simulation time: 0 hr 3 min 5 sec) 
Heartbeat CPU  0 instructions:   83000003 cycles:   69007313 heartbeat IPC: 1.31421 cumulative IPC: 1.20277 (Simulation time: 0 hr 3 min 8 sec) 
Heartbeat CPU  0 instructions:   84000000 cycles:   69794254 heartbeat IPC: 1.27074 cumulative IPC: 1.20354 (Simulation time: 0 hr 3 min 10 sec) 
Heartbeat CPU  0 instructions:   85000001 cycles:   70563946 heartbeat IPC: 1.29922 cumulative IPC: 1.20458 (Simulation time: 0 hr 3 min 12 sec) 
Heartbeat CPU  0 instructions:   86000002 cycles:   71338716 heartbeat IPC: 1.29071 cumulative IPC: 1.20552 (Simulation time: 0 hr 3 min 14 sec) 
Heartbeat CPU  0 instructions:   87000000 cycles:   72098688 heartbeat IPC: 1.31584 cumulative IPC: 1.20668 (Simulation time: 0 hr 3 min 17 sec) 
Heartbeat CPU  0 instructions:   88000000 cycles:   72861999 heartbeat IPC: 1.31008 cumulative IPC: 1.20776 (Simulation time: 0 hr 3 min 19 sec) 
Heartbeat CPU  0 instructions:   89000002 cycles:   73621097 heartbeat IPC: 1.31736 cumulative IPC: 1.20889 (Simulation time: 0 hr 3 min 21 sec) 
Heartbeat CPU  0 instructions:   90000001 cycles:   74389748 heartbeat IPC: 1.30098 cumulative IPC: 1.20984 (Simulation time: 0 hr 3 min 23 sec) 
Heartbeat CPU  0 instructions:   91000001 cycles:   75151390 heartbeat IPC: 1.31295 cumulative IPC: 1.21089 (Simulation time: 0 hr 3 min 26 sec) 
Heartbeat CPU  0 instructions:   92000000 cycles:   75893344 heartbeat IPC: 1.34779 cumulative IPC: 1.21223 (Simulation time: 0 hr 3 min 28 sec) 
Heartbeat CPU  0 instructions:   93000000 cycles:   76680057 heartbeat IPC: 1.27111 cumulative IPC: 1.21283 (Simulation time: 0 hr 3 min 30 sec) 
Heartbeat CPU  0 instructions:   94000001 cycles:   77561614 heartbeat IPC: 1.13436 cumulative IPC: 1.21194 (Simulation time: 0 hr 3 min 32 sec) 
Heartbeat CPU  0 instructions:   95000003 cycles:   78341411 heartbeat IPC: 1.28239 cumulative IPC: 1.21264 (Simulation time: 0 hr 3 min 35 sec) 
Heartbeat CPU  0 instructions:   96000000 cycles:   79174623 heartbeat IPC: 1.20017 cumulative IPC: 1.21251 (Simulation time: 0 hr 3 min 37 sec) 
Heartbeat CPU  0 instructions:   97000001 cycles:   79912001 heartbeat IPC: 1.35616 cumulative IPC: 1.21384 (Simulation time: 0 hr 3 min 39 sec) 
Heartbeat CPU  0 instructions:   98000000 cycles:   80628379 heartbeat IPC: 1.39591 cumulative IPC: 1.21545 (Simulation time: 0 hr 3 min 41 sec) 
Heartbeat CPU  0 instructions:   99000000 cycles:   81353897 heartbeat IPC: 1.37833 cumulative IPC: 1.21691 (Simulation time: 0 hr 3 min 44 sec) 
Heartbeat CPU  0 instructions:  100000000 cycles:   82089111 heartbeat IPC: 1.36015 cumulative IPC: 1.21819 (Simulation time: 0 hr 3 min 46 sec) 

Warmup complete CPU  0 instructions:  100000001 cycles:   82089112 (Simulation time: 0 hr 3 min 46 sec) 

Heartbeat CPU  0 instructions:  101000003 cycles:  105997308 heartbeat IPC: 0.04183 cumulative IPC: 0.04183 (Simulation time: 0 hr 3 min 57 sec) 
Heartbeat CPU  0 instructions:  102000002 cycles:  119549579 heartbeat IPC: 0.07379 cumulative IPC: 0.05339 (Simulation time: 0 hr 4 min 4 sec) 
Heartbeat CPU  0 instructions:  103000002 cycles:  131719835 heartbeat IPC: 0.08217 cumulative IPC: 0.06045 (Simulation time: 0 hr 4 min 10 sec) 
Heartbeat CPU  0 instructions:  104000000 cycles:  176302007 heartbeat IPC: 0.02243 cumulative IPC: 0.04246 (Simulation time: 0 hr 4 min 32 sec) 
Heartbeat CPU  0 instructions:  105000001 cycles:  194698639 heartbeat IPC: 0.05436 cumulative IPC: 0.04440 (Simulation time: 0 hr 4 min 40 sec) 
Heartbeat CPU  0 instructions:  106000002 cycles:  207504598 heartbeat IPC: 0.07809 cumulative IPC: 0.04784 (Simulation time: 0 hr 4 min 47 sec) 
Heartbeat CPU  0 instructions:  107000000 cycles:  219178008 heartbeat IPC: 0.08566 cumulative IPC: 0.05106 (Simulation time: 0 hr 4 min 53 sec) 
Heartbeat CPU  0 instructions:  108000000 cycles:  254837819 heartbeat IPC: 0.02804 cumulative IPC: 0.04631 (Simulation time: 0 hr 5 min 11 sec) 
Heartbeat CPU  0 instructions:  109000000 cycles:  282697511 heartbeat IPC: 0.03589 cumulative IPC: 0.04486 (Simulation time: 0 hr 5 min 24 sec) 
Heartbeat CPU  0 instructions:  110000000 cycles:  293540077 heartbeat IPC: 0.09223 cumulative IPC: 0.04729 (Simulation time: 0 hr 5 min 30 sec) 
Heartbeat CPU  0 instructions:  111000002 cycles:  304513872 heartbeat IPC: 0.09113 cumulative IPC: 0.04945 (Simulation time: 0 hr 5 min 35 sec) 
Heartbeat CPU  0 instructions:  112000000 cycles:  330068497 heartbeat IPC: 0.03913 cumulative IPC: 0.04839 (Simulation time: 0 hr 5 min 48 sec) 
Heartbeat CPU  0 instructions:  113000000 cycles:  367030166 heartbeat IPC: 0.02706 cumulative IPC: 0.04562 (Simulation time: 0 hr 6 min 6 sec) 
Heartbeat CPU  0 instructions:  114000003 cycles:  378349687 heartbeat IPC: 0.08834 cumulative IPC: 0.04726 (Simulation time: 0 hr 6 min 12 sec) 
Heartbeat CPU  0 instructions:  115000003 cycles:  390260901 heartbeat IPC: 0.08395 cumulative IPC: 0.04867 (Simulation time: 0 hr 6 min 18 sec) 
Heartbeat CPU  0 instructions:  116000000 cycles:  406116542 heartbeat IPC: 0.06307 cumulative IPC: 0.04938 (Simulation time: 0 hr 6 min 27 sec) 
Heartbeat CPU  0 instructions:  117000002 cycles:  452941885 heartbeat IPC: 0.02136 cumulative IPC: 0.04584 (Simulation time: 0 hr 6 min 52 sec) 
Heartbeat CPU  0 instructions:  118000001 cycles:  463295627 heartbeat IPC: 0.09658 cumulative IPC: 0.04722 (Simulation time: 0 hr 6 min 58 sec) 
Heartbeat CPU  0 instructions:  119000001 cycles:  481227843 heartbeat IPC: 0.05577 cumulative IPC: 0.04760 (Simulation time: 0 hr 7 min 8 sec) 
Heartbeat CPU  0 instructions:  120000000 cycles:  492616974 heartbeat IPC: 0.08780 cumulative IPC: 0.04872 (Simulation time: 0 hr 7 min 15 sec) 
Heartbeat CPU  0 instructions:  121000002 cycles:  519743632 heartbeat IPC: 0.03686 cumulative IPC: 0.04798 (Simulation time: 0 hr 7 min 30 sec) 
Heartbeat CPU  0 instructions:  122000000 cycles:  559346810 heartbeat IPC: 0.02525 cumulative IPC: 0.04610 (Simulation time: 0 hr 7 min 51 sec) 
Heartbeat CPU  0 instructions:  123000000 cycles:  571801890 heartbeat IPC: 0.08029 cumulative IPC: 0.04697 (Simulation time: 0 hr 7 min 58 sec) 
Heartbeat CPU  0 instructions:  124000000 cycles:  584941688 heartbeat IPC: 0.07610 cumulative IPC: 0.04773 (Simulation time: 0 hr 8 min 5 sec) 
Heartbeat CPU  0 instructions:  125000000 cycles:  606699680 heartbeat IPC: 0.04596 cumulative IPC: 0.04765 (Simulation time: 0 hr 8 min 17 sec) 
Heartbeat CPU  0 instructions:  126000000 cycles:  648926213 heartbeat IPC: 0.02368 cumulative IPC: 0.04587 (Simulation time: 0 hr 8 min 37 sec) 
Heartbeat CPU  0 instructions:  127000001 cycles:  660563599 heartbeat IPC: 0.08593 cumulative IPC: 0.04667 (Simulation time: 0 hr 8 min 43 sec) 
Heartbeat CPU  0 instructions:  128000000 cycles:  673704005 heartbeat IPC: 0.07610 cumulative IPC: 0.04733 (Simulation time: 0 hr 8 min 49 sec) 
Heartbeat CPU  0 instructions:  129000001 cycles:  691776800 heartbeat IPC: 0.05533 cumulative IPC: 0.04757 (Simulation time: 0 hr 8 min 58 sec) 
Heartbeat CPU  0 instructions:  130000003 cycles:  737674132 heartbeat IPC: 0.02179 cumulative IPC: 0.04576 (Simulation time: 0 hr 9 min 20 sec) 
Heartbeat CPU  0 instructions:  131000002 cycles:  750286058 heartbeat IPC: 0.07929 cumulative IPC: 0.04639 (Simulation time: 0 hr 9 min 27 sec) 
Heartbeat CPU  0 instructions:  132000000 cycles:  760819759 heartbeat IPC: 0.09493 cumulative IPC: 0.04715 (Simulation time: 0 hr 9 min 32 sec) 
Heartbeat CPU  0 instructions:  133000000 cycles:  771847294 heartbeat IPC: 0.09068 cumulative IPC: 0.04784 (Simulation time: 0 hr 9 min 38 sec) 
Heartbeat CPU  0 instructions:  134000001 cycles:  812588971 heartbeat IPC: 0.02454 cumulative IPC: 0.04654 (Simulation time: 0 hr 9 min 58 sec) 
Heartbeat CPU  0 instructions:  135000000 cycles:  834403782 heartbeat IPC: 0.04584 cumulative IPC: 0.04652 (Simulation time: 0 hr 10 min 9 sec) 
Heartbeat CPU  0 instructions:  136000000 cycles:  845087320 heartbeat IPC: 0.09360 cumulative IPC: 0.04718 (Simulation time: 0 hr 10 min 14 sec) 
Heartbeat CPU  0 instructions:  137000002 cycles:  856055898 heartbeat IPC: 0.09117 cumulative IPC: 0.04781 (Simulation time: 0 hr 10 min 20 sec) 
Heartbeat CPU  0 instructions:  138000001 cycles:  889756698 heartbeat IPC: 0.02967 cumulative IPC: 0.04705 (Simulation time: 0 hr 10 min 37 sec) 
Heartbeat CPU  0 instructions:  139000000 cycles:  918999782 heartbeat IPC: 0.03420 cumulative IPC: 0.04660 (Simulation time: 0 hr 10 min 51 sec) 
Heartbeat CPU  0 instructions:  140000000 cycles:  929934967 heartbeat IPC: 0.09145 cumulative IPC: 0.04718 (Simulation time: 0 hr 10 min 57 sec) 
Heartbeat CPU  0 instructions:  141000000 cycles:  940744725 heartbeat IPC: 0.09251 cumulative IPC: 0.04775 (Simulation time: 0 hr 11 min 3 sec) 
Heartbeat CPU  0 instructions:  142000000 cycles:  970670085 heartbeat IPC: 0.03342 cumulative IPC: 0.04727 (Simulation time: 0 hr 11 min 18 sec) 
Heartbeat CPU  0 instructions:  143000003 cycles: 1004003229 heartbeat IPC: 0.03000 cumulative IPC: 0.04664 (Simulation time: 0 hr 11 min 34 sec) 
Heartbeat CPU  0 instructions:  144000000 cycles: 1014784917 heartbeat IPC: 0.09275 cumulative IPC: 0.04718 (Simulation time: 0 hr 11 min 40 sec) 
Heartbeat CPU  0 instructions:  145000002 cycles: 1025818992 heartbeat IPC: 0.09063 cumulative IPC: 0.04768 (Simulation time: 0 hr 11 min 46 sec) 
Heartbeat CPU  0 instructions:  146000000 cycles: 1051483431 heartbeat IPC: 0.03896 cumulative IPC: 0.04745 (Simulation time: 0 hr 11 min 59 sec) 
Heartbeat CPU  0 instructions:  147000003 cycles: 1089014533 heartbeat IPC: 0.02664 cumulative IPC: 0.04668 (Simulation time: 0 hr 12 min 17 sec) 
Heartbeat CPU  0 instructions:  148000000 cycles: 1099514570 heartbeat IPC: 0.09524 cumulative IPC: 0.04718 (Simulation time: 0 hr 12 min 22 sec) 
Heartbeat CPU  0 instructions:  149000001 cycles: 1110449807 heartbeat IPC: 0.09145 cumulative IPC: 0.04765 (Simulation time: 0 hr 12 min 28 sec) 
Heartbeat CPU  0 instructions:  150000002 cycles: 1133374599 heartbeat IPC: 0.04362 cumulative IPC: 0.04756 (Simulation time: 0 hr 12 min 40 sec) 
Heartbeat CPU  0 instructions:  151000001 cycles: 1174019612 heartbeat IPC: 0.02460 cumulative IPC: 0.04671 (Simulation time: 0 hr 13 min 0 sec) 
Heartbeat CPU  0 instructions:  152000000 cycles: 1184944522 heartbeat IPC: 0.09153 cumulative IPC: 0.04715 (Simulation time: 0 hr 13 min 5 sec) 
Heartbeat CPU  0 instructions:  153000000 cycles: 1195892466 heartbeat IPC: 0.09134 cumulative IPC: 0.04758 (Simulation time: 0 hr 13 min 11 sec) 
Heartbeat CPU  0 instructions:  154000000 cycles: 1210982346 heartbeat IPC: 0.06627 cumulative IPC: 0.04783 (Simulation time: 0 hr 13 min 19 sec) 
Heartbeat CPU  0 instructions:  155000000 cycles: 1259166011 heartbeat IPC: 0.02075 cumulative IPC: 0.04673 (Simulation time: 0 hr 13 min 42 sec) 
Heartbeat CPU  0 instructions:  156000000 cycles: 1269395720 heartbeat IPC: 0.09775 cumulative IPC: 0.04717 (Simulation time: 0 hr 13 min 48 sec) 
Heartbeat CPU  0 instructions:  157000000 cycles: 1282533857 heartbeat IPC: 0.07611 cumulative IPC: 0.04748 (Simulation time: 0 hr 13 min 54 sec) 
Heartbeat CPU  0 instructions:  158000001 cycles: 1295594080 heartbeat IPC: 0.07657 cumulative IPC: 0.04780 (Simulation time: 0 hr 14 min 0 sec) 
Heartbeat CPU  0 instructions:  159000000 cycles: 1334364954 heartbeat IPC: 0.02579 cumulative IPC: 0.04711 (Simulation time: 0 hr 14 min 19 sec) 
Heartbeat CPU  0 instructions:  160000000 cycles: 1360150379 heartbeat IPC: 0.03878 cumulative IPC: 0.04695 (Simulation time: 0 hr 14 min 31 sec) 
Heartbeat CPU  0 instructions:  161000003 cycles: 1373534500 heartbeat IPC: 0.07472 cumulative IPC: 0.04723 (Simulation time: 0 hr 14 min 37 sec) 
Heartbeat CPU  0 instructions:  162000000 cycles: 1389588858 heartbeat IPC: 0.06229 cumulative IPC: 0.04742 (Simulation time: 0 hr 14 min 45 sec) 
Heartbeat CPU  0 instructions:  163000000 cycles: 1417452015 heartbeat IPC: 0.03589 cumulative IPC: 0.04718 (Simulation time: 0 hr 14 min 59 sec) 
Heartbeat CPU  0 instructions:  164000000 cycles: 1454628984 heartbeat IPC: 0.02690 cumulative IPC: 0.04663 (Simulation time: 0 hr 15 min 17 sec) 
Heartbeat CPU  0 instructions:  165000002 cycles: 1471623054 heartbeat IPC: 0.05884 cumulative IPC: 0.04678 (Simulation time: 0 hr 15 min 26 sec) 
Heartbeat CPU  0 instructions:  166000003 cycles: 1486994267 heartbeat IPC: 0.06506 cumulative IPC: 0.04698 (Simulation time: 0 hr 15 min 34 sec) 
Heartbeat CPU  0 instructions:  167000000 cycles: 1508898160 heartbeat IPC: 0.04565 cumulative IPC: 0.04696 (Simulation time: 0 hr 15 min 44 sec) 
Heartbeat CPU  0 instructions:  168000000 cycles: 1551993330 heartbeat IPC: 0.02320 cumulative IPC: 0.04626 (Simulation time: 0 hr 16 min 5 sec) 
Heartbeat CPU  0 instructions:  169000000 cycles: 1565049725 heartbeat IPC: 0.07659 cumulative IPC: 0.04653 (Simulation time: 0 hr 16 min 12 sec) 
Heartbeat CPU  0 instructions:  170000000 cycles: 1579179031 heartbeat IPC: 0.07077 cumulative IPC: 0.04676 (Simulation time: 0 hr 16 min 19 sec) 
Heartbeat CPU  0 instructions:  171000002 cycles: 1606076908 heartbeat IPC: 0.03718 cumulative IPC: 0.04659 (Simulation time: 0 hr 16 min 33 sec) 
Heartbeat CPU  0 instructions:  172000000 cycles: 1644571994 heartbeat IPC: 0.02598 cumulative IPC: 0.04608 (Simulation time: 0 hr 16 min 51 sec) 
Heartbeat CPU  0 instructions:  173000000 cycles: 1657600728 heartbeat IPC: 0.07675 cumulative IPC: 0.04633 (Simulation time: 0 hr 16 min 58 sec) 
Heartbeat CPU  0 instructions:  174000002 cycles: 1671722388 heartbeat IPC: 0.07081 cumulative IPC: 0.04655 (Simulation time: 0 hr 17 min 5 sec) 
Heartbeat CPU  0 instructions:  175000003 cycles: 1693897860 heartbeat IPC: 0.04509 cumulative IPC: 0.04653 (Simulation time: 0 hr 17 min 16 sec) 
Heartbeat CPU  0 instructions:  176000000 cycles: 1735766807 heartbeat IPC: 0.02388 cumulative IPC: 0.04596 (Simulation time: 0 hr 17 min 36 sec) 
Heartbeat CPU  0 instructions:  177000002 cycles: 1747139154 heartbeat IPC: 0.08793 cumulative IPC: 0.04624 (Simulation time: 0 hr 17 min 43 sec) 
Heartbeat CPU  0 instructions:  178000001 cycles: 1759052252 heartbeat IPC: 0.08394 cumulative IPC: 0.04651 (Simulation time: 0 hr 17 min 49 sec) 
Heartbeat CPU  0 instructions:  179000002 cycles: 1785156278 heartbeat IPC: 0.03831 cumulative IPC: 0.04639 (Simulation time: 0 hr 18 min 2 sec) 
Heartbeat CPU  0 instructions:  180000000 cycles: 1823432195 heartbeat IPC: 0.02613 cumulative IPC: 0.04594 (Simulation time: 0 hr 18 min 20 sec) 
Heartbeat CPU  0 instructions:  181000002 cycles: 1834270404 heartbeat IPC: 0.09227 cumulative IPC: 0.04623 (Simulation time: 0 hr 18 min 26 sec) 
Heartbeat CPU  0 instructions:  182000000 cycles: 1845825429 heartbeat IPC: 0.08654 cumulative IPC: 0.04649 (Simulation time: 0 hr 18 min 32 sec) 
Heartbeat CPU  0 instructions:  183000002 cycles: 1868276178 heartbeat IPC: 0.04454 cumulative IPC: 0.04647 (Simulation time: 0 hr 18 min 44 sec) 
Heartbeat CPU  0 instructions:  184000000 cycles: 1909880462 heartbeat IPC: 0.02404 cumulative IPC: 0.04596 (Simulation time: 0 hr 19 min 3 sec) 
Heartbeat CPU  0 instructions:  185000001 cycles: 1921066904 heartbeat IPC: 0.08939 cumulative IPC: 0.04622 (Simulation time: 0 hr 19 min 9 sec) 
Heartbeat CPU  0 instructions:  186000000 cycles: 1932841230 heartbeat IPC: 0.08493 cumulative IPC: 0.04647 (Simulation time: 0 hr 19 min 15 sec) 
Heartbeat CPU  0 instructions:  187000001 cycles: 1949796417 heartbeat IPC: 0.05898 cumulative IPC: 0.04658 (Simulation time: 0 hr 19 min 24 sec) 
Heartbeat CPU  0 instructions:  188000000 cycles: 1996582381 heartbeat IPC: 0.02137 cumulative IPC: 0.04597 (Simulation time: 0 hr 19 min 46 sec) 
Heartbeat CPU  0 instructions:  189000001 cycles: 2007806378 heartbeat IPC: 0.08909 cumulative IPC: 0.04622 (Simulation time: 0 hr 19 min 52 sec) 
Heartbeat CPU  0 instructions:  190000001 cycles: 2020324845 heartbeat IPC: 0.07988 cumulative IPC: 0.04643 (Simulation time: 0 hr 19 min 58 sec) 
Heartbeat CPU  0 instructions:  191000000 cycles: 2033534751 heartbeat IPC: 0.07570 cumulative IPC: 0.04663 (Simulation time: 0 hr 20 min 5 sec) 
Heartbeat CPU  0 instructions:  192000000 cycles: 2074891471 heartbeat IPC: 0.02418 cumulative IPC: 0.04617 (Simulation time: 0 hr 20 min 25 sec) 
Heartbeat CPU  0 instructions:  193000001 cycles: 2097381293 heartbeat IPC: 0.04446 cumulative IPC: 0.04615 (Simulation time: 0 hr 20 min 36 sec) 
Heartbeat CPU  0 instructions:  194000000 cycles: 2109826161 heartbeat IPC: 0.08035 cumulative IPC: 0.04636 (Simulation time: 0 hr 20 min 42 sec) 
Heartbeat CPU  0 instructions:  195000000 cycles: 2123257516 heartbeat IPC: 0.07445 cumulative IPC: 0.04654 (Simulation time: 0 hr 20 min 49 sec) 
Heartbeat CPU  0 instructions:  196000000 cycles: 2162469914 heartbeat IPC: 0.02550 cumulative IPC: 0.04615 (Simulation time: 0 hr 21 min 8 sec) 
Heartbeat CPU  0 instructions:  197000000 cycles: 2187134741 heartbeat IPC: 0.04054 cumulative IPC: 0.04608 (Simulation time: 0 hr 21 min 20 sec) 
Heartbeat CPU  0 instructions:  198000000 cycles: 2200944525 heartbeat IPC: 0.07241 cumulative IPC: 0.04625 (Simulation time: 0 hr 21 min 28 sec) 
Heartbeat CPU  0 instructions:  199000000 cycles: 2215226342 heartbeat IPC: 0.07002 cumulative IPC: 0.04641 (Simulation time: 0 hr 21 min 35 sec) 
Heartbeat CPU  0 instructions:  200000000 cycles: 2262988756 heartbeat IPC: 0.02094 cumulative IPC: 0.04585 (Simulation time: 0 hr 21 min 58 sec) 
Heartbeat CPU  0 instructions:  201000001 cycles: 2279853611 heartbeat IPC: 0.05929 cumulative IPC: 0.04596 (Simulation time: 0 hr 22 min 7 sec) 
Heartbeat CPU  0 instructions:  202000003 cycles: 2294346467 heartbeat IPC: 0.06900 cumulative IPC: 0.04611 (Simulation time: 0 hr 22 min 14 sec) 
Heartbeat CPU  0 instructions:  203000003 cycles: 2313168255 heartbeat IPC: 0.05313 cumulative IPC: 0.04617 (Simulation time: 0 hr 22 min 24 sec) 
Heartbeat CPU  0 instructions:  204000000 cycles: 2359579979 heartbeat IPC: 0.02155 cumulative IPC: 0.04566 (Simulation time: 0 hr 22 min 46 sec) 
Heartbeat CPU  0 instructions:  205000000 cycles: 2373525103 heartbeat IPC: 0.07171 cumulative IPC: 0.04582 (Simulation time: 0 hr 22 min 54 sec) 
Heartbeat CPU  0 instructions:  206000002 cycles: 2389150296 heartbeat IPC: 0.06400 cumulative IPC: 0.04595 (Simulation time: 0 hr 23 min 2 sec) 
Heartbeat CPU  0 instructions:  207000001 cycles: 2410372839 heartbeat IPC: 0.04712 cumulative IPC: 0.04596 (Simulation time: 0 hr 23 min 13 sec) 
Heartbeat CPU  0 instructions:  208000000 cycles: 2453644199 heartbeat IPC: 0.02311 cumulative IPC: 0.04554 (Simulation time: 0 hr 23 min 34 sec) 
Heartbeat CPU  0 instructions:  209000002 cycles: 2466553882 heartbeat IPC: 0.07746 cumulative IPC: 0.04571 (Simulation time: 0 hr 23 min 40 sec) 
Heartbeat CPU  0 instructions:  210000002 cycles: 2482329560 heartbeat IPC: 0.06339 cumulative IPC: 0.04583 (Simulation time: 0 hr 23 min 48 sec) 
Heartbeat CPU  0 instructions:  211000000 cycles: 2511246699 heartbeat IPC: 0.03458 cumulative IPC: 0.04569 (Simulation time: 0 hr 24 min 3 sec) 
Heartbeat CPU  0 instructions:  212000000 cycles: 2547802985 heartbeat IPC: 0.02736 cumulative IPC: 0.04542 (Simulation time: 0 hr 24 min 20 sec) 
Heartbeat CPU  0 instructions:  213000002 cycles: 2561424299 heartbeat IPC: 0.07341 cumulative IPC: 0.04558 (Simulation time: 0 hr 24 min 28 sec) 
Heartbeat CPU  0 instructions:  214000001 cycles: 2575973096 heartbeat IPC: 0.06873 cumulative IPC: 0.04571 (Simulation time: 0 hr 24 min 35 sec) 
Heartbeat CPU  0 instructions:  215000000 cycles: 2611545331 heartbeat IPC: 0.02811 cumulative IPC: 0.04546 (Simulation time: 0 hr 24 min 53 sec) 
Heartbeat CPU  0 instructions:  216000000 cycles: 2642146437 heartbeat IPC: 0.03268 cumulative IPC: 0.04531 (Simulation time: 0 hr 25 min 8 sec) 
Heartbeat CPU  0 instructions:  217000000 cycles: 2659690668 heartbeat IPC: 0.05700 cumulative IPC: 0.04539 (Simulation time: 0 hr 25 min 16 sec) 
Heartbeat CPU  0 instructions:  218000001 cycles: 2674665722 heartbeat IPC: 0.06678 cumulative IPC: 0.04551 (Simulation time: 0 hr 25 min 24 sec) 
Heartbeat CPU  0 instructions:  219000003 cycles: 2711406128 heartbeat IPC: 0.02722 cumulative IPC: 0.04526 (Simulation time: 0 hr 25 min 43 sec) 
Heartbeat CPU  0 instructions:  220000000 cycles: 2739878949 heartbeat IPC: 0.03512 cumulative IPC: 0.04515 (Simulation time: 0 hr 25 min 56 sec) 
Heartbeat CPU  0 instructions:  221000003 cycles: 2755219676 heartbeat IPC: 0.06519 cumulative IPC: 0.04527 (Simulation time: 0 hr 26 min 4 sec) 
Heartbeat CPU  0 instructions:  222000000 cycles: 2769904006 heartbeat IPC: 0.06810 cumulative IPC: 0.04539 (Simulation time: 0 hr 26 min 12 sec) 
Heartbeat CPU  0 instructions:  223000001 cycles: 2819386982 heartbeat IPC: 0.02021 cumulative IPC: 0.04493 (Simulation time: 0 hr 26 min 36 sec) 
Heartbeat CPU  0 instructions:  224000000 cycles: 2835081543 heartbeat IPC: 0.06372 cumulative IPC: 0.04504 (Simulation time: 0 hr 26 min 45 sec) 
Heartbeat CPU  0 instructions:  225000000 cycles: 2849640636 heartbeat IPC: 0.06869 cumulative IPC: 0.04517 (Simulation time: 0 hr 26 min 53 sec) 
Heartbeat CPU  0 instructions:  226000003 cycles: 2873956726 heartbeat IPC: 0.04113 cumulative IPC: 0.04513 (Simulation time: 0 hr 27 min 5 sec) 
Heartbeat CPU  0 instructions:  227000001 cycles: 2915277197 heartbeat IPC: 0.02420 cumulative IPC: 0.04483 (Simulation time: 0 hr 27 min 25 sec) 
Heartbeat CPU  0 instructions:  228000000 cycles: 2929494529 heartbeat IPC: 0.07034 cumulative IPC: 0.04495 (Simulation time: 0 hr 27 min 33 sec) 
Heartbeat CPU  0 instructions:  229000000 cycles: 2943968554 heartbeat IPC: 0.06909 cumulative IPC: 0.04508 (Simulation time: 0 hr 27 min 41 sec) 
Heartbeat CPU  0 instructions:  230000002 cycles: 2982180044 heartbeat IPC: 0.02617 cumulative IPC: 0.04483 (Simulation time: 0 hr 28 min 0 sec) 
Heartbeat CPU  0 instructions:  231000003 cycles: 3009822763 heartbeat IPC: 0.03618 cumulative IPC: 0.04474 (Simulation time: 0 hr 28 min 13 sec) 
Heartbeat CPU  0 instructions:  232000000 cycles: 3024558897 heartbeat IPC: 0.06786 cumulative IPC: 0.04486 (Simulation time: 0 hr 28 min 21 sec) 
Heartbeat CPU  0 instructions:  233000002 cycles: 3039863141 heartbeat IPC: 0.06534 cumulative IPC: 0.04497 (Simulation time: 0 hr 28 min 30 sec) 
Heartbeat CPU  0 instructions:  234000000 cycles: 3090476077 heartbeat IPC: 0.01976 cumulative IPC: 0.04454 (Simulation time: 0 hr 28 min 54 sec) 
Heartbeat CPU  0 instructions:  235000000 cycles: 3105390648 heartbeat IPC: 0.06705 cumulative IPC: 0.04465 (Simulation time: 0 hr 29 min 2 sec) 
Heartbeat CPU  0 instructions:  236000000 cycles: 3121795393 heartbeat IPC: 0.06096 cumulative IPC: 0.04474 (Simulation time: 0 hr 29 min 10 sec) 
Heartbeat CPU  0 instructions:  237000003 cycles: 3145919861 heartbeat IPC: 0.04145 cumulative IPC: 0.04472 (Simulation time: 0 hr 29 min 23 sec) 
Heartbeat CPU  0 instructions:  238000003 cycles: 3187225335 heartbeat IPC: 0.02421 cumulative IPC: 0.04444 (Simulation time: 0 hr 29 min 43 sec) 
Heartbeat CPU  0 instructions:  239000000 cycles: 3200016186 heartbeat IPC: 0.07818 cumulative IPC: 0.04458 (Simulation time: 0 hr 29 min 50 sec) 
Heartbeat CPU  0 instructions:  240000000 cycles: 3213215632 heartbeat IPC: 0.07576 cumulative IPC: 0.04471 (Simulation time: 0 hr 29 min 58 sec) 
Heartbeat CPU  0 instructions:  241000001 cycles: 3248760062 heartbeat IPC: 0.02813 cumulative IPC: 0.04453 (Simulation time: 0 hr 30 min 16 sec) 
Heartbeat CPU  0 instructions:  242000000 cycles: 3279310752 heartbeat IPC: 0.03273 cumulative IPC: 0.04441 (Simulation time: 0 hr 30 min 30 sec) 
Heartbeat CPU  0 instructions:  243000003 cycles: 3299421214 heartbeat IPC: 0.04973 cumulative IPC: 0.04445 (Simulation time: 0 hr 30 min 40 sec) 
Heartbeat CPU  0 instructions:  244000000 cycles: 3312652511 heartbeat IPC: 0.07558 cumulative IPC: 0.04457 (Simulation time: 0 hr 30 min 47 sec) 
Heartbeat CPU  0 instructions:  245000003 cycles: 3338193137 heartbeat IPC: 0.03915 cumulative IPC: 0.04453 (Simulation time: 0 hr 31 min 1 sec) 
Heartbeat CPU  0 instructions:  246000001 cycles: 3376199083 heartbeat IPC: 0.02631 cumulative IPC: 0.04432 (Simulation time: 0 hr 31 min 19 sec) 
Heartbeat CPU  0 instructions:  247000000 cycles: 3389129964 heartbeat IPC: 0.07733 cumulative IPC: 0.04445 (Simulation time: 0 hr 31 min 26 sec) 
Heartbeat CPU  0 instructions:  248000000 cycles: 3402430690 heartbeat IPC: 0.07518 cumulative IPC: 0.04457 (Simulation time: 0 hr 31 min 33 sec) 
Heartbeat CPU  0 instructions:  249000000 cycles: 3438219881 heartbeat IPC: 0.02794 cumulative IPC: 0.04440 (Simulation time: 0 hr 31 min 51 sec) 
Heartbeat CPU  0 instructions:  250000003 cycles: 3466263430 heartbeat IPC: 0.03566 cumulative IPC: 0.04432 (Simulation time: 0 hr 32 min 5 sec) 
Heartbeat CPU  0 instructions:  251000002 cycles: 3479740680 heartbeat IPC: 0.07420 cumulative IPC: 0.04444 (Simulation time: 0 hr 32 min 12 sec) 
Heartbeat CPU  0 instructions:  252000000 cycles: 3493621004 heartbeat IPC: 0.07204 cumulative IPC: 0.04455 (Simulation time: 0 hr 32 min 20 sec) 
Heartbeat CPU  0 instructions:  253000002 cycles: 3541668546 heartbeat IPC: 0.02081 cumulative IPC: 0.04423 (Simulation time: 0 hr 32 min 43 sec) 
Heartbeat CPU  0 instructions:  254000000 cycles: 3557045805 heartbeat IPC: 0.06503 cumulative IPC: 0.04432 (Simulation time: 0 hr 32 min 51 sec) 
Heartbeat CPU  0 instructions:  255000000 cycles: 3574431058 heartbeat IPC: 0.05752 cumulative IPC: 0.04438 (Simulation time: 0 hr 33 min 0 sec) 
Heartbeat CPU  0 instructions:  256000000 cycles: 3596367073 heartbeat IPC: 0.04559 cumulative IPC: 0.04439 (Simulation time: 0 hr 33 min 11 sec) 
Heartbeat CPU  0 instructions:  257000000 cycles: 3622448913 heartbeat IPC: 0.03834 cumulative IPC: 0.04435 (Simulation time: 0 hr 33 min 24 sec) 
Heartbeat CPU  0 instructions:  258000002 cycles: 3665508831 heartbeat IPC: 0.02322 cumulative IPC: 0.04409 (Simulation time: 0 hr 33 min 44 sec) 
Heartbeat CPU  0 instructions:  259000002 cycles: 3681519118 heartbeat IPC: 0.06246 cumulative IPC: 0.04417 (Simulation time: 0 hr 33 min 52 sec) 
Heartbeat CPU  0 instructions:  260000000 cycles: 3696827738 heartbeat IPC: 0.06532 cumulative IPC: 0.04426 (Simulation time: 0 hr 34 min 1 sec) 
Heartbeat CPU  0 instructions:  261000002 cycles: 3726999111 heartbeat IPC: 0.03314 cumulative IPC: 0.04417 (Simulation time: 0 hr 34 min 16 sec) 
Heartbeat CPU  0 instructions:  262000002 cycles: 3764350448 heartbeat IPC: 0.02677 cumulative IPC: 0.04399 (Simulation time: 0 hr 34 min 34 sec) 
Heartbeat CPU  0 instructions:  263000002 cycles: 3777813262 heartbeat IPC: 0.07428 cumulative IPC: 0.04411 (Simulation time: 0 hr 34 min 41 sec) 
Heartbeat CPU  0 instructions:  264000000 cycles: 3791334375 heartbeat IPC: 0.07396 cumulative IPC: 0.04421 (Simulation time: 0 hr 34 min 49 sec) 
Heartbeat CPU  0 instructions:  265000003 cycles: 3831096145 heartbeat IPC: 0.02515 cumulative IPC: 0.04401 (Simulation time: 0 hr 35 min 8 sec) 
Heartbeat CPU  0 instructions:  266000003 cycles: 3860959061 heartbeat IPC: 0.03349 cumulative IPC: 0.04393 (Simulation time: 0 hr 35 min 22 sec) 
Heartbeat CPU  0 instructions:  267000001 cycles: 3881015059 heartbeat IPC: 0.04986 cumulative IPC: 0.04396 (Simulation time: 0 hr 35 min 32 sec) 
Heartbeat CPU  0 instructions:  268000000 cycles: 3894070395 heartbeat IPC: 0.07660 cumulative IPC: 0.04407 (Simulation time: 0 hr 35 min 40 sec) 
Heartbeat CPU  0 instructions:  269000002 cycles: 3920085643 heartbeat IPC: 0.03844 cumulative IPC: 0.04403 (Simulation time: 0 hr 35 min 53 sec) 
Heartbeat CPU  0 instructions:  270000001 cycles: 3959783413 heartbeat IPC: 0.02519 cumulative IPC: 0.04384 (Simulation time: 0 hr 36 min 12 sec) 
Heartbeat CPU  0 instructions:  271000003 cycles: 3974551269 heartbeat IPC: 0.06771 cumulative IPC: 0.04393 (Simulation time: 0 hr 36 min 20 sec) 
Heartbeat CPU  0 instructions:  272000000 cycles: 3994073189 heartbeat IPC: 0.05122 cumulative IPC: 0.04397 (Simulation time: 0 hr 36 min 29 sec) 
Heartbeat CPU  0 instructions:  273000003 cycles: 4011866437 heartbeat IPC: 0.05620 cumulative IPC: 0.04402 (Simulation time: 0 hr 36 min 39 sec) 
Heartbeat CPU  0 instructions:  274000002 cycles: 4058928362 heartbeat IPC: 0.02125 cumulative IPC: 0.04375 (Simulation time: 0 hr 37 min 1 sec) 
Heartbeat CPU  0 instructions:  275000001 cycles: 4071592259 heartbeat IPC: 0.07896 cumulative IPC: 0.04387 (Simulation time: 0 hr 37 min 8 sec) 
Heartbeat CPU  0 instructions:  276000000 cycles: 4085107159 heartbeat IPC: 0.07399 cumulative IPC: 0.04397 (Simulation time: 0 hr 37 min 15 sec) 
Heartbeat CPU  0 instructions:  277000002 cycles: 4107356087 heartbeat IPC: 0.04495 cumulative IPC: 0.04397 (Simulation time: 0 hr 37 min 27 sec) 
Heartbeat CPU  0 instructions:  278000001 cycles: 4149963751 heartbeat IPC: 0.02347 cumulative IPC: 0.04376 (Simulation time: 0 hr 37 min 48 sec) 
Heartbeat CPU  0 instructions:  279000000 cycles: 4161680890 heartbeat IPC: 0.08534 cumulative IPC: 0.04388 (Simulation time: 0 hr 37 min 55 sec) 
Heartbeat CPU  0 instructions:  280000000 cycles: 4174294107 heartbeat IPC: 0.07928 cumulative IPC: 0.04399 (Simulation time: 0 hr 38 min 2 sec) 
Heartbeat CPU  0 instructions:  281000003 cycles: 4206668744 heartbeat IPC: 0.03089 cumulative IPC: 0.04388 (Simulation time: 0 hr 38 min 18 sec) 
Heartbeat CPU  0 instructions:  282000000 cycles: 4238982646 heartbeat IPC: 0.03095 cumulative IPC: 0.04378 (Simulation time: 0 hr 38 min 34 sec) 
Heartbeat CPU  0 instructions:  283000003 cycles: 4251167688 heartbeat IPC: 0.08207 cumulative IPC: 0.04389 (Simulation time: 0 hr 38 min 41 sec) 
Heartbeat CPU  0 instructions:  284000000 cycles: 4263528938 heartbeat IPC: 0.08090 cumulative IPC: 0.04400 (Simulation time: 0 hr 38 min 48 sec) 
Heartbeat CPU  0 instructions:  285000003 cycles: 4304878015 heartbeat IPC: 0.02418 cumulative IPC: 0.04381 (Simulation time: 0 hr 39 min 8 sec) 
Heartbeat CPU  0 instructions:  286000001 cycles: 4328804588 heartbeat IPC: 0.04179 cumulative IPC: 0.04380 (Simulation time: 0 hr 39 min 20 sec) 
Heartbeat CPU  0 instructions:  287000003 cycles: 4341970141 heartbeat IPC: 0.07596 cumulative IPC: 0.04390 (Simulation time: 0 hr 39 min 27 sec) 
Heartbeat CPU  0 instructions:  288000000 cycles: 4355359775 heartbeat IPC: 0.07468 cumulative IPC: 0.04399 (Simulation time: 0 hr 39 min 35 sec) 
Heartbeat CPU  0 instructions:  289000002 cycles: 4407384260 heartbeat IPC: 0.01922 cumulative IPC: 0.04370 (Simulation time: 0 hr 40 min 0 sec) 
Heartbeat CPU  0 instructions:  290000002 cycles: 4421204760 heartbeat IPC: 0.07236 cumulative IPC: 0.04379 (Simulation time: 0 hr 40 min 7 sec) 
Heartbeat CPU  0 instructions:  291000000 cycles: 4434306424 heartbeat IPC: 0.07633 cumulative IPC: 0.04389 (Simulation time: 0 hr 40 min 14 sec) 
Heartbeat CPU  0 instructions:  292000000 cycles: 4454170027 heartbeat IPC: 0.05034 cumulative IPC: 0.04392 (Simulation time: 0 hr 40 min 25 sec) 
Heartbeat CPU  0 instructions:  293000000 cycles: 4500822008 heartbeat IPC: 0.02144 cumulative IPC: 0.04368 (Simulation time: 0 hr 40 min 47 sec) 
Heartbeat CPU  0 instructions:  294000000 cycles: 4513095820 heartbeat IPC: 0.08147 cumulative IPC: 0.04378 (Simulation time: 0 hr 40 min 54 sec) 
Heartbeat CPU  0 instructions:  295000001 cycles: 4526132907 heartbeat IPC: 0.07670 cumulative IPC: 0.04388 (Simulation time: 0 hr 41 min 1 sec) 
Heartbeat CPU  0 instructions:  296000000 cycles: 4554141377 heartbeat IPC: 0.03570 cumulative IPC: 0.04383 (Simulation time: 0 hr 41 min 15 sec) 
Heartbeat CPU  0 instructions:  297000000 cycles: 4592803525 heartbeat IPC: 0.02587 cumulative IPC: 0.04367 (Simulation time: 0 hr 41 min 33 sec) 
Heartbeat CPU  0 instructions:  298000001 cycles: 4605461838 heartbeat IPC: 0.07900 cumulative IPC: 0.04377 (Simulation time: 0 hr 41 min 40 sec) 
Heartbeat CPU  0 instructions:  299000002 cycles: 4619146653 heartbeat IPC: 0.07307 cumulative IPC: 0.04386 (Simulation time: 0 hr 41 min 48 sec) 
Heartbeat CPU  0 instructions:  300000000 cycles: 4651495330 heartbeat IPC: 0.03091 cumulative IPC: 0.04377 (Simulation time: 0 hr 42 min 3 sec) 
Heartbeat CPU  0 instructions:  301000001 cycles: 4685140726 heartbeat IPC: 0.02972 cumulative IPC: 0.04367 (Simulation time: 0 hr 42 min 20 sec) 
Heartbeat CPU  0 instructions:  302000003 cycles: 4697074198 heartbeat IPC: 0.08380 cumulative IPC: 0.04377 (Simulation time: 0 hr 42 min 26 sec) 
Heartbeat CPU  0 instructions:  303000000 cycles: 4708872680 heartbeat IPC: 0.08476 cumulative IPC: 0.04387 (Simulation time: 0 hr 42 min 33 sec) 
Heartbeat CPU  0 instructions:  304000000 cycles: 4742980747 heartbeat IPC: 0.02932 cumulative IPC: 0.04377 (Simulation time: 0 hr 42 min 49 sec) 
Heartbeat CPU  0 instructions:  305000002 cycles: 4773497143 heartbeat IPC: 0.03277 cumulative IPC: 0.04370 (Simulation time: 0 hr 43 min 4 sec) 
Heartbeat CPU  0 instructions:  306000000 cycles: 4784763207 heartbeat IPC: 0.08876 cumulative IPC: 0.04380 (Simulation time: 0 hr 43 min 10 sec) 
Heartbeat CPU  0 instructions:  307000001 cycles: 4797011009 heartbeat IPC: 0.08165 cumulative IPC: 0.04390 (Simulation time: 0 hr 43 min 17 sec) 
Heartbeat CPU  0 instructions:  308000000 cycles: 4832672084 heartbeat IPC: 0.02804 cumulative IPC: 0.04378 (Simulation time: 0 hr 43 min 35 sec) 
Heartbeat CPU  0 instructions:  309000000 cycles: 4868749722 heartbeat IPC: 0.02772 cumulative IPC: 0.04366 (Simulation time: 0 hr 43 min 52 sec) 
Heartbeat CPU  0 instructions:  310000000 cycles: 4883396616 heartbeat IPC: 0.06827 cumulative IPC: 0.04374 (Simulation time: 0 hr 43 min 59 sec) 
Heartbeat CPU  0 instructions:  311000000 cycles: 4895647369 heartbeat IPC: 0.08163 cumulative IPC: 0.04383 (Simulation time: 0 hr 44 min 6 sec) 
Heartbeat CPU  0 instructions:  312000000 cycles: 4915224300 heartbeat IPC: 0.05108 cumulative IPC: 0.04386 (Simulation time: 0 hr 44 min 17 sec) 
Heartbeat CPU  0 instructions:  313000002 cycles: 4963595089 heartbeat IPC: 0.02067 cumulative IPC: 0.04363 (Simulation time: 0 hr 44 min 40 sec) 
Heartbeat CPU  0 instructions:  314000001 cycles: 4975471227 heartbeat IPC: 0.08420 cumulative IPC: 0.04373 (Simulation time: 0 hr 44 min 47 sec) 
Heartbeat CPU  0 instructions:  315000001 cycles: 4987990619 heartbeat IPC: 0.07988 cumulative IPC: 0.04382 (Simulation time: 0 hr 44 min 54 sec) 
Heartbeat CPU  0 instructions:  316000000 cycles: 5003547768 heartbeat IPC: 0.06428 cumulative IPC: 0.04389 (Simulation time: 0 hr 45 min 2 sec) 
Heartbeat CPU  0 instructions:  317000002 cycles: 5053102689 heartbeat IPC: 0.02018 cumulative IPC: 0.04365 (Simulation time: 0 hr 45 min 26 sec) 
Heartbeat CPU  0 instructions:  318000003 cycles: 5068850255 heartbeat IPC: 0.06350 cumulative IPC: 0.04372 (Simulation time: 0 hr 45 min 34 sec) 
Heartbeat CPU  0 instructions:  319000000 cycles: 5081565716 heartbeat IPC: 0.07864 cumulative IPC: 0.04380 (Simulation time: 0 hr 45 min 41 sec) 
Heartbeat CPU  0 instructions:  320000000 cycles: 5099838294 heartbeat IPC: 0.05473 cumulative IPC: 0.04384 (Simulation time: 0 hr 45 min 49 sec) 
Heartbeat CPU  0 instructions:  321000001 cycles: 5121699481 heartbeat IPC: 0.04574 cumulative IPC: 0.04385 (Simulation time: 0 hr 46 min 0 sec) 
Heartbeat CPU  0 instructions:  322000000 cycles: 5171274696 heartbeat IPC: 0.02017 cumulative IPC: 0.04362 (Simulation time: 0 hr 46 min 24 sec) 
Heartbeat CPU  0 instructions:  323000000 cycles: 5183167440 heartbeat IPC: 0.08408 cumulative IPC: 0.04372 (Simulation time: 0 hr 46 min 30 sec) 
Heartbeat CPU  0 instructions:  324000000 cycles: 5195356819 heartbeat IPC: 0.08204 cumulative IPC: 0.04381 (Simulation time: 0 hr 46 min 36 sec) 
Heartbeat CPU  0 instructions:  325000002 cycles: 5207006123 heartbeat IPC: 0.08584 cumulative IPC: 0.04390 (Simulation time: 0 hr 46 min 41 sec) 
Heartbeat CPU  0 instructions:  326000002 cycles: 5247695044 heartbeat IPC: 0.02458 cumulative IPC: 0.04375 (Simulation time: 0 hr 47 min 2 sec) 
Heartbeat CPU  0 instructions:  327000000 cycles: 5267983619 heartbeat IPC: 0.04929 cumulative IPC: 0.04377 (Simulation time: 0 hr 47 min 11 sec) 
Heartbeat CPU  0 instructions:  328000000 cycles: 5279366057 heartbeat IPC: 0.08785 cumulative IPC: 0.04387 (Simulation time: 0 hr 47 min 17 sec) 
Heartbeat CPU  0 instructions:  329000000 cycles: 5290982556 heartbeat IPC: 0.08608 cumulative IPC: 0.04396 (Simulation time: 0 hr 47 min 23 sec) 
Heartbeat CPU  0 instructions:  330000001 cycles: 5322060378 heartbeat IPC: 0.03218 cumulative IPC: 0.04389 (Simulation time: 0 hr 47 min 38 sec) 
Heartbeat CPU  0 instructions:  331000001 cycles: 5353093100 heartbeat IPC: 0.03222 cumulative IPC: 0.04382 (Simulation time: 0 hr 47 min 53 sec) 
Heartbeat CPU  0 instructions:  332000000 cycles: 5365955009 heartbeat IPC: 0.07775 cumulative IPC: 0.04391 (Simulation time: 0 hr 48 min 0 sec) 
Heartbeat CPU  0 instructions:  333000000 cycles: 5378105803 heartbeat IPC: 0.08230 cumulative IPC: 0.04400 (Simulation time: 0 hr 48 min 6 sec) 
Heartbeat CPU  0 instructions:  334000001 cycles: 5405098045 heartbeat IPC: 0.03705 cumulative IPC: 0.04396 (Simulation time: 0 hr 48 min 20 sec) 
Heartbeat CPU  0 instructions:  335000000 cycles: 5441073129 heartbeat IPC: 0.02780 cumulative IPC: 0.04385 (Simulation time: 0 hr 48 min 37 sec) 
Heartbeat CPU  0 instructions:  336000000 cycles: 5457464264 heartbeat IPC: 0.06101 cumulative IPC: 0.04390 (Simulation time: 0 hr 48 min 45 sec) 
Heartbeat CPU  0 instructions:  337000000 cycles: 5470023564 heartbeat IPC: 0.07962 cumulative IPC: 0.04399 (Simulation time: 0 hr 48 min 52 sec) 
Heartbeat CPU  0 instructions:  338000003 cycles: 5488877555 heartbeat IPC: 0.05304 cumulative IPC: 0.04402 (Simulation time: 0 hr 49 min 2 sec) 
Heartbeat CPU  0 instructions:  339000002 cycles: 5533737803 heartbeat IPC: 0.02229 cumulative IPC: 0.04384 (Simulation time: 0 hr 49 min 23 sec) 
Heartbeat CPU  0 instructions:  340000000 cycles: 5545850923 heartbeat IPC: 0.08255 cumulative IPC: 0.04393 (Simulation time: 0 hr 49 min 30 sec) 
Heartbeat CPU  0 instructions:  341000001 cycles: 5558521389 heartbeat IPC: 0.07892 cumulative IPC: 0.04401 (Simulation time: 0 hr 49 min 37 sec) 
Heartbeat CPU  0 instructions:  342000000 cycles: 5581493794 heartbeat IPC: 0.04353 cumulative IPC: 0.04400 (Simulation time: 0 hr 49 min 49 sec) 
Heartbeat CPU  0 instructions:  343000003 cycles: 5622633794 heartbeat IPC: 0.02431 cumulative IPC: 0.04386 (Simulation time: 0 hr 50 min 8 sec) 
Heartbeat CPU  0 instructions:  344000000 cycles: 5634885443 heartbeat IPC: 0.08162 cumulative IPC: 0.04394 (Simulation time: 0 hr 50 min 15 sec) 
Heartbeat CPU  0 instructions:  345000000 cycles: 5647950446 heartbeat IPC: 0.07654 cumulative IPC: 0.04402 (Simulation time: 0 hr 50 min 22 sec) 
Heartbeat CPU  0 instructions:  346000003 cycles: 5675273301 heartbeat IPC: 0.03660 cumulative IPC: 0.04398 (Simulation time: 0 hr 50 min 36 sec) 
Heartbeat CPU  0 instructions:  347000001 cycles: 5711709356 heartbeat IPC: 0.02745 cumulative IPC: 0.04388 (Simulation time: 0 hr 50 min 53 sec) 
Heartbeat CPU  0 instructions:  348000000 cycles: 5723969482 heartbeat IPC: 0.08157 cumulative IPC: 0.04396 (Simulation time: 0 hr 51 min 0 sec) 
Heartbeat CPU  0 instructions:  349000001 cycles: 5737073317 heartbeat IPC: 0.07631 cumulative IPC: 0.04403 (Simulation time: 0 hr 51 min 7 sec) 
Heartbeat CPU  0 instructions:  350000000 cycles: 5767662425 heartbeat IPC: 0.03269 cumulative IPC: 0.04397 (Simulation time: 0 hr 51 min 22 sec) 
Heartbeat CPU  0 instructions:  351000003 cycles: 5800342350 heartbeat IPC: 0.03060 cumulative IPC: 0.04389 (Simulation time: 0 hr 51 min 38 sec) 
Heartbeat CPU  0 instructions:  352000000 cycles: 5812227072 heartbeat IPC: 0.08414 cumulative IPC: 0.04398 (Simulation time: 0 hr 51 min 45 sec) 
Heartbeat CPU  0 instructions:  353000001 cycles: 5824233581 heartbeat IPC: 0.08329 cumulative IPC: 0.04406 (Simulation time: 0 hr 51 min 51 sec) 
Heartbeat CPU  0 instructions:  354000003 cycles: 5859817993 heartbeat IPC: 0.02810 cumulative IPC: 0.04396 (Simulation time: 0 hr 52 min 9 sec) 
Heartbeat CPU  0 instructions:  355000002 cycles: 5888000714 heartbeat IPC: 0.03548 cumulative IPC: 0.04392 (Simulation time: 0 hr 52 min 23 sec) 
Heartbeat CPU  0 instructions:  356000000 cycles: 5901175615 heartbeat IPC: 0.07590 cumulative IPC: 0.04399 (Simulation time: 0 hr 52 min 30 sec) 
Heartbeat CPU  0 instructions:  357000001 cycles: 5913753586 heartbeat IPC: 0.07950 cumulative IPC: 0.04407 (Simulation time: 0 hr 52 min 37 sec) 
Heartbeat CPU  0 instructions:  358000002 cycles: 5957390146 heartbeat IPC: 0.02292 cumulative IPC: 0.04391 (Simulation time: 0 hr 52 min 59 sec) 
Heartbeat CPU  0 instructions:  359000002 cycles: 5977551939 heartbeat IPC: 0.04960 cumulative IPC: 0.04393 (Simulation time: 0 hr 53 min 9 sec) 
Heartbeat CPU  0 instructions:  360000000 cycles: 5989854594 heartbeat IPC: 0.08128 cumulative IPC: 0.04401 (Simulation time: 0 hr 53 min 16 sec) 
Heartbeat CPU  0 instructions:  361000003 cycles: 6002039732 heartbeat IPC: 0.08207 cumulative IPC: 0.04409 (Simulation time: 0 hr 53 min 23 sec) 
Heartbeat CPU  0 instructions:  362000001 cycles: 6052476595 heartbeat IPC: 0.01983 cumulative IPC: 0.04388 (Simulation time: 0 hr 53 min 47 sec) 
Heartbeat CPU  0 instructions:  363000000 cycles: 6065830141 heartbeat IPC: 0.07489 cumulative IPC: 0.04395 (Simulation time: 0 hr 53 min 54 sec) 
Heartbeat CPU  0 instructions:  364000000 cycles: 6079455006 heartbeat IPC: 0.07340 cumulative IPC: 0.04402 (Simulation time: 0 hr 54 min 2 sec) 
Heartbeat CPU  0 instructions:  365000000 cycles: 6098714150 heartbeat IPC: 0.05192 cumulative IPC: 0.04404 (Simulation time: 0 hr 54 min 12 sec) 
Heartbeat CPU  0 instructions:  366000000 cycles: 6143582358 heartbeat IPC: 0.02229 cumulative IPC: 0.04388 (Simulation time: 0 hr 54 min 34 sec) 
Heartbeat CPU  0 instructions:  367000003 cycles: 6155783106 heartbeat IPC: 0.08196 cumulative IPC: 0.04396 (Simulation time: 0 hr 54 min 41 sec) 
Heartbeat CPU  0 instructions:  368000000 cycles: 6169178259 heartbeat IPC: 0.07465 cumulative IPC: 0.04403 (Simulation time: 0 hr 54 min 48 sec) 
Heartbeat CPU  0 instructions:  369000003 cycles: 6196605154 heartbeat IPC: 0.03646 cumulative IPC: 0.04399 (Simulation time: 0 hr 55 min 2 sec) 
Heartbeat CPU  0 instructions:  370000003 cycles: 6233157802 heartbeat IPC: 0.02736 cumulative IPC: 0.04389 (Simulation time: 0 hr 55 min 20 sec) 
Heartbeat CPU  0 instructions:  371000003 cycles: 6245022617 heartbeat IPC: 0.08428 cumulative IPC: 0.04397 (Simulation time: 0 hr 55 min 27 sec) 
Heartbeat CPU  0 instructions:  372000000 cycles: 6257675762 heartbeat IPC: 0.07903 cumulative IPC: 0.04404 (Simulation time: 0 hr 55 min 34 sec) 
Heartbeat CPU  0 instructions:  373000002 cycles: 6297987663 heartbeat IPC: 0.02481 cumulative IPC: 0.04392 (Simulation time: 0 hr 55 min 54 sec) 
Heartbeat CPU  0 instructions:  374000001 cycles: 6321135617 heartbeat IPC: 0.04320 cumulative IPC: 0.04392 (Simulation time: 0 hr 56 min 6 sec) 
Heartbeat CPU  0 instructions:  375000002 cycles: 6334927220 heartbeat IPC: 0.07251 cumulative IPC: 0.04398 (Simulation time: 0 hr 56 min 14 sec) 
Heartbeat CPU  0 instructions:  376000000 cycles: 6352333687 heartbeat IPC: 0.05745 cumulative IPC: 0.04402 (Simulation time: 0 hr 56 min 24 sec) 
Heartbeat CPU  0 instructions:  377000000 cycles: 6399444434 heartbeat IPC: 0.02123 cumulative IPC: 0.04385 (Simulation time: 0 hr 56 min 47 sec) 
Heartbeat CPU  0 instructions:  378000003 cycles: 6413546180 heartbeat IPC: 0.07091 cumulative IPC: 0.04391 (Simulation time: 0 hr 56 min 55 sec) 
Heartbeat CPU  0 instructions:  379000002 cycles: 6427563008 heartbeat IPC: 0.07134 cumulative IPC: 0.04397 (Simulation time: 0 hr 57 min 3 sec) 
Heartbeat CPU  0 instructions:  380000000 cycles: 6459315482 heartbeat IPC: 0.03149 cumulative IPC: 0.04391 (Simulation time: 0 hr 57 min 19 sec) 
Heartbeat CPU  0 instructions:  381000000 cycles: 6492332606 heartbeat IPC: 0.03029 cumulative IPC: 0.04384 (Simulation time: 0 hr 57 min 35 sec) 
Heartbeat CPU  0 instructions:  382000002 cycles: 6506019055 heartbeat IPC: 0.07307 cumulative IPC: 0.04390 (Simulation time: 0 hr 57 min 43 sec) 
Heartbeat CPU  0 instructions:  383000000 cycles: 6520053648 heartbeat IPC: 0.07125 cumulative IPC: 0.04396 (Simulation time: 0 hr 57 min 51 sec) 
Heartbeat CPU  0 instructions:  384000000 cycles: 6564801857 heartbeat IPC: 0.02235 cumulative IPC: 0.04381 (Simulation time: 0 hr 58 min 13 sec) 
Heartbeat CPU  0 instructions:  385000001 cycles: 6584210289 heartbeat IPC: 0.05152 cumulative IPC: 0.04383 (Simulation time: 0 hr 58 min 23 sec) 
Heartbeat CPU  0 instructions:  386000002 cycles: 6597800095 heartbeat IPC: 0.07358 cumulative IPC: 0.04389 (Simulation time: 0 hr 58 min 31 sec) 
Heartbeat CPU  0 instructions:  387000003 cycles: 6617234399 heartbeat IPC: 0.05146 cumulative IPC: 0.04392 (Simulation time: 0 hr 58 min 41 sec) 
Heartbeat CPU  0 instructions:  388000000 cycles: 6661871138 heartbeat IPC: 0.02240 cumulative IPC: 0.04377 (Simulation time: 0 hr 59 min 3 sec) 
Heartbeat CPU  0 instructions:  389000001 cycles: 6674850678 heartbeat IPC: 0.07704 cumulative IPC: 0.04384 (Simulation time: 0 hr 59 min 10 sec) 
Heartbeat CPU  0 instructions:  390000000 cycles: 6688320496 heartbeat IPC: 0.07424 cumulative IPC: 0.04390 (Simulation time: 0 hr 59 min 18 sec) 
Heartbeat CPU  0 instructions:  391000002 cycles: 6718970367 heartbeat IPC: 0.03263 cumulative IPC: 0.04385 (Simulation time: 0 hr 59 min 34 sec) 
Heartbeat CPU  0 instructions:  392000000 cycles: 6752073728 heartbeat IPC: 0.03021 cumulative IPC: 0.04378 (Simulation time: 0 hr 59 min 50 sec) 
Heartbeat CPU  0 instructions:  393000000 cycles: 6765038179 heartbeat IPC: 0.07713 cumulative IPC: 0.04384 (Simulation time: 0 hr 59 min 58 sec) 
Heartbeat CPU  0 instructions:  394000001 cycles: 6779363437 heartbeat IPC: 0.06981 cumulative IPC: 0.04390 (Simulation time: 1 hr 0 min 6 sec) 
Heartbeat CPU  0 instructions:  395000000 cycles: 6821708640 heartbeat IPC: 0.02362 cumulative IPC: 0.04377 (Simulation time: 1 hr 0 min 27 sec) 
Heartbeat CPU  0 instructions:  396000000 cycles: 6842572613 heartbeat IPC: 0.04793 cumulative IPC: 0.04378 (Simulation time: 1 hr 0 min 38 sec) 
Heartbeat CPU  0 instructions:  397000000 cycles: 6857505348 heartbeat IPC: 0.06697 cumulative IPC: 0.04383 (Simulation time: 1 hr 0 min 46 sec) 
Heartbeat CPU  0 instructions:  398000001 cycles: 6874974556 heartbeat IPC: 0.05724 cumulative IPC: 0.04387 (Simulation time: 1 hr 0 min 55 sec) 
Heartbeat CPU  0 instructions:  399000001 cycles: 6922204986 heartbeat IPC: 0.02117 cumulative IPC: 0.04371 (Simulation time: 1 hr 1 min 18 sec) 
Heartbeat CPU  0 instructions:  400000000 cycles: 6935531906 heartbeat IPC: 0.07504 cumulative IPC: 0.04377 (Simulation time: 1 hr 1 min 26 sec) 
Heartbeat CPU  0 instructions:  401000000 cycles: 6949841578 heartbeat IPC: 0.06988 cumulative IPC: 0.04383 (Simulation time: 1 hr 1 min 34 sec) 
Heartbeat CPU  0 instructions:  402000003 cycles: 6979323796 heartbeat IPC: 0.03392 cumulative IPC: 0.04379 (Simulation time: 1 hr 1 min 49 sec) 
Heartbeat CPU  0 instructions:  403000000 cycles: 7013695337 heartbeat IPC: 0.02909 cumulative IPC: 0.04371 (Simulation time: 1 hr 2 min 6 sec) 
Heartbeat CPU  0 instructions:  404000000 cycles: 7028494945 heartbeat IPC: 0.06757 cumulative IPC: 0.04376 (Simulation time: 1 hr 2 min 14 sec) 
Heartbeat CPU  0 instructions:  405000001 cycles: 7044064640 heartbeat IPC: 0.06423 cumulative IPC: 0.04381 (Simulation time: 1 hr 2 min 22 sec) 
Heartbeat CPU  0 instructions:  406000002 cycles: 7078358387 heartbeat IPC: 0.02916 cumulative IPC: 0.04374 (Simulation time: 1 hr 2 min 40 sec) 
Heartbeat CPU  0 instructions:  407000001 cycles: 7107815126 heartbeat IPC: 0.03395 cumulative IPC: 0.04370 (Simulation time: 1 hr 2 min 54 sec) 
Heartbeat CPU  0 instructions:  408000000 cycles: 7121867692 heartbeat IPC: 0.07116 cumulative IPC: 0.04375 (Simulation time: 1 hr 3 min 2 sec) 
Heartbeat CPU  0 instructions:  409000000 cycles: 7137910274 heartbeat IPC: 0.06233 cumulative IPC: 0.04379 (Simulation time: 1 hr 3 min 11 sec) 
Heartbeat CPU  0 instructions:  410000003 cycles: 7180989800 heartbeat IPC: 0.02321 cumulative IPC: 0.04367 (Simulation time: 1 hr 3 min 33 sec) 
Heartbeat CPU  0 instructions:  411000000 cycles: 7201138623 heartbeat IPC: 0.04963 cumulative IPC: 0.04369 (Simulation time: 1 hr 3 min 43 sec) 
Heartbeat CPU  0 instructions:  412000000 cycles: 7215500093 heartbeat IPC: 0.06963 cumulative IPC: 0.04374 (Simulation time: 1 hr 3 min 51 sec) 
Heartbeat CPU  0 instructions:  413000003 cycles: 7237237008 heartbeat IPC: 0.04600 cumulative IPC: 0.04374 (Simulation time: 1 hr 4 min 3 sec) 
Heartbeat CPU  0 instructions:  414000003 cycles: 7280148915 heartbeat IPC: 0.02330 cumulative IPC: 0.04362 (Simulation time: 1 hr 4 min 24 sec) 
Heartbeat CPU  0 instructions:  415000000 cycles: 7293443151 heartbeat IPC: 0.07522 cumulative IPC: 0.04368 (Simulation time: 1 hr 4 min 32 sec) 
Heartbeat CPU  0 instructions:  416000000 cycles: 7307343495 heartbeat IPC: 0.07194 cumulative IPC: 0.04374 (Simulation time: 1 hr 4 min 40 sec) 
Heartbeat CPU  0 instructions:  417000000 cycles: 7344467323 heartbeat IPC: 0.02694 cumulative IPC: 0.04365 (Simulation time: 1 hr 4 min 59 sec) 
Heartbeat CPU  0 instructions:  418000001 cycles: 7371450682 heartbeat IPC: 0.03706 cumulative IPC: 0.04363 (Simulation time: 1 hr 5 min 12 sec) 
Heartbeat CPU  0 instructions:  419000000 cycles: 7389780907 heartbeat IPC: 0.05455 cumulative IPC: 0.04365 (Simulation time: 1 hr 5 min 22 sec) 
Heartbeat CPU  0 instructions:  420000000 cycles: 7407748652 heartbeat IPC: 0.05566 cumulative IPC: 0.04368 (Simulation time: 1 hr 5 min 31 sec) 
Heartbeat CPU  0 instructions:  421000003 cycles: 7430004765 heartbeat IPC: 0.04493 cumulative IPC: 0.04369 (Simulation time: 1 hr 5 min 43 sec) 
Heartbeat CPU  0 instructions:  422000002 cycles: 7475644471 heartbeat IPC: 0.02191 cumulative IPC: 0.04355 (Simulation time: 1 hr 6 min 5 sec) 
Heartbeat CPU  0 instructions:  423000002 cycles: 7488820601 heartbeat IPC: 0.07589 cumulative IPC: 0.04361 (Simulation time: 1 hr 6 min 13 sec) 
Heartbeat CPU  0 instructions:  424000000 cycles: 7509704808 heartbeat IPC: 0.04788 cumulative IPC: 0.04362 (Simulation time: 1 hr 6 min 23 sec) 
Heartbeat CPU  0 instructions:  425000002 cycles: 7521632744 heartbeat IPC: 0.08384 cumulative IPC: 0.04369 (Simulation time: 1 hr 6 min 30 sec) 
Heartbeat CPU  0 instructions:  426000000 cycles: 7567212750 heartbeat IPC: 0.02194 cumulative IPC: 0.04355 (Simulation time: 1 hr 6 min 53 sec) 
Heartbeat CPU  0 instructions:  427000002 cycles: 7585701953 heartbeat IPC: 0.05409 cumulative IPC: 0.04358 (Simulation time: 1 hr 7 min 2 sec) 
Heartbeat CPU  0 instructions:  428000000 cycles: 7598032977 heartbeat IPC: 0.08110 cumulative IPC: 0.04364 (Simulation time: 1 hr 7 min 9 sec) 
Heartbeat CPU  0 instructions:  429000001 cycles: 7614244589 heartbeat IPC: 0.06168 cumulative IPC: 0.04368 (Simulation time: 1 hr 7 min 17 sec) 
Heartbeat CPU  0 instructions:  430000002 cycles: 7649774467 heartbeat IPC: 0.02815 cumulative IPC: 0.04361 (Simulation time: 1 hr 7 min 35 sec) 
Heartbeat CPU  0 instructions:  431000003 cycles: 7677338263 heartbeat IPC: 0.03628 cumulative IPC: 0.04358 (Simulation time: 1 hr 7 min 49 sec) 
Heartbeat CPU  0 instructions:  432000000 cycles: 7687610886 heartbeat IPC: 0.09735 cumulative IPC: 0.04365 (Simulation time: 1 hr 7 min 54 sec) 
Heartbeat CPU  0 instructions:  433000001 cycles: 7698646057 heartbeat IPC: 0.09062 cumulative IPC: 0.04372 (Simulation time: 1 hr 8 min 0 sec) 
Heartbeat CPU  0 instructions:  434000000 cycles: 7728214877 heartbeat IPC: 0.03382 cumulative IPC: 0.04368 (Simulation time: 1 hr 8 min 15 sec) 
Heartbeat CPU  0 instructions:  435000003 cycles: 7761135934 heartbeat IPC: 0.03038 cumulative IPC: 0.04363 (Simulation time: 1 hr 8 min 31 sec) 
Heartbeat CPU  0 instructions:  436000000 cycles: 7771767260 heartbeat IPC: 0.09406 cumulative IPC: 0.04369 (Simulation time: 1 hr 8 min 37 sec) 
Heartbeat CPU  0 instructions:  437000001 cycles: 7782918103 heartbeat IPC: 0.08968 cumulative IPC: 0.04376 (Simulation time: 1 hr 8 min 43 sec) 
Heartbeat CPU  0 instructions:  438000001 cycles: 7810662341 heartbeat IPC: 0.03604 cumulative IPC: 0.04373 (Simulation time: 1 hr 8 min 57 sec) 
Heartbeat CPU  0 instructions:  439000000 cycles: 7846124349 heartbeat IPC: 0.02820 cumulative IPC: 0.04366 (Simulation time: 1 hr 9 min 14 sec) 
Heartbeat CPU  0 instructions:  440000000 cycles: 7857149437 heartbeat IPC: 0.09070 cumulative IPC: 0.04373 (Simulation time: 1 hr 9 min 20 sec) 
Heartbeat CPU  0 instructions:  441000002 cycles: 7868072658 heartbeat IPC: 0.09155 cumulative IPC: 0.04380 (Simulation time: 1 hr 9 min 26 sec) 
Heartbeat CPU  0 instructions:  442000000 cycles: 7892233380 heartbeat IPC: 0.04139 cumulative IPC: 0.04379 (Simulation time: 1 hr 9 min 38 sec) 
Heartbeat CPU  0 instructions:  443000001 cycles: 7931345284 heartbeat IPC: 0.02557 cumulative IPC: 0.04370 (Simulation time: 1 hr 9 min 57 sec) 
Heartbeat CPU  0 instructions:  444000000 cycles: 7941751743 heartbeat IPC: 0.09609 cumulative IPC: 0.04377 (Simulation time: 1 hr 10 min 2 sec) 
Heartbeat CPU  0 instructions:  445000003 cycles: 7952923498 heartbeat IPC: 0.08951 cumulative IPC: 0.04383 (Simulation time: 1 hr 10 min 8 sec) 
Heartbeat CPU  0 instructions:  446000001 cycles: 7975045803 heartbeat IPC: 0.04520 cumulative IPC: 0.04384 (Simulation time: 1 hr 10 min 20 sec) 
Heartbeat CPU  0 instructions:  447000000 cycles: 8016741496 heartbeat IPC: 0.02398 cumulative IPC: 0.04373 (Simulation time: 1 hr 10 min 40 sec) 
Heartbeat CPU  0 instructions:  448000000 cycles: 8027198370 heartbeat IPC: 0.09563 cumulative IPC: 0.04380 (Simulation time: 1 hr 10 min 46 sec) 
Heartbeat CPU  0 instructions:  449000002 cycles: 8037860158 heartbeat IPC: 0.09379 cumulative IPC: 0.04387 (Simulation time: 1 hr 10 min 52 sec) 
Heartbeat CPU  0 instructions:  450000000 cycles: 8060313147 heartbeat IPC: 0.04454 cumulative IPC: 0.04387 (Simulation time: 1 hr 11 min 4 sec) 
Heartbeat CPU  0 instructions:  451000001 cycles: 8101171706 heartbeat IPC: 0.02447 cumulative IPC: 0.04377 (Simulation time: 1 hr 11 min 23 sec) 
Heartbeat CPU  0 instructions:  452000000 cycles: 8112022068 heartbeat IPC: 0.09216 cumulative IPC: 0.04384 (Simulation time: 1 hr 11 min 30 sec) 
Heartbeat CPU  0 instructions:  453000000 cycles: 8123388030 heartbeat IPC: 0.08798 cumulative IPC: 0.04390 (Simulation time: 1 hr 11 min 36 sec) 
Heartbeat CPU  0 instructions:  454000000 cycles: 8148190288 heartbeat IPC: 0.04032 cumulative IPC: 0.04389 (Simulation time: 1 hr 11 min 49 sec) 
Heartbeat CPU  0 instructions:  455000003 cycles: 8187068653 heartbeat IPC: 0.02572 cumulative IPC: 0.04380 (Simulation time: 1 hr 12 min 8 sec) 
Heartbeat CPU  0 instructions:  456000000 cycles: 8197585484 heartbeat IPC: 0.09509 cumulative IPC: 0.04387 (Simulation time: 1 hr 12 min 14 sec) 
Heartbeat CPU  0 instructions:  457000000 cycles: 8209048342 heartbeat IPC: 0.08724 cumulative IPC: 0.04393 (Simulation time: 1 hr 12 min 20 sec) 
Heartbeat CPU  0 instructions:  458000001 cycles: 8237316522 heartbeat IPC: 0.03538 cumulative IPC: 0.04390 (Simulation time: 1 hr 12 min 35 sec) 
Heartbeat CPU  0 instructions:  459000003 cycles: 8272804010 heartbeat IPC: 0.02818 cumulative IPC: 0.04383 (Simulation time: 1 hr 12 min 52 sec) 
Heartbeat CPU  0 instructions:  460000000 cycles: 8283540217 heartbeat IPC: 0.09314 cumulative IPC: 0.04389 (Simulation time: 1 hr 12 min 58 sec) 
Heartbeat CPU  0 instructions:  461000001 cycles: 8295419721 heartbeat IPC: 0.08418 cumulative IPC: 0.04395 (Simulation time: 1 hr 13 min 5 sec) 
Heartbeat CPU  0 instructions:  462000001 cycles: 8328140995 heartbeat IPC: 0.03056 cumulative IPC: 0.04390 (Simulation time: 1 hr 13 min 21 sec) 
Heartbeat CPU  0 instructions:  463000002 cycles: 8359960151 heartbeat IPC: 0.03143 cumulative IPC: 0.04385 (Simulation time: 1 hr 13 min 37 sec) 
Heartbeat CPU  0 instructions:  464000000 cycles: 8373485520 heartbeat IPC: 0.07393 cumulative IPC: 0.04390 (Simulation time: 1 hr 13 min 44 sec) 
Heartbeat CPU  0 instructions:  465000000 cycles: 8393892801 heartbeat IPC: 0.04900 cumulative IPC: 0.04391 (Simulation time: 1 hr 13 min 54 sec) 
Heartbeat CPU  0 instructions:  466000003 cycles: 8419587911 heartbeat IPC: 0.03892 cumulative IPC: 0.04390 (Simulation time: 1 hr 14 min 8 sec) 
Heartbeat CPU  0 instructions:  467000002 cycles: 8460594510 heartbeat IPC: 0.02439 cumulative IPC: 0.04380 (Simulation time: 1 hr 14 min 28 sec) 
Heartbeat CPU  0 instructions:  468000000 cycles: 8475561801 heartbeat IPC: 0.06681 cumulative IPC: 0.04384 (Simulation time: 1 hr 14 min 36 sec) 
Heartbeat CPU  0 instructions:  469000000 cycles: 8497190622 heartbeat IPC: 0.04623 cumulative IPC: 0.04385 (Simulation time: 1 hr 14 min 47 sec) 
Heartbeat CPU  0 instructions:  470000000 cycles: 8513180512 heartbeat IPC: 0.06254 cumulative IPC: 0.04389 (Simulation time: 1 hr 14 min 55 sec) 
Heartbeat CPU  0 instructions:  471000000 cycles: 8562410418 heartbeat IPC: 0.02031 cumulative IPC: 0.04375 (Simulation time: 1 hr 15 min 19 sec) 
Heartbeat CPU  0 instructions:  472000000 cycles: 8578345354 heartbeat IPC: 0.06276 cumulative IPC: 0.04378 (Simulation time: 1 hr 15 min 27 sec) 
Heartbeat CPU  0 instructions:  473000001 cycles: 8596750455 heartbeat IPC: 0.05433 cumulative IPC: 0.04381 (Simulation time: 1 hr 15 min 37 sec) 
Heartbeat CPU  0 instructions:  474000001 cycles: 8610193374 heartbeat IPC: 0.07439 cumulative IPC: 0.04386 (Simulation time: 1 hr 15 min 44 sec) 
Heartbeat CPU  0 instructions:  475000003 cycles: 8650768503 heartbeat IPC: 0.02465 cumulative IPC: 0.04376 (Simulation time: 1 hr 16 min 4 sec) 
Heartbeat CPU  0 instructions:  476000000 cycles: 8680941883 heartbeat IPC: 0.03314 cumulative IPC: 0.04373 (Simulation time: 1 hr 16 min 19 sec) 
Heartbeat CPU  0 instructions:  477000003 cycles: 8699598381 heartbeat IPC: 0.05360 cumulative IPC: 0.04375 (Simulation time: 1 hr 16 min 28 sec) 
Heartbeat CPU  0 instructions:  478000000 cycles: 8718078603 heartbeat IPC: 0.05411 cumulative IPC: 0.04377 (Simulation time: 1 hr 16 min 37 sec) 
Heartbeat CPU  0 instructions:  479000000 cycles: 8732319113 heartbeat IPC: 0.07022 cumulative IPC: 0.04381 (Simulation time: 1 hr 16 min 45 sec) 
Heartbeat CPU  0 instructions:  480000000 cycles: 8778294324 heartbeat IPC: 0.02175 cumulative IPC: 0.04370 (Simulation time: 1 hr 17 min 7 sec) 
Heartbeat CPU  0 instructions:  481000000 cycles: 8796443775 heartbeat IPC: 0.05510 cumulative IPC: 0.04372 (Simulation time: 1 hr 17 min 16 sec) 
Heartbeat CPU  0 instructions:  482000000 cycles: 8811407643 heartbeat IPC: 0.06683 cumulative IPC: 0.04376 (Simulation time: 1 hr 17 min 24 sec) 
Heartbeat CPU  0 instructions:  483000002 cycles: 8826304693 heartbeat IPC: 0.06713 cumulative IPC: 0.04380 (Simulation time: 1 hr 17 min 31 sec) 
Heartbeat CPU  0 instructions:  484000000 cycles: 8875191924 heartbeat IPC: 0.02046 cumulative IPC: 0.04367 (Simulation time: 1 hr 17 min 55 sec) 
Heartbeat CPU  0 instructions:  485000000 cycles: 8889955748 heartbeat IPC: 0.06773 cumulative IPC: 0.04371 (Simulation time: 1 hr 18 min 3 sec) 
Heartbeat CPU  0 instructions:  486000000 cycles: 8906156754 heartbeat IPC: 0.06172 cumulative IPC: 0.04374 (Simulation time: 1 hr 18 min 11 sec) 
Heartbeat CPU  0 instructions:  487000002 cycles: 8921477843 heartbeat IPC: 0.06527 cumulative IPC: 0.04378 (Simulation time: 1 hr 18 min 19 sec) 
Heartbeat CPU  0 instructions:  488000000 cycles: 8969932477 heartbeat IPC: 0.02064 cumulative IPC: 0.04366 (Simulation time: 1 hr 18 min 43 sec) 
Heartbeat CPU  0 instructions:  489000001 cycles: 8983120768 heartbeat IPC: 0.07582 cumulative IPC: 0.04370 (Simulation time: 1 hr 18 min 49 sec) 
Heartbeat CPU  0 instructions:  490000002 cycles: 8996095129 heartbeat IPC: 0.07708 cumulative IPC: 0.04375 (Simulation time: 1 hr 18 min 57 sec) 
Heartbeat CPU  0 instructions:  491000003 cycles: 9014613707 heartbeat IPC: 0.05400 cumulative IPC: 0.04377 (Simulation time: 1 hr 19 min 7 sec) 
Heartbeat CPU  0 instructions:  492000000 cycles: 9058405049 heartbeat IPC: 0.02284 cumulative IPC: 0.04367 (Simulation time: 1 hr 19 min 28 sec) 
Heartbeat CPU  0 instructions:  493000001 cycles: 9070857510 heartbeat IPC: 0.08031 cumulative IPC: 0.04372 (Simulation time: 1 hr 19 min 35 sec) 
Heartbeat CPU  0 instructions:  494000002 cycles: 9085823521 heartbeat IPC: 0.06682 cumulative IPC: 0.04376 (Simulation time: 1 hr 19 min 42 sec) 
Heartbeat CPU  0 instructions:  495000002 cycles: 9102610642 heartbeat IPC: 0.05957 cumulative IPC: 0.04379 (Simulation time: 1 hr 19 min 51 sec) 
Heartbeat CPU  0 instructions:  496000000 cycles: 9147634286 heartbeat IPC: 0.02221 cumulative IPC: 0.04368 (Simulation time: 1 hr 20 min 13 sec) 
Heartbeat CPU  0 instructions:  497000002 cycles: 9160020467 heartbeat IPC: 0.08074 cumulative IPC: 0.04373 (Simulation time: 1 hr 20 min 20 sec) 
Heartbeat CPU  0 instructions:  498000000 cycles: 9172958925 heartbeat IPC: 0.07729 cumulative IPC: 0.04378 (Simulation time: 1 hr 20 min 27 sec) 
Heartbeat CPU  0 instructions:  499000002 cycles: 9193758777 heartbeat IPC: 0.04808 cumulative IPC: 0.04379 (Simulation time: 1 hr 20 min 38 sec) 
Heartbeat CPU  0 instructions:  500000000 cycles: 9234879544 heartbeat IPC: 0.02432 cumulative IPC: 0.04370 (Simulation time: 1 hr 20 min 57 sec) 
Heartbeat CPU  0 instructions:  501000002 cycles: 9246924759 heartbeat IPC: 0.08302 cumulative IPC: 0.04375 (Simulation time: 1 hr 21 min 4 sec) 
Heartbeat CPU  0 instructions:  502000001 cycles: 9260482629 heartbeat IPC: 0.07376 cumulative IPC: 0.04380 (Simulation time: 1 hr 21 min 11 sec) 
Heartbeat CPU  0 instructions:  503000003 cycles: 9288362462 heartbeat IPC: 0.03587 cumulative IPC: 0.04377 (Simulation time: 1 hr 21 min 25 sec) 
Heartbeat CPU  0 instructions:  504000000 cycles: 9322801382 heartbeat IPC: 0.02904 cumulative IPC: 0.04372 (Simulation time: 1 hr 21 min 42 sec) 
Heartbeat CPU  0 instructions:  505000002 cycles: 9336543838 heartbeat IPC: 0.07277 cumulative IPC: 0.04376 (Simulation time: 1 hr 21 min 49 sec) 
Heartbeat CPU  0 instructions:  506000001 cycles: 9351198494 heartbeat IPC: 0.06824 cumulative IPC: 0.04380 (Simulation time: 1 hr 21 min 56 sec) 
Heartbeat CPU  0 instructions:  507000001 cycles: 9385434432 heartbeat IPC: 0.02921 cumulative IPC: 0.04375 (Simulation time: 1 hr 22 min 13 sec) 
Heartbeat CPU  0 instructions:  508000000 cycles: 9416338475 heartbeat IPC: 0.03236 cumulative IPC: 0.04371 (Simulation time: 1 hr 22 min 28 sec) 
Heartbeat CPU  0 instructions:  509000000 cycles: 9429818404 heartbeat IPC: 0.07418 cumulative IPC: 0.04375 (Simulation time: 1 hr 22 min 35 sec) 
Heartbeat CPU  0 instructions:  510000000 cycles: 9442548004 heartbeat IPC: 0.07856 cumulative IPC: 0.04380 (Simulation time: 1 hr 22 min 42 sec) 
Heartbeat CPU  0 instructions:  511000001 cycles: 9481911581 heartbeat IPC: 0.02540 cumulative IPC: 0.04372 (Simulation time: 1 hr 23 min 2 sec) 
Heartbeat CPU  0 instructions:  512000000 cycles: 9504749036 heartbeat IPC: 0.04379 cumulative IPC: 0.04372 (Simulation time: 1 hr 23 min 13 sec) 
Heartbeat CPU  0 instructions:  513000000 cycles: 9517626293 heartbeat IPC: 0.07766 cumulative IPC: 0.04377 (Simulation time: 1 hr 23 min 20 sec) 
Heartbeat CPU  0 instructions:  514000000 cycles: 9529718948 heartbeat IPC: 0.08269 cumulative IPC: 0.04382 (Simulation time: 1 hr 23 min 26 sec) 
Heartbeat CPU  0 instructions:  515000000 cycles: 9573763689 heartbeat IPC: 0.02270 cumulative IPC: 0.04372 (Simulation time: 1 hr 23 min 48 sec) 
Heartbeat CPU  0 instructions:  516000000 cycles: 9592429055 heartbeat IPC: 0.05358 cumulative IPC: 0.04374 (Simulation time: 1 hr 23 min 58 sec) 
Heartbeat CPU  0 instructions:  517000000 cycles: 9604876236 heartbeat IPC: 0.08034 cumulative IPC: 0.04379 (Simulation time: 1 hr 24 min 5 sec) 
Heartbeat CPU  0 instructions:  518000001 cycles: 9617409966 heartbeat IPC: 0.07978 cumulative IPC: 0.04384 (Simulation time: 1 hr 24 min 12 sec) 
Heartbeat CPU  0 instructions:  519000000 cycles: 9667634102 heartbeat IPC: 0.01991 cumulative IPC: 0.04371 (Simulation time: 1 hr 24 min 36 sec) 
Heartbeat CPU  0 instructions:  520000000 cycles: 9680553065 heartbeat IPC: 0.07741 cumulative IPC: 0.04376 (Simulation time: 1 hr 24 min 43 sec) 
Heartbeat CPU  0 instructions:  521000002 cycles: 9693546039 heartbeat IPC: 0.07696 cumulative IPC: 0.04380 (Simulation time: 1 hr 24 min 50 sec) 
Heartbeat CPU  0 instructions:  522000002 cycles: 9708632763 heartbeat IPC: 0.06628 cumulative IPC: 0.04384 (Simulation time: 1 hr 24 min 58 sec) 
Heartbeat CPU  0 instructions:  523000002 cycles: 9757956223 heartbeat IPC: 0.02027 cumulative IPC: 0.04372 (Simulation time: 1 hr 25 min 22 sec) 
Heartbeat CPU  0 instructions:  524000000 cycles: 9769538225 heartbeat IPC: 0.08634 cumulative IPC: 0.04377 (Simulation time: 1 hr 25 min 28 sec) 
Heartbeat CPU  0 instructions:  525000002 cycles: 9781316685 heartbeat IPC: 0.08490 cumulative IPC: 0.04382 (Simulation time: 1 hr 25 min 35 sec) 
Heartbeat CPU  0 instructions:  526000000 cycles: 9796830700 heartbeat IPC: 0.06446 cumulative IPC: 0.04385 (Simulation time: 1 hr 25 min 43 sec) 
Heartbeat CPU  0 instructions:  527000000 cycles: 9845421763 heartbeat IPC: 0.02058 cumulative IPC: 0.04374 (Simulation time: 1 hr 26 min 7 sec) 
Heartbeat CPU  0 instructions:  528000000 cycles: 9856076097 heartbeat IPC: 0.09386 cumulative IPC: 0.04379 (Simulation time: 1 hr 26 min 13 sec) 
Heartbeat CPU  0 instructions:  529000001 cycles: 9867870053 heartbeat IPC: 0.08479 cumulative IPC: 0.04384 (Simulation time: 1 hr 26 min 19 sec) 
Heartbeat CPU  0 instructions:  530000001 cycles: 9885084783 heartbeat IPC: 0.05809 cumulative IPC: 0.04386 (Simulation time: 1 hr 26 min 29 sec) 
Heartbeat CPU  0 instructions:  531000000 cycles: 9932106311 heartbeat IPC: 0.02127 cumulative IPC: 0.04376 (Simulation time: 1 hr 26 min 51 sec) 
Heartbeat CPU  0 instructions:  532000000 cycles: 9950295844 heartbeat IPC: 0.05498 cumulative IPC: 0.04378 (Simulation time: 1 hr 27 min 0 sec) 
Heartbeat CPU  0 instructions:  533000000 cycles: 9961406365 heartbeat IPC: 0.09000 cumulative IPC: 0.04383 (Simulation time: 1 hr 27 min 6 sec) 
Heartbeat CPU  0 instructions:  534000000 cycles: 9972595098 heartbeat IPC: 0.08938 cumulative IPC: 0.04388 (Simulation time: 1 hr 27 min 12 sec) 
Heartbeat CPU  0 instructions:  535000000 cycles: 10006091598 heartbeat IPC: 0.02985 cumulative IPC: 0.04383 (Simulation time: 1 hr 27 min 29 sec) 
Heartbeat CPU  0 instructions:  536000000 cycles: 10032680854 heartbeat IPC: 0.03761 cumulative IPC: 0.04382 (Simulation time: 1 hr 27 min 42 sec) 
Heartbeat CPU  0 instructions:  537000001 cycles: 10044097438 heartbeat IPC: 0.08759 cumulative IPC: 0.04387 (Simulation time: 1 hr 27 min 48 sec) 
Heartbeat CPU  0 instructions:  538000000 cycles: 10055883296 heartbeat IPC: 0.08485 cumulative IPC: 0.04392 (Simulation time: 1 hr 27 min 54 sec) 
Heartbeat CPU  0 instructions:  539000003 cycles: 10087240950 heartbeat IPC: 0.03189 cumulative IPC: 0.04388 (Simulation time: 1 hr 28 min 10 sec) 
Heartbeat CPU  0 instructions:  540000000 cycles: 10116222994 heartbeat IPC: 0.03450 cumulative IPC: 0.04385 (Simulation time: 1 hr 28 min 24 sec) 
Heartbeat CPU  0 instructions:  541000001 cycles: 10128242149 heartbeat IPC: 0.08320 cumulative IPC: 0.04390 (Simulation time: 1 hr 28 min 30 sec) 
Heartbeat CPU  0 instructions:  542000001 cycles: 10139594940 heartbeat IPC: 0.08808 cumulative IPC: 0.04395 (Simulation time: 1 hr 28 min 36 sec) 
Heartbeat CPU  0 instructions:  543000001 cycles: 10166078730 heartbeat IPC: 0.03776 cumulative IPC: 0.04393 (Simulation time: 1 hr 28 min 50 sec) 
Heartbeat CPU  0 instructions:  544000000 cycles: 10200581320 heartbeat IPC: 0.02898 cumulative IPC: 0.04388 (Simulation time: 1 hr 29 min 7 sec) 
Heartbeat CPU  0 instructions:  545000003 cycles: 10211005710 heartbeat IPC: 0.09593 cumulative IPC: 0.04393 (Simulation time: 1 hr 29 min 12 sec) 
Heartbeat CPU  0 instructions:  546000000 cycles: 10222530141 heartbeat IPC: 0.08677 cumulative IPC: 0.04398 (Simulation time: 1 hr 29 min 19 sec) 
Heartbeat CPU  0 instructions:  547000000 cycles: 10246943024 heartbeat IPC: 0.04096 cumulative IPC: 0.04398 (Simulation time: 1 hr 29 min 31 sec) 
Heartbeat CPU  0 instructions:  548000000 cycles: 10283837362 heartbeat IPC: 0.02710 cumulative IPC: 0.04391 (Simulation time: 1 hr 29 min 49 sec) 
Heartbeat CPU  0 instructions:  549000000 cycles: 10293967821 heartbeat IPC: 0.09871 cumulative IPC: 0.04397 (Simulation time: 1 hr 29 min 55 sec) 
Heartbeat CPU  0 instructions:  550000000 cycles: 10304880020 heartbeat IPC: 0.09164 cumulative IPC: 0.04402 (Simulation time: 1 hr 30 min 1 sec) 
Heartbeat CPU  0 instructions:  551000002 cycles: 10328036501 heartbeat IPC: 0.04318 cumulative IPC: 0.04402 (Simulation time: 1 hr 30 min 13 sec) 
Heartbeat CPU  0 instructions:  552000000 cycles: 10366345881 heartbeat IPC: 0.02610 cumulative IPC: 0.04395 (Simulation time: 1 hr 30 min 32 sec) 
Heartbeat CPU  0 instructions:  553000001 cycles: 10377024272 heartbeat IPC: 0.09365 cumulative IPC: 0.04400 (Simulation time: 1 hr 30 min 38 sec) 
Heartbeat CPU  0 instructions:  554000000 cycles: 10388773169 heartbeat IPC: 0.08511 cumulative IPC: 0.04405 (Simulation time: 1 hr 30 min 44 sec) 
Heartbeat CPU  0 instructions:  555000003 cycles: 10405713692 heartbeat IPC: 0.05903 cumulative IPC: 0.04407 (Simulation time: 1 hr 30 min 53 sec) 
Heartbeat CPU  0 instructions:  556000000 cycles: 10449763322 heartbeat IPC: 0.02270 cumulative IPC: 0.04398 (Simulation time: 1 hr 31 min 14 sec) 
Heartbeat CPU  0 instructions:  557000002 cycles: 10459673131 heartbeat IPC: 0.10091 cumulative IPC: 0.04404 (Simulation time: 1 hr 31 min 20 sec) 
Heartbeat CPU  0 instructions:  558000000 cycles: 10469669017 heartbeat IPC: 0.10004 cumulative IPC: 0.04409 (Simulation time: 1 hr 31 min 25 sec) 
Heartbeat CPU  0 instructions:  559000000 cycles: 10479708585 heartbeat IPC: 0.09961 cumulative IPC: 0.04414 (Simulation time: 1 hr 31 min 30 sec) 
Heartbeat CPU  0 instructions:  560000000 cycles: 10524930300 heartbeat IPC: 0.02211 cumulative IPC: 0.04405 (Simulation time: 1 hr 31 min 53 sec) 
Heartbeat CPU  0 instructions:  561000001 cycles: 10539943837 heartbeat IPC: 0.06661 cumulative IPC: 0.04408 (Simulation time: 1 hr 32 min 0 sec) 
Heartbeat CPU  0 instructions:  562000002 cycles: 10549229821 heartbeat IPC: 0.10769 cumulative IPC: 0.04414 (Simulation time: 1 hr 32 min 6 sec) 
Heartbeat CPU  0 instructions:  563000002 cycles: 10558672864 heartbeat IPC: 0.10590 cumulative IPC: 0.04419 (Simulation time: 1 hr 32 min 11 sec) 
Heartbeat CPU  0 instructions:  564000000 cycles: 10589079865 heartbeat IPC: 0.03289 cumulative IPC: 0.04416 (Simulation time: 1 hr 32 min 26 sec) 
Heartbeat CPU  0 instructions:  565000000 cycles: 10619131063 heartbeat IPC: 0.03328 cumulative IPC: 0.04413 (Simulation time: 1 hr 32 min 41 sec) 
Heartbeat CPU  0 instructions:  566000001 cycles: 10628528409 heartbeat IPC: 0.10641 cumulative IPC: 0.04419 (Simulation time: 1 hr 32 min 46 sec) 
Heartbeat CPU  0 instructions:  567000001 cycles: 10638338947 heartbeat IPC: 0.10193 cumulative IPC: 0.04424 (Simulation time: 1 hr 32 min 51 sec) 
Heartbeat CPU  0 instructions:  568000000 cycles: 10657739945 heartbeat IPC: 0.05154 cumulative IPC: 0.04425 (Simulation time: 1 hr 33 min 2 sec) 
Heartbeat CPU  0 instructions:  569000000 cycles: 10699672743 heartbeat IPC: 0.02385 cumulative IPC: 0.04417 (Simulation time: 1 hr 33 min 22 sec) 
Heartbeat CPU  0 instructions:  570000000 cycles: 10710886085 heartbeat IPC: 0.08918 cumulative IPC: 0.04422 (Simulation time: 1 hr 33 min 28 sec) 
Heartbeat CPU  0 instructions:  571000000 cycles: 10720683136 heartbeat IPC: 0.10207 cumulative IPC: 0.04427 (Simulation time: 1 hr 33 min 33 sec) 
Heartbeat CPU  0 instructions:  572000000 cycles: 10730802081 heartbeat IPC: 0.09882 cumulative IPC: 0.04432 (Simulation time: 1 hr 33 min 39 sec) 
Heartbeat CPU  0 instructions:  573000003 cycles: 10780887905 heartbeat IPC: 0.01997 cumulative IPC: 0.04421 (Simulation time: 1 hr 34 min 3 sec) 
Heartbeat CPU  0 instructions:  574000003 cycles: 10791415527 heartbeat IPC: 0.09499 cumulative IPC: 0.04426 (Simulation time: 1 hr 34 min 9 sec) 
Heartbeat CPU  0 instructions:  575000002 cycles: 10800996187 heartbeat IPC: 0.10438 cumulative IPC: 0.04431 (Simulation time: 1 hr 34 min 14 sec) 
Heartbeat CPU  0 instructions:  576000000 cycles: 10812782376 heartbeat IPC: 0.08484 cumulative IPC: 0.04436 (Simulation time: 1 hr 34 min 21 sec) 
Heartbeat CPU  0 instructions:  577000003 cycles: 10848270875 heartbeat IPC: 0.02818 cumulative IPC: 0.04431 (Simulation time: 1 hr 34 min 38 sec) 
Heartbeat CPU  0 instructions:  578000000 cycles: 10876036932 heartbeat IPC: 0.03602 cumulative IPC: 0.04428 (Simulation time: 1 hr 34 min 52 sec) 
Heartbeat CPU  0 instructions:  579000000 cycles: 10885590084 heartbeat IPC: 0.10468 cumulative IPC: 0.04434 (Simulation time: 1 hr 34 min 57 sec) 
Heartbeat CPU  0 instructions:  580000000 cycles: 10895806880 heartbeat IPC: 0.09788 cumulative IPC: 0.04439 (Simulation time: 1 hr 35 min 2 sec) 
Heartbeat CPU  0 instructions:  581000001 cycles: 10916650067 heartbeat IPC: 0.04798 cumulative IPC: 0.04439 (Simulation time: 1 hr 35 min 13 sec) 
Heartbeat CPU  0 instructions:  582000003 cycles: 10959688610 heartbeat IPC: 0.02324 cumulative IPC: 0.04431 (Simulation time: 1 hr 35 min 34 sec) 
Heartbeat CPU  0 instructions:  583000000 cycles: 10969256790 heartbeat IPC: 0.10451 cumulative IPC: 0.04436 (Simulation time: 1 hr 35 min 39 sec) 
Heartbeat CPU  0 instructions:  584000000 cycles: 10978965163 heartbeat IPC: 0.10300 cumulative IPC: 0.04442 (Simulation time: 1 hr 35 min 44 sec) 
Heartbeat CPU  0 instructions:  585000002 cycles: 10989426643 heartbeat IPC: 0.09559 cumulative IPC: 0.04447 (Simulation time: 1 hr 35 min 50 sec) 
Heartbeat CPU  0 instructions:  586000000 cycles: 11042154632 heartbeat IPC: 0.01897 cumulative IPC: 0.04434 (Simulation time: 1 hr 36 min 16 sec) 
Heartbeat CPU  0 instructions:  587000001 cycles: 11053168244 heartbeat IPC: 0.09080 cumulative IPC: 0.04439 (Simulation time: 1 hr 36 min 21 sec) 
Heartbeat CPU  0 instructions:  588000000 cycles: 11063196779 heartbeat IPC: 0.09972 cumulative IPC: 0.04444 (Simulation time: 1 hr 36 min 27 sec) 
Heartbeat CPU  0 instructions:  589000002 cycles: 11080520787 heartbeat IPC: 0.05772 cumulative IPC: 0.04446 (Simulation time: 1 hr 36 min 36 sec) 
Heartbeat CPU  0 instructions:  590000000 cycles: 11098396020 heartbeat IPC: 0.05594 cumulative IPC: 0.04448 (Simulation time: 1 hr 36 min 44 sec) 
Heartbeat CPU  0 instructions:  591000001 cycles: 11147390453 heartbeat IPC: 0.02041 cumulative IPC: 0.04437 (Simulation time: 1 hr 37 min 8 sec) 
Heartbeat CPU  0 instructions:  592000000 cycles: 11157517626 heartbeat IPC: 0.09874 cumulative IPC: 0.04442 (Simulation time: 1 hr 37 min 14 sec) 
Heartbeat CPU  0 instructions:  593000001 cycles: 11167256821 heartbeat IPC: 0.10268 cumulative IPC: 0.04447 (Simulation time: 1 hr 37 min 19 sec) 
Heartbeat CPU  0 instructions:  594000000 cycles: 11176977168 heartbeat IPC: 0.10288 cumulative IPC: 0.04453 (Simulation time: 1 hr 37 min 25 sec) 
Heartbeat CPU  0 instructions:  595000000 cycles: 11221324894 heartbeat IPC: 0.02255 cumulative IPC: 0.04444 (Simulation time: 1 hr 37 min 46 sec) 
Heartbeat CPU  0 instructions:  596000000 cycles: 11240104577 heartbeat IPC: 0.05325 cumulative IPC: 0.04445 (Simulation time: 1 hr 37 min 56 sec) 
Heartbeat CPU  0 instructions:  597000001 cycles: 11251646101 heartbeat IPC: 0.08664 cumulative IPC: 0.04450 (Simulation time: 1 hr 38 min 2 sec) 
Heartbeat CPU  0 instructions:  598000001 cycles: 11262943661 heartbeat IPC: 0.08851 cumulative IPC: 0.04454 (Simulation time: 1 hr 38 min 8 sec) 
Heartbeat CPU  0 instructions:  599000002 cycles: 11304658184 heartbeat IPC: 0.02397 cumulative IPC: 0.04446 (Simulation time: 1 hr 38 min 28 sec) 
Heartbeat CPU  0 instructions:  600000000 cycles: 11327373871 heartbeat IPC: 0.04402 cumulative IPC: 0.04446 (Simulation time: 1 hr 38 min 40 sec) 
Finished CPU 0 instructions: 500000000 cycles: 11245284767 cumulative IPC: 0.04446 (Simulation time: 1 hr 38 min 40 sec) 

ChampSim completed all CPUs

[ROI Statistics]
Core_0_instructions 500000000
Core_0_cycles 11245284767
Core_0_IPC 0.04446

Core_0_branch_prediction_accuracy 93.75037
Core_0_branch_MPKI 14.79093
Core_0_average_ROB_occupancy_at_mispredict 57.47056

Core_0_L1D_total_access 126665306
Core_0_L1D_total_hit 74445572
Core_0_L1D_total_miss 52219734
Core_0_L1D_loads 104047932
Core_0_L1D_load_hit 53721490
Core_0_L1D_load_miss 50326442
Core_0_L1D_RFOs 22617374
Core_0_L1D_RFO_hit 20724082
Core_0_L1D_RFO_miss 1893292
Core_0_L1D_prefetches 0
Core_0_L1D_prefetch_hit 0
Core_0_L1D_prefetch_miss 0
Core_0_L1D_writebacks 0
Core_0_L1D_writeback_hit 0
Core_0_L1D_writeback_miss 0
Core_0_L1D_prefetch_requested 0
Core_0_L1D_prefetch_dropped 0
Core_0_L1D_prefetch_issued 0
Core_0_L1D_prefetch_filled 0
Core_0_L1D_prefetch_useful 0
Core_0_L1D_prefetch_useless 0
Core_0_L1D_prefetch_late 0
Core_0_L1D_average_miss_latency 472.56623

Core_0_L1D_rq_access 159038046
Core_0_L1D_rq_forward 0
Core_0_L1D_rq_merged 54382994
Core_0_L1D_rq_to_cache 104655049
Core_0_L1D_rq_full 0

Core_0_L1D_wq_access 26393734
Core_0_L1D_wq_forward 3
Core_0_L1D_wq_merged 2415041
Core_0_L1D_wq_to_cache 23978693
Core_0_L1D_wq_full 0

Core_0_L1D_pq_access 0
Core_0_L1D_pq_forward 0
Core_0_L1D_pq_merged 0
Core_0_L1D_pq_to_cache 0
Core_0_L1D_pq_full 0

Core_0_L1D_acc_epochs 10533253
Core_0_L1D_acc_level_0 10533253
Core_0_L1D_acc_level_1 0
Core_0_L1D_acc_level_2 0
Core_0_L1D_acc_level_3 0
Core_0_L1D_acc_level_4 0
Core_0_L1D_acc_level_5 0
Core_0_L1D_acc_level_6 0
Core_0_L1D_acc_level_7 0
Core_0_L1D_acc_level_8 0
Core_0_L1D_acc_level_9 0

Core_0_L1I_total_access 107653596
Core_0_L1I_total_hit 107653596
Core_0_L1I_total_miss 0
Core_0_L1I_loads 107653596
Core_0_L1I_load_hit 107653596
Core_0_L1I_load_miss 0
Core_0_L1I_RFOs 0
Core_0_L1I_RFO_hit 0
Core_0_L1I_RFO_miss 0
Core_0_L1I_prefetches 0
Core_0_L1I_prefetch_hit 0
Core_0_L1I_prefetch_miss 0
Core_0_L1I_writebacks 0
Core_0_L1I_writeback_hit 0
Core_0_L1I_writeback_miss 0
Core_0_L1I_prefetch_requested 0
Core_0_L1I_prefetch_dropped 0
Core_0_L1I_prefetch_issued 0
Core_0_L1I_prefetch_filled 0
Core_0_L1I_prefetch_useful 0
Core_0_L1I_prefetch_useless 0
Core_0_L1I_prefetch_late 0
Core_0_L1I_average_miss_latency -nan

Core_0_L1I_rq_access 499999764
Core_0_L1I_rq_forward 0
Core_0_L1I_rq_merged 392346168
Core_0_L1I_rq_to_cache 107653596
Core_0_L1I_rq_full 0

Core_0_L1I_wq_access 0
Core_0_L1I_wq_forward 0
Core_0_L1I_wq_merged 0
Core_0_L1I_wq_to_cache 0
Core_0_L1I_wq_full 0

Core_0_L1I_pq_access 0
Core_0_L1I_pq_forward 0
Core_0_L1I_pq_merged 0
Core_0_L1I_pq_to_cache 0
Core_0_L1I_pq_full 0

Core_0_L1I_acc_epochs 10533253
Core_0_L1I_acc_level_0 10533253
Core_0_L1I_acc_level_1 0
Core_0_L1I_acc_level_2 0
Core_0_L1I_acc_level_3 0
Core_0_L1I_acc_level_4 0
Core_0_L1I_acc_level_5 0
Core_0_L1I_acc_level_6 0
Core_0_L1I_acc_level_7 0
Core_0_L1I_acc_level_8 0
Core_0_L1I_acc_level_9 0

Core_0_L2C_total_access 94786271
Core_0_L2C_total_hit 49877875
Core_0_L2C_total_miss 44908396
Core_0_L2C_loads 50325481
Core_0_L2C_load_hit 13716557
Core_0_L2C_load_miss 36608924
Core_0_L2C_RFOs 1893261
Core_0_L2C_RFO_hit 1034506
Core_0_L2C_RFO_miss 858755
Core_0_L2C_prefetches 30184112
Core_0_L2C_prefetch_hit 22775574
Core_0_L2C_prefetch_miss 7408538
Core_0_L2C_writebacks 12383417
Core_0_L2C_writeback_hit 12351238
Core_0_L2C_writeback_miss 32179
Core_0_L2C_prefetch_requested 359153067
Core_0_L2C_prefetch_dropped 0
Core_0_L2C_prefetch_issued 359153067
Core_0_L2C_prefetch_filled 8503233
Core_0_L2C_prefetch_useful 2126471
Core_0_L2C_prefetch_useless 6376396
Core_0_L2C_prefetch_late 40415
Core_0_L2C_average_miss_latency 622.84619

Core_0_L2C_rq_access 52219734
Core_0_L2C_rq_forward 0
Core_0_L2C_rq_merged 0
Core_0_L2C_rq_to_cache 52218742
Core_0_L2C_rq_full 0

Core_0_L2C_wq_access 12383417
Core_0_L2C_wq_forward 1378
Core_0_L2C_wq_merged 0
Core_0_L2C_wq_to_cache 12383417
Core_0_L2C_wq_full 0

Core_0_L2C_pq_access 359153067
Core_0_L2C_pq_forward 0
Core_0_L2C_pq_merged 2
Core_0_L2C_pq_to_cache 359152679
Core_0_L2C_pq_full 0

Core_0_L2C_acc_epochs 10533253
Core_0_L2C_acc_level_0 9011139
Core_0_L2C_acc_level_1 495562
Core_0_L2C_acc_level_2 364914
Core_0_L2C_acc_level_3 132264
Core_0_L2C_acc_level_4 51063
Core_0_L2C_acc_level_5 247957
Core_0_L2C_acc_level_6 48200
Core_0_L2C_acc_level_7 39932
Core_0_L2C_acc_level_8 19932
Core_0_L2C_acc_level_9 122290

Core_0_LLC_total_access 348054042
Core_0_LLC_total_hit 167498156
Core_0_LLC_total_miss 180555886
Core_0_LLC_loads 36571472
Core_0_LLC_load_hit 14600845
Core_0_LLC_load_miss 21970627
Core_0_LLC_RFOs 858255
Core_0_LLC_RFO_hit 481268
Core_0_LLC_RFO_miss 376987
Core_0_LLC_prefetches 301811940
Core_0_LLC_prefetch_hit 147318811
Core_0_LLC_prefetch_miss 154493129
Core_0_LLC_writebacks 8812375
Core_0_LLC_writeback_hit 5097232
Core_0_LLC_writeback_miss 3715143
Core_0_LLC_prefetch_requested 0
Core_0_LLC_prefetch_dropped 0
Core_0_LLC_prefetch_issued 0
Core_0_LLC_prefetch_filled 169652452
Core_0_LLC_prefetch_useful 11271425
Core_0_LLC_prefetch_useless 158356491
Core_0_LLC_prefetch_late 134353
Core_0_LLC_average_miss_latency 1230.79224

Core_0_LLC_rq_access 37429904
Core_0_LLC_rq_forward 0
Core_0_LLC_rq_merged 0
Core_0_LLC_rq_to_cache 37429727
Core_0_LLC_rq_full 0

Core_0_LLC_wq_access 8812375
Core_0_LLC_wq_forward 279
Core_0_LLC_wq_merged 0
Core_0_LLC_wq_to_cache 8812375
Core_0_LLC_wq_full 0

Core_0_LLC_pq_access 329340723
Core_0_LLC_pq_forward 0
Core_0_LLC_pq_merged 0
Core_0_LLC_pq_to_cache 329340603
Core_0_LLC_pq_full 0

Core_0_LLC_acc_epochs 11061889
Core_0_LLC_acc_level_0 8350322
Core_0_LLC_acc_level_1 1752191
Core_0_LLC_acc_level_2 493068
Core_0_LLC_acc_level_3 179884
Core_0_LLC_acc_level_4 71729
Core_0_LLC_acc_level_5 68392
Core_0_LLC_acc_level_6 28369
Core_0_LLC_acc_level_7 21375
Core_0_LLC_acc_level_8 14234
Core_0_LLC_acc_level_9 82325

Core_0_major_page_fault 0
Core_0_minor_page_fault 158560

[Bingo] PHT Access: 42444959
[Bingo] PHT Hit PC+Addr: 4445644
[Bingo] PHT Hit PC+Offs: 29751220
[Bingo] PHT Miss: 8248095
[Bingo] Prefetch PC+Addr: 0
[Bingo] Prefetch PC+Offs: 0
[Bingo] Useful PC+Addr: 0
[Bingo] Useful PC+Offs: 0
[Bingo] Useless PC+Addr: 0
[Bingo] Useless PC+Offs: 0
[Bingo] L1 Prefetch per Region: 0.00000
[Bingo] L2 Prefetch per Region: 1.60825
[Bingo] L3 Prefetch per Region: 11.19822
[Bingo] No Prefetch per Region: 19.19353
[Bingo] Number of Voters Mean: 12.12205
[Bingo] Number of Voters SD: 5.15375

Channel_0_RQ_row_buffer_hit 74998564
Channel_0_RQ_row_buffer_miss 101766555
Channel_0_WQ_row_buffer_hit 889805
Channel_0_WQ_row_buffer_miss 7377386
Channel_0_WQ_full 0
Channel_0_dbus_congested 174669653

avg_congested_cycle 50

DRAM_bw_pochs 44247555
DRAM_bw_level_0 12502467
DRAM_bw_level_1 3757240
DRAM_bw_level_2 3126679
DRAM_bw_level_3 24861169
