*************************************************
   ChampSim Multicore Out-of-Order Simulator
   Last compiled: Dec 11 2024 17:59:53
*************************************************
parsing config file: /home/functionmain/桌面/Pythia/config/pythia.ini

trace_0 /home/functionmain/桌面/Pythia/traces/429.mcf-192B.champsimtrace.xz
adding L2C_PREFETCHER: Scooby
Initialize SHIP state
warmup_instructions 100000000
simulation_instructions 500000000
champsim_seed 222
measure_ipc 0
measure_ipc_epoch 1000
measure_dram_bw 1
measure_dram_bw_epoch 256
measure_cache_acc 1
measure_cache_acc_epoch 1024
l1d_perfect 0
l2c_perfect 0
llc_perfect 0
l1d_semi_perfect 0
l2c_semi_perfect 0
llc_semi_perfect 0
semi_perfect_cache_page_buffer_size 64

num_cpus 1
cpu_freq 4000
dram_io_freq 4800
page_size 4096
block_size 64
max_read_per_cycle 8
max_fill_per_cycle 1
dram_channels 1
log2_dram_channels 0
dram_ranks 1
dram_banks 8
dram_rows 65536
dram_columns 128
dram_row_size 8
dram_size 4096
dram_pages 1048576

fetch_width 6
decode_width 6
exec_width 4
lq_width 2
sq_width 2
retire_width 4
scheduler_size 128
branch_mispredict_penalty 20
rob_size 256
lq_size 72
sq_size 56
num_instr_destinations_sparc 4
num_instr_destinations 2
num_instr_sources 4

itlb_set 16
itlb_way 8
itlb_rq_size 16
itlb_wq_size 16
itlb_pq_size 0
itlb_mshr_size 8
itlb_latency 1

dtlb_set 16
dtlb_way 4
dtlb_rq_size 16
dtlb_wq_size 16
dtlb_pq_size 0
dtlb_mshr_size 8
dtlb_latency 1

stlb_set 128
stlb_way 12
stlb_rq_size 32
stlb_wq_size 32
stlb_pq_size 0
stlb_mshr_size 16
stlb_latency 8

l1i_size 32
l1i_set 64
l1i_way 8
l1i_rq_size 64
l1i_wq_size 64
l1i_pq_size 8
l1i_mshr_size 8
l1i_latency 1

l1d_size 32
l1d_set 64
l1d_way 8
l1d_rq_size 64
l1d_wq_size 64
l1d_pq_size 8
l1d_mshr_size 16
l1d_latency 4

l2c_size 256
l2c_set 512
l2c_way 8
l2c_rq_size 32
l2c_wq_size 32
l2c_pq_size 32
l2c_mshr_size 32
l2c_latency 10

llc_size 2048
llc_set 2048
llc_way 16
llc_rq_size 32
llc_wq_size 32
llc_pq_size 32
llc_mshr_size 64
llc_latency 20

dram_channel_width 8
dram_wq_size 64
dram_rq_size 64
tRP 15
tRCD 15
tCAS 12.5
dram_dbus_turn_around_time 30
dram_write_high_wm 56
dram_write_low_wm 48
min_dram_writes_per_switch 16
dram_mtps 4800
dram_dbus_return_time 6

scooby_alpha 0.0065088
scooby_gamma 0.556301
scooby_epsilon 0.00182284
scooby_state_num_bits 10
scooby_max_states 1024
scooby_seed 200
scooby_policy EGreedy
scooby_learning_type SARSA
scooby_actions 1,3,4,5,10,11,12,22,23,30,32,-1,-3,-6,0,
scooby_max_actions 15
scooby_pt_size 256
scooby_st_size 64
scooby_max_pcs 5
scooby_max_offsets 5
scooby_max_deltas 5
scooby_reward_none -4
scooby_reward_incorrect -8
scooby_reward_correct_untimely 12
scooby_reward_correct_timely 20
scooby_brain_zero_init 0
scooby_enable_reward_all 0
scooby_enable_track_multiple 0
scooby_enable_reward_out_of_bounds 1
scooby_reward_out_of_bounds -12
scooby_state_type 1
scooby_state_hash_type 11
scooby_access_debug 0
scooby_print_access_debug 0
scooby_print_access_debug_pc deadbeef
scooby_print_access_debug_pc_count 0
scooby_print_trace 0
scooby_enable_state_action_stats 1
scooby_enable_reward_tracker_hit 0
scooby_reward_tracker_hit -2
scooby_enable_featurewise_engine 1
scooby_pref_degree 1
scooby_enable_dyn_degree 1
scooby_max_to_avg_q_thresholds 0.5,1,2,
scooby_dyn_degrees 1,2,4,4,
scooby_multi_deg_select_type 2
scooby_last_pref_offset_conf_thresholds 1,3,8,
scooby_dyn_degrees_type2 1,2,4,6,
scooby_action_tracker_size 2
scooby_high_bw_thresh 4
scooby_enable_hbw_reward 1
scooby_reward_hbw_correct_timely 20
scooby_reward_hbw_correct_untimely 12
scooby_reward_hbw_incorrect -14
scooby_reward_hbw_none -2
scooby_reward_hbw_out_of_bounds -12
scooby_reward_hbw_tracker_hit -2
scooby_last_pref_offset_conf_thresholds_hbw 1,3,8,
scooby_dyn_degrees_type2_hbw 1,2,4,6,

le_enable_trace 0
le_trace_interval 0
le_trace_file_name 
le_trace_state 0
le_enable_score_plot 0
le_plot_file_name 
le_plot_actions 
le_enable_action_trace 0
le_action_trace_interval 0
le_action_trace_name 
le_enable_action_plot 0

le_featurewise_active_features PC, PC_Delta
le_featurewise_num_tilings 3,3,
le_featurewise_num_tiles 128,128,
le_featurewise_hash_types 2,2,
le_featurewise_enable_tiling_offset 1,1,
le_featurewise_max_q_thresh 0.5
le_featurewise_enable_action_fallback 1
le_featurewise_feature_weights 1,1,
le_featurewise_enable_dynamic_weight 0
le_featurewise_weight_gradient 0.001
le_featurewise_disable_adjust_weight_all_features_align 1
le_featurewise_selective_update 0
le_featurewise_pooling_type 2
le_featurewise_enable_dyn_action_fallback 1
le_featurewise_bw_acc_check_level 1
le_featurewise_acc_thresh 2
le_featurewise_enable_trace 0
le_featurewise_trace_feature_type 0
le_featurewise_trace_feature 
le_featurewise_trace_interval 0
le_featurewise_trace_record_count 0
le_featurewise_trace_file_name 
le_featurewise_enable_score_plot 0
le_featurewise_plot_actions 
le_featurewise_plot_file_name 


Heartbeat CPU  0 instructions:    1000002 cycles:    1163897 heartbeat IPC: 0.85918 cumulative IPC: 0.85918 (Simulation time: 0 hr 0 min 3 sec) 
Heartbeat CPU  0 instructions:    2000002 cycles:    2334963 heartbeat IPC: 0.85392 cumulative IPC: 0.85655 (Simulation time: 0 hr 0 min 5 sec) 
Heartbeat CPU  0 instructions:    3000000 cycles:    3488762 heartbeat IPC: 0.86670 cumulative IPC: 0.85990 (Simulation time: 0 hr 0 min 8 sec) 
Heartbeat CPU  0 instructions:    4000000 cycles:    4619883 heartbeat IPC: 0.88408 cumulative IPC: 0.86582 (Simulation time: 0 hr 0 min 11 sec) 
Heartbeat CPU  0 instructions:    5000001 cycles:    5768455 heartbeat IPC: 0.87065 cumulative IPC: 0.86678 (Simulation time: 0 hr 0 min 14 sec) 
Heartbeat CPU  0 instructions:    6000002 cycles:    6912851 heartbeat IPC: 0.87382 cumulative IPC: 0.86795 (Simulation time: 0 hr 0 min 16 sec) 
Heartbeat CPU  0 instructions:    7000000 cycles:    8075591 heartbeat IPC: 0.86004 cumulative IPC: 0.86681 (Simulation time: 0 hr 0 min 19 sec) 
Heartbeat CPU  0 instructions:    8000000 cycles:    9222485 heartbeat IPC: 0.87192 cumulative IPC: 0.86745 (Simulation time: 0 hr 0 min 22 sec) 
Heartbeat CPU  0 instructions:    9000002 cycles:   10378820 heartbeat IPC: 0.86480 cumulative IPC: 0.86715 (Simulation time: 0 hr 0 min 25 sec) 
Heartbeat CPU  0 instructions:   10000000 cycles:   11532474 heartbeat IPC: 0.86681 cumulative IPC: 0.86712 (Simulation time: 0 hr 0 min 27 sec) 
Heartbeat CPU  0 instructions:   11000003 cycles:   12660321 heartbeat IPC: 0.88665 cumulative IPC: 0.86886 (Simulation time: 0 hr 0 min 30 sec) 
Heartbeat CPU  0 instructions:   12000000 cycles:   13763616 heartbeat IPC: 0.90637 cumulative IPC: 0.87186 (Simulation time: 0 hr 0 min 33 sec) 
Heartbeat CPU  0 instructions:   13000001 cycles:   14896217 heartbeat IPC: 0.88292 cumulative IPC: 0.87270 (Simulation time: 0 hr 0 min 36 sec) 
Heartbeat CPU  0 instructions:   14000000 cycles:   16037720 heartbeat IPC: 0.87604 cumulative IPC: 0.87294 (Simulation time: 0 hr 0 min 38 sec) 
Heartbeat CPU  0 instructions:   15000000 cycles:   17192177 heartbeat IPC: 0.86621 cumulative IPC: 0.87249 (Simulation time: 0 hr 0 min 41 sec) 
Heartbeat CPU  0 instructions:   16000000 cycles:   18349437 heartbeat IPC: 0.86411 cumulative IPC: 0.87196 (Simulation time: 0 hr 0 min 44 sec) 
Heartbeat CPU  0 instructions:   17000001 cycles:   19513126 heartbeat IPC: 0.85934 cumulative IPC: 0.87121 (Simulation time: 0 hr 0 min 47 sec) 
Heartbeat CPU  0 instructions:   18000000 cycles:   20673079 heartbeat IPC: 0.86210 cumulative IPC: 0.87070 (Simulation time: 0 hr 0 min 49 sec) 
Heartbeat CPU  0 instructions:   19000003 cycles:   21817974 heartbeat IPC: 0.87345 cumulative IPC: 0.87084 (Simulation time: 0 hr 0 min 52 sec) 
Heartbeat CPU  0 instructions:   20000000 cycles:   22956854 heartbeat IPC: 0.87805 cumulative IPC: 0.87120 (Simulation time: 0 hr 0 min 55 sec) 
Heartbeat CPU  0 instructions:   21000000 cycles:   24102762 heartbeat IPC: 0.87267 cumulative IPC: 0.87127 (Simulation time: 0 hr 0 min 58 sec) 
Heartbeat CPU  0 instructions:   22000002 cycles:   25253818 heartbeat IPC: 0.86877 cumulative IPC: 0.87116 (Simulation time: 0 hr 1 min 1 sec) 
Heartbeat CPU  0 instructions:   23000001 cycles:   26390201 heartbeat IPC: 0.87998 cumulative IPC: 0.87154 (Simulation time: 0 hr 1 min 3 sec) 
Heartbeat CPU  0 instructions:   24000000 cycles:   27526314 heartbeat IPC: 0.88019 cumulative IPC: 0.87189 (Simulation time: 0 hr 1 min 6 sec) 
Heartbeat CPU  0 instructions:   25000001 cycles:   28661350 heartbeat IPC: 0.88103 cumulative IPC: 0.87225 (Simulation time: 0 hr 1 min 9 sec) 
Heartbeat CPU  0 instructions:   26000000 cycles:   29803001 heartbeat IPC: 0.87592 cumulative IPC: 0.87240 (Simulation time: 0 hr 1 min 12 sec) 
Heartbeat CPU  0 instructions:   27000000 cycles:   30944918 heartbeat IPC: 0.87572 cumulative IPC: 0.87252 (Simulation time: 0 hr 1 min 15 sec) 
Heartbeat CPU  0 instructions:   28000000 cycles:   32065376 heartbeat IPC: 0.89249 cumulative IPC: 0.87322 (Simulation time: 0 hr 1 min 17 sec) 
Heartbeat CPU  0 instructions:   29000000 cycles:   33228380 heartbeat IPC: 0.85984 cumulative IPC: 0.87275 (Simulation time: 0 hr 1 min 20 sec) 
Heartbeat CPU  0 instructions:   30000002 cycles:   34390197 heartbeat IPC: 0.86072 cumulative IPC: 0.87234 (Simulation time: 0 hr 1 min 23 sec) 
Heartbeat CPU  0 instructions:   31000002 cycles:   35558945 heartbeat IPC: 0.85562 cumulative IPC: 0.87179 (Simulation time: 0 hr 1 min 26 sec) 
Heartbeat CPU  0 instructions:   32000000 cycles:   36714081 heartbeat IPC: 0.86570 cumulative IPC: 0.87160 (Simulation time: 0 hr 1 min 28 sec) 
Heartbeat CPU  0 instructions:   33000000 cycles:   37866210 heartbeat IPC: 0.86796 cumulative IPC: 0.87149 (Simulation time: 0 hr 1 min 31 sec) 
Heartbeat CPU  0 instructions:   34000002 cycles:   39014448 heartbeat IPC: 0.87090 cumulative IPC: 0.87147 (Simulation time: 0 hr 1 min 34 sec) 
Heartbeat CPU  0 instructions:   35000000 cycles:   40174681 heartbeat IPC: 0.86189 cumulative IPC: 0.87120 (Simulation time: 0 hr 1 min 37 sec) 
Heartbeat CPU  0 instructions:   36000000 cycles:   41346039 heartbeat IPC: 0.85371 cumulative IPC: 0.87070 (Simulation time: 0 hr 1 min 39 sec) 
Heartbeat CPU  0 instructions:   37000001 cycles:   42510819 heartbeat IPC: 0.85853 cumulative IPC: 0.87037 (Simulation time: 0 hr 1 min 42 sec) 
Heartbeat CPU  0 instructions:   38000000 cycles:   43662606 heartbeat IPC: 0.86822 cumulative IPC: 0.87031 (Simulation time: 0 hr 1 min 45 sec) 
Heartbeat CPU  0 instructions:   39000000 cycles:   44813544 heartbeat IPC: 0.86886 cumulative IPC: 0.87027 (Simulation time: 0 hr 1 min 48 sec) 
Heartbeat CPU  0 instructions:   40000000 cycles:   45959756 heartbeat IPC: 0.87244 cumulative IPC: 0.87033 (Simulation time: 0 hr 1 min 50 sec) 
Heartbeat CPU  0 instructions:   41000001 cycles:   47150340 heartbeat IPC: 0.83992 cumulative IPC: 0.86956 (Simulation time: 0 hr 1 min 53 sec) 
Heartbeat CPU  0 instructions:   42000000 cycles:   48325541 heartbeat IPC: 0.85092 cumulative IPC: 0.86911 (Simulation time: 0 hr 1 min 56 sec) 
Heartbeat CPU  0 instructions:   43000000 cycles:   49494209 heartbeat IPC: 0.85567 cumulative IPC: 0.86879 (Simulation time: 0 hr 1 min 59 sec) 
Heartbeat CPU  0 instructions:   44000000 cycles:   50644357 heartbeat IPC: 0.86945 cumulative IPC: 0.86880 (Simulation time: 0 hr 2 min 1 sec) 
Heartbeat CPU  0 instructions:   45000000 cycles:   51794702 heartbeat IPC: 0.86930 cumulative IPC: 0.86881 (Simulation time: 0 hr 2 min 4 sec) 
Heartbeat CPU  0 instructions:   46000002 cycles:   52921176 heartbeat IPC: 0.88773 cumulative IPC: 0.86922 (Simulation time: 0 hr 2 min 7 sec) 
Heartbeat CPU  0 instructions:   47000000 cycles:   54066769 heartbeat IPC: 0.87291 cumulative IPC: 0.86930 (Simulation time: 0 hr 2 min 10 sec) 
Heartbeat CPU  0 instructions:   48000000 cycles:   55210490 heartbeat IPC: 0.87434 cumulative IPC: 0.86940 (Simulation time: 0 hr 2 min 12 sec) 
Heartbeat CPU  0 instructions:   49000001 cycles:   56358684 heartbeat IPC: 0.87093 cumulative IPC: 0.86943 (Simulation time: 0 hr 2 min 15 sec) 
Heartbeat CPU  0 instructions:   50000002 cycles:   57489178 heartbeat IPC: 0.88457 cumulative IPC: 0.86973 (Simulation time: 0 hr 2 min 18 sec) 
Heartbeat CPU  0 instructions:   51000000 cycles:   58615520 heartbeat IPC: 0.88783 cumulative IPC: 0.87008 (Simulation time: 0 hr 2 min 21 sec) 
Heartbeat CPU  0 instructions:   52000000 cycles:   59737446 heartbeat IPC: 0.89132 cumulative IPC: 0.87048 (Simulation time: 0 hr 2 min 23 sec) 
Heartbeat CPU  0 instructions:   53000001 cycles:   60856562 heartbeat IPC: 0.89356 cumulative IPC: 0.87090 (Simulation time: 0 hr 2 min 26 sec) 
Heartbeat CPU  0 instructions:   54000000 cycles:   61975816 heartbeat IPC: 0.89345 cumulative IPC: 0.87131 (Simulation time: 0 hr 2 min 29 sec) 
Heartbeat CPU  0 instructions:   55000001 cycles:   63095030 heartbeat IPC: 0.89349 cumulative IPC: 0.87170 (Simulation time: 0 hr 2 min 32 sec) 
Heartbeat CPU  0 instructions:   56000000 cycles:   64236948 heartbeat IPC: 0.87572 cumulative IPC: 0.87177 (Simulation time: 0 hr 2 min 34 sec) 
Heartbeat CPU  0 instructions:   57000000 cycles:   65368405 heartbeat IPC: 0.88382 cumulative IPC: 0.87198 (Simulation time: 0 hr 2 min 37 sec) 
Heartbeat CPU  0 instructions:   58000003 cycles:   66508397 heartbeat IPC: 0.87720 cumulative IPC: 0.87207 (Simulation time: 0 hr 2 min 40 sec) 
Heartbeat CPU  0 instructions:   59000003 cycles:   67658659 heartbeat IPC: 0.86937 cumulative IPC: 0.87202 (Simulation time: 0 hr 2 min 43 sec) 
Heartbeat CPU  0 instructions:   60000000 cycles:   68816067 heartbeat IPC: 0.86400 cumulative IPC: 0.87189 (Simulation time: 0 hr 2 min 45 sec) 
Heartbeat CPU  0 instructions:   61000002 cycles:   69984482 heartbeat IPC: 0.85586 cumulative IPC: 0.87162 (Simulation time: 0 hr 2 min 48 sec) 
Heartbeat CPU  0 instructions:   62000000 cycles:   71152729 heartbeat IPC: 0.85598 cumulative IPC: 0.87137 (Simulation time: 0 hr 2 min 51 sec) 
Heartbeat CPU  0 instructions:   63000000 cycles:   72332982 heartbeat IPC: 0.84728 cumulative IPC: 0.87097 (Simulation time: 0 hr 2 min 54 sec) 
Heartbeat CPU  0 instructions:   64000000 cycles:   73516600 heartbeat IPC: 0.84487 cumulative IPC: 0.87055 (Simulation time: 0 hr 2 min 56 sec) 
Heartbeat CPU  0 instructions:   65000000 cycles:   74703791 heartbeat IPC: 0.84232 cumulative IPC: 0.87010 (Simulation time: 0 hr 2 min 59 sec) 
Heartbeat CPU  0 instructions:   66000002 cycles:   75887706 heartbeat IPC: 0.84466 cumulative IPC: 0.86971 (Simulation time: 0 hr 3 min 2 sec) 
Heartbeat CPU  0 instructions:   67000001 cycles:   77059288 heartbeat IPC: 0.85355 cumulative IPC: 0.86946 (Simulation time: 0 hr 3 min 5 sec) 
Heartbeat CPU  0 instructions:   68000000 cycles:   78227052 heartbeat IPC: 0.85634 cumulative IPC: 0.86926 (Simulation time: 0 hr 3 min 8 sec) 
Heartbeat CPU  0 instructions:   69000001 cycles:   79394209 heartbeat IPC: 0.85678 cumulative IPC: 0.86908 (Simulation time: 0 hr 3 min 10 sec) 
Heartbeat CPU  0 instructions:   70000001 cycles:   80560945 heartbeat IPC: 0.85709 cumulative IPC: 0.86891 (Simulation time: 0 hr 3 min 13 sec) 
Heartbeat CPU  0 instructions:   71000003 cycles:   81722824 heartbeat IPC: 0.86068 cumulative IPC: 0.86879 (Simulation time: 0 hr 3 min 16 sec) 
Heartbeat CPU  0 instructions:   72000000 cycles:   82876865 heartbeat IPC: 0.86652 cumulative IPC: 0.86876 (Simulation time: 0 hr 3 min 19 sec) 
Heartbeat CPU  0 instructions:   73000000 cycles:   84042878 heartbeat IPC: 0.85762 cumulative IPC: 0.86860 (Simulation time: 0 hr 3 min 21 sec) 
Heartbeat CPU  0 instructions:   74000000 cycles:   85211629 heartbeat IPC: 0.85561 cumulative IPC: 0.86843 (Simulation time: 0 hr 3 min 24 sec) 
Heartbeat CPU  0 instructions:   75000001 cycles:   86353381 heartbeat IPC: 0.87585 cumulative IPC: 0.86852 (Simulation time: 0 hr 3 min 27 sec) 
Heartbeat CPU  0 instructions:   76000000 cycles:   87406145 heartbeat IPC: 0.94988 cumulative IPC: 0.86950 (Simulation time: 0 hr 3 min 30 sec) 
Heartbeat CPU  0 instructions:   77000000 cycles:   88387192 heartbeat IPC: 1.01932 cumulative IPC: 0.87117 (Simulation time: 0 hr 3 min 33 sec) 
Heartbeat CPU  0 instructions:   78000001 cycles:   89561299 heartbeat IPC: 0.85171 cumulative IPC: 0.87091 (Simulation time: 0 hr 3 min 35 sec) 
Heartbeat CPU  0 instructions:   79000003 cycles:   90737945 heartbeat IPC: 0.84987 cumulative IPC: 0.87064 (Simulation time: 0 hr 3 min 38 sec) 
Heartbeat CPU  0 instructions:   80000000 cycles:   91919941 heartbeat IPC: 0.84602 cumulative IPC: 0.87032 (Simulation time: 0 hr 3 min 41 sec) 
Heartbeat CPU  0 instructions:   81000003 cycles:   93084190 heartbeat IPC: 0.85893 cumulative IPC: 0.87018 (Simulation time: 0 hr 3 min 44 sec) 
Heartbeat CPU  0 instructions:   82000003 cycles:   94249830 heartbeat IPC: 0.85790 cumulative IPC: 0.87003 (Simulation time: 0 hr 3 min 47 sec) 
Heartbeat CPU  0 instructions:   83000003 cycles:   95406982 heartbeat IPC: 0.86419 cumulative IPC: 0.86996 (Simulation time: 0 hr 3 min 49 sec) 
Heartbeat CPU  0 instructions:   84000000 cycles:   96555654 heartbeat IPC: 0.87057 cumulative IPC: 0.86996 (Simulation time: 0 hr 3 min 52 sec) 
Heartbeat CPU  0 instructions:   85000001 cycles:   97706301 heartbeat IPC: 0.86908 cumulative IPC: 0.86995 (Simulation time: 0 hr 3 min 55 sec) 
Heartbeat CPU  0 instructions:   86000000 cycles:   98838649 heartbeat IPC: 0.88312 cumulative IPC: 0.87010 (Simulation time: 0 hr 3 min 58 sec) 
Heartbeat CPU  0 instructions:   87000001 cycles:   99990838 heartbeat IPC: 0.86791 cumulative IPC: 0.87008 (Simulation time: 0 hr 4 min 1 sec) 
Heartbeat CPU  0 instructions:   88000000 cycles:  101121470 heartbeat IPC: 0.88446 cumulative IPC: 0.87024 (Simulation time: 0 hr 4 min 3 sec) 
Heartbeat CPU  0 instructions:   89000000 cycles:  102277529 heartbeat IPC: 0.86501 cumulative IPC: 0.87018 (Simulation time: 0 hr 4 min 6 sec) 
Heartbeat CPU  0 instructions:   90000000 cycles:  103397001 heartbeat IPC: 0.89328 cumulative IPC: 0.87043 (Simulation time: 0 hr 4 min 9 sec) 
Heartbeat CPU  0 instructions:   91000003 cycles:  104511824 heartbeat IPC: 0.89701 cumulative IPC: 0.87071 (Simulation time: 0 hr 4 min 12 sec) 
Heartbeat CPU  0 instructions:   92000000 cycles:  105624842 heartbeat IPC: 0.89846 cumulative IPC: 0.87101 (Simulation time: 0 hr 4 min 14 sec) 
Heartbeat CPU  0 instructions:   93000002 cycles:  106737135 heartbeat IPC: 0.89905 cumulative IPC: 0.87130 (Simulation time: 0 hr 4 min 17 sec) 
Heartbeat CPU  0 instructions:   94000001 cycles:  107856595 heartbeat IPC: 0.89329 cumulative IPC: 0.87153 (Simulation time: 0 hr 4 min 20 sec) 
Heartbeat CPU  0 instructions:   95000001 cycles:  109002342 heartbeat IPC: 0.87279 cumulative IPC: 0.87154 (Simulation time: 0 hr 4 min 23 sec) 
Heartbeat CPU  0 instructions:   96000000 cycles:  110149978 heartbeat IPC: 0.87136 cumulative IPC: 0.87154 (Simulation time: 0 hr 4 min 26 sec) 
Heartbeat CPU  0 instructions:   97000000 cycles:  111296890 heartbeat IPC: 0.87191 cumulative IPC: 0.87154 (Simulation time: 0 hr 4 min 28 sec) 
Heartbeat CPU  0 instructions:   98000001 cycles:  112432696 heartbeat IPC: 0.88043 cumulative IPC: 0.87163 (Simulation time: 0 hr 4 min 31 sec) 
Heartbeat CPU  0 instructions:   99000000 cycles:  113584603 heartbeat IPC: 0.86812 cumulative IPC: 0.87160 (Simulation time: 0 hr 4 min 34 sec) 
Heartbeat CPU  0 instructions:  100000000 cycles:  114718753 heartbeat IPC: 0.88172 cumulative IPC: 0.87170 (Simulation time: 0 hr 4 min 37 sec) 

Warmup complete CPU  0 instructions:  100000002 cycles:  114718754 (Simulation time: 0 hr 4 min 37 sec) 

Heartbeat CPU  0 instructions:  101000000 cycles:  123945718 heartbeat IPC: 0.10838 cumulative IPC: 0.10838 (Simulation time: 0 hr 4 min 42 sec) 
Heartbeat CPU  0 instructions:  102000000 cycles:  133225458 heartbeat IPC: 0.10776 cumulative IPC: 0.10807 (Simulation time: 0 hr 4 min 48 sec) 
Heartbeat CPU  0 instructions:  103000000 cycles:  142633962 heartbeat IPC: 0.10629 cumulative IPC: 0.10747 (Simulation time: 0 hr 4 min 54 sec) 
Heartbeat CPU  0 instructions:  104000000 cycles:  152097450 heartbeat IPC: 0.10567 cumulative IPC: 0.10701 (Simulation time: 0 hr 4 min 59 sec) 
Heartbeat CPU  0 instructions:  105000000 cycles:  161653520 heartbeat IPC: 0.10465 cumulative IPC: 0.10653 (Simulation time: 0 hr 5 min 5 sec) 
Heartbeat CPU  0 instructions:  106000000 cycles:  171322220 heartbeat IPC: 0.10343 cumulative IPC: 0.10600 (Simulation time: 0 hr 5 min 10 sec) 
Heartbeat CPU  0 instructions:  107000001 cycles:  180804868 heartbeat IPC: 0.10546 cumulative IPC: 0.10592 (Simulation time: 0 hr 5 min 16 sec) 
Heartbeat CPU  0 instructions:  108000000 cycles:  190346962 heartbeat IPC: 0.10480 cumulative IPC: 0.10578 (Simulation time: 0 hr 5 min 21 sec) 
Heartbeat CPU  0 instructions:  109000000 cycles:  199741153 heartbeat IPC: 0.10645 cumulative IPC: 0.10585 (Simulation time: 0 hr 5 min 27 sec) 
Heartbeat CPU  0 instructions:  110000000 cycles:  209317092 heartbeat IPC: 0.10443 cumulative IPC: 0.10571 (Simulation time: 0 hr 5 min 33 sec) 
Heartbeat CPU  0 instructions:  111000001 cycles:  218867442 heartbeat IPC: 0.10471 cumulative IPC: 0.10562 (Simulation time: 0 hr 5 min 38 sec) 
Heartbeat CPU  0 instructions:  112000000 cycles:  228549203 heartbeat IPC: 0.10329 cumulative IPC: 0.10542 (Simulation time: 0 hr 5 min 44 sec) 
Heartbeat CPU  0 instructions:  113000000 cycles:  238025122 heartbeat IPC: 0.10553 cumulative IPC: 0.10543 (Simulation time: 0 hr 5 min 49 sec) 
Heartbeat CPU  0 instructions:  114000000 cycles:  247427186 heartbeat IPC: 0.10636 cumulative IPC: 0.10549 (Simulation time: 0 hr 5 min 55 sec) 
Heartbeat CPU  0 instructions:  115000001 cycles:  256967361 heartbeat IPC: 0.10482 cumulative IPC: 0.10545 (Simulation time: 0 hr 6 min 1 sec) 
Heartbeat CPU  0 instructions:  116000000 cycles:  266462659 heartbeat IPC: 0.10532 cumulative IPC: 0.10544 (Simulation time: 0 hr 6 min 6 sec) 
Heartbeat CPU  0 instructions:  117000000 cycles:  275998300 heartbeat IPC: 0.10487 cumulative IPC: 0.10541 (Simulation time: 0 hr 6 min 12 sec) 
Heartbeat CPU  0 instructions:  118000000 cycles:  285524064 heartbeat IPC: 0.10498 cumulative IPC: 0.10538 (Simulation time: 0 hr 6 min 17 sec) 
Heartbeat CPU  0 instructions:  119000002 cycles:  295067245 heartbeat IPC: 0.10479 cumulative IPC: 0.10535 (Simulation time: 0 hr 6 min 23 sec) 
Heartbeat CPU  0 instructions:  120000000 cycles:  304476593 heartbeat IPC: 0.10628 cumulative IPC: 0.10540 (Simulation time: 0 hr 6 min 29 sec) 
Heartbeat CPU  0 instructions:  121000000 cycles:  313873955 heartbeat IPC: 0.10641 cumulative IPC: 0.10545 (Simulation time: 0 hr 6 min 34 sec) 
Heartbeat CPU  0 instructions:  122000000 cycles:  323390275 heartbeat IPC: 0.10508 cumulative IPC: 0.10543 (Simulation time: 0 hr 6 min 40 sec) 
Heartbeat CPU  0 instructions:  123000000 cycles:  332757263 heartbeat IPC: 0.10676 cumulative IPC: 0.10549 (Simulation time: 0 hr 6 min 45 sec) 
Heartbeat CPU  0 instructions:  124000000 cycles:  342129941 heartbeat IPC: 0.10669 cumulative IPC: 0.10554 (Simulation time: 0 hr 6 min 51 sec) 
Heartbeat CPU  0 instructions:  125000000 cycles:  351473218 heartbeat IPC: 0.10703 cumulative IPC: 0.10559 (Simulation time: 0 hr 6 min 56 sec) 
Heartbeat CPU  0 instructions:  126000001 cycles:  360779291 heartbeat IPC: 0.10746 cumulative IPC: 0.10567 (Simulation time: 0 hr 7 min 2 sec) 
Heartbeat CPU  0 instructions:  127000001 cycles:  369861394 heartbeat IPC: 0.11011 cumulative IPC: 0.10582 (Simulation time: 0 hr 7 min 7 sec) 
Heartbeat CPU  0 instructions:  128000000 cycles:  378929876 heartbeat IPC: 0.11027 cumulative IPC: 0.10598 (Simulation time: 0 hr 7 min 13 sec) 
Heartbeat CPU  0 instructions:  129000002 cycles:  387950293 heartbeat IPC: 0.11086 cumulative IPC: 0.10614 (Simulation time: 0 hr 7 min 19 sec) 
Heartbeat CPU  0 instructions:  130000001 cycles:  397089005 heartbeat IPC: 0.10942 cumulative IPC: 0.10624 (Simulation time: 0 hr 7 min 24 sec) 
Heartbeat CPU  0 instructions:  131000001 cycles:  406246023 heartbeat IPC: 0.10921 cumulative IPC: 0.10634 (Simulation time: 0 hr 7 min 30 sec) 
Heartbeat CPU  0 instructions:  132000000 cycles:  415468873 heartbeat IPC: 0.10843 cumulative IPC: 0.10640 (Simulation time: 0 hr 7 min 35 sec) 
Heartbeat CPU  0 instructions:  133000000 cycles:  424738266 heartbeat IPC: 0.10788 cumulative IPC: 0.10644 (Simulation time: 0 hr 7 min 41 sec) 
Heartbeat CPU  0 instructions:  134000001 cycles:  433687485 heartbeat IPC: 0.11174 cumulative IPC: 0.10659 (Simulation time: 0 hr 7 min 46 sec) 
Heartbeat CPU  0 instructions:  135000000 cycles:  442790861 heartbeat IPC: 0.10985 cumulative IPC: 0.10668 (Simulation time: 0 hr 7 min 52 sec) 
Heartbeat CPU  0 instructions:  136000000 cycles:  452420325 heartbeat IPC: 0.10385 cumulative IPC: 0.10660 (Simulation time: 0 hr 7 min 58 sec) 
Heartbeat CPU  0 instructions:  137000000 cycles:  461826586 heartbeat IPC: 0.10631 cumulative IPC: 0.10660 (Simulation time: 0 hr 8 min 3 sec) 
Heartbeat CPU  0 instructions:  138000000 cycles:  471027812 heartbeat IPC: 0.10868 cumulative IPC: 0.10665 (Simulation time: 0 hr 8 min 9 sec) 
Heartbeat CPU  0 instructions:  139000000 cycles:  480416797 heartbeat IPC: 0.10651 cumulative IPC: 0.10665 (Simulation time: 0 hr 8 min 14 sec) 
Heartbeat CPU  0 instructions:  140000000 cycles:  489827460 heartbeat IPC: 0.10626 cumulative IPC: 0.10664 (Simulation time: 0 hr 8 min 20 sec) 
Heartbeat CPU  0 instructions:  141000000 cycles:  499233332 heartbeat IPC: 0.10632 cumulative IPC: 0.10663 (Simulation time: 0 hr 8 min 26 sec) 
Heartbeat CPU  0 instructions:  142000001 cycles:  508443713 heartbeat IPC: 0.10857 cumulative IPC: 0.10667 (Simulation time: 0 hr 8 min 31 sec) 
Heartbeat CPU  0 instructions:  143000003 cycles:  517618898 heartbeat IPC: 0.10899 cumulative IPC: 0.10673 (Simulation time: 0 hr 8 min 37 sec) 
Heartbeat CPU  0 instructions:  144000000 cycles:  526779378 heartbeat IPC: 0.10916 cumulative IPC: 0.10678 (Simulation time: 0 hr 8 min 42 sec) 
Heartbeat CPU  0 instructions:  145000000 cycles:  536037210 heartbeat IPC: 0.10802 cumulative IPC: 0.10681 (Simulation time: 0 hr 8 min 48 sec) 
Heartbeat CPU  0 instructions:  146000003 cycles:  545453833 heartbeat IPC: 0.10620 cumulative IPC: 0.10679 (Simulation time: 0 hr 8 min 53 sec) 
Heartbeat CPU  0 instructions:  147000002 cycles:  554756847 heartbeat IPC: 0.10749 cumulative IPC: 0.10681 (Simulation time: 0 hr 8 min 59 sec) 
Heartbeat CPU  0 instructions:  148000000 cycles:  564083701 heartbeat IPC: 0.10722 cumulative IPC: 0.10682 (Simulation time: 0 hr 9 min 5 sec) 
Heartbeat CPU  0 instructions:  149000000 cycles:  573584159 heartbeat IPC: 0.10526 cumulative IPC: 0.10679 (Simulation time: 0 hr 9 min 10 sec) 
Heartbeat CPU  0 instructions:  150000000 cycles:  583208522 heartbeat IPC: 0.10390 cumulative IPC: 0.10673 (Simulation time: 0 hr 9 min 16 sec) 
Heartbeat CPU  0 instructions:  151000002 cycles:  592785283 heartbeat IPC: 0.10442 cumulative IPC: 0.10668 (Simulation time: 0 hr 9 min 22 sec) 
Heartbeat CPU  0 instructions:  152000000 cycles:  602407628 heartbeat IPC: 0.10392 cumulative IPC: 0.10663 (Simulation time: 0 hr 9 min 27 sec) 
Heartbeat CPU  0 instructions:  153000000 cycles:  612784460 heartbeat IPC: 0.09637 cumulative IPC: 0.10641 (Simulation time: 0 hr 9 min 33 sec) 
Heartbeat CPU  0 instructions:  154000000 cycles:  622966765 heartbeat IPC: 0.09821 cumulative IPC: 0.10625 (Simulation time: 0 hr 9 min 39 sec) 
Heartbeat CPU  0 instructions:  155000000 cycles:  632419960 heartbeat IPC: 0.10578 cumulative IPC: 0.10624 (Simulation time: 0 hr 9 min 44 sec) 
Heartbeat CPU  0 instructions:  156000000 cycles:  641830791 heartbeat IPC: 0.10626 cumulative IPC: 0.10624 (Simulation time: 0 hr 9 min 50 sec) 
Heartbeat CPU  0 instructions:  157000000 cycles:  651372710 heartbeat IPC: 0.10480 cumulative IPC: 0.10621 (Simulation time: 0 hr 9 min 56 sec) 
Heartbeat CPU  0 instructions:  158000002 cycles:  660932599 heartbeat IPC: 0.10460 cumulative IPC: 0.10619 (Simulation time: 0 hr 10 min 1 sec) 
Heartbeat CPU  0 instructions:  159000000 cycles:  670488140 heartbeat IPC: 0.10465 cumulative IPC: 0.10616 (Simulation time: 0 hr 10 min 7 sec) 
Heartbeat CPU  0 instructions:  160000000 cycles:  680024214 heartbeat IPC: 0.10486 cumulative IPC: 0.10614 (Simulation time: 0 hr 10 min 13 sec) 
Heartbeat CPU  0 instructions:  161000001 cycles:  689615614 heartbeat IPC: 0.10426 cumulative IPC: 0.10611 (Simulation time: 0 hr 10 min 18 sec) 
Heartbeat CPU  0 instructions:  162000000 cycles:  699161789 heartbeat IPC: 0.10475 cumulative IPC: 0.10608 (Simulation time: 0 hr 10 min 24 sec) 
Heartbeat CPU  0 instructions:  163000002 cycles:  708633865 heartbeat IPC: 0.10557 cumulative IPC: 0.10608 (Simulation time: 0 hr 10 min 30 sec) 
Heartbeat CPU  0 instructions:  164000000 cycles:  718056249 heartbeat IPC: 0.10613 cumulative IPC: 0.10608 (Simulation time: 0 hr 10 min 35 sec) 
Heartbeat CPU  0 instructions:  165000001 cycles:  727496491 heartbeat IPC: 0.10593 cumulative IPC: 0.10607 (Simulation time: 0 hr 10 min 41 sec) 
Heartbeat CPU  0 instructions:  166000000 cycles:  736974577 heartbeat IPC: 0.10551 cumulative IPC: 0.10607 (Simulation time: 0 hr 10 min 46 sec) 
Heartbeat CPU  0 instructions:  167000000 cycles:  746550530 heartbeat IPC: 0.10443 cumulative IPC: 0.10604 (Simulation time: 0 hr 10 min 52 sec) 
Heartbeat CPU  0 instructions:  168000000 cycles:  755937282 heartbeat IPC: 0.10653 cumulative IPC: 0.10605 (Simulation time: 0 hr 10 min 58 sec) 
Heartbeat CPU  0 instructions:  169000000 cycles:  765337085 heartbeat IPC: 0.10639 cumulative IPC: 0.10605 (Simulation time: 0 hr 11 min 3 sec) 
Heartbeat CPU  0 instructions:  170000000 cycles:  774864289 heartbeat IPC: 0.10496 cumulative IPC: 0.10604 (Simulation time: 0 hr 11 min 9 sec) 
Heartbeat CPU  0 instructions:  171000000 cycles:  784416485 heartbeat IPC: 0.10469 cumulative IPC: 0.10602 (Simulation time: 0 hr 11 min 14 sec) 
Heartbeat CPU  0 instructions:  172000000 cycles:  793987112 heartbeat IPC: 0.10449 cumulative IPC: 0.10600 (Simulation time: 0 hr 11 min 20 sec) 
Heartbeat CPU  0 instructions:  173000000 cycles:  803462811 heartbeat IPC: 0.10553 cumulative IPC: 0.10599 (Simulation time: 0 hr 11 min 26 sec) 
Heartbeat CPU  0 instructions:  174000002 cycles:  812654955 heartbeat IPC: 0.10879 cumulative IPC: 0.10603 (Simulation time: 0 hr 11 min 31 sec) 
Heartbeat CPU  0 instructions:  175000001 cycles:  821975684 heartbeat IPC: 0.10729 cumulative IPC: 0.10604 (Simulation time: 0 hr 11 min 37 sec) 
Heartbeat CPU  0 instructions:  176000000 cycles:  831507633 heartbeat IPC: 0.10491 cumulative IPC: 0.10603 (Simulation time: 0 hr 11 min 43 sec) 
Heartbeat CPU  0 instructions:  177000002 cycles:  840910685 heartbeat IPC: 0.10635 cumulative IPC: 0.10603 (Simulation time: 0 hr 11 min 48 sec) 
Heartbeat CPU  0 instructions:  178000003 cycles:  850375449 heartbeat IPC: 0.10566 cumulative IPC: 0.10603 (Simulation time: 0 hr 11 min 54 sec) 
Heartbeat CPU  0 instructions:  179000001 cycles:  859662389 heartbeat IPC: 0.10768 cumulative IPC: 0.10605 (Simulation time: 0 hr 11 min 59 sec) 
Heartbeat CPU  0 instructions:  180000000 cycles:  869138565 heartbeat IPC: 0.10553 cumulative IPC: 0.10604 (Simulation time: 0 hr 12 min 5 sec) 
Heartbeat CPU  0 instructions:  181000002 cycles:  878641758 heartbeat IPC: 0.10523 cumulative IPC: 0.10603 (Simulation time: 0 hr 12 min 11 sec) 
Heartbeat CPU  0 instructions:  182000000 cycles:  888161714 heartbeat IPC: 0.10504 cumulative IPC: 0.10602 (Simulation time: 0 hr 12 min 16 sec) 
Heartbeat CPU  0 instructions:  183000002 cycles:  897702143 heartbeat IPC: 0.10482 cumulative IPC: 0.10600 (Simulation time: 0 hr 12 min 22 sec) 
Heartbeat CPU  0 instructions:  184000000 cycles:  907216006 heartbeat IPC: 0.10511 cumulative IPC: 0.10599 (Simulation time: 0 hr 12 min 27 sec) 
Heartbeat CPU  0 instructions:  185000001 cycles:  916716709 heartbeat IPC: 0.10526 cumulative IPC: 0.10599 (Simulation time: 0 hr 12 min 33 sec) 
Heartbeat CPU  0 instructions:  186000000 cycles:  926205070 heartbeat IPC: 0.10539 cumulative IPC: 0.10598 (Simulation time: 0 hr 12 min 39 sec) 
Heartbeat CPU  0 instructions:  187000000 cycles:  935783557 heartbeat IPC: 0.10440 cumulative IPC: 0.10596 (Simulation time: 0 hr 12 min 44 sec) 
Heartbeat CPU  0 instructions:  188000000 cycles:  945461957 heartbeat IPC: 0.10332 cumulative IPC: 0.10593 (Simulation time: 0 hr 12 min 50 sec) 
Heartbeat CPU  0 instructions:  189000000 cycles:  955080983 heartbeat IPC: 0.10396 cumulative IPC: 0.10591 (Simulation time: 0 hr 12 min 55 sec) 
Heartbeat CPU  0 instructions:  190000000 cycles:  964710427 heartbeat IPC: 0.10385 cumulative IPC: 0.10588 (Simulation time: 0 hr 13 min 1 sec) 
Heartbeat CPU  0 instructions:  191000000 cycles:  974251498 heartbeat IPC: 0.10481 cumulative IPC: 0.10587 (Simulation time: 0 hr 13 min 7 sec) 
Heartbeat CPU  0 instructions:  192000000 cycles:  983858641 heartbeat IPC: 0.10409 cumulative IPC: 0.10585 (Simulation time: 0 hr 13 min 12 sec) 
Heartbeat CPU  0 instructions:  193000001 cycles:  993373791 heartbeat IPC: 0.10510 cumulative IPC: 0.10584 (Simulation time: 0 hr 13 min 18 sec) 
Heartbeat CPU  0 instructions:  194000001 cycles: 1002868839 heartbeat IPC: 0.10532 cumulative IPC: 0.10584 (Simulation time: 0 hr 13 min 24 sec) 
Heartbeat CPU  0 instructions:  195000000 cycles: 1012543031 heartbeat IPC: 0.10337 cumulative IPC: 0.10581 (Simulation time: 0 hr 13 min 29 sec) 
Heartbeat CPU  0 instructions:  196000000 cycles: 1022229679 heartbeat IPC: 0.10323 cumulative IPC: 0.10578 (Simulation time: 0 hr 13 min 35 sec) 
Heartbeat CPU  0 instructions:  197000000 cycles: 1031920692 heartbeat IPC: 0.10319 cumulative IPC: 0.10576 (Simulation time: 0 hr 13 min 41 sec) 
Heartbeat CPU  0 instructions:  198000001 cycles: 1041458277 heartbeat IPC: 0.10485 cumulative IPC: 0.10575 (Simulation time: 0 hr 13 min 46 sec) 
Heartbeat CPU  0 instructions:  199000003 cycles: 1050887012 heartbeat IPC: 0.10606 cumulative IPC: 0.10575 (Simulation time: 0 hr 13 min 52 sec) 
Heartbeat CPU  0 instructions:  200000000 cycles: 1060505078 heartbeat IPC: 0.10397 cumulative IPC: 0.10573 (Simulation time: 0 hr 13 min 57 sec) 
Heartbeat CPU  0 instructions:  201000000 cycles: 1070083112 heartbeat IPC: 0.10441 cumulative IPC: 0.10572 (Simulation time: 0 hr 14 min 3 sec) 
Heartbeat CPU  0 instructions:  202000000 cycles: 1079423723 heartbeat IPC: 0.10706 cumulative IPC: 0.10573 (Simulation time: 0 hr 14 min 9 sec) 
Heartbeat CPU  0 instructions:  203000003 cycles: 1088732291 heartbeat IPC: 0.10743 cumulative IPC: 0.10575 (Simulation time: 0 hr 14 min 14 sec) 
Heartbeat CPU  0 instructions:  204000000 cycles: 1098041187 heartbeat IPC: 0.10742 cumulative IPC: 0.10576 (Simulation time: 0 hr 14 min 20 sec) 
Heartbeat CPU  0 instructions:  205000000 cycles: 1107314677 heartbeat IPC: 0.10783 cumulative IPC: 0.10578 (Simulation time: 0 hr 14 min 26 sec) 
Heartbeat CPU  0 instructions:  206000002 cycles: 1116756512 heartbeat IPC: 0.10591 cumulative IPC: 0.10578 (Simulation time: 0 hr 14 min 31 sec) 
Heartbeat CPU  0 instructions:  207000000 cycles: 1126288726 heartbeat IPC: 0.10491 cumulative IPC: 0.10578 (Simulation time: 0 hr 14 min 37 sec) 
Heartbeat CPU  0 instructions:  208000000 cycles: 1135661340 heartbeat IPC: 0.10669 cumulative IPC: 0.10578 (Simulation time: 0 hr 14 min 42 sec) 
Heartbeat CPU  0 instructions:  209000002 cycles: 1145029368 heartbeat IPC: 0.10675 cumulative IPC: 0.10579 (Simulation time: 0 hr 14 min 48 sec) 
Heartbeat CPU  0 instructions:  210000002 cycles: 1154432629 heartbeat IPC: 0.10635 cumulative IPC: 0.10580 (Simulation time: 0 hr 14 min 54 sec) 
Heartbeat CPU  0 instructions:  211000000 cycles: 1163738247 heartbeat IPC: 0.10746 cumulative IPC: 0.10581 (Simulation time: 0 hr 14 min 59 sec) 
Heartbeat CPU  0 instructions:  212000000 cycles: 1173160718 heartbeat IPC: 0.10613 cumulative IPC: 0.10582 (Simulation time: 0 hr 15 min 5 sec) 
Heartbeat CPU  0 instructions:  213000000 cycles: 1182563766 heartbeat IPC: 0.10635 cumulative IPC: 0.10582 (Simulation time: 0 hr 15 min 10 sec) 
Heartbeat CPU  0 instructions:  214000000 cycles: 1191791076 heartbeat IPC: 0.10837 cumulative IPC: 0.10584 (Simulation time: 0 hr 15 min 16 sec) 
Heartbeat CPU  0 instructions:  215000000 cycles: 1200898668 heartbeat IPC: 0.10980 cumulative IPC: 0.10588 (Simulation time: 0 hr 15 min 22 sec) 
Heartbeat CPU  0 instructions:  216000000 cycles: 1210281487 heartbeat IPC: 0.10658 cumulative IPC: 0.10588 (Simulation time: 0 hr 15 min 27 sec) 
Heartbeat CPU  0 instructions:  217000002 cycles: 1219551720 heartbeat IPC: 0.10787 cumulative IPC: 0.10590 (Simulation time: 0 hr 15 min 33 sec) 
Heartbeat CPU  0 instructions:  218000003 cycles: 1228770704 heartbeat IPC: 0.10847 cumulative IPC: 0.10592 (Simulation time: 0 hr 15 min 38 sec) 
Heartbeat CPU  0 instructions:  219000001 cycles: 1238274757 heartbeat IPC: 0.10522 cumulative IPC: 0.10591 (Simulation time: 0 hr 15 min 44 sec) 
Heartbeat CPU  0 instructions:  220000000 cycles: 1247642893 heartbeat IPC: 0.10674 cumulative IPC: 0.10592 (Simulation time: 0 hr 15 min 50 sec) 
Heartbeat CPU  0 instructions:  221000000 cycles: 1257038096 heartbeat IPC: 0.10644 cumulative IPC: 0.10592 (Simulation time: 0 hr 15 min 55 sec) 
Heartbeat CPU  0 instructions:  222000000 cycles: 1266498715 heartbeat IPC: 0.10570 cumulative IPC: 0.10592 (Simulation time: 0 hr 16 min 1 sec) 
Heartbeat CPU  0 instructions:  223000000 cycles: 1275795231 heartbeat IPC: 0.10757 cumulative IPC: 0.10594 (Simulation time: 0 hr 16 min 7 sec) 
Heartbeat CPU  0 instructions:  224000000 cycles: 1285041594 heartbeat IPC: 0.10815 cumulative IPC: 0.10595 (Simulation time: 0 hr 16 min 12 sec) 
Heartbeat CPU  0 instructions:  225000000 cycles: 1294341076 heartbeat IPC: 0.10753 cumulative IPC: 0.10597 (Simulation time: 0 hr 16 min 18 sec) 
Heartbeat CPU  0 instructions:  226000001 cycles: 1303700500 heartbeat IPC: 0.10684 cumulative IPC: 0.10597 (Simulation time: 0 hr 16 min 23 sec) 
Heartbeat CPU  0 instructions:  227000002 cycles: 1313101683 heartbeat IPC: 0.10637 cumulative IPC: 0.10598 (Simulation time: 0 hr 16 min 29 sec) 
Heartbeat CPU  0 instructions:  228000000 cycles: 1322363287 heartbeat IPC: 0.10797 cumulative IPC: 0.10599 (Simulation time: 0 hr 16 min 34 sec) 
Heartbeat CPU  0 instructions:  229000000 cycles: 1331663905 heartbeat IPC: 0.10752 cumulative IPC: 0.10600 (Simulation time: 0 hr 16 min 40 sec) 
Heartbeat CPU  0 instructions:  230000001 cycles: 1340815577 heartbeat IPC: 0.10927 cumulative IPC: 0.10603 (Simulation time: 0 hr 16 min 45 sec) 
Heartbeat CPU  0 instructions:  231000000 cycles: 1349985682 heartbeat IPC: 0.10905 cumulative IPC: 0.10605 (Simulation time: 0 hr 16 min 51 sec) 
Heartbeat CPU  0 instructions:  232000000 cycles: 1359057796 heartbeat IPC: 0.11023 cumulative IPC: 0.10608 (Simulation time: 0 hr 16 min 57 sec) 
Heartbeat CPU  0 instructions:  233000000 cycles: 1368344834 heartbeat IPC: 0.10768 cumulative IPC: 0.10609 (Simulation time: 0 hr 17 min 2 sec) 
Heartbeat CPU  0 instructions:  234000000 cycles: 1377510356 heartbeat IPC: 0.10910 cumulative IPC: 0.10611 (Simulation time: 0 hr 17 min 8 sec) 
Heartbeat CPU  0 instructions:  235000000 cycles: 1386780427 heartbeat IPC: 0.10787 cumulative IPC: 0.10613 (Simulation time: 0 hr 17 min 13 sec) 
Heartbeat CPU  0 instructions:  236000000 cycles: 1396032572 heartbeat IPC: 0.10808 cumulative IPC: 0.10614 (Simulation time: 0 hr 17 min 19 sec) 
Heartbeat CPU  0 instructions:  237000001 cycles: 1405285960 heartbeat IPC: 0.10807 cumulative IPC: 0.10615 (Simulation time: 0 hr 17 min 24 sec) 
Heartbeat CPU  0 instructions:  238000000 cycles: 1414560988 heartbeat IPC: 0.10782 cumulative IPC: 0.10617 (Simulation time: 0 hr 17 min 30 sec) 
Heartbeat CPU  0 instructions:  239000002 cycles: 1423837565 heartbeat IPC: 0.10780 cumulative IPC: 0.10618 (Simulation time: 0 hr 17 min 36 sec) 
Heartbeat CPU  0 instructions:  240000000 cycles: 1433197986 heartbeat IPC: 0.10683 cumulative IPC: 0.10618 (Simulation time: 0 hr 17 min 42 sec) 
Heartbeat CPU  0 instructions:  241000000 cycles: 1442415721 heartbeat IPC: 0.10849 cumulative IPC: 0.10620 (Simulation time: 0 hr 17 min 47 sec) 
Heartbeat CPU  0 instructions:  242000000 cycles: 1451852225 heartbeat IPC: 0.10597 cumulative IPC: 0.10620 (Simulation time: 0 hr 17 min 53 sec) 
Heartbeat CPU  0 instructions:  243000001 cycles: 1461293765 heartbeat IPC: 0.10592 cumulative IPC: 0.10620 (Simulation time: 0 hr 17 min 59 sec) 
Heartbeat CPU  0 instructions:  244000000 cycles: 1470834482 heartbeat IPC: 0.10481 cumulative IPC: 0.10619 (Simulation time: 0 hr 18 min 4 sec) 
Heartbeat CPU  0 instructions:  245000000 cycles: 1480340561 heartbeat IPC: 0.10520 cumulative IPC: 0.10618 (Simulation time: 0 hr 18 min 10 sec) 
Heartbeat CPU  0 instructions:  246000000 cycles: 1489828941 heartbeat IPC: 0.10539 cumulative IPC: 0.10617 (Simulation time: 0 hr 18 min 16 sec) 
Heartbeat CPU  0 instructions:  247000000 cycles: 1499277433 heartbeat IPC: 0.10584 cumulative IPC: 0.10617 (Simulation time: 0 hr 18 min 21 sec) 
Heartbeat CPU  0 instructions:  248000000 cycles: 1508668607 heartbeat IPC: 0.10648 cumulative IPC: 0.10617 (Simulation time: 0 hr 18 min 27 sec) 
Heartbeat CPU  0 instructions:  249000003 cycles: 1518197224 heartbeat IPC: 0.10495 cumulative IPC: 0.10616 (Simulation time: 0 hr 18 min 32 sec) 
Heartbeat CPU  0 instructions:  250000002 cycles: 1527598088 heartbeat IPC: 0.10637 cumulative IPC: 0.10617 (Simulation time: 0 hr 18 min 38 sec) 
Heartbeat CPU  0 instructions:  251000000 cycles: 1537093998 heartbeat IPC: 0.10531 cumulative IPC: 0.10616 (Simulation time: 0 hr 18 min 44 sec) 
Heartbeat CPU  0 instructions:  252000000 cycles: 1546640637 heartbeat IPC: 0.10475 cumulative IPC: 0.10615 (Simulation time: 0 hr 18 min 49 sec) 
Heartbeat CPU  0 instructions:  253000000 cycles: 1556144004 heartbeat IPC: 0.10523 cumulative IPC: 0.10614 (Simulation time: 0 hr 18 min 55 sec) 
Heartbeat CPU  0 instructions:  254000000 cycles: 1565861818 heartbeat IPC: 0.10290 cumulative IPC: 0.10612 (Simulation time: 0 hr 19 min 1 sec) 
Heartbeat CPU  0 instructions:  255000002 cycles: 1575388974 heartbeat IPC: 0.10496 cumulative IPC: 0.10612 (Simulation time: 0 hr 19 min 6 sec) 
Heartbeat CPU  0 instructions:  256000000 cycles: 1584815768 heartbeat IPC: 0.10608 cumulative IPC: 0.10612 (Simulation time: 0 hr 19 min 12 sec) 
Heartbeat CPU  0 instructions:  257000000 cycles: 1594309839 heartbeat IPC: 0.10533 cumulative IPC: 0.10611 (Simulation time: 0 hr 19 min 17 sec) 
Heartbeat CPU  0 instructions:  258000002 cycles: 1603846391 heartbeat IPC: 0.10486 cumulative IPC: 0.10610 (Simulation time: 0 hr 19 min 23 sec) 
Heartbeat CPU  0 instructions:  259000001 cycles: 1613454786 heartbeat IPC: 0.10408 cumulative IPC: 0.10609 (Simulation time: 0 hr 19 min 29 sec) 
Heartbeat CPU  0 instructions:  260000000 cycles: 1622947827 heartbeat IPC: 0.10534 cumulative IPC: 0.10608 (Simulation time: 0 hr 19 min 34 sec) 
Heartbeat CPU  0 instructions:  261000002 cycles: 1632433483 heartbeat IPC: 0.10542 cumulative IPC: 0.10608 (Simulation time: 0 hr 19 min 40 sec) 
Heartbeat CPU  0 instructions:  262000003 cycles: 1642044504 heartbeat IPC: 0.10405 cumulative IPC: 0.10607 (Simulation time: 0 hr 19 min 46 sec) 
Heartbeat CPU  0 instructions:  263000000 cycles: 1651651785 heartbeat IPC: 0.10409 cumulative IPC: 0.10606 (Simulation time: 0 hr 19 min 51 sec) 
Heartbeat CPU  0 instructions:  264000000 cycles: 1661256120 heartbeat IPC: 0.10412 cumulative IPC: 0.10604 (Simulation time: 0 hr 19 min 57 sec) 
Heartbeat CPU  0 instructions:  265000000 cycles: 1670640995 heartbeat IPC: 0.10655 cumulative IPC: 0.10605 (Simulation time: 0 hr 20 min 2 sec) 
Heartbeat CPU  0 instructions:  266000000 cycles: 1681514359 heartbeat IPC: 0.09197 cumulative IPC: 0.10595 (Simulation time: 0 hr 20 min 8 sec) 
Heartbeat CPU  0 instructions:  267000003 cycles: 1691612313 heartbeat IPC: 0.09903 cumulative IPC: 0.10590 (Simulation time: 0 hr 20 min 14 sec) 
Heartbeat CPU  0 instructions:  268000000 cycles: 1701318449 heartbeat IPC: 0.10303 cumulative IPC: 0.10589 (Simulation time: 0 hr 20 min 20 sec) 
Heartbeat CPU  0 instructions:  269000000 cycles: 1710972873 heartbeat IPC: 0.10358 cumulative IPC: 0.10587 (Simulation time: 0 hr 20 min 25 sec) 
Heartbeat CPU  0 instructions:  270000000 cycles: 1720606986 heartbeat IPC: 0.10380 cumulative IPC: 0.10586 (Simulation time: 0 hr 20 min 31 sec) 
Heartbeat CPU  0 instructions:  271000001 cycles: 1730256964 heartbeat IPC: 0.10363 cumulative IPC: 0.10585 (Simulation time: 0 hr 20 min 36 sec) 
Heartbeat CPU  0 instructions:  272000000 cycles: 1739823917 heartbeat IPC: 0.10453 cumulative IPC: 0.10584 (Simulation time: 0 hr 20 min 42 sec) 
Heartbeat CPU  0 instructions:  273000000 cycles: 1749327913 heartbeat IPC: 0.10522 cumulative IPC: 0.10584 (Simulation time: 0 hr 20 min 48 sec) 
Heartbeat CPU  0 instructions:  274000000 cycles: 1758773929 heartbeat IPC: 0.10586 cumulative IPC: 0.10584 (Simulation time: 0 hr 20 min 53 sec) 
Heartbeat CPU  0 instructions:  275000001 cycles: 1768075075 heartbeat IPC: 0.10751 cumulative IPC: 0.10585 (Simulation time: 0 hr 20 min 59 sec) 
Heartbeat CPU  0 instructions:  276000000 cycles: 1777347354 heartbeat IPC: 0.10785 cumulative IPC: 0.10586 (Simulation time: 0 hr 21 min 4 sec) 
Heartbeat CPU  0 instructions:  277000001 cycles: 1786906305 heartbeat IPC: 0.10461 cumulative IPC: 0.10585 (Simulation time: 0 hr 21 min 10 sec) 
Heartbeat CPU  0 instructions:  278000000 cycles: 1796404198 heartbeat IPC: 0.10529 cumulative IPC: 0.10585 (Simulation time: 0 hr 21 min 16 sec) 
Heartbeat CPU  0 instructions:  279000003 cycles: 1805929962 heartbeat IPC: 0.10498 cumulative IPC: 0.10584 (Simulation time: 0 hr 21 min 21 sec) 
Heartbeat CPU  0 instructions:  280000000 cycles: 1815418639 heartbeat IPC: 0.10539 cumulative IPC: 0.10584 (Simulation time: 0 hr 21 min 27 sec) 
Heartbeat CPU  0 instructions:  281000001 cycles: 1824842729 heartbeat IPC: 0.10611 cumulative IPC: 0.10584 (Simulation time: 0 hr 21 min 32 sec) 
Heartbeat CPU  0 instructions:  282000000 cycles: 1834286911 heartbeat IPC: 0.10589 cumulative IPC: 0.10584 (Simulation time: 0 hr 21 min 38 sec) 
Heartbeat CPU  0 instructions:  283000000 cycles: 1843747288 heartbeat IPC: 0.10570 cumulative IPC: 0.10584 (Simulation time: 0 hr 21 min 43 sec) 
Heartbeat CPU  0 instructions:  284000000 cycles: 1853278133 heartbeat IPC: 0.10492 cumulative IPC: 0.10583 (Simulation time: 0 hr 21 min 49 sec) 
Heartbeat CPU  0 instructions:  285000001 cycles: 1862635416 heartbeat IPC: 0.10687 cumulative IPC: 0.10584 (Simulation time: 0 hr 21 min 55 sec) 
Heartbeat CPU  0 instructions:  286000001 cycles: 1871978851 heartbeat IPC: 0.10703 cumulative IPC: 0.10585 (Simulation time: 0 hr 22 min 0 sec) 
Heartbeat CPU  0 instructions:  287000002 cycles: 1881481429 heartbeat IPC: 0.10523 cumulative IPC: 0.10584 (Simulation time: 0 hr 22 min 6 sec) 
Heartbeat CPU  0 instructions:  288000000 cycles: 1891100428 heartbeat IPC: 0.10396 cumulative IPC: 0.10583 (Simulation time: 0 hr 22 min 12 sec) 
Heartbeat CPU  0 instructions:  289000001 cycles: 1900693576 heartbeat IPC: 0.10424 cumulative IPC: 0.10582 (Simulation time: 0 hr 22 min 17 sec) 
Heartbeat CPU  0 instructions:  290000001 cycles: 1910209262 heartbeat IPC: 0.10509 cumulative IPC: 0.10582 (Simulation time: 0 hr 22 min 23 sec) 
Heartbeat CPU  0 instructions:  291000000 cycles: 1919687077 heartbeat IPC: 0.10551 cumulative IPC: 0.10582 (Simulation time: 0 hr 22 min 28 sec) 
Heartbeat CPU  0 instructions:  292000000 cycles: 1929193133 heartbeat IPC: 0.10520 cumulative IPC: 0.10582 (Simulation time: 0 hr 22 min 34 sec) 
Heartbeat CPU  0 instructions:  293000000 cycles: 1938634264 heartbeat IPC: 0.10592 cumulative IPC: 0.10582 (Simulation time: 0 hr 22 min 40 sec) 
Heartbeat CPU  0 instructions:  294000002 cycles: 1947889662 heartbeat IPC: 0.10805 cumulative IPC: 0.10583 (Simulation time: 0 hr 22 min 45 sec) 
Heartbeat CPU  0 instructions:  295000000 cycles: 1957094763 heartbeat IPC: 0.10864 cumulative IPC: 0.10584 (Simulation time: 0 hr 22 min 51 sec) 
Heartbeat CPU  0 instructions:  296000000 cycles: 1966322840 heartbeat IPC: 0.10836 cumulative IPC: 0.10585 (Simulation time: 0 hr 22 min 56 sec) 
Heartbeat CPU  0 instructions:  297000000 cycles: 1975663296 heartbeat IPC: 0.10706 cumulative IPC: 0.10586 (Simulation time: 0 hr 23 min 2 sec) 
Heartbeat CPU  0 instructions:  298000002 cycles: 1985107546 heartbeat IPC: 0.10588 cumulative IPC: 0.10586 (Simulation time: 0 hr 23 min 8 sec) 
Heartbeat CPU  0 instructions:  299000001 cycles: 1994618477 heartbeat IPC: 0.10514 cumulative IPC: 0.10586 (Simulation time: 0 hr 23 min 13 sec) 
Heartbeat CPU  0 instructions:  300000000 cycles: 2004166926 heartbeat IPC: 0.10473 cumulative IPC: 0.10585 (Simulation time: 0 hr 23 min 19 sec) 
Heartbeat CPU  0 instructions:  301000000 cycles: 2013686454 heartbeat IPC: 0.10505 cumulative IPC: 0.10585 (Simulation time: 0 hr 23 min 24 sec) 
Heartbeat CPU  0 instructions:  302000000 cycles: 2023262433 heartbeat IPC: 0.10443 cumulative IPC: 0.10584 (Simulation time: 0 hr 23 min 30 sec) 
Heartbeat CPU  0 instructions:  303000000 cycles: 2032768563 heartbeat IPC: 0.10520 cumulative IPC: 0.10584 (Simulation time: 0 hr 23 min 36 sec) 
Heartbeat CPU  0 instructions:  304000000 cycles: 2042227512 heartbeat IPC: 0.10572 cumulative IPC: 0.10584 (Simulation time: 0 hr 23 min 41 sec) 
Heartbeat CPU  0 instructions:  305000003 cycles: 2051657450 heartbeat IPC: 0.10605 cumulative IPC: 0.10584 (Simulation time: 0 hr 23 min 47 sec) 
Heartbeat CPU  0 instructions:  306000000 cycles: 2061050099 heartbeat IPC: 0.10647 cumulative IPC: 0.10584 (Simulation time: 0 hr 23 min 52 sec) 
Heartbeat CPU  0 instructions:  307000000 cycles: 2070572549 heartbeat IPC: 0.10501 cumulative IPC: 0.10584 (Simulation time: 0 hr 23 min 58 sec) 
Heartbeat CPU  0 instructions:  308000000 cycles: 2080101702 heartbeat IPC: 0.10494 cumulative IPC: 0.10583 (Simulation time: 0 hr 24 min 4 sec) 
Heartbeat CPU  0 instructions:  309000000 cycles: 2089680846 heartbeat IPC: 0.10439 cumulative IPC: 0.10582 (Simulation time: 0 hr 24 min 9 sec) 
Heartbeat CPU  0 instructions:  310000001 cycles: 2099283699 heartbeat IPC: 0.10414 cumulative IPC: 0.10582 (Simulation time: 0 hr 24 min 15 sec) 
Heartbeat CPU  0 instructions:  311000000 cycles: 2108923056 heartbeat IPC: 0.10374 cumulative IPC: 0.10581 (Simulation time: 0 hr 24 min 21 sec) 
Heartbeat CPU  0 instructions:  312000000 cycles: 2118721058 heartbeat IPC: 0.10206 cumulative IPC: 0.10579 (Simulation time: 0 hr 24 min 26 sec) 
Heartbeat CPU  0 instructions:  313000000 cycles: 2128489442 heartbeat IPC: 0.10237 cumulative IPC: 0.10577 (Simulation time: 0 hr 24 min 32 sec) 
Heartbeat CPU  0 instructions:  314000002 cycles: 2138199832 heartbeat IPC: 0.10298 cumulative IPC: 0.10576 (Simulation time: 0 hr 24 min 38 sec) 
Heartbeat CPU  0 instructions:  315000000 cycles: 2147771075 heartbeat IPC: 0.10448 cumulative IPC: 0.10575 (Simulation time: 0 hr 24 min 43 sec) 
Heartbeat CPU  0 instructions:  316000000 cycles: 2157167419 heartbeat IPC: 0.10642 cumulative IPC: 0.10576 (Simulation time: 0 hr 24 min 49 sec) 
Heartbeat CPU  0 instructions:  317000001 cycles: 2166709385 heartbeat IPC: 0.10480 cumulative IPC: 0.10575 (Simulation time: 0 hr 24 min 55 sec) 
Heartbeat CPU  0 instructions:  318000003 cycles: 2176299237 heartbeat IPC: 0.10428 cumulative IPC: 0.10574 (Simulation time: 0 hr 25 min 0 sec) 
Heartbeat CPU  0 instructions:  319000001 cycles: 2186067624 heartbeat IPC: 0.10237 cumulative IPC: 0.10573 (Simulation time: 0 hr 25 min 6 sec) 
Heartbeat CPU  0 instructions:  320000000 cycles: 2195903780 heartbeat IPC: 0.10167 cumulative IPC: 0.10571 (Simulation time: 0 hr 25 min 12 sec) 
Heartbeat CPU  0 instructions:  321000000 cycles: 2205844155 heartbeat IPC: 0.10060 cumulative IPC: 0.10568 (Simulation time: 0 hr 25 min 17 sec) 
Heartbeat CPU  0 instructions:  322000001 cycles: 2215661401 heartbeat IPC: 0.10186 cumulative IPC: 0.10567 (Simulation time: 0 hr 25 min 23 sec) 
Heartbeat CPU  0 instructions:  323000003 cycles: 2225734959 heartbeat IPC: 0.09927 cumulative IPC: 0.10564 (Simulation time: 0 hr 25 min 29 sec) 
Heartbeat CPU  0 instructions:  324000000 cycles: 2235804437 heartbeat IPC: 0.09931 cumulative IPC: 0.10561 (Simulation time: 0 hr 25 min 35 sec) 
Heartbeat CPU  0 instructions:  325000000 cycles: 2245756757 heartbeat IPC: 0.10048 cumulative IPC: 0.10558 (Simulation time: 0 hr 25 min 40 sec) 
Heartbeat CPU  0 instructions:  326000000 cycles: 2255719073 heartbeat IPC: 0.10038 cumulative IPC: 0.10556 (Simulation time: 0 hr 25 min 46 sec) 
Heartbeat CPU  0 instructions:  327000000 cycles: 2265386523 heartbeat IPC: 0.10344 cumulative IPC: 0.10555 (Simulation time: 0 hr 25 min 52 sec) 
Heartbeat CPU  0 instructions:  328000000 cycles: 2274872869 heartbeat IPC: 0.10541 cumulative IPC: 0.10555 (Simulation time: 0 hr 25 min 57 sec) 
Heartbeat CPU  0 instructions:  329000000 cycles: 2284424804 heartbeat IPC: 0.10469 cumulative IPC: 0.10554 (Simulation time: 0 hr 26 min 3 sec) 
Heartbeat CPU  0 instructions:  330000000 cycles: 2294024054 heartbeat IPC: 0.10417 cumulative IPC: 0.10554 (Simulation time: 0 hr 26 min 9 sec) 
Heartbeat CPU  0 instructions:  331000000 cycles: 2303548513 heartbeat IPC: 0.10499 cumulative IPC: 0.10554 (Simulation time: 0 hr 26 min 14 sec) 
Heartbeat CPU  0 instructions:  332000000 cycles: 2312859053 heartbeat IPC: 0.10741 cumulative IPC: 0.10554 (Simulation time: 0 hr 26 min 20 sec) 
Heartbeat CPU  0 instructions:  333000000 cycles: 2322359373 heartbeat IPC: 0.10526 cumulative IPC: 0.10554 (Simulation time: 0 hr 26 min 25 sec) 
Heartbeat CPU  0 instructions:  334000001 cycles: 2331658707 heartbeat IPC: 0.10753 cumulative IPC: 0.10555 (Simulation time: 0 hr 26 min 31 sec) 
Heartbeat CPU  0 instructions:  335000000 cycles: 2341146847 heartbeat IPC: 0.10539 cumulative IPC: 0.10555 (Simulation time: 0 hr 26 min 37 sec) 
Heartbeat CPU  0 instructions:  336000000 cycles: 2350628486 heartbeat IPC: 0.10547 cumulative IPC: 0.10555 (Simulation time: 0 hr 26 min 42 sec) 
Heartbeat CPU  0 instructions:  337000002 cycles: 2360089902 heartbeat IPC: 0.10569 cumulative IPC: 0.10555 (Simulation time: 0 hr 26 min 48 sec) 
Heartbeat CPU  0 instructions:  338000002 cycles: 2369381403 heartbeat IPC: 0.10763 cumulative IPC: 0.10556 (Simulation time: 0 hr 26 min 54 sec) 
Heartbeat CPU  0 instructions:  339000000 cycles: 2378825752 heartbeat IPC: 0.10588 cumulative IPC: 0.10556 (Simulation time: 0 hr 26 min 59 sec) 
Heartbeat CPU  0 instructions:  340000000 cycles: 2388298226 heartbeat IPC: 0.10557 cumulative IPC: 0.10556 (Simulation time: 0 hr 27 min 5 sec) 
Heartbeat CPU  0 instructions:  341000001 cycles: 2397688490 heartbeat IPC: 0.10649 cumulative IPC: 0.10556 (Simulation time: 0 hr 27 min 10 sec) 
Heartbeat CPU  0 instructions:  342000000 cycles: 2407064824 heartbeat IPC: 0.10665 cumulative IPC: 0.10557 (Simulation time: 0 hr 27 min 16 sec) 
Heartbeat CPU  0 instructions:  343000000 cycles: 2416538345 heartbeat IPC: 0.10556 cumulative IPC: 0.10557 (Simulation time: 0 hr 27 min 22 sec) 
Heartbeat CPU  0 instructions:  344000000 cycles: 2426022445 heartbeat IPC: 0.10544 cumulative IPC: 0.10557 (Simulation time: 0 hr 27 min 27 sec) 
Heartbeat CPU  0 instructions:  345000000 cycles: 2435339737 heartbeat IPC: 0.10733 cumulative IPC: 0.10558 (Simulation time: 0 hr 27 min 33 sec) 
Heartbeat CPU  0 instructions:  346000000 cycles: 2444710611 heartbeat IPC: 0.10671 cumulative IPC: 0.10558 (Simulation time: 0 hr 27 min 39 sec) 
Heartbeat CPU  0 instructions:  347000001 cycles: 2454276984 heartbeat IPC: 0.10453 cumulative IPC: 0.10558 (Simulation time: 0 hr 27 min 44 sec) 
Heartbeat CPU  0 instructions:  348000000 cycles: 2463845665 heartbeat IPC: 0.10451 cumulative IPC: 0.10557 (Simulation time: 0 hr 27 min 50 sec) 
Heartbeat CPU  0 instructions:  349000000 cycles: 2473328912 heartbeat IPC: 0.10545 cumulative IPC: 0.10557 (Simulation time: 0 hr 27 min 55 sec) 
Heartbeat CPU  0 instructions:  350000000 cycles: 2482808740 heartbeat IPC: 0.10549 cumulative IPC: 0.10557 (Simulation time: 0 hr 28 min 1 sec) 
Heartbeat CPU  0 instructions:  351000000 cycles: 2492224859 heartbeat IPC: 0.10620 cumulative IPC: 0.10557 (Simulation time: 0 hr 28 min 7 sec) 
Heartbeat CPU  0 instructions:  352000000 cycles: 2501565582 heartbeat IPC: 0.10706 cumulative IPC: 0.10558 (Simulation time: 0 hr 28 min 12 sec) 
Heartbeat CPU  0 instructions:  353000000 cycles: 2510827347 heartbeat IPC: 0.10797 cumulative IPC: 0.10559 (Simulation time: 0 hr 28 min 18 sec) 
Heartbeat CPU  0 instructions:  354000001 cycles: 2520161240 heartbeat IPC: 0.10714 cumulative IPC: 0.10559 (Simulation time: 0 hr 28 min 23 sec) 
Heartbeat CPU  0 instructions:  355000000 cycles: 2529441540 heartbeat IPC: 0.10776 cumulative IPC: 0.10560 (Simulation time: 0 hr 28 min 29 sec) 
Heartbeat CPU  0 instructions:  356000000 cycles: 2538539437 heartbeat IPC: 0.10992 cumulative IPC: 0.10562 (Simulation time: 0 hr 28 min 35 sec) 
Heartbeat CPU  0 instructions:  357000003 cycles: 2547806840 heartbeat IPC: 0.10791 cumulative IPC: 0.10563 (Simulation time: 0 hr 28 min 40 sec) 
Heartbeat CPU  0 instructions:  358000000 cycles: 2557166949 heartbeat IPC: 0.10684 cumulative IPC: 0.10563 (Simulation time: 0 hr 28 min 46 sec) 
Heartbeat CPU  0 instructions:  359000000 cycles: 2566516475 heartbeat IPC: 0.10696 cumulative IPC: 0.10564 (Simulation time: 0 hr 28 min 51 sec) 
Heartbeat CPU  0 instructions:  360000000 cycles: 2575747298 heartbeat IPC: 0.10833 cumulative IPC: 0.10565 (Simulation time: 0 hr 28 min 57 sec) 
Heartbeat CPU  0 instructions:  361000000 cycles: 2585052337 heartbeat IPC: 0.10747 cumulative IPC: 0.10565 (Simulation time: 0 hr 29 min 2 sec) 
Heartbeat CPU  0 instructions:  362000000 cycles: 2594445641 heartbeat IPC: 0.10646 cumulative IPC: 0.10566 (Simulation time: 0 hr 29 min 8 sec) 
Heartbeat CPU  0 instructions:  363000000 cycles: 2603877420 heartbeat IPC: 0.10602 cumulative IPC: 0.10566 (Simulation time: 0 hr 29 min 14 sec) 
Heartbeat CPU  0 instructions:  364000000 cycles: 2613326395 heartbeat IPC: 0.10583 cumulative IPC: 0.10566 (Simulation time: 0 hr 29 min 19 sec) 
Heartbeat CPU  0 instructions:  365000002 cycles: 2622646003 heartbeat IPC: 0.10730 cumulative IPC: 0.10566 (Simulation time: 0 hr 29 min 25 sec) 
Heartbeat CPU  0 instructions:  366000000 cycles: 2632279848 heartbeat IPC: 0.10380 cumulative IPC: 0.10566 (Simulation time: 0 hr 29 min 31 sec) 
Heartbeat CPU  0 instructions:  367000000 cycles: 2641863793 heartbeat IPC: 0.10434 cumulative IPC: 0.10565 (Simulation time: 0 hr 29 min 36 sec) 
Heartbeat CPU  0 instructions:  368000000 cycles: 2651474688 heartbeat IPC: 0.10405 cumulative IPC: 0.10565 (Simulation time: 0 hr 29 min 42 sec) 
Heartbeat CPU  0 instructions:  369000001 cycles: 2660787355 heartbeat IPC: 0.10738 cumulative IPC: 0.10565 (Simulation time: 0 hr 29 min 47 sec) 
Heartbeat CPU  0 instructions:  370000002 cycles: 2670318755 heartbeat IPC: 0.10492 cumulative IPC: 0.10565 (Simulation time: 0 hr 29 min 53 sec) 
Heartbeat CPU  0 instructions:  371000002 cycles: 2679894392 heartbeat IPC: 0.10443 cumulative IPC: 0.10565 (Simulation time: 0 hr 29 min 59 sec) 
Heartbeat CPU  0 instructions:  372000000 cycles: 2689735285 heartbeat IPC: 0.10162 cumulative IPC: 0.10563 (Simulation time: 0 hr 30 min 4 sec) 
Heartbeat CPU  0 instructions:  373000000 cycles: 2699257015 heartbeat IPC: 0.10502 cumulative IPC: 0.10563 (Simulation time: 0 hr 30 min 10 sec) 
Heartbeat CPU  0 instructions:  374000002 cycles: 2708845124 heartbeat IPC: 0.10430 cumulative IPC: 0.10562 (Simulation time: 0 hr 30 min 16 sec) 
Heartbeat CPU  0 instructions:  375000000 cycles: 2718339176 heartbeat IPC: 0.10533 cumulative IPC: 0.10562 (Simulation time: 0 hr 30 min 21 sec) 
Heartbeat CPU  0 instructions:  376000000 cycles: 2727766181 heartbeat IPC: 0.10608 cumulative IPC: 0.10562 (Simulation time: 0 hr 30 min 27 sec) 
Heartbeat CPU  0 instructions:  377000001 cycles: 2737217628 heartbeat IPC: 0.10580 cumulative IPC: 0.10562 (Simulation time: 0 hr 30 min 32 sec) 
Heartbeat CPU  0 instructions:  378000003 cycles: 2746689687 heartbeat IPC: 0.10557 cumulative IPC: 0.10562 (Simulation time: 0 hr 30 min 38 sec) 
Heartbeat CPU  0 instructions:  379000001 cycles: 2756258538 heartbeat IPC: 0.10451 cumulative IPC: 0.10562 (Simulation time: 0 hr 30 min 44 sec) 
Heartbeat CPU  0 instructions:  380000000 cycles: 2765690332 heartbeat IPC: 0.10602 cumulative IPC: 0.10562 (Simulation time: 0 hr 30 min 49 sec) 
Heartbeat CPU  0 instructions:  381000000 cycles: 2775135748 heartbeat IPC: 0.10587 cumulative IPC: 0.10562 (Simulation time: 0 hr 30 min 55 sec) 
Heartbeat CPU  0 instructions:  382000000 cycles: 2784484719 heartbeat IPC: 0.10696 cumulative IPC: 0.10563 (Simulation time: 0 hr 31 min 0 sec) 
Heartbeat CPU  0 instructions:  383000001 cycles: 2793966479 heartbeat IPC: 0.10547 cumulative IPC: 0.10563 (Simulation time: 0 hr 31 min 6 sec) 
Heartbeat CPU  0 instructions:  384000000 cycles: 2803372065 heartbeat IPC: 0.10632 cumulative IPC: 0.10563 (Simulation time: 0 hr 31 min 12 sec) 
Heartbeat CPU  0 instructions:  385000002 cycles: 2812907508 heartbeat IPC: 0.10487 cumulative IPC: 0.10563 (Simulation time: 0 hr 31 min 17 sec) 
Heartbeat CPU  0 instructions:  386000000 cycles: 2822582946 heartbeat IPC: 0.10335 cumulative IPC: 0.10562 (Simulation time: 0 hr 31 min 23 sec) 
Heartbeat CPU  0 instructions:  387000000 cycles: 2832092860 heartbeat IPC: 0.10515 cumulative IPC: 0.10562 (Simulation time: 0 hr 31 min 29 sec) 
Heartbeat CPU  0 instructions:  388000000 cycles: 2841598854 heartbeat IPC: 0.10520 cumulative IPC: 0.10562 (Simulation time: 0 hr 31 min 34 sec) 
Heartbeat CPU  0 instructions:  389000000 cycles: 2851152512 heartbeat IPC: 0.10467 cumulative IPC: 0.10561 (Simulation time: 0 hr 31 min 40 sec) 
Heartbeat CPU  0 instructions:  390000000 cycles: 2860627626 heartbeat IPC: 0.10554 cumulative IPC: 0.10561 (Simulation time: 0 hr 31 min 45 sec) 
Heartbeat CPU  0 instructions:  391000000 cycles: 2870194956 heartbeat IPC: 0.10452 cumulative IPC: 0.10561 (Simulation time: 0 hr 31 min 51 sec) 
Heartbeat CPU  0 instructions:  392000000 cycles: 2879795843 heartbeat IPC: 0.10416 cumulative IPC: 0.10560 (Simulation time: 0 hr 31 min 57 sec) 
Heartbeat CPU  0 instructions:  393000000 cycles: 2889352492 heartbeat IPC: 0.10464 cumulative IPC: 0.10560 (Simulation time: 0 hr 32 min 2 sec) 
Heartbeat CPU  0 instructions:  394000001 cycles: 2898768059 heartbeat IPC: 0.10621 cumulative IPC: 0.10560 (Simulation time: 0 hr 32 min 8 sec) 
Heartbeat CPU  0 instructions:  395000003 cycles: 2908172705 heartbeat IPC: 0.10633 cumulative IPC: 0.10560 (Simulation time: 0 hr 32 min 13 sec) 
Heartbeat CPU  0 instructions:  396000000 cycles: 2917519092 heartbeat IPC: 0.10699 cumulative IPC: 0.10561 (Simulation time: 0 hr 32 min 19 sec) 
Heartbeat CPU  0 instructions:  397000002 cycles: 2927014796 heartbeat IPC: 0.10531 cumulative IPC: 0.10561 (Simulation time: 0 hr 32 min 25 sec) 
Heartbeat CPU  0 instructions:  398000001 cycles: 2936450317 heartbeat IPC: 0.10598 cumulative IPC: 0.10561 (Simulation time: 0 hr 32 min 30 sec) 
Heartbeat CPU  0 instructions:  399000002 cycles: 2945972252 heartbeat IPC: 0.10502 cumulative IPC: 0.10561 (Simulation time: 0 hr 32 min 36 sec) 
Heartbeat CPU  0 instructions:  400000000 cycles: 2955431574 heartbeat IPC: 0.10572 cumulative IPC: 0.10561 (Simulation time: 0 hr 32 min 41 sec) 
Heartbeat CPU  0 instructions:  401000001 cycles: 2964817181 heartbeat IPC: 0.10655 cumulative IPC: 0.10561 (Simulation time: 0 hr 32 min 47 sec) 
Heartbeat CPU  0 instructions:  402000000 cycles: 2974174464 heartbeat IPC: 0.10687 cumulative IPC: 0.10561 (Simulation time: 0 hr 32 min 53 sec) 
Heartbeat CPU  0 instructions:  403000001 cycles: 2983394521 heartbeat IPC: 0.10846 cumulative IPC: 0.10562 (Simulation time: 0 hr 32 min 58 sec) 
Heartbeat CPU  0 instructions:  404000000 cycles: 2992743953 heartbeat IPC: 0.10696 cumulative IPC: 0.10563 (Simulation time: 0 hr 33 min 4 sec) 
Heartbeat CPU  0 instructions:  405000003 cycles: 3002100909 heartbeat IPC: 0.10687 cumulative IPC: 0.10563 (Simulation time: 0 hr 33 min 9 sec) 
Heartbeat CPU  0 instructions:  406000003 cycles: 3011400383 heartbeat IPC: 0.10753 cumulative IPC: 0.10564 (Simulation time: 0 hr 33 min 15 sec) 
Heartbeat CPU  0 instructions:  407000001 cycles: 3020691655 heartbeat IPC: 0.10763 cumulative IPC: 0.10564 (Simulation time: 0 hr 33 min 20 sec) 
Heartbeat CPU  0 instructions:  408000000 cycles: 3030130705 heartbeat IPC: 0.10594 cumulative IPC: 0.10565 (Simulation time: 0 hr 33 min 26 sec) 
Heartbeat CPU  0 instructions:  409000000 cycles: 3039410459 heartbeat IPC: 0.10776 cumulative IPC: 0.10565 (Simulation time: 0 hr 33 min 31 sec) 
Heartbeat CPU  0 instructions:  410000001 cycles: 3048516052 heartbeat IPC: 0.10982 cumulative IPC: 0.10567 (Simulation time: 0 hr 33 min 37 sec) 
Heartbeat CPU  0 instructions:  411000000 cycles: 3057729087 heartbeat IPC: 0.10854 cumulative IPC: 0.10567 (Simulation time: 0 hr 33 min 43 sec) 
Heartbeat CPU  0 instructions:  412000000 cycles: 3066839273 heartbeat IPC: 0.10977 cumulative IPC: 0.10569 (Simulation time: 0 hr 33 min 48 sec) 
Heartbeat CPU  0 instructions:  413000003 cycles: 3076165516 heartbeat IPC: 0.10722 cumulative IPC: 0.10569 (Simulation time: 0 hr 33 min 54 sec) 
Heartbeat CPU  0 instructions:  414000000 cycles: 3085395245 heartbeat IPC: 0.10835 cumulative IPC: 0.10570 (Simulation time: 0 hr 33 min 59 sec) 
Heartbeat CPU  0 instructions:  415000001 cycles: 3094582867 heartbeat IPC: 0.10884 cumulative IPC: 0.10571 (Simulation time: 0 hr 34 min 5 sec) 
Heartbeat CPU  0 instructions:  416000000 cycles: 3103709094 heartbeat IPC: 0.10957 cumulative IPC: 0.10572 (Simulation time: 0 hr 34 min 10 sec) 
Heartbeat CPU  0 instructions:  417000001 cycles: 3112920450 heartbeat IPC: 0.10856 cumulative IPC: 0.10573 (Simulation time: 0 hr 34 min 16 sec) 
Heartbeat CPU  0 instructions:  418000002 cycles: 3122295799 heartbeat IPC: 0.10666 cumulative IPC: 0.10573 (Simulation time: 0 hr 34 min 22 sec) 
Heartbeat CPU  0 instructions:  419000000 cycles: 3131621907 heartbeat IPC: 0.10723 cumulative IPC: 0.10574 (Simulation time: 0 hr 34 min 27 sec) 
Heartbeat CPU  0 instructions:  420000000 cycles: 3141028264 heartbeat IPC: 0.10631 cumulative IPC: 0.10574 (Simulation time: 0 hr 34 min 33 sec) 
Heartbeat CPU  0 instructions:  421000001 cycles: 3150306552 heartbeat IPC: 0.10778 cumulative IPC: 0.10575 (Simulation time: 0 hr 34 min 38 sec) 
Heartbeat CPU  0 instructions:  422000001 cycles: 3159735999 heartbeat IPC: 0.10605 cumulative IPC: 0.10575 (Simulation time: 0 hr 34 min 44 sec) 
Heartbeat CPU  0 instructions:  423000000 cycles: 3169270812 heartbeat IPC: 0.10488 cumulative IPC: 0.10574 (Simulation time: 0 hr 34 min 50 sec) 
Heartbeat CPU  0 instructions:  424000000 cycles: 3178728183 heartbeat IPC: 0.10574 cumulative IPC: 0.10574 (Simulation time: 0 hr 34 min 55 sec) 
Heartbeat CPU  0 instructions:  425000000 cycles: 3188119804 heartbeat IPC: 0.10648 cumulative IPC: 0.10575 (Simulation time: 0 hr 35 min 1 sec) 
Heartbeat CPU  0 instructions:  426000001 cycles: 3197474590 heartbeat IPC: 0.10690 cumulative IPC: 0.10575 (Simulation time: 0 hr 35 min 7 sec) 
Heartbeat CPU  0 instructions:  427000000 cycles: 3206822102 heartbeat IPC: 0.10698 cumulative IPC: 0.10575 (Simulation time: 0 hr 35 min 12 sec) 
Heartbeat CPU  0 instructions:  428000000 cycles: 3216175175 heartbeat IPC: 0.10692 cumulative IPC: 0.10576 (Simulation time: 0 hr 35 min 18 sec) 
Heartbeat CPU  0 instructions:  429000000 cycles: 3225489769 heartbeat IPC: 0.10736 cumulative IPC: 0.10576 (Simulation time: 0 hr 35 min 24 sec) 
Heartbeat CPU  0 instructions:  430000000 cycles: 3234905369 heartbeat IPC: 0.10621 cumulative IPC: 0.10576 (Simulation time: 0 hr 35 min 29 sec) 
Heartbeat CPU  0 instructions:  431000001 cycles: 3244268427 heartbeat IPC: 0.10680 cumulative IPC: 0.10577 (Simulation time: 0 hr 35 min 35 sec) 
Heartbeat CPU  0 instructions:  432000000 cycles: 3253642225 heartbeat IPC: 0.10668 cumulative IPC: 0.10577 (Simulation time: 0 hr 35 min 40 sec) 
Heartbeat CPU  0 instructions:  433000000 cycles: 3263060665 heartbeat IPC: 0.10617 cumulative IPC: 0.10577 (Simulation time: 0 hr 35 min 46 sec) 
Heartbeat CPU  0 instructions:  434000002 cycles: 3272438461 heartbeat IPC: 0.10664 cumulative IPC: 0.10577 (Simulation time: 0 hr 35 min 52 sec) 
Heartbeat CPU  0 instructions:  435000000 cycles: 3281771138 heartbeat IPC: 0.10715 cumulative IPC: 0.10578 (Simulation time: 0 hr 35 min 57 sec) 
Heartbeat CPU  0 instructions:  436000000 cycles: 3291181096 heartbeat IPC: 0.10627 cumulative IPC: 0.10578 (Simulation time: 0 hr 36 min 3 sec) 
Heartbeat CPU  0 instructions:  437000002 cycles: 3300400871 heartbeat IPC: 0.10846 cumulative IPC: 0.10579 (Simulation time: 0 hr 36 min 9 sec) 
Heartbeat CPU  0 instructions:  438000000 cycles: 3309701560 heartbeat IPC: 0.10752 cumulative IPC: 0.10579 (Simulation time: 0 hr 36 min 14 sec) 
Heartbeat CPU  0 instructions:  439000000 cycles: 3319109399 heartbeat IPC: 0.10629 cumulative IPC: 0.10579 (Simulation time: 0 hr 36 min 20 sec) 
Heartbeat CPU  0 instructions:  440000000 cycles: 3328554858 heartbeat IPC: 0.10587 cumulative IPC: 0.10579 (Simulation time: 0 hr 36 min 25 sec) 
Heartbeat CPU  0 instructions:  441000000 cycles: 3338068284 heartbeat IPC: 0.10511 cumulative IPC: 0.10579 (Simulation time: 0 hr 36 min 31 sec) 
Heartbeat CPU  0 instructions:  442000000 cycles: 3347610645 heartbeat IPC: 0.10480 cumulative IPC: 0.10579 (Simulation time: 0 hr 36 min 37 sec) 
Heartbeat CPU  0 instructions:  443000003 cycles: 3357086329 heartbeat IPC: 0.10553 cumulative IPC: 0.10579 (Simulation time: 0 hr 36 min 42 sec) 
Heartbeat CPU  0 instructions:  444000000 cycles: 3366525130 heartbeat IPC: 0.10595 cumulative IPC: 0.10579 (Simulation time: 0 hr 36 min 48 sec) 
Heartbeat CPU  0 instructions:  445000003 cycles: 3376092776 heartbeat IPC: 0.10452 cumulative IPC: 0.10578 (Simulation time: 0 hr 36 min 54 sec) 
Heartbeat CPU  0 instructions:  446000000 cycles: 3385770287 heartbeat IPC: 0.10333 cumulative IPC: 0.10578 (Simulation time: 0 hr 36 min 59 sec) 
Heartbeat CPU  0 instructions:  447000000 cycles: 3395534529 heartbeat IPC: 0.10241 cumulative IPC: 0.10577 (Simulation time: 0 hr 37 min 5 sec) 
Heartbeat CPU  0 instructions:  448000000 cycles: 3405152291 heartbeat IPC: 0.10397 cumulative IPC: 0.10576 (Simulation time: 0 hr 37 min 11 sec) 
Heartbeat CPU  0 instructions:  449000003 cycles: 3414859761 heartbeat IPC: 0.10301 cumulative IPC: 0.10575 (Simulation time: 0 hr 37 min 16 sec) 
Heartbeat CPU  0 instructions:  450000002 cycles: 3424442582 heartbeat IPC: 0.10435 cumulative IPC: 0.10575 (Simulation time: 0 hr 37 min 22 sec) 
Heartbeat CPU  0 instructions:  451000002 cycles: 3433925399 heartbeat IPC: 0.10545 cumulative IPC: 0.10575 (Simulation time: 0 hr 37 min 27 sec) 
Heartbeat CPU  0 instructions:  452000000 cycles: 3443411953 heartbeat IPC: 0.10541 cumulative IPC: 0.10575 (Simulation time: 0 hr 37 min 33 sec) 
Heartbeat CPU  0 instructions:  453000002 cycles: 3453022210 heartbeat IPC: 0.10406 cumulative IPC: 0.10574 (Simulation time: 0 hr 37 min 39 sec) 
Heartbeat CPU  0 instructions:  454000000 cycles: 3462618770 heartbeat IPC: 0.10420 cumulative IPC: 0.10574 (Simulation time: 0 hr 37 min 44 sec) 
Heartbeat CPU  0 instructions:  455000000 cycles: 3472300716 heartbeat IPC: 0.10329 cumulative IPC: 0.10573 (Simulation time: 0 hr 37 min 50 sec) 
Heartbeat CPU  0 instructions:  456000000 cycles: 3481867592 heartbeat IPC: 0.10453 cumulative IPC: 0.10573 (Simulation time: 0 hr 37 min 56 sec) 
Heartbeat CPU  0 instructions:  457000002 cycles: 3491346293 heartbeat IPC: 0.10550 cumulative IPC: 0.10573 (Simulation time: 0 hr 38 min 1 sec) 
Heartbeat CPU  0 instructions:  458000000 cycles: 3500906853 heartbeat IPC: 0.10460 cumulative IPC: 0.10572 (Simulation time: 0 hr 38 min 7 sec) 
Heartbeat CPU  0 instructions:  459000000 cycles: 3510430758 heartbeat IPC: 0.10500 cumulative IPC: 0.10572 (Simulation time: 0 hr 38 min 12 sec) 
Heartbeat CPU  0 instructions:  460000000 cycles: 3519882732 heartbeat IPC: 0.10580 cumulative IPC: 0.10572 (Simulation time: 0 hr 38 min 18 sec) 
Heartbeat CPU  0 instructions:  461000000 cycles: 3529392672 heartbeat IPC: 0.10515 cumulative IPC: 0.10572 (Simulation time: 0 hr 38 min 24 sec) 
Heartbeat CPU  0 instructions:  462000000 cycles: 3538903552 heartbeat IPC: 0.10514 cumulative IPC: 0.10572 (Simulation time: 0 hr 38 min 29 sec) 
Heartbeat CPU  0 instructions:  463000001 cycles: 3548270735 heartbeat IPC: 0.10676 cumulative IPC: 0.10572 (Simulation time: 0 hr 38 min 35 sec) 
Heartbeat CPU  0 instructions:  464000000 cycles: 3557786242 heartbeat IPC: 0.10509 cumulative IPC: 0.10572 (Simulation time: 0 hr 38 min 41 sec) 
Heartbeat CPU  0 instructions:  465000000 cycles: 3567347110 heartbeat IPC: 0.10459 cumulative IPC: 0.10572 (Simulation time: 0 hr 38 min 46 sec) 
Heartbeat CPU  0 instructions:  466000000 cycles: 3576877755 heartbeat IPC: 0.10492 cumulative IPC: 0.10571 (Simulation time: 0 hr 38 min 52 sec) 
Heartbeat CPU  0 instructions:  467000000 cycles: 3586302110 heartbeat IPC: 0.10611 cumulative IPC: 0.10572 (Simulation time: 0 hr 38 min 57 sec) 
Heartbeat CPU  0 instructions:  468000000 cycles: 3595731485 heartbeat IPC: 0.10605 cumulative IPC: 0.10572 (Simulation time: 0 hr 39 min 3 sec) 
Heartbeat CPU  0 instructions:  469000000 cycles: 3605073478 heartbeat IPC: 0.10704 cumulative IPC: 0.10572 (Simulation time: 0 hr 39 min 9 sec) 
Heartbeat CPU  0 instructions:  470000000 cycles: 3614470878 heartbeat IPC: 0.10641 cumulative IPC: 0.10572 (Simulation time: 0 hr 39 min 14 sec) 
Heartbeat CPU  0 instructions:  471000000 cycles: 3623910505 heartbeat IPC: 0.10594 cumulative IPC: 0.10572 (Simulation time: 0 hr 39 min 20 sec) 
Heartbeat CPU  0 instructions:  472000000 cycles: 3633106142 heartbeat IPC: 0.10875 cumulative IPC: 0.10573 (Simulation time: 0 hr 39 min 26 sec) 
Heartbeat CPU  0 instructions:  473000000 cycles: 3642492141 heartbeat IPC: 0.10654 cumulative IPC: 0.10573 (Simulation time: 0 hr 39 min 31 sec) 
Heartbeat CPU  0 instructions:  474000000 cycles: 3652102276 heartbeat IPC: 0.10406 cumulative IPC: 0.10573 (Simulation time: 0 hr 39 min 37 sec) 
Heartbeat CPU  0 instructions:  475000001 cycles: 3661512411 heartbeat IPC: 0.10627 cumulative IPC: 0.10573 (Simulation time: 0 hr 39 min 42 sec) 
Heartbeat CPU  0 instructions:  476000000 cycles: 3670965190 heartbeat IPC: 0.10579 cumulative IPC: 0.10573 (Simulation time: 0 hr 39 min 48 sec) 
Heartbeat CPU  0 instructions:  477000000 cycles: 3680448690 heartbeat IPC: 0.10545 cumulative IPC: 0.10573 (Simulation time: 0 hr 39 min 54 sec) 
Heartbeat CPU  0 instructions:  478000001 cycles: 3689961758 heartbeat IPC: 0.10512 cumulative IPC: 0.10573 (Simulation time: 0 hr 39 min 59 sec) 
Heartbeat CPU  0 instructions:  479000003 cycles: 3699509358 heartbeat IPC: 0.10474 cumulative IPC: 0.10572 (Simulation time: 0 hr 40 min 5 sec) 
Heartbeat CPU  0 instructions:  480000000 cycles: 3709140456 heartbeat IPC: 0.10383 cumulative IPC: 0.10572 (Simulation time: 0 hr 40 min 11 sec) 
Heartbeat CPU  0 instructions:  481000000 cycles: 3718808372 heartbeat IPC: 0.10343 cumulative IPC: 0.10571 (Simulation time: 0 hr 40 min 16 sec) 
Heartbeat CPU  0 instructions:  482000000 cycles: 3728253765 heartbeat IPC: 0.10587 cumulative IPC: 0.10571 (Simulation time: 0 hr 40 min 22 sec) 
Heartbeat CPU  0 instructions:  483000000 cycles: 3737726409 heartbeat IPC: 0.10557 cumulative IPC: 0.10571 (Simulation time: 0 hr 40 min 28 sec) 
Heartbeat CPU  0 instructions:  484000000 cycles: 3747251943 heartbeat IPC: 0.10498 cumulative IPC: 0.10571 (Simulation time: 0 hr 40 min 33 sec) 
Heartbeat CPU  0 instructions:  485000000 cycles: 3756877781 heartbeat IPC: 0.10389 cumulative IPC: 0.10571 (Simulation time: 0 hr 40 min 39 sec) 
Heartbeat CPU  0 instructions:  486000002 cycles: 3766464086 heartbeat IPC: 0.10432 cumulative IPC: 0.10570 (Simulation time: 0 hr 40 min 45 sec) 
Heartbeat CPU  0 instructions:  487000000 cycles: 3776061971 heartbeat IPC: 0.10419 cumulative IPC: 0.10570 (Simulation time: 0 hr 40 min 50 sec) 
Heartbeat CPU  0 instructions:  488000000 cycles: 3785481153 heartbeat IPC: 0.10617 cumulative IPC: 0.10570 (Simulation time: 0 hr 40 min 56 sec) 
Heartbeat CPU  0 instructions:  489000000 cycles: 3794949014 heartbeat IPC: 0.10562 cumulative IPC: 0.10570 (Simulation time: 0 hr 41 min 1 sec) 
Heartbeat CPU  0 instructions:  490000000 cycles: 3804410000 heartbeat IPC: 0.10570 cumulative IPC: 0.10570 (Simulation time: 0 hr 41 min 7 sec) 
Heartbeat CPU  0 instructions:  491000000 cycles: 3813823044 heartbeat IPC: 0.10624 cumulative IPC: 0.10570 (Simulation time: 0 hr 41 min 13 sec) 
Heartbeat CPU  0 instructions:  492000000 cycles: 3823343010 heartbeat IPC: 0.10504 cumulative IPC: 0.10570 (Simulation time: 0 hr 41 min 18 sec) 
Heartbeat CPU  0 instructions:  493000001 cycles: 3832958630 heartbeat IPC: 0.10400 cumulative IPC: 0.10570 (Simulation time: 0 hr 41 min 24 sec) 
Heartbeat CPU  0 instructions:  494000001 cycles: 3842549691 heartbeat IPC: 0.10426 cumulative IPC: 0.10569 (Simulation time: 0 hr 41 min 30 sec) 
Heartbeat CPU  0 instructions:  495000002 cycles: 3852154742 heartbeat IPC: 0.10411 cumulative IPC: 0.10569 (Simulation time: 0 hr 41 min 35 sec) 
Heartbeat CPU  0 instructions:  496000000 cycles: 3861655333 heartbeat IPC: 0.10526 cumulative IPC: 0.10569 (Simulation time: 0 hr 41 min 41 sec) 
Heartbeat CPU  0 instructions:  497000001 cycles: 3870968447 heartbeat IPC: 0.10738 cumulative IPC: 0.10569 (Simulation time: 0 hr 41 min 46 sec) 
Heartbeat CPU  0 instructions:  498000000 cycles: 3880388918 heartbeat IPC: 0.10615 cumulative IPC: 0.10569 (Simulation time: 0 hr 41 min 52 sec) 
Heartbeat CPU  0 instructions:  499000003 cycles: 3889587912 heartbeat IPC: 0.10871 cumulative IPC: 0.10570 (Simulation time: 0 hr 41 min 58 sec) 
Heartbeat CPU  0 instructions:  500000000 cycles: 3899030490 heartbeat IPC: 0.10590 cumulative IPC: 0.10570 (Simulation time: 0 hr 42 min 3 sec) 
Heartbeat CPU  0 instructions:  501000000 cycles: 3908521033 heartbeat IPC: 0.10537 cumulative IPC: 0.10570 (Simulation time: 0 hr 42 min 9 sec) 
Heartbeat CPU  0 instructions:  502000001 cycles: 3918132398 heartbeat IPC: 0.10404 cumulative IPC: 0.10569 (Simulation time: 0 hr 42 min 14 sec) 
Heartbeat CPU  0 instructions:  503000003 cycles: 3927486856 heartbeat IPC: 0.10690 cumulative IPC: 0.10570 (Simulation time: 0 hr 42 min 20 sec) 
Heartbeat CPU  0 instructions:  504000000 cycles: 3936935761 heartbeat IPC: 0.10583 cumulative IPC: 0.10570 (Simulation time: 0 hr 42 min 26 sec) 
Heartbeat CPU  0 instructions:  505000001 cycles: 3946249922 heartbeat IPC: 0.10736 cumulative IPC: 0.10570 (Simulation time: 0 hr 42 min 31 sec) 
Heartbeat CPU  0 instructions:  506000003 cycles: 3955610482 heartbeat IPC: 0.10683 cumulative IPC: 0.10570 (Simulation time: 0 hr 42 min 37 sec) 
Heartbeat CPU  0 instructions:  507000000 cycles: 3964952117 heartbeat IPC: 0.10705 cumulative IPC: 0.10571 (Simulation time: 0 hr 42 min 42 sec) 
Heartbeat CPU  0 instructions:  508000000 cycles: 3974377855 heartbeat IPC: 0.10609 cumulative IPC: 0.10571 (Simulation time: 0 hr 42 min 48 sec) 
Heartbeat CPU  0 instructions:  509000001 cycles: 3983688361 heartbeat IPC: 0.10741 cumulative IPC: 0.10571 (Simulation time: 0 hr 42 min 53 sec) 
Heartbeat CPU  0 instructions:  510000001 cycles: 3993106217 heartbeat IPC: 0.10618 cumulative IPC: 0.10571 (Simulation time: 0 hr 42 min 59 sec) 
Heartbeat CPU  0 instructions:  511000003 cycles: 4002441440 heartbeat IPC: 0.10712 cumulative IPC: 0.10572 (Simulation time: 0 hr 43 min 5 sec) 
[...]
scooby_state_40061c|12|-10 0,0,0,0,0,0,0,0,0,0,0,1,0,0,0,1,
scooby_state_4005e1|22|-31 1,0,0,0,0,0,0,0,0,0,0,0,0,0,0,1,
scooby_state_40061c|8|-52 0,0,0,0,0,0,0,0,0,0,0,1,0,0,0,1,
scooby_state_4005e1|2|-58 1,0,0,0,0,0,0,0,0,0,0,0,0,0,0,1,
scooby_state_40061c|18|4 1,0,0,0,0,0,0,0,0,0,0,0,0,0,0,1,
scooby_state_4005f2|11|-16 1,0,0,0,0,0,0,0,0,0,0,0,0,0,0,1,
scooby_state_401d77|31|-29 0,0,0,0,0,0,0,0,0,0,0,1,0,0,0,1,
scooby_state_40061c|21|-10 0,0,0,0,0,0,0,0,0,0,0,1,0,0,0,1,
scooby_state_4005ef|38|11 0,0,0,1,0,0,0,0,0,0,0,0,0,0,0,1,
scooby_state_4005ef|26|-12 0,0,0,0,0,0,0,0,0,0,0,0,0,0,1,1,
scooby_state_4005ef|45|17 0,0,0,0,0,0,0,0,0,0,0,0,0,0,1,1,
scooby_state_4005e1|7|-23 0,0,0,0,0,0,1,0,0,0,0,0,0,0,0,1,
scooby_state_4005ef|57|16 0,0,0,0,0,0,0,0,0,0,0,0,0,0,1,1,
scooby_state_4005f2|42|-20 1,0,0,0,0,0,0,0,0,0,0,0,0,0,0,1,
scooby_state_4005f2|30|17 1,0,0,0,0,0,0,0,0,0,0,0,0,0,0,1,
scooby_state_401c5c|3|-50 1,0,0,0,0,0,0,0,0,0,0,0,0,0,0,1,
scooby_state_40061c|24|23 1,0,0,0,0,0,0,0,0,0,0,0,0,0,0,1,
scooby_state_4005f2|21|5 1,0,0,0,0,0,0,0,0,0,0,0,0,0,0,1,
scooby_state_401b28|2|-42 0,0,0,0,0,0,0,0,1,0,0,0,0,0,0,1,
scooby_state_4005eb|0|-39 0,1,0,0,0,0,0,0,0,0,0,0,0,0,0,1,
scooby_state_4005f2|2|-60 1,0,0,0,0,0,0,0,0,0,0,0,0,0,0,1,
scooby_state_40061c|55|32 0,0,0,0,0,0,0,0,0,0,0,0,0,0,1,1,
scooby_state_4005f2|41|-15 1,0,0,0,0,0,0,0,0,0,0,0,0,0,0,1,
scooby_state_401f5e|59|25 1,0,0,0,0,0,0,0,0,0,0,0,0,0,0,1,
scooby_state_4005cf|16|14 1,0,0,0,0,0,0,0,0,0,0,0,0,0,0,1,
scooby_state_4005ef|52|6 0,0,0,0,0,0,0,0,0,0,0,0,0,1,0,1,
scooby_state_40061c|45|13 1,0,0,0,0,0,0,0,0,0,0,0,0,0,0,1,
scooby_state_4005f2|2|-36 1,0,0,0,0,0,0,0,0,0,0,0,0,0,0,1,
scooby_state_4005e1|20|-8 1,0,0,0,0,0,0,0,0,0,0,0,0,0,0,1,
scooby_state_4005f2|58|32 1,0,0,0,0,0,0,0,0,0,0,0,0,0,0,1,
scooby_state_40061c|56|18 1,0,0,0,0,0,0,0,0,0,0,0,0,0,0,1,
scooby_state_4005cf|31|6 0,0,0,0,0,0,1,0,0,0,0,0,0,0,0,1,
scooby_state_4005ef|10|-43 0,0,0,0,0,0,0,0,0,0,1,0,0,0,0,1,
scooby_state_40061c|16|-15 1,0,0,0,0,0,0,0,0,0,0,0,0,0,0,1,
scooby_state_4005cf|24|-21 0,0,0,0,1,0,0,0,0,0,0,0,0,0,0,1,
scooby_state_4005ef|40|4 0,0,0,0,0,0,0,0,0,0,1,0,0,0,0,1,
scooby_state_4005f2|63|27 0,0,0,0,0,0,0,0,0,0,0,0,1,0,0,1,
scooby_state_4005ef|37|16 0,0,0,1,0,0,0,0,0,0,0,0,0,0,0,1,
scooby_state_40061c|23|-36 1,0,0,0,0,0,0,0,0,0,0,0,0,0,0,1,
scooby_state_401c7c|8|2 1,0,0,0,0,0,0,0,0,0,0,0,0,0,0,1,
scooby_state_40061c|36|36 0,0,0,0,0,0,0,0,0,0,0,1,0,0,0,1,
scooby_state_4005ef|35|17 0,0,0,1,0,0,0,0,0,0,0,0,0,0,0,1,
scooby_state_40061c|25|-35 0,0,0,0,0,0,0,0,0,0,0,1,0,0,0,1,
scooby_state_402146|15|-37 0,0,0,0,0,0,0,1,0,0,0,0,0,0,0,1,
scooby_state_4005ef|17|4 0,0,0,1,0,0,0,0,0,0,0,0,0,0,0,1,
scooby_state_40061c|62|21 1,0,0,0,0,0,0,0,0,0,0,0,0,0,0,1,
scooby_state_4005cf|31|3 0,0,0,0,0,0,0,0,0,0,0,0,0,0,1,1,
scooby_state_401c78|56|52 0,0,0,0,0,0,0,0,0,1,0,0,0,0,0,1,
scooby_state_402146|14|-20 1,0,0,0,0,0,0,0,0,0,0,0,0,0,0,1,
scooby_state_4005f2|40|38 1,0,0,0,0,0,0,0,0,0,0,0,0,0,0,1,
scooby_state_4005cf|47|-15 1,0,0,0,0,0,0,0,0,0,0,0,0,0,0,1,
scooby_state_4005e1|47|25 1,0,0,0,0,0,0,0,0,0,0,0,0,0,0,1,
scooby_state_4005ef|19|18 1,0,0,0,0,0,0,0,0,0,0,0,0,0,0,1,
scooby_state_4005f2|48|9 0,0,0,0,0,1,0,0,0,0,0,0,0,0,0,1,
scooby_state_4005f2|54|7 1,0,0,0,0,0,0,0,0,0,0,0,0,0,0,1,
scooby_state_4005e1|13|-45 1,0,0,0,0,0,0,0,0,0,0,0,0,0,0,1,
scooby_state_4005e1|11|-49 1,0,0,0,0,0,0,0,0,0,0,0,0,0,0,1,
scooby_state_4005e1|23|-9 1,0,0,0,0,0,0,0,0,0,0,0,0,0,0,1,
scooby_state_4005f2|3|-14 1,0,0,0,0,0,0,0,0,0,0,0,0,0,0,1,
scooby_state_4005f2|31|7 1,0,0,0,0,0,0,0,0,0,0,0,0,0,0,1,
scooby_state_401c58|34|4 0,0,0,0,0,0,0,0,0,0,0,1,0,0,0,1,
scooby_state_40061c|40|36 0,0,0,0,0,0,0,1,0,0,0,0,0,0,0,1,
scooby_state_401f9e|50|0 0,0,0,0,0,0,0,0,0,1,0,0,0,0,0,1,
scooby_state_4005f2|11|1 1,0,0,0,0,0,0,0,0,0,0,0,0,0,0,1,
scooby_state_4005f2|33|-18 1,0,0,0,0,0,0,0,0,0,0,0,0,0,0,1,
scooby_state_4005f2|56|32 1,0,0,0,0,0,0,0,0,0,0,0,0,0,0,1,
scooby_state_4005f2|62|28 1,0,0,0,0,0,0,0,0,0,0,0,0,0,0,1,
scooby_state_40061c|49|-12 1,0,0,0,0,0,0,0,0,0,0,0,0,0,0,1,
scooby_state_4005e1|24|2 1,0,0,0,0,0,0,0,0,0,0,0,0,0,0,1,
scooby_state_4005f2|46|6 1,0,0,0,0,0,0,0,0,0,0,0,0,0,0,1,
scooby_state_4005cf|40|-4 1,0,0,0,0,0,0,0,0,0,0,0,0,0,0,1,
scooby_state_40061c|26|-8 0,1,0,0,0,0,0,0,0,0,0,0,0,0,0,1,
scooby_state_4005f2|61|42 0,0,0,0,0,1,0,0,0,0,0,0,0,0,0,1,
scooby_state_401b28|22|-31 1,0,0,0,0,0,0,0,0,0,0,0,0,0,0,1,
scooby_state_40221a|14|-41 1,0,0,0,0,0,0,0,0,0,0,0,0,0,0,1,
scooby_state_4005f2|12|-12 0,0,0,0,0,0,0,0,0,1,0,0,0,0,0,1,
scooby_state_4005f2|58|15 1,0,0,0,0,0,0,0,0,0,0,0,0,0,0,1,
scooby_state_4005f2|40|29 1,0,0,0,0,0,0,0,0,0,0,0,0,0,0,1,
scooby_state_4005f2|62|45 1,0,0,0,0,0,0,0,0,0,0,0,0,0,0,1,
scooby_state_401c78|51|15 0,0,0,0,0,0,0,0,0,0,0,1,0,0,0,1,
scooby_state_401d7b|55|3 0,0,0,0,0,0,0,0,0,0,0,1,0,0,0,1,
scooby_state_4005f2|27|-22 0,0,0,0,0,0,0,0,1,0,0,0,0,0,0,1,
scooby_state_4005f2|40|21 1,0,0,0,0,0,0,0,0,0,0,0,0,0,0,1,
scooby_state_4005f2|7|-23 1,0,0,0,0,0,0,0,0,0,0,0,0,0,0,1,
scooby_state_4005e1|22|-13 1,0,0,0,0,0,0,0,0,0,0,0,0,0,0,1,
scooby_state_4005ef|4|-12 1,0,0,0,0,0,0,0,0,0,0,0,0,0,0,1,
scooby_state_4005f2|30|-19 1,0,0,0,0,0,0,0,0,0,0,0,0,0,0,1,
scooby_state_4005e1|35|15 1,0,0,0,0,0,0,0,0,0,0,0,0,0,0,1,
scooby_state_40061c|21|21 1,0,0,0,0,0,0,0,0,0,0,0,0,0,0,1,
scooby_state_4005f2|62|48 0,0,0,0,0,0,0,0,1,0,0,0,0,0,0,1,
scooby_state_4005f2|19|-15 1,0,0,0,0,0,0,0,0,0,0,0,0,0,0,1,
scooby_state_4005cf|31|7 1,0,0,0,0,0,0,0,0,0,0,0,0,0,0,1,
scooby_state_4005f2|49|8 1,0,0,0,0,0,0,0,0,0,0,0,0,0,0,1,
scooby_state_4005f2|28|-24 1,0,0,0,0,0,0,0,0,0,0,0,0,0,0,1,
scooby_state_40061c|9|-54 1,0,0,0,0,0,0,0,0,0,0,0,0,0,0,1,
scooby_state_4005ef|46|-7 1,0,0,0,0,0,0,0,0,0,0,0,0,0,0,1,
scooby_state_4005cf|41|3 1,0,0,0,0,0,0,0,0,0,0,0,0,0,0,1,
scooby_state_40221a|24|-18 1,0,0,0,0,0,0,0,0,0,0,0,0,0,0,1,
scooby_state_4005f2|53|9 0,0,0,1,0,0,0,0,0,0,0,0,0,0,0,1,
scooby_state_401c7c|15|-22 1,0,0,0,0,0,0,0,0,0,0,0,0,0,0,1,
scooby_state_40061c|18|10 0,0,0,1,0,0,0,0,0,0,0,0,0,0,0,1,
scooby_state_4005ef|28|27 1,0,0,0,0,0,0,0,0,0,0,0,0,0,0,1,
scooby_state_4005cf|7|3 0,0,0,1,0,0,0,0,0,0,0,0,0,0,0,1,
scooby_state_40061c|60|37 0,0,0,0,0,0,0,0,0,0,0,1,0,0,0,1,
scooby_state_4005eb|0|-9 0,0,0,0,0,0,0,0,0,1,0,0,0,0,0,1,
scooby_state_400610|22|0 1,0,0,0,0,0,0,0,0,0,0,0,0,0,0,1,
scooby_state_4005cf|20|-32 1,0,0,0,0,0,0,0,0,0,0,0,0,0,0,1,
scooby_state_4005cf|24|-5 0,0,0,0,0,0,1,0,0,0,0,0,0,0,0,1,
scooby_state_4005c0|0|-45 0,0,0,0,0,0,0,0,0,0,0,0,1,0,0,1,
scooby_state_40061c|45|4 1,0,0,0,0,0,0,0,0,0,0,0,0,0,0,1,
scooby_state_40061c|26|22 0,0,1,0,0,0,0,0,0,0,0,0,0,0,0,1,
scooby_state_4005e1|43|-10 1,0,0,0,0,0,0,0,0,0,0,0,0,0,0,1,
scooby_state_401e1d|20|-1 0,0,0,0,0,0,0,0,1,0,0,0,0,0,0,1,
scooby_state_4005f2|32|24 1,0,0,0,0,0,0,0,0,0,0,0,0,0,0,1,
scooby_state_4005f2|16|-29 1,0,0,0,0,0,0,0,0,0,0,0,0,0,0,1,
scooby_state_4005ef|4|-8 1,0,0,0,0,0,0,0,0,0,0,0,0,0,0,1,
scooby_state_4005f2|18|-23 1,0,0,0,0,0,0,0,0,0,0,0,0,0,0,1,
scooby_state_4005e1|1|-24 0,0,0,0,0,0,0,1,0,0,0,0,0,0,0,1,
scooby_state_4005e1|2|-47 0,0,0,0,0,0,0,1,0,0,0,0,0,0,0,1,
scooby_state_4005f2|0|-58 0,0,0,0,0,0,1,0,0,0,0,0,0,0,0,1,
scooby_state_4005ef|57|23 0,0,0,0,0,0,0,0,0,0,0,1,0,0,0,1,
scooby_state_4005cf|15|-3 1,0,0,0,0,0,0,0,0,0,0,0,0,0,0,1,
scooby_state_40061c|26|-2 0,0,0,0,0,0,0,0,0,0,0,1,0,0,0,1,
scooby_state_401de4|57|49 1,0,0,0,0,0,0,0,0,0,0,0,0,0,0,1,
scooby_state_4005f2|37|-15 1,0,0,0,0,0,0,0,0,0,0,0,0,0,0,1,
scooby_state_401db4|60|56 1,0,0,0,0,0,0,0,0,0,0,0,0,0,0,1,
scooby_state_40061c|20|-10 0,0,0,0,0,0,0,0,0,0,0,1,0,0,0,1,
scooby_state_4005f2|29|-25 0,0,0,0,0,0,0,1,0,0,0,0,0,0,0,1,
scooby_state_4005f2|42|14 1,0,0,0,0,0,0,0,0,0,0,0,0,0,0,1,
scooby_state_401c5c|20|0 1,0,0,0,0,0,0,0,0,0,0,0,0,0,0,1,
scooby_state_4005f2|24|-36 1,0,0,0,0,0,0,0,0,0,0,0,0,0,0,1,
scooby_state_4005e7|0|-49 0,0,0,0,0,0,0,0,0,0,0,0,1,0,0,1,
scooby_state_4005c4|0|-22 0,0,0,0,0,0,0,0,0,0,0,1,0,0,0,1,
scooby_state_4005c4|0|-1 0,0,0,0,0,0,0,0,0,0,0,0,0,0,1,1,
scooby_state_4005f2|2|-58 0,0,0,0,0,0,1,0,0,0,0,0,0,0,0,1,
scooby_state_4005f2|51|18 0,0,0,0,0,0,0,0,1,0,0,0,0,0,0,1,
scooby_state_4005f2|21|-22 0,0,0,0,1,0,0,0,0,0,0,0,0,0,0,1,
scooby_state_40061c|57|15 0,0,0,0,0,0,0,0,0,0,0,1,0,0,0,1,
scooby_state_4005f2|44|35 0,0,0,0,0,0,0,0,0,0,0,1,0,0,0,1,
scooby_state_4005f2|20|10 1,0,0,0,0,0,0,0,0,0,0,0,0,0,0,1,
scooby_state_4005cf|44|-4 1,0,0,0,0,0,0,0,0,0,0,0,0,0,0,1,
scooby_state_40061c|1|-57 1,0,0,0,0,0,0,0,0,0,0,0,0,0,0,1,
scooby_state_4005f2|20|-34 1,0,0,0,0,0,0,0,0,0,0,0,0,0,0,1,
scooby_state_401d7b|8|-48 0,0,0,0,0,0,0,0,0,0,0,1,0,0,0,1,
scooby_state_401d7b|48|33 0,0,0,0,0,0,0,0,0,0,0,1,0,0,0,1,
scooby_state_4005f2|3|-55 1,0,0,0,0,0,0,0,0,0,0,0,0,0,0,1,
scooby_state_4005e1|47|-8 1,0,0,0,0,0,0,0,0,0,0,0,0,0,0,1,
scooby_state_401d77|36|3 0,0,0,0,0,0,0,0,0,0,0,1,0,0,0,1,
scooby_state_40061c|23|16 1,0,0,0,0,0,0,0,0,0,0,0,0,0,0,1,
scooby_state_4005ef|16|14 1,0,0,0,0,0,0,0,0,0,0,0,0,0,0,1,
scooby_state_4005f2|31|-24 1,0,0,0,0,0,0,0,0,0,0,0,0,0,0,1,
scooby_state_4005ef|43|6 0,0,0,0,0,0,0,0,0,0,0,0,0,1,0,1,
scooby_state_40061c|61|3 0,0,0,0,0,1,0,0,0,0,0,0,0,0,0,1,
scooby_state_4005ef|39|-13 0,0,0,0,0,0,0,0,0,0,0,0,0,1,0,1,
scooby_state_40061c|39|-3 1,0,0,0,0,0,0,0,0,0,0,0,0,0,0,1,
scooby_state_4005ef|38|-9 0,0,0,0,0,0,0,0,0,0,0,0,0,1,0,1,
scooby_state_4005e1|39|23 1,0,0,0,0,0,0,0,0,0,0,0,0,0,0,1,
scooby_state_401db4|50|42 1,0,0,0,0,0,0,0,0,0,0,0,0,0,0,1,
scooby_state_40061c|5|-30 0,0,0,0,0,0,0,0,0,0,0,1,0,0,0,1,
scooby_state_4005f2|35|-10 1,0,0,0,0,0,0,0,0,0,0,0,0,0,0,1,
scooby_state_401b78|62|0 0,0,0,0,0,0,0,0,0,0,0,0,0,1,0,1,
scooby_state_4005e1|46|44 1,0,0,0,0,0,0,0,0,0,0,0,0,0,0,1,
scooby_state_40211d|15|10 0,0,0,0,0,0,0,1,0,0,0,0,0,0,0,1,
scooby_state_4005ef|63|42 0,0,0,0,0,0,0,0,0,0,0,1,0,0,0,1,
scooby_state_40061c|5|-3 1,0,0,0,0,0,0,0,0,0,0,0,0,0,0,1,
scooby_state_4005e1|43|28 0,0,0,0,0,1,0,0,0,0,0,0,0,0,0,1,
scooby_state_4005f2|49|46 1,0,0,0,0,0,0,0,0,0,0,0,0,0,0,1,
scooby_state_40061c|18|-31 1,0,0,0,0,0,0,0,0,0,0,0,0,0,0,1,
scooby_state_401c58|33|-8 0,0,0,0,0,0,0,0,0,0,0,1,0,0,0,1,
scooby_state_40061c|27|-7 1,0,0,0,0,0,0,0,0,0,0,0,0,0,0,1,
scooby_state_4005ef|49|35 0,0,0,0,0,0,0,0,0,1,0,0,0,0,0,1,
scooby_state_40221a|0|-29 1,0,0,0,0,0,0,0,0,0,0,0,0,0,0,1,
scooby_state_40061c|37|7 1,0,0,0,0,0,0,0,0,0,0,0,0,0,0,1,
scooby_state_40061c|6|-4 1,0,0,0,0,0,0,0,0,0,0,0,0,0,0,1,
scooby_state_402146|55|46 0,0,0,0,0,1,0,0,0,0,0,0,0,0,0,1,
scooby_state_40061c|43|-3 1,0,0,0,0,0,0,0,0,0,0,0,0,0,0,1,
scooby_state_4005c4|0|-10 1,0,0,0,0,0,0,0,0,0,0,0,0,0,0,1,
scooby_state_401b40|26|18 1,0,0,0,0,0,0,0,0,0,0,0,0,0,0,1,
scooby_state_401b28|4|-24 1,0,0,0,0,0,0,0,0,0,0,0,0,0,0,1,
scooby_state_4005cf|18|15 0,0,0,0,0,0,0,1,0,0,0,0,0,0,0,1,
scooby_state_401c5c|61|54 0,0,1,0,0,0,0,0,0,0,0,0,0,0,0,1,
scooby_state_4005f2|40|12 1,0,0,0,0,0,0,0,0,0,0,0,0,0,0,1,
scooby_state_4005f2|48|48 0,0,0,0,1,0,0,0,0,0,0,0,0,0,0,1,
scooby_state_4005ef|14|-23 0,0,0,0,0,1,0,0,0,0,0,0,0,0,0,1,
scooby_state_4005ef|28|-4 0,0,0,0,0,0,1,0,0,0,0,0,0,0,0,1,
scooby_state_4005f2|37|5 1,0,0,0,0,0,0,0,0,0,0,0,0,0,0,1,
scooby_state_4005cf|47|5 1,0,0,0,0,0,0,0,0,0,0,0,0,0,0,1,
scooby_state_401d50|35|-14 1,0,0,0,0,0,0,0,0,0,0,0,0,0,0,1,
scooby_state_4005ef|43|3 0,0,0,0,0,0,0,0,0,0,0,0,0,1,0,1,
scooby_state_402146|3|-44 1,0,0,0,0,0,0,0,0,0,0,0,0,0,0,1,
scooby_state_4005e1|27|-6 0,0,0,0,0,0,0,0,0,0,0,0,0,0,1,1,
scooby_state_401db0|31|-1 0,0,0,0,0,0,0,0,0,0,0,0,0,0,1,1,
scooby_state_4005f2|32|31 1,0,0,0,0,0,0,0,0,0,0,0,0,0,0,1,
scooby_state_4005cf|24|-14 1,0,0,0,0,0,0,0,0,0,0,0,0,0,0,1,
scooby_state_4005f2|61|51 1,0,0,0,0,0,0,0,0,0,0,0,0,0,0,1,
scooby_state_4005f2|58|44 1,0,0,0,0,0,0,0,0,0,0,0,0,0,0,1,
scooby_state_401c58|27|5 0,0,0,0,0,0,0,0,0,0,0,1,0,0,0,1,
scooby_state_40211d|9|-46 0,0,0,0,0,0,0,0,0,0,0,0,0,0,1,1,
scooby_state_4005f2|20|-13 1,0,0,0,0,0,0,0,0,0,0,0,0,0,0,1,
scooby_state_40222b|61|24 1,0,0,0,0,0,0,0,0,0,0,0,0,0,0,1,
scooby_state_4005f2|55|26 1,0,0,0,0,0,0,0,0,0,0,0,0,0,0,1,
scooby_state_4005ef|63|0 1,0,0,0,0,0,0,0,0,0,0,0,0,0,0,1,
scooby_state_401c5c|20|-19 0,0,0,0,0,0,0,0,0,0,0,0,0,0,1,1,
scooby_state_40061c|41|41 0,0,0,0,0,0,0,0,0,0,0,1,0,0,0,1,
scooby_state_4005cf|15|4 1,0,0,0,0,0,0,0,0,0,0,0,0,0,0,1,
scooby_state_4005e7|0|-18 1,0,0,0,0,0,0,0,0,0,0,0,0,0,0,1,
scooby_state_4005e1|46|39 1,0,0,0,0,0,0,0,0,0,0,0,0,0,0,1,
scooby_state_4005f2|23|13 1,0,0,0,0,0,0,0,0,0,0,0,0,0,0,1,
scooby_state_4005ef|17|13 1,0,0,0,0,0,0,0,0,0,0,0,0,0,0,1,
scooby_state_4005ef|29|3 1,0,0,0,0,0,0,0,0,0,0,0,0,0,0,1,
scooby_state_4005ef|6|-5 1,0,0,0,0,0,0,0,0,0,0,0,0,0,0,1,
scooby_state_40061c|2|-36 1,0,0,0,0,0,0,0,0,0,0,0,0,0,0,1,

scooby_action_0_deg_dist 0,317963,0,0,0,0,0,0,0,0,0,0,0,0,0,0,
scooby_action_-6_deg_dist 0,16829,52,0,33,0,3,0,0,0,0,0,0,0,0,0,
scooby_action_4_deg_dist 0,17981,222,0,266,0,85,0,0,0,0,0,0,0,0,0,
scooby_action_1_deg_dist 0,89129183,82200,0,18629,0,8181,0,0,0,0,0,0,0,0,0,
scooby_action_30_deg_dist 0,16083,43,0,10,0,0,0,0,0,0,0,0,0,0,0,
scooby_action_5_deg_dist 0,17308,123,0,69,0,8,0,0,0,0,0,0,0,0,0,
scooby_action_10_deg_dist 0,16951,89,0,47,0,2,0,0,0,0,0,0,0,0,0,
scooby_action_3_deg_dist 0,19089,84,0,34,0,22,0,0,0,0,0,0,0,0,0,
scooby_action_32_deg_dist 0,15938,32,0,7,0,0,0,0,0,0,0,0,0,0,0,
scooby_action_11_deg_dist 0,17140,130,0,70,0,6,0,0,0,0,0,0,0,0,0,
scooby_action_12_deg_dist 0,17016,67,0,25,0,0,0,0,0,0,0,0,0,0,0,
scooby_action_22_deg_dist 0,16626,43,0,25,0,0,0,0,0,0,0,0,0,0,0,
scooby_action_23_deg_dist 0,16969,45,0,24,0,0,0,0,0,0,0,0,0,0,0,
scooby_action_-1_deg_dist 0,53666,923,0,506,0,215,0,0,0,0,0,0,0,0,0,
scooby_action_-3_deg_dist 0,16919,89,0,59,0,14,0,0,0,0,0,0,0,0,0,

scooby_track_called 89818143
scooby_track_same_address 49553
scooby_track_evict 89768334

scooby_reward_demand_called 89818143
scooby_reward_demand_pt_not_found 89627056
scooby_reward_demand_pt_found 191087
scooby_reward_demand_pt_found_total 191087
scooby_reward_demand_has_reward 2047
scooby_reward_train_called 88136833
scooby_reward_assign_reward_called 89768347
scooby_reward_no_pref 317963
scooby_reward_incorrect 87818870
scooby_reward_correct_untimely 113607
scooby_reward_correct_timely 75433
scooby_reward_out_of_bounds 1442474
scooby_reward_tracker_hit 0

scooby_reward_none_low_bw 317963
scooby_reward_none_high_bw 0
scooby_reward_incorrect_low_bw 87818870
scooby_reward_incorrect_high_bw 0
scooby_reward_correct_untimely_low_bw 113607
scooby_reward_correct_untimely_high_bw 0
scooby_reward_correct_timely_low_bw 75433
scooby_reward_correct_timely_high_bw 0
scooby_reward_out_of_bounds_low_bw 1442474
scooby_reward_out_of_bounds_high_bw 0
scooby_reward_tracker_hit_low_bw 0
scooby_reward_tracker_hit_high_bw 0

scooby_reward_1 0,87629335,96950,71700,1398166,0,
scooby_reward_3 0,16449,303,390,1227,0,
scooby_reward_4 0,16246,128,291,1244,0,
scooby_reward_5 0,15612,47,162,1464,0,
scooby_reward_10 0,13843,45,139,2870,0,
scooby_reward_11 0,13684,48,154,3051,0,
scooby_reward_12 0,13194,45,142,3449,0,
scooby_reward_22 0,10360,23,32,5761,0,
scooby_reward_23 0,10033,33,82,6200,0,
scooby_reward_30 0,8062,12,36,7790,0,
scooby_reward_32 0,7662,19,58,8048,0,
scooby_reward_-1 0,33925,15893,2084,827,0,
scooby_reward_-3 0,15629,38,97,812,0,
scooby_reward_-6 0,14836,23,66,1565,0,
scooby_reward_0 317963,0,0,0,0,0,

scooby_train_called 89768333
scooby_train_compute_reward 88136833

scooby_register_fill_called 75051123
scooby_register_fill_set 74949807
scooby_register_fill_set_total 74949807

scooby_register_prefetch_hit_called 13039352
scooby_register_prefetch_hit_set 13003772
scooby_register_prefetch_hit_set_total 13003772

scooby_pref_issue_scooby 88180469

learning_engine_featurewise.action.called 89818143
learning_engine_featurewise.action.explore 163864
learning_engine_featurewise.action.exploit 89654279
learning_engine_featurewise.action.fallback 89145264
learning_engine_featurewise.action.dyn_fallback_saved_bw 0
learning_engine_featurewise.action.dyn_fallback_saved_bw_acc 319644
learning_engine_featurewise.action.index_1_explored 10865
learning_engine_featurewise.action.index_1_exploited 89227328
learning_engine_featurewise.action.index_3_explored 11039
learning_engine_featurewise.action.index_3_exploited 8190
learning_engine_featurewise.action.index_4_explored 11100
learning_engine_featurewise.action.index_4_exploited 7454
learning_engine_featurewise.action.index_5_explored 11134
learning_engine_featurewise.action.index_5_exploited 6374
learning_engine_featurewise.action.index_10_explored 11134
learning_engine_featurewise.action.index_10_exploited 5955
learning_engine_featurewise.action.index_11_explored 11089
learning_engine_featurewise.action.index_11_exploited 6257
learning_engine_featurewise.action.index_12_explored 10974
learning_engine_featurewise.action.index_12_exploited 6134
learning_engine_featurewise.action.index_22_explored 11047
learning_engine_featurewise.action.index_22_exploited 5647
learning_engine_featurewise.action.index_23_explored 11126
learning_engine_featurewise.action.index_23_exploited 5912
learning_engine_featurewise.action.index_30_explored 10908
learning_engine_featurewise.action.index_30_exploited 5228
learning_engine_featurewise.action.index_32_explored 10623
learning_engine_featurewise.action.index_32_exploited 5354
learning_engine_featurewise.action.index_-1_explored 10788
learning_engine_featurewise.action.index_-1_exploited 44522
learning_engine_featurewise.action.index_-3_explored 10694
learning_engine_featurewise.action.index_-3_exploited 6387
learning_engine_featurewise.action.index_-6_explored 10727
learning_engine_featurewise.action.index_-6_exploited 6190
learning_engine_featurewise.action.index_0_explored 10616
learning_engine_featurewise.action.index_0_exploited 307347
learning_engine_featurewise.learn.called 89768333
learning_engine_featurewise.learn.su_skip_PC 0
learning_engine_featurewise.learn.su_skip_PC_Delta 0

learning_engine_featurewise.q_value_histogram.bucket_0 314549
learning_engine_featurewise.q_value_histogram.bucket_1 4260
learning_engine_featurewise.q_value_histogram.bucket_2 89194197
learning_engine_featurewise.q_value_histogram.bucket_3 47774
learning_engine_featurewise.q_value_histogram.bucket_4 53814
learning_engine_featurewise.q_value_histogram.bucket_5 25518
learning_engine_featurewise.q_value_histogram.bucket_6 14167
learning_engine_featurewise.q_value_histogram.bucket_7 0

learning_engine_featurewise.consensus.total 89654279
learning_engine_featurewise.consensus.feature_align_PC 89293547
learning_engine_featurewise.consensus.feature_align_PC_ratio 1.00
learning_engine_featurewise.consensus.feature_align_PC_Delta 89273316
learning_engine_featurewise.consensus.feature_align_PC_Delta_ratio 1.00
learning_engine_featurewise.consensus.feature_align_all 89231376
learning_engine_featurewise.consensus.feature_align_all_ratio 1.00

learning_engine_featurewise.feature_PC_min_weight 1000000.00000000
learning_engine_featurewise.feature_PC_max_weight 0.00000000
learning_engine_featurewise.feature_PC_Delta_min_weight 1000000.00000000
learning_engine_featurewise.feature_PC_Delta_max_weight 0.00000000
unique_pcs 115
unique_pages 428295
unique_trigger_pcs 81
total_bitmaps_seen 0
unique_bitmaps_seen 0

scooby_bw_epochs 18814484
scooby_bw_level_0 18363366
scooby_bw_level_1 450933
scooby_bw_level_2 138
scooby_bw_level_3 47

scooby_ipc_epochs 0
scooby_ipc_level_0 0
scooby_ipc_level_1 0
scooby_ipc_level_2 0
scooby_ipc_level_3 0

scooby_cache_acc_epochs 4579662
scooby_cache_acc_level_0 11387
scooby_cache_acc_level_1 273075
scooby_cache_acc_level_2 1200846
scooby_cache_acc_level_3 2201618
scooby_cache_acc_level_4 764979
scooby_cache_acc_level_5 105873
scooby_cache_acc_level_6 15899
scooby_cache_acc_level_7 3850
scooby_cache_acc_level_8 1195
scooby_cache_acc_level_9 940

Channel_0_RQ_row_buffer_hit 3640466
Channel_0_RQ_row_buffer_miss 38649873
Channel_0_WQ_row_buffer_hit 22409
Channel_0_WQ_row_buffer_miss 29085
Channel_0_WQ_full 0
Channel_0_dbus_congested 1494879

avg_congested_cycle 3

DRAM_bw_pochs 18814484
DRAM_bw_level_0 18363366
DRAM_bw_level_1 450933
DRAM_bw_level_2 138
DRAM_bw_level_3 47
