*************************************************
   ChampSim Multicore Out-of-Order Simulator
   Last compiled: Dec 11 2024 17:59:53
*************************************************
parsing config file: /home/functionmain/桌面/Pythia/config/mlop.ini

trace_0 /home/functionmain/桌面/Pythia/traces/429.mcf-51B.champsimtrace.xz
adding L2C_PREFETCHER: MLOP
Initialize SHIP state
warmup_instructions 100000000
simulation_instructions 500000000
champsim_seed 168
measure_ipc 0
measure_ipc_epoch 1000
measure_dram_bw 1
measure_dram_bw_epoch 256
measure_cache_acc 1
measure_cache_acc_epoch 1024
l1d_perfect 0
l2c_perfect 0
llc_perfect 0
l1d_semi_perfect 0
l2c_semi_perfect 0
llc_semi_perfect 0
semi_perfect_cache_page_buffer_size 64

num_cpus 1
cpu_freq 4000
dram_io_freq 600
page_size 4096
block_size 64
max_read_per_cycle 8
max_fill_per_cycle 1
dram_channels 1
log2_dram_channels 0
dram_ranks 1
dram_banks 8
dram_rows 65536
dram_columns 128
dram_row_size 8
dram_size 4096
dram_pages 1048576

fetch_width 6
decode_width 6
exec_width 4
lq_width 2
sq_width 2
retire_width 4
scheduler_size 128
branch_mispredict_penalty 20
rob_size 256
lq_size 72
sq_size 56
num_instr_destinations_sparc 4
num_instr_destinations 2
num_instr_sources 4

itlb_set 16
itlb_way 8
itlb_rq_size 16
itlb_wq_size 16
itlb_pq_size 0
itlb_mshr_size 8
itlb_latency 1

dtlb_set 16
dtlb_way 4
dtlb_rq_size 16
dtlb_wq_size 16
dtlb_pq_size 0
dtlb_mshr_size 8
dtlb_latency 1

stlb_set 128
stlb_way 12
stlb_rq_size 32
stlb_wq_size 32
stlb_pq_size 0
stlb_mshr_size 16
stlb_latency 8

l1i_size 32
l1i_set 64
l1i_way 8
l1i_rq_size 64
l1i_wq_size 64
l1i_pq_size 8
l1i_mshr_size 8
l1i_latency 1

l1d_size 32
l1d_set 64
l1d_way 8
l1d_rq_size 64
l1d_wq_size 64
l1d_pq_size 8
l1d_mshr_size 16
l1d_latency 4

l2c_size 256
l2c_set 512
l2c_way 8
l2c_rq_size 32
l2c_wq_size 32
l2c_pq_size 32
l2c_mshr_size 32
l2c_latency 10

llc_size 2048
llc_set 2048
llc_way 16
llc_rq_size 32
llc_wq_size 32
llc_pq_size 32
llc_mshr_size 64
llc_latency 20

dram_channel_width 8
dram_wq_size 64
dram_rq_size 64
tRP 15
tRCD 15
tCAS 12.5
dram_dbus_turn_around_time 30
dram_write_high_wm 56
dram_write_low_wm 48
min_dram_writes_per_switch 16
dram_mtps 600
dram_dbus_return_time 53

mlop_pref_degree 16
mlop_num_updates 500
mlop_l1d_thresh 2
mlop_l2c_thresh 0.75
mlop_llc_thresh 0.3
mlop_debug_level 0
mlop_blocks_in_cache 4096
mlop_blocks_in_zone 64
mlop_amt_size 2048
mlop_PF_DEGREE 16
mlop_NUM_UPDATES 500
mlop_L1D_THRESH 1000
mlop_L2C_THRESH 375
mlop_LLC_THRESH 150
mlop_ORIGIN 63
mlop_MAX_OFFSET 63
mlop_MIN_OFFSET -63
mlop_ORIGIN 63
mlop_NUM_OFFSETS 127


Heartbeat CPU  0 instructions:    1000003 cycles:     854260 heartbeat IPC: 1.17061 cumulative IPC: 1.17061 (Simulation time: 0 hr 0 min 2 sec) 
Heartbeat CPU  0 instructions:    2000000 cycles:    1632914 heartbeat IPC: 1.28426 cumulative IPC: 1.22480 (Simulation time: 0 hr 0 min 4 sec) 
Heartbeat CPU  0 instructions:    3000002 cycles:    2424148 heartbeat IPC: 1.26385 cumulative IPC: 1.23755 (Simulation time: 0 hr 0 min 5 sec) 
Heartbeat CPU  0 instructions:    4000000 cycles:    3243315 heartbeat IPC: 1.22075 cumulative IPC: 1.23331 (Simulation time: 0 hr 0 min 7 sec) 
Heartbeat CPU  0 instructions:    5000002 cycles:    4025747 heartbeat IPC: 1.27807 cumulative IPC: 1.24201 (Simulation time: 0 hr 0 min 8 sec) 
Heartbeat CPU  0 instructions:    6000001 cycles:    4798090 heartbeat IPC: 1.29476 cumulative IPC: 1.25050 (Simulation time: 0 hr 0 min 10 sec) 
Heartbeat CPU  0 instructions:    7000000 cycles:    5575486 heartbeat IPC: 1.28634 cumulative IPC: 1.25550 (Simulation time: 0 hr 0 min 12 sec) 
Heartbeat CPU  0 instructions:    8000000 cycles:    6423861 heartbeat IPC: 1.17872 cumulative IPC: 1.24536 (Simulation time: 0 hr 0 min 14 sec) 
Heartbeat CPU  0 instructions:    9000001 cycles:    7217760 heartbeat IPC: 1.25961 cumulative IPC: 1.24692 (Simulation time: 0 hr 0 min 15 sec) 
Heartbeat CPU  0 instructions:   10000000 cycles:    8021977 heartbeat IPC: 1.24344 cumulative IPC: 1.24658 (Simulation time: 0 hr 0 min 17 sec) 
Heartbeat CPU  0 instructions:   11000002 cycles:    8869744 heartbeat IPC: 1.17957 cumulative IPC: 1.24017 (Simulation time: 0 hr 0 min 19 sec) 
Heartbeat CPU  0 instructions:   12000000 cycles:    9720864 heartbeat IPC: 1.17492 cumulative IPC: 1.23446 (Simulation time: 0 hr 0 min 20 sec) 
Heartbeat CPU  0 instructions:   13000000 cycles:   10534230 heartbeat IPC: 1.22946 cumulative IPC: 1.23407 (Simulation time: 0 hr 0 min 22 sec) 
Heartbeat CPU  0 instructions:   14000002 cycles:   11305067 heartbeat IPC: 1.29729 cumulative IPC: 1.23838 (Simulation time: 0 hr 0 min 24 sec) 
Heartbeat CPU  0 instructions:   15000001 cycles:   12079200 heartbeat IPC: 1.29177 cumulative IPC: 1.24180 (Simulation time: 0 hr 0 min 25 sec) 
Heartbeat CPU  0 instructions:   16000000 cycles:   12871050 heartbeat IPC: 1.26286 cumulative IPC: 1.24310 (Simulation time: 0 hr 0 min 27 sec) 
Heartbeat CPU  0 instructions:   17000000 cycles:   13678717 heartbeat IPC: 1.23813 cumulative IPC: 1.24281 (Simulation time: 0 hr 0 min 29 sec) 
Heartbeat CPU  0 instructions:   18000002 cycles:   14453924 heartbeat IPC: 1.28998 cumulative IPC: 1.24534 (Simulation time: 0 hr 0 min 31 sec) 
Heartbeat CPU  0 instructions:   19000000 cycles:   15277004 heartbeat IPC: 1.21495 cumulative IPC: 1.24370 (Simulation time: 0 hr 0 min 32 sec) 
Heartbeat CPU  0 instructions:   20000000 cycles:   16119112 heartbeat IPC: 1.18750 cumulative IPC: 1.24076 (Simulation time: 0 hr 0 min 34 sec) 
Heartbeat CPU  0 instructions:   21000001 cycles:   16918953 heartbeat IPC: 1.25025 cumulative IPC: 1.24121 (Simulation time: 0 hr 0 min 36 sec) 
Heartbeat CPU  0 instructions:   22000000 cycles:   17709682 heartbeat IPC: 1.26465 cumulative IPC: 1.24226 (Simulation time: 0 hr 0 min 37 sec) 
Heartbeat CPU  0 instructions:   23000001 cycles:   18517385 heartbeat IPC: 1.23808 cumulative IPC: 1.24208 (Simulation time: 0 hr 0 min 39 sec) 
Heartbeat CPU  0 instructions:   24000000 cycles:   19312333 heartbeat IPC: 1.25794 cumulative IPC: 1.24273 (Simulation time: 0 hr 0 min 40 sec) 
Heartbeat CPU  0 instructions:   25000003 cycles:   20118604 heartbeat IPC: 1.24028 cumulative IPC: 1.24263 (Simulation time: 0 hr 0 min 42 sec) 
Heartbeat CPU  0 instructions:   26000002 cycles:   20922824 heartbeat IPC: 1.24344 cumulative IPC: 1.24266 (Simulation time: 0 hr 0 min 44 sec) 
Heartbeat CPU  0 instructions:   27000000 cycles:   21736680 heartbeat IPC: 1.22872 cumulative IPC: 1.24214 (Simulation time: 0 hr 0 min 45 sec) 
Heartbeat CPU  0 instructions:   28000000 cycles:   22582538 heartbeat IPC: 1.18223 cumulative IPC: 1.23990 (Simulation time: 0 hr 0 min 47 sec) 
Heartbeat CPU  0 instructions:   29000000 cycles:   23360563 heartbeat IPC: 1.28531 cumulative IPC: 1.24141 (Simulation time: 0 hr 0 min 49 sec) 
Heartbeat CPU  0 instructions:   30000000 cycles:   24181482 heartbeat IPC: 1.21815 cumulative IPC: 1.24062 (Simulation time: 0 hr 0 min 51 sec) 
Heartbeat CPU  0 instructions:   31000002 cycles:   25040572 heartbeat IPC: 1.16402 cumulative IPC: 1.23799 (Simulation time: 0 hr 0 min 52 sec) 
Heartbeat CPU  0 instructions:   32000000 cycles:   25903505 heartbeat IPC: 1.15884 cumulative IPC: 1.23535 (Simulation time: 0 hr 0 min 54 sec) 
Heartbeat CPU  0 instructions:   33000002 cycles:   26665375 heartbeat IPC: 1.31256 cumulative IPC: 1.23756 (Simulation time: 0 hr 0 min 56 sec) 
Heartbeat CPU  0 instructions:   34000003 cycles:   27525957 heartbeat IPC: 1.16201 cumulative IPC: 1.23520 (Simulation time: 0 hr 0 min 57 sec) 
Heartbeat CPU  0 instructions:   35000001 cycles:   28383656 heartbeat IPC: 1.16591 cumulative IPC: 1.23310 (Simulation time: 0 hr 0 min 59 sec) 
Heartbeat CPU  0 instructions:   36000000 cycles:   29208140 heartbeat IPC: 1.21288 cumulative IPC: 1.23253 (Simulation time: 0 hr 1 min 1 sec) 
Heartbeat CPU  0 instructions:   37000003 cycles:   29983672 heartbeat IPC: 1.28944 cumulative IPC: 1.23401 (Simulation time: 0 hr 1 min 3 sec) 
Heartbeat CPU  0 instructions:   38000003 cycles:   30789238 heartbeat IPC: 1.24136 cumulative IPC: 1.23420 (Simulation time: 0 hr 1 min 4 sec) 
Heartbeat CPU  0 instructions:   39000000 cycles:   31509259 heartbeat IPC: 1.38884 cumulative IPC: 1.23773 (Simulation time: 0 hr 1 min 6 sec) 
Heartbeat CPU  0 instructions:   40000000 cycles:   32216280 heartbeat IPC: 1.41439 cumulative IPC: 1.24161 (Simulation time: 0 hr 1 min 8 sec) 
Heartbeat CPU  0 instructions:   41000003 cycles:   32972197 heartbeat IPC: 1.32290 cumulative IPC: 1.24347 (Simulation time: 0 hr 1 min 10 sec) 
Heartbeat CPU  0 instructions:   42000001 cycles:   33652539 heartbeat IPC: 1.46985 cumulative IPC: 1.24805 (Simulation time: 0 hr 1 min 11 sec) 
Heartbeat CPU  0 instructions:   43000000 cycles:   34342576 heartbeat IPC: 1.44920 cumulative IPC: 1.25209 (Simulation time: 0 hr 1 min 13 sec) 
Heartbeat CPU  0 instructions:   44000000 cycles:   35091955 heartbeat IPC: 1.33444 cumulative IPC: 1.25385 (Simulation time: 0 hr 1 min 14 sec) 
Heartbeat CPU  0 instructions:   45000000 cycles:   35949509 heartbeat IPC: 1.16611 cumulative IPC: 1.25176 (Simulation time: 0 hr 1 min 16 sec) 
Heartbeat CPU  0 instructions:   46000000 cycles:   36903790 heartbeat IPC: 1.04791 cumulative IPC: 1.24648 (Simulation time: 0 hr 1 min 18 sec) 
Heartbeat CPU  0 instructions:   47000001 cycles:   37929893 heartbeat IPC: 0.97456 cumulative IPC: 1.23913 (Simulation time: 0 hr 1 min 19 sec) 
Heartbeat CPU  0 instructions:   48000000 cycles:   38925679 heartbeat IPC: 1.00423 cumulative IPC: 1.23312 (Simulation time: 0 hr 1 min 21 sec) 
Heartbeat CPU  0 instructions:   49000001 cycles:   39819020 heartbeat IPC: 1.11939 cumulative IPC: 1.23057 (Simulation time: 0 hr 1 min 22 sec) 
Heartbeat CPU  0 instructions:   50000001 cycles:   40675070 heartbeat IPC: 1.16816 cumulative IPC: 1.22925 (Simulation time: 0 hr 1 min 24 sec) 
Heartbeat CPU  0 instructions:   51000001 cycles:   41664173 heartbeat IPC: 1.01102 cumulative IPC: 1.22407 (Simulation time: 0 hr 1 min 26 sec) 
Heartbeat CPU  0 instructions:   52000000 cycles:   42607987 heartbeat IPC: 1.05953 cumulative IPC: 1.22043 (Simulation time: 0 hr 1 min 27 sec) 
Heartbeat CPU  0 instructions:   53000002 cycles:   43500908 heartbeat IPC: 1.11992 cumulative IPC: 1.21837 (Simulation time: 0 hr 1 min 29 sec) 
Heartbeat CPU  0 instructions:   54000002 cycles:   44296769 heartbeat IPC: 1.25650 cumulative IPC: 1.21905 (Simulation time: 0 hr 1 min 30 sec) 
Heartbeat CPU  0 instructions:   55000001 cycles:   45184032 heartbeat IPC: 1.12706 cumulative IPC: 1.21724 (Simulation time: 0 hr 1 min 32 sec) 
Heartbeat CPU  0 instructions:   56000000 cycles:   46148534 heartbeat IPC: 1.03680 cumulative IPC: 1.21347 (Simulation time: 0 hr 1 min 34 sec) 
Heartbeat CPU  0 instructions:   57000001 cycles:   46994103 heartbeat IPC: 1.18264 cumulative IPC: 1.21292 (Simulation time: 0 hr 1 min 35 sec) 
Heartbeat CPU  0 instructions:   58000000 cycles:   47819101 heartbeat IPC: 1.21212 cumulative IPC: 1.21290 (Simulation time: 0 hr 1 min 37 sec) 
Heartbeat CPU  0 instructions:   59000001 cycles:   48600441 heartbeat IPC: 1.27985 cumulative IPC: 1.21398 (Simulation time: 0 hr 1 min 39 sec) 
Heartbeat CPU  0 instructions:   60000000 cycles:   49421996 heartbeat IPC: 1.21720 cumulative IPC: 1.21403 (Simulation time: 0 hr 1 min 40 sec) 
Heartbeat CPU  0 instructions:   61000002 cycles:   50285074 heartbeat IPC: 1.15865 cumulative IPC: 1.21308 (Simulation time: 0 hr 1 min 42 sec) 
Heartbeat CPU  0 instructions:   62000000 cycles:   51100784 heartbeat IPC: 1.22592 cumulative IPC: 1.21329 (Simulation time: 0 hr 1 min 43 sec) 
Heartbeat CPU  0 instructions:   63000001 cycles:   51862326 heartbeat IPC: 1.31313 cumulative IPC: 1.21475 (Simulation time: 0 hr 1 min 45 sec) 
Heartbeat CPU  0 instructions:   64000000 cycles:   52652828 heartbeat IPC: 1.26502 cumulative IPC: 1.21551 (Simulation time: 0 hr 1 min 47 sec) 
Heartbeat CPU  0 instructions:   65000000 cycles:   53447520 heartbeat IPC: 1.25835 cumulative IPC: 1.21615 (Simulation time: 0 hr 1 min 48 sec) 
Heartbeat CPU  0 instructions:   66000002 cycles:   54240866 heartbeat IPC: 1.26049 cumulative IPC: 1.21679 (Simulation time: 0 hr 1 min 50 sec) 
Heartbeat CPU  0 instructions:   67000003 cycles:   55077471 heartbeat IPC: 1.19531 cumulative IPC: 1.21647 (Simulation time: 0 hr 1 min 52 sec) 
Heartbeat CPU  0 instructions:   68000000 cycles:   55995366 heartbeat IPC: 1.08945 cumulative IPC: 1.21439 (Simulation time: 0 hr 1 min 53 sec) 
Heartbeat CPU  0 instructions:   69000000 cycles:   56886189 heartbeat IPC: 1.12256 cumulative IPC: 1.21295 (Simulation time: 0 hr 1 min 55 sec) 
Heartbeat CPU  0 instructions:   70000001 cycles:   57744576 heartbeat IPC: 1.16498 cumulative IPC: 1.21224 (Simulation time: 0 hr 1 min 57 sec) 
Heartbeat CPU  0 instructions:   71000000 cycles:   58555535 heartbeat IPC: 1.23311 cumulative IPC: 1.21252 (Simulation time: 0 hr 1 min 59 sec) 
Heartbeat CPU  0 instructions:   72000000 cycles:   59484867 heartbeat IPC: 1.07604 cumulative IPC: 1.21039 (Simulation time: 0 hr 2 min 0 sec) 
Heartbeat CPU  0 instructions:   73000000 cycles:   60399082 heartbeat IPC: 1.09383 cumulative IPC: 1.20863 (Simulation time: 0 hr 2 min 2 sec) 
Heartbeat CPU  0 instructions:   74000000 cycles:   61251317 heartbeat IPC: 1.17339 cumulative IPC: 1.20814 (Simulation time: 0 hr 2 min 3 sec) 
Heartbeat CPU  0 instructions:   75000002 cycles:   62078758 heartbeat IPC: 1.20855 cumulative IPC: 1.20814 (Simulation time: 0 hr 2 min 5 sec) 
Heartbeat CPU  0 instructions:   76000000 cycles:   63003161 heartbeat IPC: 1.08178 cumulative IPC: 1.20629 (Simulation time: 0 hr 2 min 7 sec) 
Heartbeat CPU  0 instructions:   77000003 cycles:   63935750 heartbeat IPC: 1.07229 cumulative IPC: 1.20433 (Simulation time: 0 hr 2 min 8 sec) 
Heartbeat CPU  0 instructions:   78000000 cycles:   64777686 heartbeat IPC: 1.18774 cumulative IPC: 1.20412 (Simulation time: 0 hr 2 min 10 sec) 
Heartbeat CPU  0 instructions:   79000002 cycles:   65598331 heartbeat IPC: 1.21856 cumulative IPC: 1.20430 (Simulation time: 0 hr 2 min 12 sec) 
Heartbeat CPU  0 instructions:   80000000 cycles:   66472306 heartbeat IPC: 1.14420 cumulative IPC: 1.20351 (Simulation time: 0 hr 2 min 13 sec) 
Heartbeat CPU  0 instructions:   81000001 cycles:   67311447 heartbeat IPC: 1.19170 cumulative IPC: 1.20336 (Simulation time: 0 hr 2 min 15 sec) 
Heartbeat CPU  0 instructions:   82000000 cycles:   68335426 heartbeat IPC: 0.97658 cumulative IPC: 1.19996 (Simulation time: 0 hr 2 min 16 sec) 
Heartbeat CPU  0 instructions:   83000003 cycles:   69102632 heartbeat IPC: 1.30343 cumulative IPC: 1.20111 (Simulation time: 0 hr 2 min 18 sec) 
Heartbeat CPU  0 instructions:   84000000 cycles:   69888260 heartbeat IPC: 1.27286 cumulative IPC: 1.20192 (Simulation time: 0 hr 2 min 20 sec) 
Heartbeat CPU  0 instructions:   85000001 cycles:   70657316 heartbeat IPC: 1.30030 cumulative IPC: 1.20299 (Simulation time: 0 hr 2 min 21 sec) 
Heartbeat CPU  0 instructions:   86000002 cycles:   71431741 heartbeat IPC: 1.29128 cumulative IPC: 1.20395 (Simulation time: 0 hr 2 min 23 sec) 
Heartbeat CPU  0 instructions:   87000000 cycles:   72198397 heartbeat IPC: 1.30436 cumulative IPC: 1.20501 (Simulation time: 0 hr 2 min 25 sec) 
Heartbeat CPU  0 instructions:   88000000 cycles:   72960793 heartbeat IPC: 1.31165 cumulative IPC: 1.20613 (Simulation time: 0 hr 2 min 26 sec) 
Heartbeat CPU  0 instructions:   89000002 cycles:   73719169 heartbeat IPC: 1.31861 cumulative IPC: 1.20728 (Simulation time: 0 hr 2 min 28 sec) 
Heartbeat CPU  0 instructions:   90000001 cycles:   74487125 heartbeat IPC: 1.30216 cumulative IPC: 1.20826 (Simulation time: 0 hr 2 min 29 sec) 
Heartbeat CPU  0 instructions:   91000001 cycles:   75255354 heartbeat IPC: 1.30170 cumulative IPC: 1.20922 (Simulation time: 0 hr 2 min 31 sec) 
Heartbeat CPU  0 instructions:   92000000 cycles:   75996291 heartbeat IPC: 1.34964 cumulative IPC: 1.21059 (Simulation time: 0 hr 2 min 33 sec) 
Heartbeat CPU  0 instructions:   93000000 cycles:   76782015 heartbeat IPC: 1.27271 cumulative IPC: 1.21122 (Simulation time: 0 hr 2 min 35 sec) 
Heartbeat CPU  0 instructions:   94000001 cycles:   77663177 heartbeat IPC: 1.13487 cumulative IPC: 1.21035 (Simulation time: 0 hr 2 min 36 sec) 
Heartbeat CPU  0 instructions:   95000003 cycles:   78448719 heartbeat IPC: 1.27301 cumulative IPC: 1.21098 (Simulation time: 0 hr 2 min 38 sec) 
Heartbeat CPU  0 instructions:   96000000 cycles:   79281232 heartbeat IPC: 1.20118 cumulative IPC: 1.21088 (Simulation time: 0 hr 2 min 40 sec) 
Heartbeat CPU  0 instructions:   97000001 cycles:   80018019 heartbeat IPC: 1.35725 cumulative IPC: 1.21223 (Simulation time: 0 hr 2 min 41 sec) 
Heartbeat CPU  0 instructions:   98000000 cycles:   80733349 heartbeat IPC: 1.39795 cumulative IPC: 1.21387 (Simulation time: 0 hr 2 min 43 sec) 
Heartbeat CPU  0 instructions:   99000003 cycles:   81463258 heartbeat IPC: 1.37004 cumulative IPC: 1.21527 (Simulation time: 0 hr 2 min 45 sec) 
Heartbeat CPU  0 instructions:  100000000 cycles:   82198934 heartbeat IPC: 1.35929 cumulative IPC: 1.21656 (Simulation time: 0 hr 2 min 46 sec) 

Warmup complete CPU  0 instructions:  100000001 cycles:   82198935 (Simulation time: 0 hr 2 min 46 sec) 

Heartbeat CPU  0 instructions:  101000003 cycles:  100615210 heartbeat IPC: 0.05430 cumulative IPC: 0.05430 (Simulation time: 0 hr 2 min 54 sec) 
Heartbeat CPU  0 instructions:  102000002 cycles:  107662822 heartbeat IPC: 0.14189 cumulative IPC: 0.07854 (Simulation time: 0 hr 2 min 57 sec) 
Heartbeat CPU  0 instructions:  103000002 cycles:  112982234 heartbeat IPC: 0.18799 cumulative IPC: 0.09746 (Simulation time: 0 hr 3 min 0 sec) 
Heartbeat CPU  0 instructions:  104000000 cycles:  130887722 heartbeat IPC: 0.05585 cumulative IPC: 0.08215 (Simulation time: 0 hr 3 min 8 sec) 
Heartbeat CPU  0 instructions:  105000001 cycles:  141765628 heartbeat IPC: 0.09193 cumulative IPC: 0.08394 (Simulation time: 0 hr 3 min 13 sec) 
Heartbeat CPU  0 instructions:  106000002 cycles:  148902492 heartbeat IPC: 0.14012 cumulative IPC: 0.08995 (Simulation time: 0 hr 3 min 17 sec) 
Heartbeat CPU  0 instructions:  107000000 cycles:  154603390 heartbeat IPC: 0.17541 cumulative IPC: 0.09668 (Simulation time: 0 hr 3 min 20 sec) 
Heartbeat CPU  0 instructions:  108000000 cycles:  169645957 heartbeat IPC: 0.06648 cumulative IPC: 0.09148 (Simulation time: 0 hr 3 min 27 sec) 
Heartbeat CPU  0 instructions:  109000000 cycles:  183351951 heartbeat IPC: 0.07296 cumulative IPC: 0.08897 (Simulation time: 0 hr 3 min 33 sec) 
Heartbeat CPU  0 instructions:  110000000 cycles:  189686056 heartbeat IPC: 0.15788 cumulative IPC: 0.09303 (Simulation time: 0 hr 3 min 36 sec) 
Heartbeat CPU  0 instructions:  111000002 cycles:  195567479 heartbeat IPC: 0.17003 cumulative IPC: 0.09703 (Simulation time: 0 hr 3 min 40 sec) 
Heartbeat CPU  0 instructions:  112000000 cycles:  206586573 heartbeat IPC: 0.09075 cumulative IPC: 0.09647 (Simulation time: 0 hr 3 min 45 sec) 
Heartbeat CPU  0 instructions:  113000000 cycles:  223651463 heartbeat IPC: 0.05860 cumulative IPC: 0.09190 (Simulation time: 0 hr 3 min 52 sec) 
Heartbeat CPU  0 instructions:  114000003 cycles:  231040671 heartbeat IPC: 0.13533 cumulative IPC: 0.09406 (Simulation time: 0 hr 3 min 56 sec) 
Heartbeat CPU  0 instructions:  115000003 cycles:  237211662 heartbeat IPC: 0.16205 cumulative IPC: 0.09677 (Simulation time: 0 hr 4 min 0 sec) 
Heartbeat CPU  0 instructions:  116000000 cycles:  245474899 heartbeat IPC: 0.12102 cumulative IPC: 0.09799 (Simulation time: 0 hr 4 min 4 sec) 
Heartbeat CPU  0 instructions:  117000002 cycles:  264642960 heartbeat IPC: 0.05217 cumulative IPC: 0.09318 (Simulation time: 0 hr 4 min 12 sec) 
Heartbeat CPU  0 instructions:  118000001 cycles:  271949264 heartbeat IPC: 0.13687 cumulative IPC: 0.09486 (Simulation time: 0 hr 4 min 16 sec) 
Heartbeat CPU  0 instructions:  119000000 cycles:  285560594 heartbeat IPC: 0.07347 cumulative IPC: 0.09343 (Simulation time: 0 hr 4 min 22 sec) 
Heartbeat CPU  0 instructions:  120000000 cycles:  291600529 heartbeat IPC: 0.16556 cumulative IPC: 0.09551 (Simulation time: 0 hr 4 min 26 sec) 
Heartbeat CPU  0 instructions:  121000002 cycles:  307265312 heartbeat IPC: 0.06384 cumulative IPC: 0.09331 (Simulation time: 0 hr 4 min 32 sec) 
Heartbeat CPU  0 instructions:  122000000 cycles:  324571953 heartbeat IPC: 0.05778 cumulative IPC: 0.09077 (Simulation time: 0 hr 4 min 39 sec) 
Heartbeat CPU  0 instructions:  123000000 cycles:  331425017 heartbeat IPC: 0.14592 cumulative IPC: 0.09229 (Simulation time: 0 hr 4 min 43 sec) 
Heartbeat CPU  0 instructions:  124000000 cycles:  337288279 heartbeat IPC: 0.17055 cumulative IPC: 0.09408 (Simulation time: 0 hr 4 min 46 sec) 
Heartbeat CPU  0 instructions:  125000000 cycles:  346903774 heartbeat IPC: 0.10400 cumulative IPC: 0.09444 (Simulation time: 0 hr 4 min 50 sec) 
Heartbeat CPU  0 instructions:  126000000 cycles:  364711618 heartbeat IPC: 0.05616 cumulative IPC: 0.09203 (Simulation time: 0 hr 4 min 58 sec) 
Heartbeat CPU  0 instructions:  127000001 cycles:  371706170 heartbeat IPC: 0.14297 cumulative IPC: 0.09326 (Simulation time: 0 hr 5 min 2 sec) 
Heartbeat CPU  0 instructions:  128000000 cycles:  377747618 heartbeat IPC: 0.16552 cumulative IPC: 0.09474 (Simulation time: 0 hr 5 min 5 sec) 
Heartbeat CPU  0 instructions:  129000001 cycles:  386306732 heartbeat IPC: 0.11683 cumulative IPC: 0.09536 (Simulation time: 0 hr 5 min 9 sec) 
Heartbeat CPU  0 instructions:  130000003 cycles:  405062942 heartbeat IPC: 0.05332 cumulative IPC: 0.09292 (Simulation time: 0 hr 5 min 17 sec) 
Heartbeat CPU  0 instructions:  131000002 cycles:  413823296 heartbeat IPC: 0.11415 cumulative IPC: 0.09348 (Simulation time: 0 hr 5 min 21 sec) 
Heartbeat CPU  0 instructions:  132000000 cycles:  419690108 heartbeat IPC: 0.17045 cumulative IPC: 0.09482 (Simulation time: 0 hr 5 min 25 sec) 
Heartbeat CPU  0 instructions:  133000000 cycles:  425448677 heartbeat IPC: 0.17365 cumulative IPC: 0.09614 (Simulation time: 0 hr 5 min 28 sec) 
Heartbeat CPU  0 instructions:  134000001 cycles:  441942292 heartbeat IPC: 0.06063 cumulative IPC: 0.09451 (Simulation time: 0 hr 5 min 35 sec) 
Heartbeat CPU  0 instructions:  135000000 cycles:  454095714 heartbeat IPC: 0.08228 cumulative IPC: 0.09411 (Simulation time: 0 hr 5 min 41 sec) 
Heartbeat CPU  0 instructions:  136000000 cycles:  460117803 heartbeat IPC: 0.16606 cumulative IPC: 0.09526 (Simulation time: 0 hr 5 min 44 sec) 
Heartbeat CPU  0 instructions:  137000002 cycles:  465565470 heartbeat IPC: 0.18357 cumulative IPC: 0.09651 (Simulation time: 0 hr 5 min 48 sec) 
Heartbeat CPU  0 instructions:  138000001 cycles:  479727071 heartbeat IPC: 0.07061 cumulative IPC: 0.09559 (Simulation time: 0 hr 5 min 54 sec) 
Heartbeat CPU  0 instructions:  139000000 cycles:  493695846 heartbeat IPC: 0.07159 cumulative IPC: 0.09478 (Simulation time: 0 hr 6 min 0 sec) 
Heartbeat CPU  0 instructions:  140000000 cycles:  499958792 heartbeat IPC: 0.15967 cumulative IPC: 0.09575 (Simulation time: 0 hr 6 min 4 sec) 
Heartbeat CPU  0 instructions:  141000000 cycles:  505592933 heartbeat IPC: 0.17749 cumulative IPC: 0.09684 (Simulation time: 0 hr 6 min 8 sec) 
Heartbeat CPU  0 instructions:  142000001 cycles:  518271376 heartbeat IPC: 0.07887 cumulative IPC: 0.09631 (Simulation time: 0 hr 6 min 13 sec) 
Heartbeat CPU  0 instructions:  143000003 cycles:  533818001 heartbeat IPC: 0.06432 cumulative IPC: 0.09521 (Simulation time: 0 hr 6 min 20 sec) 
Heartbeat CPU  0 instructions:  144000000 cycles:  540273796 heartbeat IPC: 0.15490 cumulative IPC: 0.09605 (Simulation time: 0 hr 6 min 24 sec) 
Heartbeat CPU  0 instructions:  145000002 cycles:  545915287 heartbeat IPC: 0.17726 cumulative IPC: 0.09704 (Simulation time: 0 hr 6 min 27 sec) 
Heartbeat CPU  0 instructions:  146000000 cycles:  556992040 heartbeat IPC: 0.09028 cumulative IPC: 0.09688 (Simulation time: 0 hr 6 min 33 sec) 
Heartbeat CPU  0 instructions:  147000003 cycles:  573917144 heartbeat IPC: 0.05908 cumulative IPC: 0.09558 (Simulation time: 0 hr 6 min 40 sec) 
Heartbeat CPU  0 instructions:  148000000 cycles:  580388043 heartbeat IPC: 0.15454 cumulative IPC: 0.09635 (Simulation time: 0 hr 6 min 44 sec) 
Heartbeat CPU  0 instructions:  149000003 cycles:  586064584 heartbeat IPC: 0.17616 cumulative IPC: 0.09725 (Simulation time: 0 hr 6 min 47 sec) 
Heartbeat CPU  0 instructions:  150000002 cycles:  596323548 heartbeat IPC: 0.09748 cumulative IPC: 0.09725 (Simulation time: 0 hr 6 min 52 sec) 
Heartbeat CPU  0 instructions:  151000001 cycles:  614053988 heartbeat IPC: 0.05640 cumulative IPC: 0.09589 (Simulation time: 0 hr 7 min 0 sec) 
Heartbeat CPU  0 instructions:  152000000 cycles:  620866588 heartbeat IPC: 0.14679 cumulative IPC: 0.09653 (Simulation time: 0 hr 7 min 4 sec) 
Heartbeat CPU  0 instructions:  153000000 cycles:  626669355 heartbeat IPC: 0.17233 cumulative IPC: 0.09734 (Simulation time: 0 hr 7 min 7 sec) 
Heartbeat CPU  0 instructions:  154000000 cycles:  634610552 heartbeat IPC: 0.12593 cumulative IPC: 0.09775 (Simulation time: 0 hr 7 min 11 sec) 
Heartbeat CPU  0 instructions:  155000000 cycles:  653997172 heartbeat IPC: 0.05158 cumulative IPC: 0.09619 (Simulation time: 0 hr 7 min 20 sec) 
Heartbeat CPU  0 instructions:  156000000 cycles:  661513982 heartbeat IPC: 0.13304 cumulative IPC: 0.09667 (Simulation time: 0 hr 7 min 24 sec) 
Heartbeat CPU  0 instructions:  157000000 cycles:  670787814 heartbeat IPC: 0.10783 cumulative IPC: 0.09684 (Simulation time: 0 hr 7 min 28 sec) 
Heartbeat CPU  0 instructions:  158000001 cycles:  677240489 heartbeat IPC: 0.15497 cumulative IPC: 0.09747 (Simulation time: 0 hr 7 min 31 sec) 
Heartbeat CPU  0 instructions:  159000000 cycles:  693158301 heartbeat IPC: 0.06282 cumulative IPC: 0.09657 (Simulation time: 0 hr 7 min 38 sec) 
Heartbeat CPU  0 instructions:  160000000 cycles:  707098060 heartbeat IPC: 0.07174 cumulative IPC: 0.09602 (Simulation time: 0 hr 7 min 44 sec) 
Heartbeat CPU  0 instructions:  161000003 cycles:  713896270 heartbeat IPC: 0.14710 cumulative IPC: 0.09657 (Simulation time: 0 hr 7 min 47 sec) 
Heartbeat CPU  0 instructions:  162000000 cycles:  723650838 heartbeat IPC: 0.10252 cumulative IPC: 0.09666 (Simulation time: 0 hr 7 min 52 sec) 
Heartbeat CPU  0 instructions:  163000000 cycles:  735255756 heartbeat IPC: 0.08617 cumulative IPC: 0.09647 (Simulation time: 0 hr 7 min 57 sec) 
Heartbeat CPU  0 instructions:  164000000 cycles:  751998162 heartbeat IPC: 0.05973 cumulative IPC: 0.09555 (Simulation time: 0 hr 8 min 5 sec) 
Heartbeat CPU  0 instructions:  165000002 cycles:  763617353 heartbeat IPC: 0.08606 cumulative IPC: 0.09539 (Simulation time: 0 hr 8 min 10 sec) 
Heartbeat CPU  0 instructions:  166000003 cycles:  770938134 heartbeat IPC: 0.13660 cumulative IPC: 0.09583 (Simulation time: 0 hr 8 min 14 sec) 
Heartbeat CPU  0 instructions:  167000000 cycles:  780403831 heartbeat IPC: 0.10564 cumulative IPC: 0.09596 (Simulation time: 0 hr 8 min 19 sec) 
Heartbeat CPU  0 instructions:  168000000 cycles:  799061793 heartbeat IPC: 0.05360 cumulative IPC: 0.09486 (Simulation time: 0 hr 8 min 27 sec) 
Heartbeat CPU  0 instructions:  169000000 cycles:  805904288 heartbeat IPC: 0.14615 cumulative IPC: 0.09534 (Simulation time: 0 hr 8 min 31 sec) 
Heartbeat CPU  0 instructions:  170000000 cycles:  811640150 heartbeat IPC: 0.17434 cumulative IPC: 0.09596 (Simulation time: 0 hr 8 min 34 sec) 
Heartbeat CPU  0 instructions:  171000002 cycles:  823015792 heartbeat IPC: 0.08791 cumulative IPC: 0.09584 (Simulation time: 0 hr 8 min 40 sec) 
Heartbeat CPU  0 instructions:  172000000 cycles:  839817223 heartbeat IPC: 0.05952 cumulative IPC: 0.09503 (Simulation time: 0 hr 8 min 47 sec) 
Heartbeat CPU  0 instructions:  173000000 cycles:  847539075 heartbeat IPC: 0.12950 cumulative IPC: 0.09538 (Simulation time: 0 hr 8 min 51 sec) 
Heartbeat CPU  0 instructions:  174000002 cycles:  854941895 heartbeat IPC: 0.13508 cumulative IPC: 0.09576 (Simulation time: 0 hr 8 min 55 sec) 
Heartbeat CPU  0 instructions:  175000003 cycles:  864989002 heartbeat IPC: 0.09953 cumulative IPC: 0.09581 (Simulation time: 0 hr 9 min 0 sec) 
Heartbeat CPU  0 instructions:  176000000 cycles:  882857786 heartbeat IPC: 0.05596 cumulative IPC: 0.09492 (Simulation time: 0 hr 9 min 7 sec) 
Heartbeat CPU  0 instructions:  177000002 cycles:  889652974 heartbeat IPC: 0.14716 cumulative IPC: 0.09536 (Simulation time: 0 hr 9 min 11 sec) 
Heartbeat CPU  0 instructions:  178000001 cycles:  895342916 heartbeat IPC: 0.17575 cumulative IPC: 0.09592 (Simulation time: 0 hr 9 min 15 sec) 
Heartbeat CPU  0 instructions:  179000002 cycles:  906569795 heartbeat IPC: 0.08907 cumulative IPC: 0.09583 (Simulation time: 0 hr 9 min 20 sec) 
Heartbeat CPU  0 instructions:  180000000 cycles:  923067932 heartbeat IPC: 0.06061 cumulative IPC: 0.09514 (Simulation time: 0 hr 9 min 27 sec) 
Heartbeat CPU  0 instructions:  181000002 cycles:  929573780 heartbeat IPC: 0.15371 cumulative IPC: 0.09559 (Simulation time: 0 hr 9 min 31 sec) 
Heartbeat CPU  0 instructions:  182000000 cycles:  935758031 heartbeat IPC: 0.16170 cumulative IPC: 0.09607 (Simulation time: 0 hr 9 min 34 sec) 
Heartbeat CPU  0 instructions:  183000002 cycles:  945849776 heartbeat IPC: 0.09909 cumulative IPC: 0.09610 (Simulation time: 0 hr 9 min 39 sec) 
Heartbeat CPU  0 instructions:  184000000 cycles:  963452477 heartbeat IPC: 0.05681 cumulative IPC: 0.09532 (Simulation time: 0 hr 9 min 47 sec) 
Heartbeat CPU  0 instructions:  185000001 cycles:  970335048 heartbeat IPC: 0.14529 cumulative IPC: 0.09571 (Simulation time: 0 hr 9 min 50 sec) 
Heartbeat CPU  0 instructions:  186000000 cycles:  976274018 heartbeat IPC: 0.16838 cumulative IPC: 0.09619 (Simulation time: 0 hr 9 min 54 sec) 
Heartbeat CPU  0 instructions:  187000001 cycles:  984407940 heartbeat IPC: 0.12294 cumulative IPC: 0.09643 (Simulation time: 0 hr 9 min 58 sec) 
Heartbeat CPU  0 instructions:  188000000 cycles: 1003701236 heartbeat IPC: 0.05183 cumulative IPC: 0.09550 (Simulation time: 0 hr 10 min 6 sec) 
Heartbeat CPU  0 instructions:  189000001 cycles: 1011334272 heartbeat IPC: 0.13101 cumulative IPC: 0.09579 (Simulation time: 0 hr 10 min 10 sec) 
Heartbeat CPU  0 instructions:  190000001 cycles: 1019262427 heartbeat IPC: 0.12613 cumulative IPC: 0.09604 (Simulation time: 0 hr 10 min 14 sec) 
Heartbeat CPU  0 instructions:  191000000 cycles: 1027960433 heartbeat IPC: 0.11497 cumulative IPC: 0.09622 (Simulation time: 0 hr 10 min 18 sec) 
Heartbeat CPU  0 instructions:  192000000 cycles: 1044527590 heartbeat IPC: 0.06036 cumulative IPC: 0.09560 (Simulation time: 0 hr 10 min 25 sec) 
Heartbeat CPU  0 instructions:  193000001 cycles: 1057144560 heartbeat IPC: 0.07926 cumulative IPC: 0.09539 (Simulation time: 0 hr 10 min 31 sec) 
Heartbeat CPU  0 instructions:  194000000 cycles: 1063346568 heartbeat IPC: 0.16124 cumulative IPC: 0.09581 (Simulation time: 0 hr 10 min 34 sec) 
Heartbeat CPU  0 instructions:  195000000 cycles: 1069663845 heartbeat IPC: 0.15830 cumulative IPC: 0.09621 (Simulation time: 0 hr 10 min 38 sec) 
Heartbeat CPU  0 instructions:  196000000 cycles: 1085259380 heartbeat IPC: 0.06412 cumulative IPC: 0.09571 (Simulation time: 0 hr 10 min 44 sec) 
Heartbeat CPU  0 instructions:  197000000 cycles: 1098411284 heartbeat IPC: 0.07603 cumulative IPC: 0.09545 (Simulation time: 0 hr 10 min 51 sec) 
Heartbeat CPU  0 instructions:  198000000 cycles: 1104530578 heartbeat IPC: 0.16342 cumulative IPC: 0.09586 (Simulation time: 0 hr 10 min 54 sec) 
Heartbeat CPU  0 instructions:  199000000 cycles: 1110075110 heartbeat IPC: 0.18036 cumulative IPC: 0.09632 (Simulation time: 0 hr 10 min 58 sec) 
Heartbeat CPU  0 instructions:  200000000 cycles: 1129184768 heartbeat IPC: 0.05233 cumulative IPC: 0.09551 (Simulation time: 0 hr 11 min 6 sec) 
Heartbeat CPU  0 instructions:  201000001 cycles: 1139029837 heartbeat IPC: 0.10157 cumulative IPC: 0.09557 (Simulation time: 0 hr 11 min 11 sec) 
Heartbeat CPU  0 instructions:  202000003 cycles: 1144985640 heartbeat IPC: 0.16790 cumulative IPC: 0.09597 (Simulation time: 0 hr 11 min 15 sec) 
Heartbeat CPU  0 instructions:  203000003 cycles: 1152764906 heartbeat IPC: 0.12855 cumulative IPC: 0.09621 (Simulation time: 0 hr 11 min 19 sec) 
Heartbeat CPU  0 instructions:  204000000 cycles: 1172108444 heartbeat IPC: 0.05170 cumulative IPC: 0.09542 (Simulation time: 0 hr 11 min 27 sec) 
Heartbeat CPU  0 instructions:  205000000 cycles: 1180277940 heartbeat IPC: 0.12241 cumulative IPC: 0.09562 (Simulation time: 0 hr 11 min 31 sec) 
Heartbeat CPU  0 instructions:  206000002 cycles: 1187413989 heartbeat IPC: 0.14013 cumulative IPC: 0.09591 (Simulation time: 0 hr 11 min 35 sec) 
Heartbeat CPU  0 instructions:  207000002 cycles: 1196647304 heartbeat IPC: 0.10830 cumulative IPC: 0.09601 (Simulation time: 0 hr 11 min 40 sec) 
Heartbeat CPU  0 instructions:  208000000 cycles: 1215349672 heartbeat IPC: 0.05347 cumulative IPC: 0.09531 (Simulation time: 0 hr 11 min 48 sec) 
Heartbeat CPU  0 instructions:  209000002 cycles: 1222491825 heartbeat IPC: 0.14001 cumulative IPC: 0.09559 (Simulation time: 0 hr 11 min 52 sec) 
Heartbeat CPU  0 instructions:  210000002 cycles: 1229720179 heartbeat IPC: 0.13834 cumulative IPC: 0.09586 (Simulation time: 0 hr 11 min 56 sec) 
Heartbeat CPU  0 instructions:  211000000 cycles: 1242072209 heartbeat IPC: 0.08096 cumulative IPC: 0.09570 (Simulation time: 0 hr 12 min 1 sec) 
Heartbeat CPU  0 instructions:  212000000 cycles: 1258806132 heartbeat IPC: 0.05976 cumulative IPC: 0.09519 (Simulation time: 0 hr 12 min 9 sec) 
Heartbeat CPU  0 instructions:  213000002 cycles: 1265624188 heartbeat IPC: 0.14667 cumulative IPC: 0.09549 (Simulation time: 0 hr 12 min 13 sec) 
Heartbeat CPU  0 instructions:  214000001 cycles: 1272439626 heartbeat IPC: 0.14673 cumulative IPC: 0.09578 (Simulation time: 0 hr 12 min 16 sec) 
Heartbeat CPU  0 instructions:  215000000 cycles: 1287754693 heartbeat IPC: 0.06530 cumulative IPC: 0.09539 (Simulation time: 0 hr 12 min 23 sec) 
Heartbeat CPU  0 instructions:  216000000 cycles: 1302642911 heartbeat IPC: 0.06717 cumulative IPC: 0.09505 (Simulation time: 0 hr 12 min 30 sec) 
Heartbeat CPU  0 instructions:  217000000 cycles: 1311872789 heartbeat IPC: 0.10834 cumulative IPC: 0.09515 (Simulation time: 0 hr 12 min 34 sec) 
Heartbeat CPU  0 instructions:  218000001 cycles: 1318069215 heartbeat IPC: 0.16138 cumulative IPC: 0.09548 (Simulation time: 0 hr 12 min 38 sec) 
Heartbeat CPU  0 instructions:  219000003 cycles: 1332885164 heartbeat IPC: 0.06749 cumulative IPC: 0.09515 (Simulation time: 0 hr 12 min 44 sec) 
Heartbeat CPU  0 instructions:  220000000 cycles: 1347622773 heartbeat IPC: 0.06785 cumulative IPC: 0.09483 (Simulation time: 0 hr 12 min 51 sec) 
Heartbeat CPU  0 instructions:  221000003 cycles: 1354377772 heartbeat IPC: 0.14804 cumulative IPC: 0.09511 (Simulation time: 0 hr 12 min 55 sec) 
Heartbeat CPU  0 instructions:  222000002 cycles: 1360185588 heartbeat IPC: 0.17218 cumulative IPC: 0.09546 (Simulation time: 0 hr 12 min 58 sec) 
Heartbeat CPU  0 instructions:  223000001 cycles: 1381115979 heartbeat IPC: 0.04778 cumulative IPC: 0.09469 (Simulation time: 0 hr 13 min 7 sec) 
Heartbeat CPU  0 instructions:  224000000 cycles: 1389843614 heartbeat IPC: 0.11458 cumulative IPC: 0.09483 (Simulation time: 0 hr 13 min 12 sec) 
Heartbeat CPU  0 instructions:  225000000 cycles: 1395744962 heartbeat IPC: 0.16945 cumulative IPC: 0.09516 (Simulation time: 0 hr 13 min 15 sec) 
Heartbeat CPU  0 instructions:  226000003 cycles: 1405945624 heartbeat IPC: 0.09803 cumulative IPC: 0.09518 (Simulation time: 0 hr 13 min 21 sec) 
Heartbeat CPU  0 instructions:  227000001 cycles: 1424469619 heartbeat IPC: 0.05398 cumulative IPC: 0.09462 (Simulation time: 0 hr 13 min 29 sec) 
Heartbeat CPU  0 instructions:  228000000 cycles: 1431204399 heartbeat IPC: 0.14848 cumulative IPC: 0.09488 (Simulation time: 0 hr 13 min 33 sec) 
Heartbeat CPU  0 instructions:  229000000 cycles: 1437098396 heartbeat IPC: 0.16966 cumulative IPC: 0.09521 (Simulation time: 0 hr 13 min 36 sec) 
Heartbeat CPU  0 instructions:  230000002 cycles: 1452323278 heartbeat IPC: 0.06568 cumulative IPC: 0.09488 (Simulation time: 0 hr 13 min 43 sec) 
Heartbeat CPU  0 instructions:  231000003 cycles: 1466281290 heartbeat IPC: 0.07164 cumulative IPC: 0.09465 (Simulation time: 0 hr 13 min 50 sec) 
Heartbeat CPU  0 instructions:  232000000 cycles: 1472639816 heartbeat IPC: 0.15727 cumulative IPC: 0.09493 (Simulation time: 0 hr 13 min 53 sec) 
Heartbeat CPU  0 instructions:  233000002 cycles: 1479090182 heartbeat IPC: 0.15503 cumulative IPC: 0.09521 (Simulation time: 0 hr 13 min 57 sec) 
Heartbeat CPU  0 instructions:  234000000 cycles: 1499728109 heartbeat IPC: 0.04845 cumulative IPC: 0.09453 (Simulation time: 0 hr 14 min 6 sec) 
Heartbeat CPU  0 instructions:  235000000 cycles: 1508654095 heartbeat IPC: 0.11203 cumulative IPC: 0.09464 (Simulation time: 0 hr 14 min 11 sec) 
Heartbeat CPU  0 instructions:  236000000 cycles: 1515486157 heartbeat IPC: 0.14637 cumulative IPC: 0.09489 (Simulation time: 0 hr 14 min 15 sec) 
Heartbeat CPU  0 instructions:  237000003 cycles: 1524913168 heartbeat IPC: 0.10608 cumulative IPC: 0.09496 (Simulation time: 0 hr 14 min 19 sec) 
Heartbeat CPU  0 instructions:  238000003 cycles: 1543305561 heartbeat IPC: 0.05437 cumulative IPC: 0.09445 (Simulation time: 0 hr 14 min 27 sec) 
Heartbeat CPU  0 instructions:  239000000 cycles: 1549982017 heartbeat IPC: 0.14978 cumulative IPC: 0.09470 (Simulation time: 0 hr 14 min 31 sec) 
Heartbeat CPU  0 instructions:  240000000 cycles: 1555395042 heartbeat IPC: 0.18474 cumulative IPC: 0.09503 (Simulation time: 0 hr 14 min 35 sec) 
Heartbeat CPU  0 instructions:  241000001 cycles: 1570002432 heartbeat IPC: 0.06846 cumulative IPC: 0.09477 (Simulation time: 0 hr 14 min 41 sec) 
Heartbeat CPU  0 instructions:  242000000 cycles: 1585102976 heartbeat IPC: 0.06622 cumulative IPC: 0.09448 (Simulation time: 0 hr 14 min 48 sec) 
Heartbeat CPU  0 instructions:  243000003 cycles: 1600818179 heartbeat IPC: 0.06363 cumulative IPC: 0.09416 (Simulation time: 0 hr 14 min 54 sec) 
Heartbeat CPU  0 instructions:  244000000 cycles: 1606624869 heartbeat IPC: 0.17221 cumulative IPC: 0.09446 (Simulation time: 0 hr 14 min 58 sec) 
Heartbeat CPU  0 instructions:  245000003 cycles: 1617562636 heartbeat IPC: 0.09143 cumulative IPC: 0.09444 (Simulation time: 0 hr 15 min 3 sec) 
Heartbeat CPU  0 instructions:  246000001 cycles: 1634932431 heartbeat IPC: 0.05757 cumulative IPC: 0.09403 (Simulation time: 0 hr 15 min 11 sec) 
Heartbeat CPU  0 instructions:  247000000 cycles: 1641509159 heartbeat IPC: 0.15205 cumulative IPC: 0.09427 (Simulation time: 0 hr 15 min 15 sec) 
Heartbeat CPU  0 instructions:  248000000 cycles: 1647015909 heartbeat IPC: 0.18160 cumulative IPC: 0.09458 (Simulation time: 0 hr 15 min 18 sec) 
Heartbeat CPU  0 instructions:  249000000 cycles: 1661731911 heartbeat IPC: 0.06795 cumulative IPC: 0.09433 (Simulation time: 0 hr 15 min 25 sec) 
Heartbeat CPU  0 instructions:  250000003 cycles: 1675996280 heartbeat IPC: 0.07010 cumulative IPC: 0.09411 (Simulation time: 0 hr 15 min 31 sec) 
Heartbeat CPU  0 instructions:  251000002 cycles: 1681984737 heartbeat IPC: 0.16699 cumulative IPC: 0.09439 (Simulation time: 0 hr 15 min 35 sec) 
Heartbeat CPU  0 instructions:  252000000 cycles: 1687485616 heartbeat IPC: 0.18179 cumulative IPC: 0.09469 (Simulation time: 0 hr 15 min 38 sec) 
Heartbeat CPU  0 instructions:  253000002 cycles: 1706692267 heartbeat IPC: 0.05207 cumulative IPC: 0.09418 (Simulation time: 0 hr 15 min 46 sec) 
Heartbeat CPU  0 instructions:  254000000 cycles: 1716442768 heartbeat IPC: 0.10256 cumulative IPC: 0.09423 (Simulation time: 0 hr 15 min 51 sec) 
Heartbeat CPU  0 instructions:  255000000 cycles: 1728056009 heartbeat IPC: 0.08611 cumulative IPC: 0.09418 (Simulation time: 0 hr 15 min 56 sec) 
Heartbeat CPU  0 instructions:  256000000 cycles: 1745877368 heartbeat IPC: 0.05611 cumulative IPC: 0.09377 (Simulation time: 0 hr 16 min 3 sec) 
Heartbeat CPU  0 instructions:  257000000 cycles: 1758857924 heartbeat IPC: 0.07704 cumulative IPC: 0.09364 (Simulation time: 0 hr 16 min 9 sec) 
Heartbeat CPU  0 instructions:  258000002 cycles: 1777343232 heartbeat IPC: 0.05410 cumulative IPC: 0.09321 (Simulation time: 0 hr 16 min 17 sec) 
Heartbeat CPU  0 instructions:  259000002 cycles: 1785727218 heartbeat IPC: 0.11928 cumulative IPC: 0.09334 (Simulation time: 0 hr 16 min 22 sec) 
Heartbeat CPU  0 instructions:  260000000 cycles: 1792930960 heartbeat IPC: 0.13882 cumulative IPC: 0.09353 (Simulation time: 0 hr 16 min 26 sec) 
Heartbeat CPU  0 instructions:  261000002 cycles: 1805172505 heartbeat IPC: 0.08169 cumulative IPC: 0.09344 (Simulation time: 0 hr 16 min 31 sec) 
Heartbeat CPU  0 instructions:  262000002 cycles: 1821968782 heartbeat IPC: 0.05954 cumulative IPC: 0.09312 (Simulation time: 0 hr 16 min 39 sec) 
Heartbeat CPU  0 instructions:  263000002 cycles: 1828453300 heartbeat IPC: 0.15421 cumulative IPC: 0.09334 (Simulation time: 0 hr 16 min 43 sec) 
Heartbeat CPU  0 instructions:  264000000 cycles: 1834097465 heartbeat IPC: 0.17717 cumulative IPC: 0.09361 (Simulation time: 0 hr 16 min 46 sec) 
Heartbeat CPU  0 instructions:  265000002 cycles: 1849832129 heartbeat IPC: 0.06355 cumulative IPC: 0.09335 (Simulation time: 0 hr 16 min 53 sec) 
Heartbeat CPU  0 instructions:  266000000 cycles: 1866114653 heartbeat IPC: 0.06142 cumulative IPC: 0.09305 (Simulation time: 0 hr 17 min 0 sec) 
Heartbeat CPU  0 instructions:  267000001 cycles: 1877460053 heartbeat IPC: 0.08814 cumulative IPC: 0.09302 (Simulation time: 0 hr 17 min 5 sec) 
Heartbeat CPU  0 instructions:  268000000 cycles: 1882504260 heartbeat IPC: 0.19825 cumulative IPC: 0.09332 (Simulation time: 0 hr 17 min 9 sec) 
Heartbeat CPU  0 instructions:  269000002 cycles: 1893349920 heartbeat IPC: 0.09220 cumulative IPC: 0.09331 (Simulation time: 0 hr 17 min 14 sec) 
Heartbeat CPU  0 instructions:  270000001 cycles: 1910226199 heartbeat IPC: 0.05925 cumulative IPC: 0.09300 (Simulation time: 0 hr 17 min 21 sec) 
Heartbeat CPU  0 instructions:  271000001 cycles: 1920750883 heartbeat IPC: 0.09501 cumulative IPC: 0.09301 (Simulation time: 0 hr 17 min 26 sec) 
Heartbeat CPU  0 instructions:  272000000 cycles: 1931282308 heartbeat IPC: 0.09495 cumulative IPC: 0.09302 (Simulation time: 0 hr 17 min 31 sec) 
Heartbeat CPU  0 instructions:  273000003 cycles: 1938990833 heartbeat IPC: 0.12973 cumulative IPC: 0.09317 (Simulation time: 0 hr 17 min 35 sec) 
Heartbeat CPU  0 instructions:  274000000 cycles: 1958178719 heartbeat IPC: 0.05212 cumulative IPC: 0.09275 (Simulation time: 0 hr 17 min 43 sec) 
Heartbeat CPU  0 instructions:  275000002 cycles: 1966113865 heartbeat IPC: 0.12602 cumulative IPC: 0.09289 (Simulation time: 0 hr 17 min 48 sec) 
Heartbeat CPU  0 instructions:  276000000 cycles: 1972443831 heartbeat IPC: 0.15798 cumulative IPC: 0.09311 (Simulation time: 0 hr 17 min 52 sec) 
Heartbeat CPU  0 instructions:  277000002 cycles: 1982435910 heartbeat IPC: 0.10008 cumulative IPC: 0.09315 (Simulation time: 0 hr 17 min 57 sec) 
Heartbeat CPU  0 instructions:  278000001 cycles: 2000398859 heartbeat IPC: 0.05567 cumulative IPC: 0.09280 (Simulation time: 0 hr 18 min 4 sec) 
Heartbeat CPU  0 instructions:  279000000 cycles: 2007057997 heartbeat IPC: 0.15017 cumulative IPC: 0.09299 (Simulation time: 0 hr 18 min 9 sec) 
Heartbeat CPU  0 instructions:  280000000 cycles: 2012792158 heartbeat IPC: 0.17439 cumulative IPC: 0.09324 (Simulation time: 0 hr 18 min 12 sec) 
Heartbeat CPU  0 instructions:  281000002 cycles: 2026253322 heartbeat IPC: 0.07429 cumulative IPC: 0.09310 (Simulation time: 0 hr 18 min 18 sec) 
Heartbeat CPU  0 instructions:  282000000 cycles: 2041166931 heartbeat IPC: 0.06705 cumulative IPC: 0.09291 (Simulation time: 0 hr 18 min 25 sec) 
Heartbeat CPU  0 instructions:  283000003 cycles: 2047488744 heartbeat IPC: 0.15818 cumulative IPC: 0.09312 (Simulation time: 0 hr 18 min 29 sec) 
Heartbeat CPU  0 instructions:  284000000 cycles: 2053422843 heartbeat IPC: 0.16852 cumulative IPC: 0.09334 (Simulation time: 0 hr 18 min 33 sec) 
Heartbeat CPU  0 instructions:  285000003 cycles: 2070615729 heartbeat IPC: 0.05816 cumulative IPC: 0.09304 (Simulation time: 0 hr 18 min 40 sec) 
Heartbeat CPU  0 instructions:  286000001 cycles: 2082120138 heartbeat IPC: 0.08692 cumulative IPC: 0.09300 (Simulation time: 0 hr 18 min 46 sec) 
Heartbeat CPU  0 instructions:  287000001 cycles: 2088564409 heartbeat IPC: 0.15518 cumulative IPC: 0.09320 (Simulation time: 0 hr 18 min 50 sec) 
Heartbeat CPU  0 instructions:  288000000 cycles: 2094379160 heartbeat IPC: 0.17198 cumulative IPC: 0.09343 (Simulation time: 0 hr 18 min 53 sec) 
Heartbeat CPU  0 instructions:  289000002 cycles: 2114678379 heartbeat IPC: 0.04926 cumulative IPC: 0.09299 (Simulation time: 0 hr 19 min 1 sec) 
Heartbeat CPU  0 instructions:  290000002 cycles: 2123158387 heartbeat IPC: 0.11792 cumulative IPC: 0.09309 (Simulation time: 0 hr 19 min 6 sec) 
Heartbeat CPU  0 instructions:  291000000 cycles: 2129060559 heartbeat IPC: 0.16943 cumulative IPC: 0.09331 (Simulation time: 0 hr 19 min 10 sec) 
Heartbeat CPU  0 instructions:  292000000 cycles: 2138062594 heartbeat IPC: 0.11109 cumulative IPC: 0.09339 (Simulation time: 0 hr 19 min 15 sec) 
Heartbeat CPU  0 instructions:  293000000 cycles: 2156584736 heartbeat IPC: 0.05399 cumulative IPC: 0.09304 (Simulation time: 0 hr 19 min 22 sec) 
Heartbeat CPU  0 instructions:  294000000 cycles: 2163767175 heartbeat IPC: 0.13923 cumulative IPC: 0.09320 (Simulation time: 0 hr 19 min 27 sec) 
Heartbeat CPU  0 instructions:  295000001 cycles: 2169551308 heartbeat IPC: 0.17289 cumulative IPC: 0.09342 (Simulation time: 0 hr 19 min 30 sec) 
Heartbeat CPU  0 instructions:  296000000 cycles: 2181107337 heartbeat IPC: 0.08653 cumulative IPC: 0.09338 (Simulation time: 0 hr 19 min 36 sec) 
Heartbeat CPU  0 instructions:  297000000 cycles: 2197616395 heartbeat IPC: 0.06057 cumulative IPC: 0.09313 (Simulation time: 0 hr 19 min 43 sec) 
Heartbeat CPU  0 instructions:  298000001 cycles: 2204206616 heartbeat IPC: 0.15174 cumulative IPC: 0.09331 (Simulation time: 0 hr 19 min 47 sec) 
Heartbeat CPU  0 instructions:  299000002 cycles: 2210135705 heartbeat IPC: 0.16866 cumulative IPC: 0.09352 (Simulation time: 0 hr 19 min 50 sec) 
Heartbeat CPU  0 instructions:  300000000 cycles: 2224212030 heartbeat IPC: 0.07104 cumulative IPC: 0.09337 (Simulation time: 0 hr 19 min 56 sec) 
Heartbeat CPU  0 instructions:  301000003 cycles: 2238395775 heartbeat IPC: 0.07050 cumulative IPC: 0.09322 (Simulation time: 0 hr 20 min 3 sec) 
Heartbeat CPU  0 instructions:  302000003 cycles: 2244737383 heartbeat IPC: 0.15769 cumulative IPC: 0.09341 (Simulation time: 0 hr 20 min 7 sec) 
Heartbeat CPU  0 instructions:  303000000 cycles: 2250573748 heartbeat IPC: 0.17134 cumulative IPC: 0.09362 (Simulation time: 0 hr 20 min 10 sec) 
Heartbeat CPU  0 instructions:  304000000 cycles: 2265560089 heartbeat IPC: 0.06673 cumulative IPC: 0.09343 (Simulation time: 0 hr 20 min 17 sec) 
Heartbeat CPU  0 instructions:  305000002 cycles: 2279078340 heartbeat IPC: 0.07397 cumulative IPC: 0.09331 (Simulation time: 0 hr 20 min 23 sec) 
Heartbeat CPU  0 instructions:  306000000 cycles: 2285462753 heartbeat IPC: 0.15663 cumulative IPC: 0.09350 (Simulation time: 0 hr 20 min 27 sec) 
Heartbeat CPU  0 instructions:  307000001 cycles: 2291701121 heartbeat IPC: 0.16030 cumulative IPC: 0.09369 (Simulation time: 0 hr 20 min 30 sec) 
Heartbeat CPU  0 instructions:  308000000 cycles: 2306922332 heartbeat IPC: 0.06570 cumulative IPC: 0.09349 (Simulation time: 0 hr 20 min 37 sec) 
Heartbeat CPU  0 instructions:  309000000 cycles: 2327558135 heartbeat IPC: 0.04846 cumulative IPC: 0.09308 (Simulation time: 0 hr 20 min 45 sec) 
Heartbeat CPU  0 instructions:  310000000 cycles: 2335885177 heartbeat IPC: 0.12009 cumulative IPC: 0.09318 (Simulation time: 0 hr 20 min 50 sec) 
Heartbeat CPU  0 instructions:  311000001 cycles: 2341329355 heartbeat IPC: 0.18368 cumulative IPC: 0.09340 (Simulation time: 0 hr 20 min 54 sec) 
Heartbeat CPU  0 instructions:  312000000 cycles: 2350646662 heartbeat IPC: 0.10733 cumulative IPC: 0.09346 (Simulation time: 0 hr 20 min 58 sec) 
Heartbeat CPU  0 instructions:  313000002 cycles: 2369902287 heartbeat IPC: 0.05193 cumulative IPC: 0.09311 (Simulation time: 0 hr 21 min 7 sec) 
Heartbeat CPU  0 instructions:  314000001 cycles: 2377252512 heartbeat IPC: 0.13605 cumulative IPC: 0.09324 (Simulation time: 0 hr 21 min 11 sec) 
Heartbeat CPU  0 instructions:  315000001 cycles: 2383042932 heartbeat IPC: 0.17270 cumulative IPC: 0.09344 (Simulation time: 0 hr 21 min 15 sec) 
Heartbeat CPU  0 instructions:  316000000 cycles: 2394755572 heartbeat IPC: 0.08538 cumulative IPC: 0.09340 (Simulation time: 0 hr 21 min 20 sec) 
Heartbeat CPU  0 instructions:  317000002 cycles: 2414726499 heartbeat IPC: 0.05007 cumulative IPC: 0.09303 (Simulation time: 0 hr 21 min 28 sec) 
Heartbeat CPU  0 instructions:  318000003 cycles: 2424206696 heartbeat IPC: 0.10548 cumulative IPC: 0.09308 (Simulation time: 0 hr 21 min 33 sec) 
Heartbeat CPU  0 instructions:  319000001 cycles: 2430430755 heartbeat IPC: 0.16067 cumulative IPC: 0.09326 (Simulation time: 0 hr 21 min 37 sec) 
Heartbeat CPU  0 instructions:  320000000 cycles: 2443927253 heartbeat IPC: 0.07409 cumulative IPC: 0.09315 (Simulation time: 0 hr 21 min 42 sec) 
Heartbeat CPU  0 instructions:  321000001 cycles: 2460921746 heartbeat IPC: 0.05884 cumulative IPC: 0.09291 (Simulation time: 0 hr 21 min 49 sec) 
Heartbeat CPU  0 instructions:  322000000 cycles: 2482358202 heartbeat IPC: 0.04665 cumulative IPC: 0.09249 (Simulation time: 0 hr 21 min 58 sec) 
Heartbeat CPU  0 instructions:  323000000 cycles: 2490654343 heartbeat IPC: 0.12054 cumulative IPC: 0.09259 (Simulation time: 0 hr 22 min 2 sec) 
Heartbeat CPU  0 instructions:  324000000 cycles: 2497137824 heartbeat IPC: 0.15424 cumulative IPC: 0.09276 (Simulation time: 0 hr 22 min 6 sec) 
Heartbeat CPU  0 instructions:  325000002 cycles: 2502798127 heartbeat IPC: 0.17667 cumulative IPC: 0.09295 (Simulation time: 0 hr 22 min 9 sec) 
Heartbeat CPU  0 instructions:  326000002 cycles: 2519462744 heartbeat IPC: 0.06001 cumulative IPC: 0.09273 (Simulation time: 0 hr 22 min 16 sec) 
Heartbeat CPU  0 instructions:  327000000 cycles: 2531585874 heartbeat IPC: 0.08249 cumulative IPC: 0.09268 (Simulation time: 0 hr 22 min 22 sec) 
Heartbeat CPU  0 instructions:  328000000 cycles: 2537754211 heartbeat IPC: 0.16212 cumulative IPC: 0.09285 (Simulation time: 0 hr 22 min 25 sec) 
Heartbeat CPU  0 instructions:  329000000 cycles: 2543602327 heartbeat IPC: 0.17100 cumulative IPC: 0.09304 (Simulation time: 0 hr 22 min 28 sec) 
Heartbeat CPU  0 instructions:  330000001 cycles: 2556919090 heartbeat IPC: 0.07509 cumulative IPC: 0.09294 (Simulation time: 0 hr 22 min 34 sec) 
Heartbeat CPU  0 instructions:  331000001 cycles: 2572390895 heartbeat IPC: 0.06463 cumulative IPC: 0.09276 (Simulation time: 0 hr 22 min 41 sec) 
Heartbeat CPU  0 instructions:  332000000 cycles: 2579203591 heartbeat IPC: 0.14678 cumulative IPC: 0.09291 (Simulation time: 0 hr 22 min 45 sec) 
Heartbeat CPU  0 instructions:  333000000 cycles: 2585005850 heartbeat IPC: 0.17235 cumulative IPC: 0.09310 (Simulation time: 0 hr 22 min 48 sec) 
Heartbeat CPU  0 instructions:  334000001 cycles: 2597069718 heartbeat IPC: 0.08289 cumulative IPC: 0.09305 (Simulation time: 0 hr 22 min 54 sec) 
Heartbeat CPU  0 instructions:  335000000 cycles: 2613754724 heartbeat IPC: 0.05993 cumulative IPC: 0.09283 (Simulation time: 0 hr 23 min 1 sec) 
Heartbeat CPU  0 instructions:  336000000 cycles: 2624381473 heartbeat IPC: 0.09410 cumulative IPC: 0.09283 (Simulation time: 0 hr 23 min 6 sec) 
Heartbeat CPU  0 instructions:  337000000 cycles: 2630286666 heartbeat IPC: 0.16934 cumulative IPC: 0.09301 (Simulation time: 0 hr 23 min 9 sec) 
Heartbeat CPU  0 instructions:  338000000 cycles: 2639250918 heartbeat IPC: 0.11155 cumulative IPC: 0.09308 (Simulation time: 0 hr 23 min 14 sec) 
Heartbeat CPU  0 instructions:  339000002 cycles: 2658142401 heartbeat IPC: 0.05293 cumulative IPC: 0.09278 (Simulation time: 0 hr 23 min 22 sec) 
Heartbeat CPU  0 instructions:  340000000 cycles: 2665277619 heartbeat IPC: 0.14015 cumulative IPC: 0.09291 (Simulation time: 0 hr 23 min 26 sec) 
Heartbeat CPU  0 instructions:  341000001 cycles: 2671334578 heartbeat IPC: 0.16510 cumulative IPC: 0.09308 (Simulation time: 0 hr 23 min 30 sec) 
Heartbeat CPU  0 instructions:  342000000 cycles: 2681754926 heartbeat IPC: 0.09597 cumulative IPC: 0.09309 (Simulation time: 0 hr 23 min 35 sec) 
Heartbeat CPU  0 instructions:  343000003 cycles: 2699265945 heartbeat IPC: 0.05711 cumulative IPC: 0.09285 (Simulation time: 0 hr 23 min 42 sec) 
Heartbeat CPU  0 instructions:  344000000 cycles: 2706081201 heartbeat IPC: 0.14673 cumulative IPC: 0.09299 (Simulation time: 0 hr 23 min 46 sec) 
Heartbeat CPU  0 instructions:  345000000 cycles: 2711642571 heartbeat IPC: 0.17981 cumulative IPC: 0.09318 (Simulation time: 0 hr 23 min 50 sec) 
Heartbeat CPU  0 instructions:  346000003 cycles: 2723103671 heartbeat IPC: 0.08725 cumulative IPC: 0.09315 (Simulation time: 0 hr 23 min 55 sec) 
Heartbeat CPU  0 instructions:  347000001 cycles: 2739688318 heartbeat IPC: 0.06030 cumulative IPC: 0.09294 (Simulation time: 0 hr 24 min 2 sec) 
Heartbeat CPU  0 instructions:  348000000 cycles: 2746634148 heartbeat IPC: 0.14397 cumulative IPC: 0.09308 (Simulation time: 0 hr 24 min 6 sec) 
Heartbeat CPU  0 instructions:  349000001 cycles: 2752496023 heartbeat IPC: 0.17059 cumulative IPC: 0.09325 (Simulation time: 0 hr 24 min 10 sec) 
Heartbeat CPU  0 instructions:  350000000 cycles: 2765366538 heartbeat IPC: 0.07770 cumulative IPC: 0.09317 (Simulation time: 0 hr 24 min 16 sec) 
Heartbeat CPU  0 instructions:  351000003 cycles: 2781347446 heartbeat IPC: 0.06257 cumulative IPC: 0.09299 (Simulation time: 0 hr 24 min 23 sec) 
Heartbeat CPU  0 instructions:  352000000 cycles: 2787549144 heartbeat IPC: 0.16125 cumulative IPC: 0.09315 (Simulation time: 0 hr 24 min 27 sec) 
Heartbeat CPU  0 instructions:  353000001 cycles: 2793296200 heartbeat IPC: 0.17400 cumulative IPC: 0.09332 (Simulation time: 0 hr 24 min 30 sec) 
Heartbeat CPU  0 instructions:  354000003 cycles: 2807908800 heartbeat IPC: 0.06843 cumulative IPC: 0.09319 (Simulation time: 0 hr 24 min 37 sec) 
Heartbeat CPU  0 instructions:  355000001 cycles: 2822224631 heartbeat IPC: 0.06985 cumulative IPC: 0.09306 (Simulation time: 0 hr 24 min 43 sec) 
Heartbeat CPU  0 instructions:  356000000 cycles: 2829030501 heartbeat IPC: 0.14693 cumulative IPC: 0.09320 (Simulation time: 0 hr 24 min 47 sec) 
Heartbeat CPU  0 instructions:  357000001 cycles: 2834633609 heartbeat IPC: 0.17847 cumulative IPC: 0.09337 (Simulation time: 0 hr 24 min 51 sec) 
Heartbeat CPU  0 instructions:  358000002 cycles: 2851404441 heartbeat IPC: 0.05963 cumulative IPC: 0.09317 (Simulation time: 0 hr 24 min 58 sec) 
Heartbeat CPU  0 instructions:  359000002 cycles: 2863477967 heartbeat IPC: 0.08283 cumulative IPC: 0.09312 (Simulation time: 0 hr 25 min 4 sec) 
Heartbeat CPU  0 instructions:  360000000 cycles: 2869491035 heartbeat IPC: 0.16630 cumulative IPC: 0.09328 (Simulation time: 0 hr 25 min 8 sec) 
Heartbeat CPU  0 instructions:  361000003 cycles: 2874981884 heartbeat IPC: 0.18212 cumulative IPC: 0.09346 (Simulation time: 0 hr 25 min 11 sec) 
Heartbeat CPU  0 instructions:  362000001 cycles: 2895377229 heartbeat IPC: 0.04903 cumulative IPC: 0.09313 (Simulation time: 0 hr 25 min 20 sec) 
Heartbeat CPU  0 instructions:  363000000 cycles: 2903809025 heartbeat IPC: 0.11860 cumulative IPC: 0.09321 (Simulation time: 0 hr 25 min 25 sec) 
Heartbeat CPU  0 instructions:  364000000 cycles: 2910331014 heartbeat IPC: 0.15333 cumulative IPC: 0.09335 (Simulation time: 0 hr 25 min 29 sec) 
Heartbeat CPU  0 instructions:  365000000 cycles: 2918543274 heartbeat IPC: 0.12177 cumulative IPC: 0.09343 (Simulation time: 0 hr 25 min 33 sec) 
Heartbeat CPU  0 instructions:  366000000 cycles: 2937824369 heartbeat IPC: 0.05186 cumulative IPC: 0.09315 (Simulation time: 0 hr 25 min 41 sec) 
Heartbeat CPU  0 instructions:  367000000 cycles: 2945022175 heartbeat IPC: 0.13893 cumulative IPC: 0.09326 (Simulation time: 0 hr 25 min 46 sec) 
Heartbeat CPU  0 instructions:  368000000 cycles: 2951103799 heartbeat IPC: 0.16443 cumulative IPC: 0.09342 (Simulation time: 0 hr 25 min 49 sec) 
Heartbeat CPU  0 instructions:  369000003 cycles: 2962721469 heartbeat IPC: 0.08608 cumulative IPC: 0.09339 (Simulation time: 0 hr 25 min 55 sec) 
Heartbeat CPU  0 instructions:  370000003 cycles: 2979621005 heartbeat IPC: 0.05917 cumulative IPC: 0.09319 (Simulation time: 0 hr 26 min 2 sec) 
Heartbeat CPU  0 instructions:  371000002 cycles: 2986036464 heartbeat IPC: 0.15587 cumulative IPC: 0.09332 (Simulation time: 0 hr 26 min 6 sec) 
Heartbeat CPU  0 instructions:  372000000 cycles: 2991625209 heartbeat IPC: 0.17893 cumulative IPC: 0.09349 (Simulation time: 0 hr 26 min 10 sec) 
Heartbeat CPU  0 instructions:  373000002 cycles: 3007752012 heartbeat IPC: 0.06201 cumulative IPC: 0.09332 (Simulation time: 0 hr 26 min 17 sec) 
Heartbeat CPU  0 instructions:  374000001 cycles: 3020454023 heartbeat IPC: 0.07873 cumulative IPC: 0.09325 (Simulation time: 0 hr 26 min 23 sec) 
Heartbeat CPU  0 instructions:  375000002 cycles: 3026500964 heartbeat IPC: 0.16537 cumulative IPC: 0.09340 (Simulation time: 0 hr 26 min 27 sec) 
Heartbeat CPU  0 instructions:  376000000 cycles: 3033727108 heartbeat IPC: 0.13839 cumulative IPC: 0.09351 (Simulation time: 0 hr 26 min 31 sec) 
Heartbeat CPU  0 instructions:  377000000 cycles: 3053761444 heartbeat IPC: 0.04991 cumulative IPC: 0.09322 (Simulation time: 0 hr 26 min 40 sec) 
Heartbeat CPU  0 instructions:  378000000 cycles: 3061658804 heartbeat IPC: 0.12662 cumulative IPC: 0.09331 (Simulation time: 0 hr 26 min 44 sec) 
Heartbeat CPU  0 instructions:  379000002 cycles: 3067294111 heartbeat IPC: 0.17745 cumulative IPC: 0.09346 (Simulation time: 0 hr 26 min 48 sec) 
Heartbeat CPU  0 instructions:  380000000 cycles: 3079755232 heartbeat IPC: 0.08025 cumulative IPC: 0.09341 (Simulation time: 0 hr 26 min 54 sec) 
Heartbeat CPU  0 instructions:  381000000 cycles: 3095957645 heartbeat IPC: 0.06172 cumulative IPC: 0.09324 (Simulation time: 0 hr 27 min 1 sec) 
Heartbeat CPU  0 instructions:  382000002 cycles: 3102432906 heartbeat IPC: 0.15443 cumulative IPC: 0.09337 (Simulation time: 0 hr 27 min 5 sec) 
Heartbeat CPU  0 instructions:  383000001 cycles: 3108198250 heartbeat IPC: 0.17345 cumulative IPC: 0.09352 (Simulation time: 0 hr 27 min 9 sec) 
Heartbeat CPU  0 instructions:  384000000 cycles: 3125975332 heartbeat IPC: 0.05625 cumulative IPC: 0.09331 (Simulation time: 0 hr 27 min 17 sec) 
Heartbeat CPU  0 instructions:  385000001 cycles: 3137720376 heartbeat IPC: 0.08514 cumulative IPC: 0.09327 (Simulation time: 0 hr 27 min 23 sec) 
Heartbeat CPU  0 instructions:  386000002 cycles: 3143669226 heartbeat IPC: 0.16810 cumulative IPC: 0.09342 (Simulation time: 0 hr 27 min 26 sec) 
Heartbeat CPU  0 instructions:  387000003 cycles: 3151922455 heartbeat IPC: 0.12116 cumulative IPC: 0.09349 (Simulation time: 0 hr 27 min 31 sec) 
Heartbeat CPU  0 instructions:  388000000 cycles: 3171378956 heartbeat IPC: 0.05140 cumulative IPC: 0.09323 (Simulation time: 0 hr 27 min 39 sec) 
Heartbeat CPU  0 instructions:  389000001 cycles: 3178722221 heartbeat IPC: 0.13618 cumulative IPC: 0.09333 (Simulation time: 0 hr 27 min 43 sec) 
Heartbeat CPU  0 instructions:  390000000 cycles: 3184359783 heartbeat IPC: 0.17738 cumulative IPC: 0.09348 (Simulation time: 0 hr 27 min 47 sec) 
Heartbeat CPU  0 instructions:  391000002 cycles: 3196835439 heartbeat IPC: 0.08016 cumulative IPC: 0.09343 (Simulation time: 0 hr 27 min 53 sec) 
Heartbeat CPU  0 instructions:  392000000 cycles: 3213027711 heartbeat IPC: 0.06176 cumulative IPC: 0.09327 (Simulation time: 0 hr 28 min 0 sec) 
Heartbeat CPU  0 instructions:  393000000 cycles: 3219368613 heartbeat IPC: 0.15771 cumulative IPC: 0.09340 (Simulation time: 0 hr 28 min 4 sec) 
Heartbeat CPU  0 instructions:  394000001 cycles: 3225314778 heartbeat IPC: 0.16818 cumulative IPC: 0.09354 (Simulation time: 0 hr 28 min 8 sec) 
Heartbeat CPU  0 instructions:  395000000 cycles: 3242506454 heartbeat IPC: 0.05817 cumulative IPC: 0.09335 (Simulation time: 0 hr 28 min 16 sec) 
Heartbeat CPU  0 instructions:  396000000 cycles: 3254423341 heartbeat IPC: 0.08391 cumulative IPC: 0.09331 (Simulation time: 0 hr 28 min 22 sec) 
Heartbeat CPU  0 instructions:  397000000 cycles: 3260904196 heartbeat IPC: 0.15430 cumulative IPC: 0.09343 (Simulation time: 0 hr 28 min 25 sec) 
Heartbeat CPU  0 instructions:  398000001 cycles: 3267778474 heartbeat IPC: 0.14547 cumulative IPC: 0.09355 (Simulation time: 0 hr 28 min 29 sec) 
Heartbeat CPU  0 instructions:  399000001 cycles: 3288366015 heartbeat IPC: 0.04857 cumulative IPC: 0.09326 (Simulation time: 0 hr 28 min 38 sec) 
Heartbeat CPU  0 instructions:  400000000 cycles: 3296273961 heartbeat IPC: 0.12645 cumulative IPC: 0.09334 (Simulation time: 0 hr 28 min 43 sec) 
Heartbeat CPU  0 instructions:  401000002 cycles: 3302126602 heartbeat IPC: 0.17086 cumulative IPC: 0.09348 (Simulation time: 0 hr 28 min 46 sec) 
Heartbeat CPU  0 instructions:  402000003 cycles: 3314438847 heartbeat IPC: 0.08122 cumulative IPC: 0.09343 (Simulation time: 0 hr 28 min 52 sec) 
Heartbeat CPU  0 instructions:  403000000 cycles: 3331154450 heartbeat IPC: 0.05982 cumulative IPC: 0.09326 (Simulation time: 0 hr 29 min 0 sec) 
Heartbeat CPU  0 instructions:  404000000 cycles: 3338890818 heartbeat IPC: 0.12926 cumulative IPC: 0.09335 (Simulation time: 0 hr 29 min 4 sec) 
Heartbeat CPU  0 instructions:  405000001 cycles: 3348801220 heartbeat IPC: 0.10090 cumulative IPC: 0.09337 (Simulation time: 0 hr 29 min 9 sec) 
Heartbeat CPU  0 instructions:  406000003 cycles: 3362683129 heartbeat IPC: 0.07204 cumulative IPC: 0.09328 (Simulation time: 0 hr 29 min 15 sec) 
Heartbeat CPU  0 instructions:  407000001 cycles: 3377784252 heartbeat IPC: 0.06622 cumulative IPC: 0.09315 (Simulation time: 0 hr 29 min 22 sec) 
Heartbeat CPU  0 instructions:  408000000 cycles: 3384381880 heartbeat IPC: 0.15157 cumulative IPC: 0.09327 (Simulation time: 0 hr 29 min 26 sec) 
Heartbeat CPU  0 instructions:  409000000 cycles: 3393432386 heartbeat IPC: 0.11049 cumulative IPC: 0.09332 (Simulation time: 0 hr 29 min 31 sec) 
Heartbeat CPU  0 instructions:  410000003 cycles: 3410874754 heartbeat IPC: 0.05733 cumulative IPC: 0.09313 (Simulation time: 0 hr 29 min 39 sec) 
Heartbeat CPU  0 instructions:  411000000 cycles: 3422601997 heartbeat IPC: 0.08527 cumulative IPC: 0.09310 (Simulation time: 0 hr 29 min 45 sec) 
Heartbeat CPU  0 instructions:  412000000 cycles: 3428652405 heartbeat IPC: 0.16528 cumulative IPC: 0.09323 (Simulation time: 0 hr 29 min 48 sec) 
Heartbeat CPU  0 instructions:  413000003 cycles: 3438037930 heartbeat IPC: 0.10655 cumulative IPC: 0.09327 (Simulation time: 0 hr 29 min 53 sec) 
Heartbeat CPU  0 instructions:  414000003 cycles: 3456949166 heartbeat IPC: 0.05288 cumulative IPC: 0.09304 (Simulation time: 0 hr 30 min 2 sec) 
Heartbeat CPU  0 instructions:  415000000 cycles: 3464011255 heartbeat IPC: 0.14160 cumulative IPC: 0.09315 (Simulation time: 0 hr 30 min 6 sec) 
Heartbeat CPU  0 instructions:  416000000 cycles: 3469767863 heartbeat IPC: 0.17371 cumulative IPC: 0.09328 (Simulation time: 0 hr 30 min 10 sec) 
Heartbeat CPU  0 instructions:  417000000 cycles: 3485138591 heartbeat IPC: 0.06506 cumulative IPC: 0.09315 (Simulation time: 0 hr 30 min 17 sec) 
Heartbeat CPU  0 instructions:  418000001 cycles: 3499423609 heartbeat IPC: 0.07000 cumulative IPC: 0.09306 (Simulation time: 0 hr 30 min 23 sec) 
Heartbeat CPU  0 instructions:  419000000 cycles: 3509886943 heartbeat IPC: 0.09557 cumulative IPC: 0.09307 (Simulation time: 0 hr 30 min 29 sec) 
Heartbeat CPU  0 instructions:  420000000 cycles: 3524475081 heartbeat IPC: 0.06855 cumulative IPC: 0.09296 (Simulation time: 0 hr 30 min 35 sec) 
Heartbeat CPU  0 instructions:  421000003 cycles: 3536269526 heartbeat IPC: 0.08479 cumulative IPC: 0.09293 (Simulation time: 0 hr 30 min 40 sec) 
Heartbeat CPU  0 instructions:  422000002 cycles: 3555435269 heartbeat IPC: 0.05218 cumulative IPC: 0.09271 (Simulation time: 0 hr 30 min 49 sec) 
Heartbeat CPU  0 instructions:  423000002 cycles: 3562846361 heartbeat IPC: 0.13493 cumulative IPC: 0.09280 (Simulation time: 0 hr 30 min 53 sec) 
Heartbeat CPU  0 instructions:  424000000 cycles: 3578845520 heartbeat IPC: 0.06250 cumulative IPC: 0.09266 (Simulation time: 0 hr 31 min 0 sec) 
Heartbeat CPU  0 instructions:  425000002 cycles: 3584372174 heartbeat IPC: 0.18094 cumulative IPC: 0.09280 (Simulation time: 0 hr 31 min 4 sec) 
Heartbeat CPU  0 instructions:  426000000 cycles: 3603425642 heartbeat IPC: 0.05248 cumulative IPC: 0.09258 (Simulation time: 0 hr 31 min 12 sec) 
Heartbeat CPU  0 instructions:  427000002 cycles: 3613460867 heartbeat IPC: 0.09965 cumulative IPC: 0.09260 (Simulation time: 0 hr 31 min 17 sec) 
Heartbeat CPU  0 instructions:  428000000 cycles: 3619807346 heartbeat IPC: 0.15757 cumulative IPC: 0.09272 (Simulation time: 0 hr 31 min 21 sec) 
Heartbeat CPU  0 instructions:  429000001 cycles: 3630799961 heartbeat IPC: 0.09097 cumulative IPC: 0.09271 (Simulation time: 0 hr 31 min 26 sec) 
Heartbeat CPU  0 instructions:  430000002 cycles: 3645918714 heartbeat IPC: 0.06614 cumulative IPC: 0.09260 (Simulation time: 0 hr 31 min 33 sec) 
Heartbeat CPU  0 instructions:  431000003 cycles: 3660872015 heartbeat IPC: 0.06687 cumulative IPC: 0.09249 (Simulation time: 0 hr 31 min 39 sec) 
Heartbeat CPU  0 instructions:  432000000 cycles: 3667067432 heartbeat IPC: 0.16141 cumulative IPC: 0.09261 (Simulation time: 0 hr 31 min 43 sec) 
Heartbeat CPU  0 instructions:  433000001 cycles: 3672640987 heartbeat IPC: 0.17942 cumulative IPC: 0.09275 (Simulation time: 0 hr 31 min 46 sec) 
Heartbeat CPU  0 instructions:  434000000 cycles: 3685633739 heartbeat IPC: 0.07697 cumulative IPC: 0.09269 (Simulation time: 0 hr 31 min 53 sec) 
Heartbeat CPU  0 instructions:  435000003 cycles: 3700970022 heartbeat IPC: 0.06521 cumulative IPC: 0.09257 (Simulation time: 0 hr 31 min 59 sec) 
Heartbeat CPU  0 instructions:  436000000 cycles: 3707222450 heartbeat IPC: 0.15994 cumulative IPC: 0.09269 (Simulation time: 0 hr 32 min 3 sec) 
Heartbeat CPU  0 instructions:  437000001 cycles: 3712732976 heartbeat IPC: 0.18147 cumulative IPC: 0.09282 (Simulation time: 0 hr 32 min 6 sec) 
Heartbeat CPU  0 instructions:  438000001 cycles: 3724433986 heartbeat IPC: 0.08546 cumulative IPC: 0.09280 (Simulation time: 0 hr 32 min 12 sec) 
Heartbeat CPU  0 instructions:  439000000 cycles: 3740687888 heartbeat IPC: 0.06152 cumulative IPC: 0.09266 (Simulation time: 0 hr 32 min 19 sec) 
Heartbeat CPU  0 instructions:  440000000 cycles: 3747518044 heartbeat IPC: 0.14641 cumulative IPC: 0.09276 (Simulation time: 0 hr 32 min 23 sec) 
Heartbeat CPU  0 instructions:  441000002 cycles: 3753193932 heartbeat IPC: 0.17618 cumulative IPC: 0.09289 (Simulation time: 0 hr 32 min 26 sec) 
Heartbeat CPU  0 instructions:  442000000 cycles: 3763673660 heartbeat IPC: 0.09542 cumulative IPC: 0.09290 (Simulation time: 0 hr 32 min 31 sec) 
Heartbeat CPU  0 instructions:  443000001 cycles: 3780990952 heartbeat IPC: 0.05775 cumulative IPC: 0.09273 (Simulation time: 0 hr 32 min 39 sec) 
Heartbeat CPU  0 instructions:  444000000 cycles: 3787572647 heartbeat IPC: 0.15194 cumulative IPC: 0.09284 (Simulation time: 0 hr 32 min 43 sec) 
Heartbeat CPU  0 instructions:  445000003 cycles: 3793224160 heartbeat IPC: 0.17694 cumulative IPC: 0.09297 (Simulation time: 0 hr 32 min 46 sec) 
Heartbeat CPU  0 instructions:  446000001 cycles: 3803132465 heartbeat IPC: 0.10093 cumulative IPC: 0.09299 (Simulation time: 0 hr 32 min 51 sec) 
Heartbeat CPU  0 instructions:  447000000 cycles: 3821361329 heartbeat IPC: 0.05486 cumulative IPC: 0.09280 (Simulation time: 0 hr 32 min 59 sec) 
Heartbeat CPU  0 instructions:  448000000 cycles: 3828256758 heartbeat IPC: 0.14502 cumulative IPC: 0.09290 (Simulation time: 0 hr 33 min 3 sec) 
Heartbeat CPU  0 instructions:  449000002 cycles: 3833826924 heartbeat IPC: 0.17953 cumulative IPC: 0.09303 (Simulation time: 0 hr 33 min 7 sec) 
Heartbeat CPU  0 instructions:  450000000 cycles: 3843800835 heartbeat IPC: 0.10026 cumulative IPC: 0.09305 (Simulation time: 0 hr 33 min 12 sec) 
Heartbeat CPU  0 instructions:  451000001 cycles: 3861789516 heartbeat IPC: 0.05559 cumulative IPC: 0.09287 (Simulation time: 0 hr 33 min 20 sec) 
Heartbeat CPU  0 instructions:  452000000 cycles: 3868453451 heartbeat IPC: 0.15006 cumulative IPC: 0.09297 (Simulation time: 0 hr 33 min 24 sec) 
Heartbeat CPU  0 instructions:  453000000 cycles: 3874110838 heartbeat IPC: 0.17676 cumulative IPC: 0.09309 (Simulation time: 0 hr 33 min 27 sec) 
Heartbeat CPU  0 instructions:  454000000 cycles: 3884993411 heartbeat IPC: 0.09189 cumulative IPC: 0.09309 (Simulation time: 0 hr 33 min 33 sec) 
Heartbeat CPU  0 instructions:  455000003 cycles: 3902092244 heartbeat IPC: 0.05848 cumulative IPC: 0.09293 (Simulation time: 0 hr 33 min 40 sec) 
Heartbeat CPU  0 instructions:  456000000 cycles: 3908553679 heartbeat IPC: 0.15476 cumulative IPC: 0.09304 (Simulation time: 0 hr 33 min 44 sec) 
Heartbeat CPU  0 instructions:  457000000 cycles: 3914124745 heartbeat IPC: 0.17950 cumulative IPC: 0.09316 (Simulation time: 0 hr 33 min 48 sec) 
Heartbeat CPU  0 instructions:  458000001 cycles: 3925847852 heartbeat IPC: 0.08530 cumulative IPC: 0.09314 (Simulation time: 0 hr 33 min 53 sec) 
Heartbeat CPU  0 instructions:  459000002 cycles: 3942234922 heartbeat IPC: 0.06102 cumulative IPC: 0.09300 (Simulation time: 0 hr 34 min 1 sec) 
Heartbeat CPU  0 instructions:  460000000 cycles: 3948663175 heartbeat IPC: 0.15556 cumulative IPC: 0.09311 (Simulation time: 0 hr 34 min 5 sec) 
Heartbeat CPU  0 instructions:  461000003 cycles: 3954662640 heartbeat IPC: 0.16668 cumulative IPC: 0.09322 (Simulation time: 0 hr 34 min 8 sec) 
Heartbeat CPU  0 instructions:  462000001 cycles: 3967799628 heartbeat IPC: 0.07612 cumulative IPC: 0.09316 (Simulation time: 0 hr 34 min 14 sec) 
Heartbeat CPU  0 instructions:  463000002 cycles: 3983638027 heartbeat IPC: 0.06314 cumulative IPC: 0.09304 (Simulation time: 0 hr 34 min 22 sec) 
Heartbeat CPU  0 instructions:  464000000 cycles: 3990040492 heartbeat IPC: 0.15619 cumulative IPC: 0.09315 (Simulation time: 0 hr 34 min 26 sec) 
Heartbeat CPU  0 instructions:  465000000 cycles: 4006029543 heartbeat IPC: 0.06254 cumulative IPC: 0.09302 (Simulation time: 0 hr 34 min 32 sec) 
Heartbeat CPU  0 instructions:  466000000 cycles: 4017745357 heartbeat IPC: 0.08535 cumulative IPC: 0.09300 (Simulation time: 0 hr 34 min 38 sec) 
Heartbeat CPU  0 instructions:  467000002 cycles: 4036005130 heartbeat IPC: 0.05477 cumulative IPC: 0.09282 (Simulation time: 0 hr 34 min 46 sec) 
Heartbeat CPU  0 instructions:  468000000 cycles: 4044006494 heartbeat IPC: 0.12498 cumulative IPC: 0.09289 (Simulation time: 0 hr 34 min 50 sec) 
Heartbeat CPU  0 instructions:  469000000 cycles: 4059539659 heartbeat IPC: 0.06438 cumulative IPC: 0.09278 (Simulation time: 0 hr 34 min 57 sec) 
Heartbeat CPU  0 instructions:  470000000 cycles: 4067219063 heartbeat IPC: 0.13022 cumulative IPC: 0.09285 (Simulation time: 0 hr 35 min 1 sec) 
Heartbeat CPU  0 instructions:  471000000 cycles: 4087222299 heartbeat IPC: 0.04999 cumulative IPC: 0.09263 (Simulation time: 0 hr 35 min 9 sec) 
Heartbeat CPU  0 instructions:  472000000 cycles: 4098845274 heartbeat IPC: 0.08604 cumulative IPC: 0.09261 (Simulation time: 0 hr 35 min 15 sec) 
Heartbeat CPU  0 instructions:  473000001 cycles: 4111629023 heartbeat IPC: 0.07822 cumulative IPC: 0.09257 (Simulation time: 0 hr 35 min 21 sec) 
Heartbeat CPU  0 instructions:  474000001 cycles: 4117185221 heartbeat IPC: 0.17998 cumulative IPC: 0.09269 (Simulation time: 0 hr 35 min 24 sec) 
Heartbeat CPU  0 instructions:  475000003 cycles: 4133685311 heartbeat IPC: 0.06061 cumulative IPC: 0.09256 (Simulation time: 0 hr 35 min 32 sec) 
Heartbeat CPU  0 instructions:  476000000 cycles: 4153667059 heartbeat IPC: 0.05005 cumulative IPC: 0.09235 (Simulation time: 0 hr 35 min 40 sec) 
Heartbeat CPU  0 instructions:  477000000 cycles: 4168759352 heartbeat IPC: 0.06626 cumulative IPC: 0.09225 (Simulation time: 0 hr 35 min 46 sec) 
Heartbeat CPU  0 instructions:  478000000 cycles: 4178526866 heartbeat IPC: 0.10238 cumulative IPC: 0.09228 (Simulation time: 0 hr 35 min 51 sec) 
Heartbeat CPU  0 instructions:  479000000 cycles: 4184360772 heartbeat IPC: 0.17141 cumulative IPC: 0.09239 (Simulation time: 0 hr 35 min 54 sec) 
Heartbeat CPU  0 instructions:  480000000 cycles: 4203495239 heartbeat IPC: 0.05226 cumulative IPC: 0.09220 (Simulation time: 0 hr 36 min 2 sec) 
Heartbeat CPU  0 instructions:  481000000 cycles: 4214823949 heartbeat IPC: 0.08827 cumulative IPC: 0.09219 (Simulation time: 0 hr 36 min 8 sec) 
Heartbeat CPU  0 instructions:  482000000 cycles: 4221874394 heartbeat IPC: 0.14184 cumulative IPC: 0.09228 (Simulation time: 0 hr 36 min 12 sec) 
Heartbeat CPU  0 instructions:  483000002 cycles: 4228021492 heartbeat IPC: 0.16268 cumulative IPC: 0.09238 (Simulation time: 0 hr 36 min 15 sec) 
Heartbeat CPU  0 instructions:  484000000 cycles: 4248697417 heartbeat IPC: 0.04837 cumulative IPC: 0.09216 (Simulation time: 0 hr 36 min 24 sec) 
Heartbeat CPU  0 instructions:  485000000 cycles: 4257747667 heartbeat IPC: 0.11049 cumulative IPC: 0.09220 (Simulation time: 0 hr 36 min 28 sec) 
Heartbeat CPU  0 instructions:  486000000 cycles: 4266639631 heartbeat IPC: 0.11246 cumulative IPC: 0.09225 (Simulation time: 0 hr 36 min 33 sec) 
Heartbeat CPU  0 instructions:  487000002 cycles: 4273438635 heartbeat IPC: 0.14708 cumulative IPC: 0.09234 (Simulation time: 0 hr 36 min 37 sec) 
Heartbeat CPU  0 instructions:  488000000 cycles: 4293571980 heartbeat IPC: 0.04967 cumulative IPC: 0.09213 (Simulation time: 0 hr 36 min 45 sec) 
Heartbeat CPU  0 instructions:  489000001 cycles: 4301623844 heartbeat IPC: 0.12419 cumulative IPC: 0.09219 (Simulation time: 0 hr 36 min 50 sec) 
Heartbeat CPU  0 instructions:  490000000 cycles: 4307247614 heartbeat IPC: 0.17782 cumulative IPC: 0.09231 (Simulation time: 0 hr 36 min 53 sec) 
Heartbeat CPU  0 instructions:  491000000 cycles: 4315471581 heartbeat IPC: 0.12160 cumulative IPC: 0.09236 (Simulation time: 0 hr 36 min 57 sec) 
Heartbeat CPU  0 instructions:  492000000 cycles: 4334410422 heartbeat IPC: 0.05280 cumulative IPC: 0.09219 (Simulation time: 0 hr 37 min 5 sec) 
Heartbeat CPU  0 instructions:  493000001 cycles: 4341532971 heartbeat IPC: 0.14040 cumulative IPC: 0.09227 (Simulation time: 0 hr 37 min 10 sec) 
Heartbeat CPU  0 instructions:  494000002 cycles: 4351345871 heartbeat IPC: 0.10191 cumulative IPC: 0.09229 (Simulation time: 0 hr 37 min 14 sec) 
Heartbeat CPU  0 instructions:  495000002 cycles: 4358779924 heartbeat IPC: 0.13452 cumulative IPC: 0.09236 (Simulation time: 0 hr 37 min 18 sec) 
Heartbeat CPU  0 instructions:  496000000 cycles: 4377952574 heartbeat IPC: 0.05216 cumulative IPC: 0.09218 (Simulation time: 0 hr 37 min 26 sec) 
Heartbeat CPU  0 instructions:  497000002 cycles: 4385234215 heartbeat IPC: 0.13733 cumulative IPC: 0.09226 (Simulation time: 0 hr 37 min 30 sec) 
Heartbeat CPU  0 instructions:  498000000 cycles: 4390724431 heartbeat IPC: 0.18214 cumulative IPC: 0.09237 (Simulation time: 0 hr 37 min 34 sec) 
Heartbeat CPU  0 instructions:  499000003 cycles: 4400258440 heartbeat IPC: 0.10489 cumulative IPC: 0.09240 (Simulation time: 0 hr 37 min 39 sec) 
Heartbeat CPU  0 instructions:  500000000 cycles: 4418274916 heartbeat IPC: 0.05550 cumulative IPC: 0.09225 (Simulation time: 0 hr 37 min 46 sec) 
Heartbeat CPU  0 instructions:  501000002 cycles: 4425013274 heartbeat IPC: 0.14840 cumulative IPC: 0.09234 (Simulation time: 0 hr 37 min 50 sec) 
Heartbeat CPU  0 instructions:  502000000 cycles: 4431222411 heartbeat IPC: 0.16105 cumulative IPC: 0.09243 (Simulation time: 0 hr 37 min 54 sec) 
Heartbeat CPU  0 instructions:  503000002 cycles: 4443353829 heartbeat IPC: 0.08243 cumulative IPC: 0.09241 (Simulation time: 0 hr 37 min 59 sec) 
Heartbeat CPU  0 instructions:  504000000 cycles: 4459637594 heartbeat IPC: 0.06141 cumulative IPC: 0.09229 (Simulation time: 0 hr 38 min 6 sec) 
Heartbeat CPU  0 instructions:  505000002 cycles: 4466268825 heartbeat IPC: 0.15080 cumulative IPC: 0.09238 (Simulation time: 0 hr 38 min 10 sec) 
Heartbeat CPU  0 instructions:  506000001 cycles: 4472533296 heartbeat IPC: 0.15963 cumulative IPC: 0.09248 (Simulation time: 0 hr 38 min 14 sec) 
Heartbeat CPU  0 instructions:  507000000 cycles: 4487070337 heartbeat IPC: 0.06879 cumulative IPC: 0.09240 (Simulation time: 0 hr 38 min 20 sec) 
Heartbeat CPU  0 instructions:  508000000 cycles: 4502559460 heartbeat IPC: 0.06456 cumulative IPC: 0.09230 (Simulation time: 0 hr 38 min 27 sec) 
Heartbeat CPU  0 instructions:  509000000 cycles: 4509062879 heartbeat IPC: 0.15377 cumulative IPC: 0.09239 (Simulation time: 0 hr 38 min 31 sec) 
Heartbeat CPU  0 instructions:  510000000 cycles: 4514834712 heartbeat IPC: 0.17326 cumulative IPC: 0.09250 (Simulation time: 0 hr 38 min 34 sec) 
Heartbeat CPU  0 instructions:  511000000 cycles: 4530602964 heartbeat IPC: 0.06342 cumulative IPC: 0.09239 (Simulation time: 0 hr 38 min 41 sec) 
Heartbeat CPU  0 instructions:  512000000 cycles: 4543765838 heartbeat IPC: 0.07597 cumulative IPC: 0.09234 (Simulation time: 0 hr 38 min 47 sec) 
Heartbeat CPU  0 instructions:  513000000 cycles: 4550524032 heartbeat IPC: 0.14797 cumulative IPC: 0.09243 (Simulation time: 0 hr 38 min 51 sec) 
Heartbeat CPU  0 instructions:  514000000 cycles: 4556231507 heartbeat IPC: 0.17521 cumulative IPC: 0.09253 (Simulation time: 0 hr 38 min 54 sec) 
Heartbeat CPU  0 instructions:  515000000 cycles: 4573797084 heartbeat IPC: 0.05693 cumulative IPC: 0.09239 (Simulation time: 0 hr 39 min 2 sec) 
Heartbeat CPU  0 instructions:  516000000 cycles: 4585132641 heartbeat IPC: 0.08822 cumulative IPC: 0.09238 (Simulation time: 0 hr 39 min 7 sec) 
Heartbeat CPU  0 instructions:  517000000 cycles: 4591328625 heartbeat IPC: 0.16139 cumulative IPC: 0.09248 (Simulation time: 0 hr 39 min 11 sec) 
Heartbeat CPU  0 instructions:  518000001 cycles: 4597374040 heartbeat IPC: 0.16541 cumulative IPC: 0.09258 (Simulation time: 0 hr 39 min 15 sec) 
Heartbeat CPU  0 instructions:  519000000 cycles: 4617335801 heartbeat IPC: 0.05010 cumulative IPC: 0.09239 (Simulation time: 0 hr 39 min 23 sec) 
Heartbeat CPU  0 instructions:  520000000 cycles: 4625648460 heartbeat IPC: 0.12030 cumulative IPC: 0.09244 (Simulation time: 0 hr 39 min 27 sec) 
Heartbeat CPU  0 instructions:  521000002 cycles: 4631908884 heartbeat IPC: 0.15973 cumulative IPC: 0.09253 (Simulation time: 0 hr 39 min 31 sec) 
Heartbeat CPU  0 instructions:  522000002 cycles: 4639343378 heartbeat IPC: 0.13451 cumulative IPC: 0.09260 (Simulation time: 0 hr 39 min 35 sec) 
Heartbeat CPU  0 instructions:  523000002 cycles: 4658663149 heartbeat IPC: 0.05176 cumulative IPC: 0.09243 (Simulation time: 0 hr 39 min 43 sec) 
Heartbeat CPU  0 instructions:  524000000 cycles: 4666646439 heartbeat IPC: 0.12526 cumulative IPC: 0.09249 (Simulation time: 0 hr 39 min 48 sec) 
Heartbeat CPU  0 instructions:  525000002 cycles: 4672374280 heartbeat IPC: 0.17459 cumulative IPC: 0.09259 (Simulation time: 0 hr 39 min 51 sec) 
Heartbeat CPU  0 instructions:  526000000 cycles: 4679535799 heartbeat IPC: 0.13963 cumulative IPC: 0.09266 (Simulation time: 0 hr 39 min 55 sec) 
Heartbeat CPU  0 instructions:  527000000 cycles: 4698454201 heartbeat IPC: 0.05286 cumulative IPC: 0.09250 (Simulation time: 0 hr 40 min 3 sec) 
[...]
IIIIIIAA4444II44IA44A4444IIIIIIIIIIIIIIIIIIIIIIIIIIIIIIIIIIIIIII
IIIIIIAA4444II44IA44A44444IIIIIIIIIIIIIIIIIIIIIIIIIIIIIIIIIIIIII
IIIIIIAA44444I44IA44A44444IIIIIIIIIIIIIIIIIIIIIIIIIIIIIIIIIIIIII
IIIIIIAA44444444IA44A44444IIIIIIIIIIIIIIIIIIIIIIIIIIIIIIIIIIIIII
IIIIIIAA44444444IA44A44444II4IIIIIIIIIIIIIIIIIIIIIIIIIIIIIIIIIII
IIIIIIAA444444444A44A44444II4IIIIIIIIIIIIIIIIIIIIIIIIIIIIIIIIIII
IIIIIIAA444444444A44A444444I4IIIIIIIIIIIIIIIIIIIIIIIIIIIIIIIIIII
IIIIIIAA444444444A44A444444I44IIIIIIIIIIIIIIIIIIIIIIIIIIIIIIIIII
IIIIIIAA444444444A44A444444444IIIIIIIIIIIIIIIIIIIIIIIIIIIIIIIIII
IIIIIIAA444444444A44A4444444444IIIIIIIIIIIIIIIIIIIIIIIIIIIIIIIII
IIIIIIAA444444444A44A44444444444IIIIIIIIIIIIIIIIIIIIIIIIIIIIIIII
IIIIIIAA444444444A44A44444444444I4IIIIIIIIIIIIIIIIIIIIIIIIIIIIII
IIIIIIAA444444444A44A44444444444444IIIIIIIIIIIIIIIIIIIIIIIIIIIII
IIIIIIAA444444444A44A444444444444444IIIIIIIIIIIIIIIIIIIIIIIIIIII
IIIIIIAA444444444A44A4444444444444444IIIIIIIIIIIIIIIIIIIIIIIIIII
IIIIIIAA444444444A44A4444444444444444I4IIIIIIIIIIIIIIIIIIIIIIIII
IIIIIIAA444444444A44A4424444444444444I4IIIIIIIIIIIIIIIIIIIIIIIII
IIIIIIAA424444444A44A4424444444444444I4IIIIIIIIIIIIIIIIIIIIIIIII
IIIIIIAA422444444A44A4424444444444444I4IIIIIIIIIIIIIIIIIIIIIIIII
IIIIIIAA422444444A44A442444444444444444IIIIIIIIIIIIIIIIIIIIIIIII
IIIIIIAA422444444A44A4424444444444444444IIIIIIIIIIIIIIIIIIIIIIII
IIIIIIAA222444444A44A4424444444444444444IIIIIIIIIIIIIIIIIIIIIIII
IIIIIIAA222444444A42A4424444444444444444IIIIIIIIIIIIIIIIIIIIIIII
IIIIIIAA222444444A42A4224444444444444444IIIIIIIIIIIIIIIIIIIIIIII
IIIIIIAA222444444A42A4224444444444444444I4IIIIIIIIIIIIIIIIIIIIII
IIIIIIAA222444444A4IA4224444444444444444I4IIIIIIIIIIIIIIIIIIIIII
IIIIIIAA222444444A2IA4224444444444444444I4IIIIIIIIIIIIIIIIIIIIII
IIIIIIAA222444444A2IA2224444444444444444I4IIIIIIIIIIIIIIIIIIIIII
IIIIIIAA222444444A24A2224444444444444444I4IIIIIIIIIIIIIIIIIIIIII
IIIIIIAA222444444AI4A2224444444444444444I4IIIIIIIIIIIIIIIIIIIIII
IIIIIIAA222444444A44A2224444444444444444I4IIIIIIIIIIIIIIIIIIIIII
IIIIIIAA222444444A24A2224444444444444444I4IIIIIIIIIIIIIIIIIIIIII
IIIIIIAA222444444A24A222444444444444444444IIIIIIIIIIIIIIIIIIIIII
IIIIIIAA222444444A24A222444444444444444444I4IIIIIIIIIIIIIIIIIIII
IIIIIIAA222444444A24A222444444444444444444I4II4IIIIIIIIIIIIIIIII
IIIIIIAA222444444A22A222444444444444444444I4II4IIIIIIIIIIIIIIIII
IIIIIIAI222444444A22A222444444444444444444I4II4IIIIIIIIIIIIIIIII
IIIIIIAA222444444A22A222444444444444444444I4II4IIIIIIIIIIIIIIIII
IIIIIIAI222444444A22A222444444444444444444I4II4IIIIIIIIIIIIIIIII
IIIIIIAA222444444A22A222444444444444444444I4II4IIIIIIIIIIIIIIIII
IIIIIIAI222444444A22A222444444444444444444I4II4IIIIIIIIIIIIIIIII
IIIIIIAA222444444A22A222444444444444444444I4II4IIIIIIIIIIIIIIIII
IIIIIIAA222444444I22A222444444444444444444I4II4IIIIIIIIIIIIIIIII
IIIIIIAA222444444A22A222444444444444444444I4II4IIIIIIIIIIIIIIIII
IIIIIIAI222444444A22A222444444444444444444I4II4IIIIIIIIIIIIIIIII
IIIIIIAA222444444A22A222444444444444444444I4II4IIIIIIIIIIIIIIIII
IIIIIIAA222444444A22A222A44244444444444444I4II4IIIIIIIIIIIIIIIII
IIIIIIIA222444444A22A222A44244444444444444I4II4IIIIIIIIIIIIIIIII
IIIIIIAA222444444A22A222A44244444444444444I4II4IIIIIIIIIIIIIIIII
IIIIIIAI222444444A22A222A44244444444444444I4II4IIIIIIIIIIIIIIIII
IIIIIIAI222444444A22A222I44244444444444444I4II4IIIIIIIIIIIIIIIII
IIIIIIAA222444444A22A222I44244444444444444I4II4IIIIIIIIIIIIIIIII
IIIIIIAA222444444A22A222444244444444444444I4II4IIIIIIIIIIIIIIIII
IIIIIIAI222444444A22A222444244444444444444I4II4IIIIIIIIIIIIIIIII
IIIIIIAA222444444A22A222444244444444444444I4II4IIIIIIIIIIIIIIIII
IIIIIIAI222444444A22A222444244444444444444I4II4IIIIIIIIIIIIIIIII
IIIIIIAA222444444A22A222444244444444444444I4II4IIIIIIIIIIIIIIIII
IIIIIIAI222444444A22A222444244444444444444I4II4IIIIIIIIIIIIIIIII
IIIIIIAA222444444A22A222444244444444444444I4II4IIIIIIIIIIIIIIIII
IIIIIIAA222444444A22A222444244444444444444I44I4IIIIIIIIIIIIIIIII
IIIIIIAA222444444A22A222444244444444444444I44A42II44II4III4IIIII
IIIIIIAA222444444A22A222444244444444444444I44A4III44II4III4IIIII
IIIIIIIA222444444A22A222444244444444444444I44A4III44II4III4IIIII
IIIIIIAA222444444A22A222444244444444444444I44A4III44II4III4IIIII
IIIIIIAA222444444A22I222444244444444444444I44A4III44II4III4IIIII
IIIIIIAA222444444A222222444244444444444444I44A4III44II4III4IIIII
IIIIIIAA222444444A22A222444244444444444444I44A4III44II4III4IIIII
IIIIIIAA222444444A22A222424244444444444444444A4III44II4III4IIIII
IIIIIIAA222244444A22A222424244444444444444444A4III44II4III4IIIII
IIIIIIAA222224444A22A222424244444444444444444A4III44II4III4IIIII
IIIIIIAA222224444A22A222424244444444444444444A4III44II4IIIA4II4I
IIIIIIAA222224444A22A222424244444444444444444A4III44II4IIIAA4I44
IIIIIIIIIIIIIIIIIIIIIIIIIIIIIIIIIIIIIIIIIIIII4IA4III4IIIIIIIIIII
IIIIIIIIIIIIIIIIIIIIIIIIIIIIIIIIIIIIIIIIA4III4IA4III4IIIIIIIIIII
IIIIIIIIIIIIIIIIIIIIIIIIIIIIIIIIIIIIIIIIAA4II4IA4III4IIIIIIIIIII
IIIIIIIIIIIIA4IIIIIIIIIIIIIIIIIIIIIIIIIIAA4II4IA4III4IIIIIIIIIII
IIIIIIIIIIIIAA4IIIIIIIIIIIIIIIIIIIIIIIIIAA4II4IA4III4IIIIIIIIIII
IIIIIIIIIIIA4IIIIIIIIIIIIIIIIIIIIIIIIIIIIIIIIIIIIIIIIIIIIIIIIIII
IIIIIIIIIIIA4IIIIIIA4IIIIIIIIIIIIIIIIIIIIIIIIIIIIIIIIIIIIIIIIIII
IIIIIIIIIIIA4IIIIIIAA4IIIIIIIIIIIIIIIIIIIIIIIIIIIIIIIIIIIIIIIIII
IIIIIIIIIIIIIIIIIIIIIIIIIIIIIIA4IIIIIIIIIIIIIIIIIIIIIIIIIIIIIIII
IIIIIIIIIIIIIIIIIIIIIIIIIIIIIIAA4IIIIIIIIIIIIIIIIIIIIIIIIIIIIIII
IIIIIIIIIIIIIIIIIIIIIIIIIIIIIAAA4IIIIIIIIIIIIIIIIIIIIIIIIIIIIIII
IIIIIIIIIIIIIIIIIIIIIIIIIIIIIAAA4IIIIIIIIIIIIIIIIIIIIIIIA4IIIIII
IIIIIIIIIIIIIIIIIIIIIIIIIIIIIAAA4IIIIIIIIIIIIIIIIIIIIIIIAA4IIIII
IIIIIIA4IIIIIIIIIIIIIIIIIIIIIAAA4IIIIIIIIIIIIIIIIIIIIIIIAA4IIIII
IIIIIIA4IIIIIIIIIIIIIIIIIA4IIAAA4IIIIIIIIIIIIIIIIIIIIIIIAA4IIIII
IIIIIIA4IIIIIIIIIIIIIIIIIAA4IAAA4IIIIIIIIIIIIIIIIIIIIIIIAA4IIIII
IIIIIIA4IIIIIIIIIIIIIIIIIAAA4AAA4IIIIIIIIIIIIIIIIIIIIIIIAA4IIIII
IIIIIIA4IIIIIIIIIIIIIIIIIAAAAAAA4IIIIIIIIIIIIIIIIIIIIIIIAA4IIIII
IIIIIIA4IIIIIIIIIIIIIIIIIAAAAAAA4IIIIIIIIIIIIIIIIIA4IIIIAA4IIIII
IIIA4IA4IIIIIIIIIIIIIIIIIAAAAAAA4IIIIIIIIIIIIIIIIIA4IIIIAA4IIIII
IIIA4IA4IIIIIIIIIIIIIIIIIAAAAAAA4IIIIIA4IIIIIIIIIIA4IIIIAA4IIIII
IIIA4IA4IIIIIIIIIIIIIIIIIAAAAAAA4IIIIIAA4IIIIIIIIIA4IIIIAA4IIIII
IIIA4IA4IIIIIIIIIIIIIIIIIAAAAAAA4IIIIIAA4IIIIIIIIIA4IA4IAA4IIIII
IIIA4IA4IIIIIIIIIIIIIIIIIAAAAAAA4IIIIIAA4IIIIIIIIIA4IAA4AA4IIIII
IIIA4IA4IIIIIIIIIIIIIA4IIAAAAAAA4IIIIIAA4IIIIIIIIIA4IAA4AA4IIIII
IIIA4IA4IIIIIIIIIIIIIA4IIAAAAAAA4IIIIIAA4IIIIIIIIIA4IAA4AA4IIA4I
IIIA4IA4IIIIIIIIIIIIIA4IIAAAAAAA4IIIIIAA4IIIIIIIIIA4IAA4AA4IIAA4
IIIA4IA4IIIIIIIIIIIIIA4IIAAAAAAA4IIIIIAA4IIIIIIIIIA4IAAAAA4IIAA4
IIIAA4A4IIIIIIIIIIIIIA4IIAAAAAAA4IIIIIAA4IIIIIIIIIA4IAAAAA4IIAA4
IIIAAAA4IIIIIIIIIIIIIA4IIAAAAAAA4IIIIIAA4IIIIIIIIIA4IAAAAA4IIAA4
IIIAAAA4IIIIIIIIIIIIIA4IIAAAAAAA4IIA4IAA4IIIIIIIIIA4IAAAAA4IIAA4
IIIAAAA4IIIIIIIIIIIIIA4IIAAAAAAA4IIAA4AA4IIIIIIIIIA4IAAAAA4IIAA4
A4IAAAA4IIIIIIIIIIIIIA4IIAAAAAAA4IIAA4AA4IIIIIIIIIA4IAAAAA4IIAA4
A4IAAAA4IIIIIIIIIIIIIA4IIAAAAAAAA4IAA4AA4IIIIIIIIIA4IAAAAA4IIAA4
A4IAAAA4IIIIIIIIIIIIIA4IIAAAAAAAAA4AA4AA4IIIIIIIIIA4IAAAAA4IIAA4
A4IAAAA4IIIIIIIIIIIIIA4IIAAAAAAAAA4AA4AA4IA4IIIIIIA4IAAAAA4IIAA4
A4IAAAA4IIIIIIA44IIIIA4IIAAAAAAAAA4AA4AA4IA4IIIIIIA4IAAAAA4IIAA4
A4IAAAA4IIIIIIAA44IIIA4IIAAAAAAAAA4AA4AA4IA4IIIIIIA4IAAAAA4IIAA4
A4IAAAA4IIIIIIAA4A4IIA4IIAAAAAAAAA4AA4AA4IA4IIIIIIA4IAAAAA4IIAA4
A4IAAAA4IIIIIIAA4AA4IA4IIAAAAAAAAA4AA4AA4IA4IIIIIIA4IAAAAA4IIAA4
AA4AAAA4IIIIIIAA4AA4IA4IIAAAAAAAAA4AA4AA4IA4IIIIIIA4IAAAAA4IIAA4
AAAAAAA4IIIIIIAA4AA4IA4IIAAAAAAAAA4AA4AA4IA4IIIIIIA4IAAAAA4IIAA4
AAAAAAA4IIIIIIAA4AA4IA4IIAAAAAAAAA4AA4AA4IA4IIIIA4A4IAAAAA4IIAA4
AAAAAAA4IIIIIIAA4AA4IA4IIAAAAAAAAA4AA4AA4IA4IIIIAAA4IAAAAA4IIAA4
AAAAAAA4IIIIIIAA4AA4IA4IIAAAAAAAAA4AA4AA4IA4IIIIAAAA4AAAAA4IIAA4
AAAAAAA4IIIIIIAA4AA4IA4IIAAAAAAAAA4AA4AA4IA4IIIIAAAAAAAAAA4IIAA4
AAAAAAA4IIIIIIAA4AA4IA4IIAAAAAAAAA4AA4AA4IA4IIIIAAAAAAAAAA4IIAAA
AAAAAAA4IIIIIIAA4AA4IA4IAAAAAAAAAA4AA4AA4IA4IIIIAAAAAAAAAA4IIAAA
AAAAAAA4IIIIIIAA4AA4IA4IAAAAAAAAAA4AAAAA4IA4IIIIAAAAAAAAAA4IIAAA
AAAAAAA4A44IIIAA4AA4IA4IAAAAAAAAAA4AAAAA4IA4IIIIAAAAAAAAAA4IIAAA
AAAAAAA4A44IIIAA4AA4IA4IAAAAAAAAAAAAAAAA4IA4IIIIAAAAAAAAAA4IIAAA
AAAAAAA4A44IIIAA4AA4IA4IAAAAAAAAAAAAAAAA4IAA44IIAAAAAAAAAA4IIAAA
AAAAAAA4A44IIIAA4AA4IA4IAAAAAAAAAAAAAAAA44AAA44IAAAAAAAAAA4IIAAA
AAAAAAA4A44IIIAA4AA4IAA4AAAAAAAAAAAAAAAA44AAA44IAAAAAAAAAA4IIAAA
AAAAAAA4A44IIIAA4AA44AAAAAAAAAAAAAAAAAAA44AAA44IAAAAAAAAAA4IIAAA
AAAAAAA4A44IIIAA4AA44AAAAAAAAAAAAAAAAAAA44AAA44IAAAAAAAAAA4IAAAA
AAAAAAA4A44IIIAA4AA44AAAAAAAAAAAAAAAAAAA44AAAA4IAAAAAAAAAA4IAAAA
AAAAAAA4A44IIIAA4AA44AAAAAAAAAAAAAAAAAAA44AAAAA4AAAAAAAAAA4IAAAA
AAAAAAA4A44I44AAAAA44AAAAAAAAAAAAAAAAAAA44AAAAA4AAAAAAAAAA4IAAAA
IIIIIIIIIA4IIIIIIIIIIIIIIIIIIIIIIIIIIIIIIIIIIIIIIIIIIIIIIIIIIIII
IIIIIIIIIAA4IIIIIIIIIIIIIIIIIIIIIIIIIIIIIIIIIIIIIIIIIIIIIIIIIIII
IIIIIIIIIIIIIII4IA444IIIIIIIIIIIIIIIIIIIIIIIIIIIIIIIIIIIIIIIIIII
IIIIIIIAIIIIIII4IA444IIIIIIIIIIIIIIIIIIIIIIIIIIIIIIIIIIIIIIIIIII
IIIIIIAAIIIIIII4IA444IIIIIIIIIIIIIIIIIIIIIIIIIIIIIIIIIIIIIIIIIII
IIIIIIAA4IIIIII4IA444IIIIIIIIIIIIIIIIIIIIIIIIIIIIIIIIIIIIIIIIIII
IIIIIIAA4IIIIII4IA44A4IIIIIIIIIIIIIIIIIIIIIIIIIIIIIIIIIIIIIIIIII
IIIIIIAA4IIIIII4IA44A44IIIIIIIIIIIIIIIIIIIIIIIIIIIIIIIIIIIIIIIII
IIIIIIAA444IIII4IA44A44IIIIIIIIIIIIIIIIIIIIIIIIIIIIIIIIIIIIIIIII
IIIIIIAA4444III4IA44A44IIIIIIIIIIIIIIIIIIIIIIIIIIIIIIIIIIIIIIIII
IIIIIIAA4444III4IA44A4444IIIIIIIIIIIIIIIIIIIIIIIIIIIIIIIIIIIIIII
IIIIIIAA4444III4IA44A44444IIIIIIIIIIIIIIIIIIIIIIIIIIIIIIIIIIIIII
IIIIIIAA44444II4IA44A44444IIIIIIIIIIIIIIIIIIIIIIIIIIIIIIIIIIIIII
IIIIIIAA44444II4IA44A444444IIIIIIIIIIIIIIIIIIIIIIIIIIIIIIIIIIIII
IIIIIIAA44444444IA44A444444IIIIIIIIIIIIIIIIIIIIIIIIIIIIIIIIIIIII
IIIIIIAA44444444IA44A4444444IIIIIIIIIIIIIIIIIIIIIIIIIIIIIIIIIIII
IIIIIIAA44444444IA44A44444444IIIIIIIIIIIIIIIIIIIIIIIIIIIIIIIIIII
IIIIIIAA444444444A44A44444444IIIIIIIIIIIIIIIIIIIIIIIIIIIIIIIIIII
IIIIIIAA444444444A44A44444444444IIIIIIIIIIIIIIIIIIIIIIIIIIIIIIII
IIIIIIAA444444444A44A444444444444IIIIIIIIIIIIIIIIIIIIIIIIIIIIIII
IIIIIIAA444444444A44A4444444444444IIIIIIIIIIIIIIIIIIIIIIIIIIIIII
IIIIIIAA444444444A44A44444444444444IIIIIIIIIIIIIIIIIIIIIIIIIIIII
IIIIIIAA444444444A44A444444444444444IIIIIIIIIIIIIIIIIIIIIIIIIIII
IIIIIIAA444444444A44A4444444444444444IIIIIIIIIIIIIIIIIIIIIIIIIII
IIIIIIAA444444444A44A4444444444444444I4IIIIIIIIIIIIIIIIIIIIIIIII
IIIIIIAA444444444A44A4444444444444444I4II4IIIIIIIIIIIIIIIIIIIIII
IIIIIIAA424444444A44A4444444444444444I4II4IIIIIIIIIIIIIIIIIIIIII
IIIIIIAA424444444A42A4444444444444444I4II4IIIIIIIIIIIIIIIIIIIIII
IIIIIIAA424444444A42A4224444444444444I4II4IIIIIIIIIIIIIIIIIIIIII
IIIIIIAA224444444A42A4224444444444444I4II4IIIIIIIIIIIIIIIIIIIIII
IIIIIIAA224444444A42A4224444444444444I4II4IIIIIIIIIIIIIIIIIIIA44
IIIIIIAA224444444A42A4224444444444444I4II4IIIIIIIIIIIIIIIIIIAA44
IIIIIIAA222444444A42A4224444444444444I4II4IIIIIIIIIIIIIIIIIIAA44
IIIIIIAA222444444A42A4224444444444444I4I44IIIIIIIIIIIIIIIIIIAA44
IIIIIIAA222444444A42A4224444444444444I4I44I4IIIIIIIIIIIIIIIIAA44
IIIIIIAA222444444A42A4224444444444444I4I44I4II4IIIIIIIIIIIIIAA44
IIIIIIAA222444444A22A4224444444444444I4I44I4II4IIIIIIIIIIIIIAA44
IIIIIIAA222444444A22A2224444444444444I4I44I4II4IIIIIIIIIIIIIAA44
IIIIIIAA222444444A22A2224444444444444I4444I4II4IIIIIIIIIIIIIAA44
IIIIIIAA222444444A22AI224444444444444I4444I4II4IIIIIIIIIIIIIAA44
IIIIIIIA222444444A22AI224444444444444I4444I4II4IIIIIIIIIIIIIAA44
IIIIIIII222444444A22AI224444444444444I4444I4II4IIIIIIIIIIIIIAA44
IIIIIIII222444444A22A4224444444444444I4444I4II4IIIIIIIIIIIIIAA44
IIIIIIAI222444444A22A4224444444444444I4444I4II4IIIIIIIIIIIIIAA44
IIIIIIAA222444444A22A4224444444444444I4444I4II4IIIIIIIIIIIIIAA44
IIIIIIAA222444444A22A422444444444444444444I4II4IIIIIIIIIIIIIAA44
IIIIIIAA222444444A22A4A2444444444444444444I4II4IIIIIIIIIIIIIAA44
IIIIIIAA222444444A22A4I2444444444444444444I4II4IIIIIIIIIIIIIAA44
IIIIIIAA222444444A22A422444444444444444444I4II4IIIIIIIIIIIIIAA44
IIIIIIAI222444444A22A422444444444444444444I4II4IIIIIIIIIIIIIAA44
IIIIIIAA222444444A22A422444444444444444444I4II4IIIIIIIIIIIIIAA44
IIIIIIAI222444444A22A422444444444444444444I4II4IIIIIIIIIIIIIAA44
IIIIIIAA222444444A22A422444444444444444444I4II4IIIIIIIIIIIIIAA44
IIIIIIAA222444444A22A4A2444444444444444444I4II4IIIIIIIIIIIIIAA44
IIIIIIAA222444444A22A4A2444444444444444444I4IA444444I4IIIIIIAA44
IIIIIIAA222444444A22A2A2444444444444444444I4IA444444I4IIIIIIAA44
IIIIIIAA222444444A22A2A244444444444444444444IA444444I4IIIIIIAA44
IIIIIIAA222444444A22A2A244444444444444444444IA444444I4I44I4IAA44
IIIIIIAI222444444A22A2A244444444444444444444IA444444I4I44I4IAA44
IIIIIIAA222444444A22A2A244444444444444444444IA444444I4I44I4IAA44
IIIIIIAA222444444A22A2A244444444444444444444IA244444I4I44I4IAA44
IIIIIIAA222444444A22A2A244444444444444444444IAI44444I4I44I4IAA44
IIIIIIIA222444444A22A2A244444444444444444444IAI44444I4I44I4IAA44
IIIIIIAA222444444A22A2A244444444444444444444IAI44444I4I44I4IAA44
IIIIIIAA222444444A22A2A242444444444444444444IAI44444I4I44I4IAA44
IIIIIIAA222444444A22A2A24I444444444444444444IAI44444I4I44I4IAA44
IIIIIIAA222444444A22A2A244444444444444444444IAI44444I4I44I4IAA44
IIIIIIAA222444444A22A2A244444444444444444444IA444444I4I44I4IAA44
IIIIIIAA222444444A22A2A244444444444444444444IA444444I4I44I44AA44
IIIIIIAA222444444A22A2A244444444444444444444II444444I4I44I44AA44
IIIIIIIA222444444A22A2A244444444444444444444II444444I4I44I44AA44
IIIIIIAA222444444A22A2A244444444444444444444II444444I4I44I44AA44
IIIIIIAI222444444A22A2A244444444444444444444II444444I4I44I44AA44
IIIIIIAA222444444A22A2A244444444444444444444II444444I4I44I44AA44
IIIIIIAA222444444A22A2A244444444444444444444II444444I4I44IA4AA44
IIIIIIAA222444444A22A2A244444444444444444444II444444I4I44IAAAA44
IIIIIIIIIIIIIIIIIIIIIIIIIIIIIIIIIIIIIIIIIIIII4IA444IIIIIIIIIIIII
IIIIIIIIIIIIIIIIIIIIIIIIIIIIIIIIIIIIIIIIA4III4IA444IIIIIIIIIIIII
IIIIIIIIIIIIIIIIIIIIIIIIIIIIIIIIIIIIIIIIAA4II4IA444IIIIIIIIIIIII
IIIIIIIIIIIIA4IIIIIIIIIIIIIIIIIIIIIIIIIIAA4II4IA444IIIIIIIIIIIII
IIIIIIIIIIIIAA4IIIIIIIIIIIIIIIIIIIIIIIIIAA4II4IA444IIIIIIIIIIIII
IIIIIIIIIIIA4IIIIIIIIIIIIIIIIIIIIIIIIIIIIIIIIIIIIIIIIIIIIIIIIIII
IIIIIIIIIIIA4IIIIIIA4IIIIIIIIIIIIIIIIIIIIIIIIIIIIIIIIIIIIIIIIIII
IIIIIIIIIIIA4IIIIIIAA4IIIIIIIIIIIIIIIIIIIIIIIIIIIIIIIIIIIIIIIIII
IIIIIIIIIIIIIIIIIIIIIIIIIIIIIIA4IIIIIIIIIIIIIIIIIIIIIIIIIIIIIIII
IIIIIIIIIIIIIIIIIIIIIIIIIIIIIIAA4IIIIIIIIIIIIIIIIIIIIIIIIIIIIIII
IIIIIIIIIIIIIIIIIIIIIIIIIIIIIAAA4IIIIIIIIIIIIIIIIIIIIIIIIIIIIIII
IIIIIIIIIIIIIIIIIIIIIIIIIIIIIAAA4IIIIIIIIIIIIIIIIIIIIIIIA4IIIIII
IIIIIIIIIIIIIIIIIIIIIIIIIIIIIAAA4IIIIIIIIIIIIIIIIIIIIIIIAA4IIIII
IIIIIIA4IIIIIIIIIIIIIIIIIIIIIAAA4IIIIIIIIIIIIIIIIIIIIIIIAA4IIIII
IIIIIIA4IIIIIIIIIIIIIIIIIA4IIAAA4IIIIIIIIIIIIIIIIIIIIIIIAA4IIIII
IIIIIIA4IIIIIIIIIIIIIIIIIAA4IAAA4IIIIIIIIIIIIIIIIIIIIIIIAA4IIIII
IIIIIIA4IIIIIIIIIIIIIIIIIAAA4AAA4IIIIIIIIIIIIIIIIIIIIIIIAA4IIIII
IIIIIIA4IIIIIIIIIIIIIIIIIAAAAAAA4IIIIIIIIIIIIIIIIIIIIIIIAA4IIIII
IIIIIIA4IIIIIIIIIIIIIIIIIAAAAAAA4IIIIIIIIIIIIIIIIIA4IIIIAA4IIIII
IIIA4IA4IIIIIIIIIIIIIIIIIAAAAAAA4IIIIIIIIIIIIIIIIIA4IIIIAA4IIIII
IIIA4IA4IIIIIIIIIIIIIIIIIAAAAAAA4IIIIIA4IIIIIIIIIIA4IIIIAA4IIIII
IIIA4IA4IIIIIIIIIIIIIIIIIAAAAAAA4IIIIIAA4IIIIIIIIIA4IIIIAA4IIIII
IIIA4IA4IIIIIIIIIIIIIIIIIAAAAAAA4IIIIIAA4IIIIIIIIIA4IA4IAA4IIIII
IIIA4IA4IIIIIIIIIIIIIIIIIAAAAAAA4IIIIIAA4IIIIIIIIIA4IAA4AA4IIIII
IIIA4IA4IIIIIIIIIIIIIA4IIAAAAAAA4IIIIIAA4IIIIIIIIIA4IAA4AA4IIIII
IIIA4IA4IIIIIIIIIIIIIA4IIAAAAAAA4IIIIIAA4IIIIIIIIIA4IAA4AA4IIA4I
IIIA4IA4IIIIIIIIIIIIIA4IIAAAAAAA4IIIIIAA4IIIIIIIIIA4IAA4AA4IIAA4
IIIA4IA4IIIIIIIIIIIIIA4IIAAAAAAA4IIIIIAA4IIIIIIIIIA4IAAAAA4IIAA4
IIIAA4A4IIIIIIIIIIIIIA4IIAAAAAAA4IIIIIAA4IIIIIIIIIA4IAAAAA4IIAA4
IIIAAAA4IIIIIIIIIIIIIA4IIAAAAAAA4IIIIIAA4IIIIIIIIIA4IAAAAA4IIAA4
IIIAAAA4IIIIIIIIIIIIIA4IIAAAAAAA4IIA4IAA4IIIIIIIIIA4IAAAAA4IIAA4
IIIAAAA4IIIIIIIIIIIIIA4IIAAAAAAA4IIAA4AA4IIIIIIIIIA4IAAAAA4IIAA4
A4IAAAA4IIIIIIIIIIIIIA4IIAAAAAAA4IIAA4AA4IIIIIIIIIA4IAAAAA4IIAA4
A4IAAAA4IIIIIIIIIIIIIA4IIAAAAAAAA4IAA4AA4IIIIIIIIIA4IAAAAA4IIAA4
A4IAAAA4IIIIIIIIIIIIIA4IIAAAAAAAAA4AA4AA4IIIIIIIIIA4IAAAAA4IIAA4
A4IAAAA4IIIIIIIIIIIIIA4IIAAAAAAAAA4AA4AA4IA4IIIIIIA4IAAAAA4IIAA4
A4IAAAA4I4IIIIA4IIIIIA4IIAAAAAAAAA4AA4AA4IA4IIIIIIA4IAAAAA4IIAA4
A4IAAAA4I44IIIAA4IIIIA4IIAAAAAAAAA4AA4AA4IA4IIIIIIA4IAAAAA4IIAA4
A4IAAAA4I44I4IAA4A4IIA4IIAAAAAAAAA4AA4AA4IA4IIIIIIA4IAAAAA4IIAA4
A4IAAAA4I44I44AA4AA4IA4IIAAAAAAAAA4AA4AA4IA4IIIIIIA4IAAAAA4IIAA4
AA4AAAA4I44I44AA4AA4IA4IIAAAAAAAAA4AA4AA4IA4IIIIIIA4IAAAAA4IIAA4
AAAAAAA4I44I44AA4AA4IA4IIAAAAAAAAA4AA4AA4IA4IIIIIIA4IAAAAA4IIAA4
AAAAAAA4I44I44AA4AA4IA4IIAAAAAAAAA4AA4AA4IA4IIIIA4A4IAAAAA4IIAA4
AAAAAAA4I44I44AA4AA4IA4IIAAAAAAAAA4AA4AA4IA4IIIIAAA4IAAAAA4IIAA4
AAAAAAA4I44I44AA4AA4IA4IIAAAAAAAAA4AA4AA4IA4IIIIAAAA4AAAAA4IIAA4
AAAAAAA4I44I44AA4AA4IA4IIAAAAAAAAA4AA4AA4IA4IIIIAAAAAAAAAA4IIAA4
AAAAAAA4I44I44AA4AA4IA4IIAAAAAAAAA4AA4AA4IA4IIIIAAAAAAAAAA4IIAAA
AAAAAAA4I44I44AA4AA4IA4IAAAAAAAAAA4AA4AA4IA4IIIIAAAAAAAAAA4IIAAA
AAAAAAA4I44I44AA4AA4IA4IAAAAAAAAAA4AAAAA44A4IIIIAAAAAAAAAA4IIAAA
AAAAAAA4A44I44AA4AA4IA4IAAAAAAAAAA4AAAAA44A4IIIIAAAAAAAAAA4IIAAA
AAAAAAA4A44I44AA4AA4IA4IAAAAAAAAAAAAAAAA44A4IIIIAAAAAAAAAA4IIAAA
AAAAAAA4A44I44AA4AA4IA4IAAAAAAAAAAAAAAAA44AA44IIAAAAAAAAAA4IIAAA
AAAAAAA4A44I44AA4AA4IA4IAAAAAAAAAAAAAAAA44AAA44IAAAAAAAAAA4IIAAA
AAAAAAA4A44I44AA4AA4IAA4AAAAAAAAAAAAAAAA44AAA44IAAAAAAAAAA4IIAAA
AAAAAAA4A44I44AA4AA44AAAAAAAAAAAAAAAAAAA44AAA44IAAAAAAAAAA4IIAAA
AAAAAAA4A44I44AA4AA44AAAAAAAAAAAAAAAAAAA44AAA44IAAAAAAAAAA4IAAAA
AAAAAAA4A44I44AA4AA44AAAAAAAAAAAAAAAAAAA44AAAA4IAAAAAAAAAA4IAAAA
AAAAAAA4A44I44AA4AA44AAAAAAAAAAAAAAAAAAA44AAAAA4AAAAAAAAAA4IAAAA
AAAAAAA4A44I44AAAAA44AAAAAAAAAAAAAAAAAAA44AAAAA4AAAAAAAAAA4IAAAA
IIIIIIIIIA4IIIIIIIIIIIIIIIIIIIIIIIIIIIIIIIIIIIIIIIIIIIIIIIIIIIII
IIIIIIIIIAA4IIIIIIIIIIIIIIIIIIIIIIIIIIIIIIIIIIIIIIIIIIIIIIIIIIII
IIIIIIIII4IIIIIIII4IA4IIIIIIIIIIIIIIIIIIIIIIIIIIIIIIIIIIIIIIIIII
IIIIIIIII4IIIIIII44IA44IIIIIIIIIIIIIIIIIIIIIIIIIIIIIIIIIIIIIIIII
IIIIIIIA44IIIIIII44IA44IIIIIIIIIIIIIIIIIIIIIIIIIIIIIIIIIIIIIIIII
IIIIIIAA44IIIIIII44IA44IIIIIIIIIIIIIIIIIIIIIIIIIIIIIIIIIIIIIIIII
IIIIIIAA44IIIIIII44IA444IIIIIIIIIIIIIIIIIIIIIIIIIIIIIIIIIIIIIIII
IIIIIIAA4444IIIII44IA444IIIIIIIIIIIIIIIIIIIIIIIIIIIIIIIIIIIIIIII
IIIIIIAA4444IIIII44IA4444IIIIIIIIIIIIIIIIIIIIIIIIIIIIIIIIIIIIIII
IIIIIIAA4444IIIII44IA44444IIIIIIIIIIIIIIIIIIIIIIIIIIIIIIIIIIIIII
IIIIIIAA44444IIII44IA44444IIIIIIIIIIIIIIIIIIIIIIIIIIIIIIIIIIIIII
IIIIIIAA44444IIII44IA444444IIIIIIIIIIIIIIIIIIIIIIIIIIIIIIIIIIIII
IIIIIIAA44444IIII44IA4444444IIIIIIIIIIIIIIIIIIIIIIIIIIIIIIIIIIII
IIIIIIAA44444IIII44IA44444444IIIIIIIIIIIIIIIIIIIIIIIIIIIIIIIIIII
IIIIIIAA44444IIII44IA444444444IIIIIIIIIIIIIIIIIIIIIIIIIIIIIIIIII
IIIIIIAA44444444444IA444444444IIIIIIIIIIIIIIIIIIIIIIIIIIIIIIIIII
IIIIIIAA44444444444IA44444444444IIIIIIIIIIIIIIIIIIIIIIIIIIIIIIII
IIIIIIAA44444444444IA444444444444IIIIIIIIIIIIIIIIIIIIIIIIIIIIIII
IIIIIIAA444444444444A444444444444IIIIIIIIIIIIIIIIIIIIIIIIIIIIIII
IIIIIIAA444444444444A4444444444444IIIIIIIIIIIIIIIIIIIIIIIIIIIIII
IIIIIIAA444444444444A444444444444444IIIIIIIIIIIIIIIIIIIIIIIIIIII
IIIIIIAA444444444444A4444444444444444IIIIIIIIIIIIIIIIIIIIIIIIIII
IIIIIIAA444444444444A4444444444444444I4IIIIIIIIIIIIIIIIIIIIIIIII
IIIIIIAA444444444444A444444444444444444IIIIIIIIIIIIIIIIIIIIIIIII
IIIIIIAA444444444444A442444444444444444IIIIIIIIIIIIIIIIIIIIIIIII
IIIIIIAA444444444444A442444444444444444II4IIIIIIIIIIIIIIIIIIIIII
IIIIIIAA424444444444A442444444444444444II4IIIIIIIIIIIIIIIIIIIIII
IIIIIIAA224444444444A442444444444444444II4IIIIIIIIIIIIIIIIIIIIII
IIIIIIAA224444444444A422444444444444444II4IIIIIIIIIIIIIIIIIIIIII
IIIIIIAA224444444444A422444444444444444II4II4IIIIIIIIIIIIIIIIIII
IIIIIIAA224444444444A422444444444444444II4II4I4IIIIIIIIIIIIIIIII
IIIIIIAA224444444444A4224444444444444444I4II4I4IIIIIIIIIIIIIIIII
[MLOP] Prefetch Degree Mean: 4.20726
[MLOP] Prefetch Degree SD: 3.10670
[MLOP] Max Score Left Mean (%): 26.77491
[MLOP] Max Score Left SD (%): 19.48629
[MLOP] Max Score Right Mean (%): 59.86883
[MLOP] Max Score Right SD (%): 15.13200

Channel_0_RQ_row_buffer_hit 3954853
Channel_0_RQ_row_buffer_miss 48499514
Channel_0_WQ_row_buffer_hit 2732225
Channel_0_WQ_row_buffer_miss 4853015
Channel_0_WQ_full 0
Channel_0_dbus_congested 42192798

avg_congested_cycle 45

DRAM_bw_pochs 21208895
DRAM_bw_level_0 4137314
DRAM_bw_level_1 2398029
DRAM_bw_level_2 2841716
DRAM_bw_level_3 11831836
