*************************************************
   ChampSim Multicore Out-of-Order Simulator
   Last compiled: Dec 11 2024 17:59:53
*************************************************
parsing config file: /home/functionmain/桌面/Pythia/config/spp_dev2.ini

trace_0 /home/functionmain/桌面/Pythia/traces/429.mcf-184B.champsimtrace.xz
adding L2C_PREFETCHER: SPP_dev2
Initialize SIGNATURE TABLE
ST_SET: 1
ST_WAY: 256
ST_TAG_BIT: 16
ST_TAG_MASK: ffff

Initialize PATTERN TABLE
PT_SET: 512
PT_WAY: 4
SIG_DELTA_BIT: 7
C_SIG_BIT: 4
C_DELTA_BIT: 4

Initialize PREFETCH FILTER
FILTER_SET: 1024
fill_threshold: 90
pf_threshold: 40

Initialize SHIP state
warmup_instructions 100000000
simulation_instructions 500000000
champsim_seed 223
measure_ipc 0
measure_ipc_epoch 1000
measure_dram_bw 1
measure_dram_bw_epoch 256
measure_cache_acc 1
measure_cache_acc_epoch 1024
l1d_perfect 0
l2c_perfect 0
llc_perfect 0
l1d_semi_perfect 0
l2c_semi_perfect 0
llc_semi_perfect 0
semi_perfect_cache_page_buffer_size 64

num_cpus 1
cpu_freq 4000
dram_io_freq 150
page_size 4096
block_size 64
max_read_per_cycle 8
max_fill_per_cycle 1
dram_channels 1
log2_dram_channels 0
dram_ranks 1
dram_banks 8
dram_rows 65536
dram_columns 128
dram_row_size 8
dram_size 4096
dram_pages 1048576

fetch_width 6
decode_width 6
exec_width 4
lq_width 2
sq_width 2
retire_width 4
scheduler_size 128
branch_mispredict_penalty 20
rob_size 256
lq_size 72
sq_size 56
num_instr_destinations_sparc 4
num_instr_destinations 2
num_instr_sources 4

itlb_set 16
itlb_way 8
itlb_rq_size 16
itlb_wq_size 16
itlb_pq_size 0
itlb_mshr_size 8
itlb_latency 1

dtlb_set 16
dtlb_way 4
dtlb_rq_size 16
dtlb_wq_size 16
dtlb_pq_size 0
dtlb_mshr_size 8
dtlb_latency 1

stlb_set 128
stlb_way 12
stlb_rq_size 32
stlb_wq_size 32
stlb_pq_size 0
stlb_mshr_size 16
stlb_latency 8

l1i_size 32
l1i_set 64
l1i_way 8
l1i_rq_size 64
l1i_wq_size 64
l1i_pq_size 8
l1i_mshr_size 8
l1i_latency 1

l1d_size 32
l1d_set 64
l1d_way 8
l1d_rq_size 64
l1d_wq_size 64
l1d_pq_size 8
l1d_mshr_size 16
l1d_latency 4

l2c_size 256
l2c_set 512
l2c_way 8
l2c_rq_size 32
l2c_wq_size 32
l2c_pq_size 32
l2c_mshr_size 32
l2c_latency 10

llc_size 2048
llc_set 2048
llc_way 16
llc_rq_size 32
llc_wq_size 32
llc_pq_size 32
llc_mshr_size 64
llc_latency 20

dram_channel_width 8
dram_wq_size 64
dram_rq_size 64
tRP 15
tRCD 15
tCAS 12.5
dram_dbus_turn_around_time 30
dram_write_high_wm 56
dram_write_low_wm 48
min_dram_writes_per_switch 16
dram_mtps 150
dram_dbus_return_time 213


Heartbeat CPU  0 instructions:    1000000 cycles:    1115274 heartbeat IPC: 0.89664 cumulative IPC: 0.89664 (Simulation time: 0 hr 0 min 1 sec) 
Heartbeat CPU  0 instructions:    2000002 cycles:    2221377 heartbeat IPC: 0.90408 cumulative IPC: 0.90034 (Simulation time: 0 hr 0 min 3 sec) 
Heartbeat CPU  0 instructions:    3000000 cycles:    3292973 heartbeat IPC: 0.93319 cumulative IPC: 0.91103 (Simulation time: 0 hr 0 min 4 sec) 
Heartbeat CPU  0 instructions:    4000000 cycles:    4310182 heartbeat IPC: 0.98308 cumulative IPC: 0.92804 (Simulation time: 0 hr 0 min 6 sec) 
Heartbeat CPU  0 instructions:    5000003 cycles:    5272300 heartbeat IPC: 1.03938 cumulative IPC: 0.94835 (Simulation time: 0 hr 0 min 7 sec) 
Heartbeat CPU  0 instructions:    6000003 cycles:    6439321 heartbeat IPC: 0.85688 cumulative IPC: 0.93178 (Simulation time: 0 hr 0 min 8 sec) 
Heartbeat CPU  0 instructions:    7000001 cycles:    7594570 heartbeat IPC: 0.86561 cumulative IPC: 0.92171 (Simulation time: 0 hr 0 min 10 sec) 
Heartbeat CPU  0 instructions:    8000000 cycles:    8727274 heartbeat IPC: 0.88284 cumulative IPC: 0.91667 (Simulation time: 0 hr 0 min 11 sec) 
Heartbeat CPU  0 instructions:    9000001 cycles:    9873470 heartbeat IPC: 0.87245 cumulative IPC: 0.91153 (Simulation time: 0 hr 0 min 12 sec) 
Heartbeat CPU  0 instructions:   10000001 cycles:   10986186 heartbeat IPC: 0.89870 cumulative IPC: 0.91023 (Simulation time: 0 hr 0 min 14 sec) 
Heartbeat CPU  0 instructions:   11000000 cycles:   12100460 heartbeat IPC: 0.89744 cumulative IPC: 0.90906 (Simulation time: 0 hr 0 min 15 sec) 
Heartbeat CPU  0 instructions:   12000000 cycles:   13253461 heartbeat IPC: 0.86730 cumulative IPC: 0.90542 (Simulation time: 0 hr 0 min 16 sec) 
Heartbeat CPU  0 instructions:   13000000 cycles:   14398774 heartbeat IPC: 0.87312 cumulative IPC: 0.90285 (Simulation time: 0 hr 0 min 18 sec) 
Heartbeat CPU  0 instructions:   14000001 cycles:   15573521 heartbeat IPC: 0.85125 cumulative IPC: 0.89896 (Simulation time: 0 hr 0 min 19 sec) 
Heartbeat CPU  0 instructions:   15000003 cycles:   16750267 heartbeat IPC: 0.84980 cumulative IPC: 0.89551 (Simulation time: 0 hr 0 min 21 sec) 
Heartbeat CPU  0 instructions:   16000000 cycles:   17922670 heartbeat IPC: 0.85295 cumulative IPC: 0.89272 (Simulation time: 0 hr 0 min 22 sec) 
Heartbeat CPU  0 instructions:   17000000 cycles:   19107349 heartbeat IPC: 0.84411 cumulative IPC: 0.88971 (Simulation time: 0 hr 0 min 23 sec) 
Heartbeat CPU  0 instructions:   18000000 cycles:   20312709 heartbeat IPC: 0.82963 cumulative IPC: 0.88614 (Simulation time: 0 hr 0 min 24 sec) 
Heartbeat CPU  0 instructions:   19000000 cycles:   21262293 heartbeat IPC: 1.05309 cumulative IPC: 0.89360 (Simulation time: 0 hr 0 min 26 sec) 
Heartbeat CPU  0 instructions:   20000000 cycles:   22381905 heartbeat IPC: 0.89317 cumulative IPC: 0.89358 (Simulation time: 0 hr 0 min 27 sec) 
Heartbeat CPU  0 instructions:   21000000 cycles:   23585120 heartbeat IPC: 0.83111 cumulative IPC: 0.89039 (Simulation time: 0 hr 0 min 29 sec) 
Heartbeat CPU  0 instructions:   22000001 cycles:   24715941 heartbeat IPC: 0.88431 cumulative IPC: 0.89011 (Simulation time: 0 hr 0 min 30 sec) 
Heartbeat CPU  0 instructions:   23000001 cycles:   25867140 heartbeat IPC: 0.86866 cumulative IPC: 0.88916 (Simulation time: 0 hr 0 min 31 sec) 
Heartbeat CPU  0 instructions:   24000000 cycles:   27036091 heartbeat IPC: 0.85547 cumulative IPC: 0.88770 (Simulation time: 0 hr 0 min 33 sec) 
Heartbeat CPU  0 instructions:   25000002 cycles:   28203434 heartbeat IPC: 0.85665 cumulative IPC: 0.88642 (Simulation time: 0 hr 0 min 34 sec) 
Heartbeat CPU  0 instructions:   26000000 cycles:   29332604 heartbeat IPC: 0.88560 cumulative IPC: 0.88639 (Simulation time: 0 hr 0 min 35 sec) 
Heartbeat CPU  0 instructions:   27000000 cycles:   30526488 heartbeat IPC: 0.83760 cumulative IPC: 0.88448 (Simulation time: 0 hr 0 min 37 sec) 
Heartbeat CPU  0 instructions:   28000000 cycles:   31713229 heartbeat IPC: 0.84264 cumulative IPC: 0.88291 (Simulation time: 0 hr 0 min 38 sec) 
Heartbeat CPU  0 instructions:   29000000 cycles:   32866986 heartbeat IPC: 0.86673 cumulative IPC: 0.88234 (Simulation time: 0 hr 0 min 39 sec) 
Heartbeat CPU  0 instructions:   30000000 cycles:   34046743 heartbeat IPC: 0.84763 cumulative IPC: 0.88114 (Simulation time: 0 hr 0 min 41 sec) 
Heartbeat CPU  0 instructions:   31000002 cycles:   35189331 heartbeat IPC: 0.87521 cumulative IPC: 0.88095 (Simulation time: 0 hr 0 min 42 sec) 
Heartbeat CPU  0 instructions:   32000000 cycles:   36329039 heartbeat IPC: 0.87742 cumulative IPC: 0.88084 (Simulation time: 0 hr 0 min 43 sec) 
Heartbeat CPU  0 instructions:   33000000 cycles:   37486620 heartbeat IPC: 0.86387 cumulative IPC: 0.88031 (Simulation time: 0 hr 0 min 45 sec) 
Heartbeat CPU  0 instructions:   34000002 cycles:   38442685 heartbeat IPC: 1.04596 cumulative IPC: 0.88443 (Simulation time: 0 hr 0 min 46 sec) 
Heartbeat CPU  0 instructions:   35000003 cycles:   39511310 heartbeat IPC: 0.93578 cumulative IPC: 0.88582 (Simulation time: 0 hr 0 min 48 sec) 
Heartbeat CPU  0 instructions:   36000000 cycles:   40679146 heartbeat IPC: 0.85628 cumulative IPC: 0.88497 (Simulation time: 0 hr 0 min 49 sec) 
Heartbeat CPU  0 instructions:   37000002 cycles:   41873846 heartbeat IPC: 0.83703 cumulative IPC: 0.88361 (Simulation time: 0 hr 0 min 50 sec) 
Heartbeat CPU  0 instructions:   38000003 cycles:   43033270 heartbeat IPC: 0.86250 cumulative IPC: 0.88304 (Simulation time: 0 hr 0 min 52 sec) 
Heartbeat CPU  0 instructions:   39000001 cycles:   44153012 heartbeat IPC: 0.89306 cumulative IPC: 0.88329 (Simulation time: 0 hr 0 min 53 sec) 
Heartbeat CPU  0 instructions:   40000000 cycles:   45263445 heartbeat IPC: 0.90055 cumulative IPC: 0.88372 (Simulation time: 0 hr 0 min 54 sec) 
Heartbeat CPU  0 instructions:   41000000 cycles:   46418260 heartbeat IPC: 0.86594 cumulative IPC: 0.88327 (Simulation time: 0 hr 0 min 56 sec) 
Heartbeat CPU  0 instructions:   42000000 cycles:   47582315 heartbeat IPC: 0.85907 cumulative IPC: 0.88268 (Simulation time: 0 hr 0 min 57 sec) 
Heartbeat CPU  0 instructions:   43000000 cycles:   48718036 heartbeat IPC: 0.88050 cumulative IPC: 0.88263 (Simulation time: 0 hr 0 min 58 sec) 
Heartbeat CPU  0 instructions:   44000000 cycles:   49849357 heartbeat IPC: 0.88392 cumulative IPC: 0.88266 (Simulation time: 0 hr 1 min 0 sec) 
Heartbeat CPU  0 instructions:   45000003 cycles:   50989622 heartbeat IPC: 0.87699 cumulative IPC: 0.88253 (Simulation time: 0 hr 1 min 1 sec) 
Heartbeat CPU  0 instructions:   46000003 cycles:   52083584 heartbeat IPC: 0.91411 cumulative IPC: 0.88320 (Simulation time: 0 hr 1 min 2 sec) 
Heartbeat CPU  0 instructions:   47000000 cycles:   53145886 heartbeat IPC: 0.94135 cumulative IPC: 0.88436 (Simulation time: 0 hr 1 min 4 sec) 
Heartbeat CPU  0 instructions:   48000000 cycles:   54031988 heartbeat IPC: 1.12854 cumulative IPC: 0.88836 (Simulation time: 0 hr 1 min 5 sec) 
Heartbeat CPU  0 instructions:   49000002 cycles:   55184402 heartbeat IPC: 0.86775 cumulative IPC: 0.88793 (Simulation time: 0 hr 1 min 7 sec) 
Heartbeat CPU  0 instructions:   50000003 cycles:   56343423 heartbeat IPC: 0.86280 cumulative IPC: 0.88742 (Simulation time: 0 hr 1 min 8 sec) 
Heartbeat CPU  0 instructions:   51000001 cycles:   57481510 heartbeat IPC: 0.87867 cumulative IPC: 0.88724 (Simulation time: 0 hr 1 min 9 sec) 
Heartbeat CPU  0 instructions:   52000000 cycles:   58620935 heartbeat IPC: 0.87763 cumulative IPC: 0.88706 (Simulation time: 0 hr 1 min 11 sec) 
Heartbeat CPU  0 instructions:   53000001 cycles:   59788408 heartbeat IPC: 0.85655 cumulative IPC: 0.88646 (Simulation time: 0 hr 1 min 12 sec) 
Heartbeat CPU  0 instructions:   54000001 cycles:   60949839 heartbeat IPC: 0.86101 cumulative IPC: 0.88597 (Simulation time: 0 hr 1 min 13 sec) 
Heartbeat CPU  0 instructions:   55000002 cycles:   62098860 heartbeat IPC: 0.87031 cumulative IPC: 0.88568 (Simulation time: 0 hr 1 min 14 sec) 
Heartbeat CPU  0 instructions:   56000000 cycles:   63191772 heartbeat IPC: 0.91498 cumulative IPC: 0.88619 (Simulation time: 0 hr 1 min 16 sec) 
Heartbeat CPU  0 instructions:   57000002 cycles:   64323367 heartbeat IPC: 0.88371 cumulative IPC: 0.88615 (Simulation time: 0 hr 1 min 17 sec) 
Heartbeat CPU  0 instructions:   58000002 cycles:   65451959 heartbeat IPC: 0.88606 cumulative IPC: 0.88615 (Simulation time: 0 hr 1 min 18 sec) 
Heartbeat CPU  0 instructions:   59000001 cycles:   66572013 heartbeat IPC: 0.89281 cumulative IPC: 0.88626 (Simulation time: 0 hr 1 min 20 sec) 
Heartbeat CPU  0 instructions:   60000000 cycles:   67711100 heartbeat IPC: 0.87790 cumulative IPC: 0.88612 (Simulation time: 0 hr 1 min 21 sec) 
Heartbeat CPU  0 instructions:   61000002 cycles:   68740698 heartbeat IPC: 0.97125 cumulative IPC: 0.88739 (Simulation time: 0 hr 1 min 23 sec) 
Heartbeat CPU  0 instructions:   62000000 cycles:   69684614 heartbeat IPC: 1.05941 cumulative IPC: 0.88972 (Simulation time: 0 hr 1 min 24 sec) 
Heartbeat CPU  0 instructions:   63000001 cycles:   70817520 heartbeat IPC: 0.88269 cumulative IPC: 0.88961 (Simulation time: 0 hr 1 min 25 sec) 
Heartbeat CPU  0 instructions:   64000000 cycles:   71918377 heartbeat IPC: 0.90838 cumulative IPC: 0.88990 (Simulation time: 0 hr 1 min 27 sec) 
Heartbeat CPU  0 instructions:   65000002 cycles:   73012841 heartbeat IPC: 0.91369 cumulative IPC: 0.89025 (Simulation time: 0 hr 1 min 28 sec) 
Heartbeat CPU  0 instructions:   66000000 cycles:   74128901 heartbeat IPC: 0.89601 cumulative IPC: 0.89034 (Simulation time: 0 hr 1 min 29 sec) 
Heartbeat CPU  0 instructions:   67000002 cycles:   75194596 heartbeat IPC: 0.93836 cumulative IPC: 0.89102 (Simulation time: 0 hr 1 min 31 sec) 
Heartbeat CPU  0 instructions:   68000000 cycles:   76305943 heartbeat IPC: 0.89981 cumulative IPC: 0.89115 (Simulation time: 0 hr 1 min 32 sec) 
Heartbeat CPU  0 instructions:   69000002 cycles:   77267561 heartbeat IPC: 1.03992 cumulative IPC: 0.89300 (Simulation time: 0 hr 1 min 34 sec) 
Heartbeat CPU  0 instructions:   70000001 cycles:   78303197 heartbeat IPC: 0.96559 cumulative IPC: 0.89396 (Simulation time: 0 hr 1 min 35 sec) 
Heartbeat CPU  0 instructions:   71000002 cycles:   79421304 heartbeat IPC: 0.89437 cumulative IPC: 0.89397 (Simulation time: 0 hr 1 min 36 sec) 
Heartbeat CPU  0 instructions:   72000000 cycles:   80510749 heartbeat IPC: 0.91790 cumulative IPC: 0.89429 (Simulation time: 0 hr 1 min 38 sec) 
Heartbeat CPU  0 instructions:   73000001 cycles:   81679561 heartbeat IPC: 0.85557 cumulative IPC: 0.89374 (Simulation time: 0 hr 1 min 39 sec) 
Heartbeat CPU  0 instructions:   74000000 cycles:   82799514 heartbeat IPC: 0.89289 cumulative IPC: 0.89373 (Simulation time: 0 hr 1 min 40 sec) 
Heartbeat CPU  0 instructions:   75000000 cycles:   83933728 heartbeat IPC: 0.88167 cumulative IPC: 0.89356 (Simulation time: 0 hr 1 min 42 sec) 
Heartbeat CPU  0 instructions:   76000000 cycles:   85081879 heartbeat IPC: 0.87097 cumulative IPC: 0.89326 (Simulation time: 0 hr 1 min 43 sec) 
Heartbeat CPU  0 instructions:   77000000 cycles:   86209203 heartbeat IPC: 0.88706 cumulative IPC: 0.89318 (Simulation time: 0 hr 1 min 44 sec) 
Heartbeat CPU  0 instructions:   78000002 cycles:   87290402 heartbeat IPC: 0.92490 cumulative IPC: 0.89357 (Simulation time: 0 hr 1 min 46 sec) 
Heartbeat CPU  0 instructions:   79000002 cycles:   88216260 heartbeat IPC: 1.08008 cumulative IPC: 0.89553 (Simulation time: 0 hr 1 min 47 sec) 
Heartbeat CPU  0 instructions:   80000000 cycles:   89315298 heartbeat IPC: 0.90988 cumulative IPC: 0.89570 (Simulation time: 0 hr 1 min 49 sec) 
Heartbeat CPU  0 instructions:   81000003 cycles:   90353595 heartbeat IPC: 0.96312 cumulative IPC: 0.89648 (Simulation time: 0 hr 1 min 50 sec) 
Heartbeat CPU  0 instructions:   82000003 cycles:   91356917 heartbeat IPC: 0.99669 cumulative IPC: 0.89758 (Simulation time: 0 hr 1 min 51 sec) 
Heartbeat CPU  0 instructions:   83000003 cycles:   92348255 heartbeat IPC: 1.00874 cumulative IPC: 0.89877 (Simulation time: 0 hr 1 min 53 sec) 
Heartbeat CPU  0 instructions:   84000000 cycles:   93240305 heartbeat IPC: 1.12101 cumulative IPC: 0.90090 (Simulation time: 0 hr 1 min 54 sec) 
Heartbeat CPU  0 instructions:   85000000 cycles:   94222393 heartbeat IPC: 1.01824 cumulative IPC: 0.90212 (Simulation time: 0 hr 1 min 55 sec) 
Heartbeat CPU  0 instructions:   86000000 cycles:   95157141 heartbeat IPC: 1.06981 cumulative IPC: 0.90377 (Simulation time: 0 hr 1 min 57 sec) 
Heartbeat CPU  0 instructions:   87000002 cycles:   96078173 heartbeat IPC: 1.08574 cumulative IPC: 0.90551 (Simulation time: 0 hr 1 min 58 sec) 
Heartbeat CPU  0 instructions:   88000000 cycles:   96965283 heartbeat IPC: 1.12725 cumulative IPC: 0.90754 (Simulation time: 0 hr 2 min 0 sec) 
Heartbeat CPU  0 instructions:   89000001 cycles:   97878889 heartbeat IPC: 1.09456 cumulative IPC: 0.90929 (Simulation time: 0 hr 2 min 1 sec) 
Heartbeat CPU  0 instructions:   90000000 cycles:   98848108 heartbeat IPC: 1.03176 cumulative IPC: 0.91049 (Simulation time: 0 hr 2 min 3 sec) 
Heartbeat CPU  0 instructions:   91000002 cycles:   99867493 heartbeat IPC: 0.98099 cumulative IPC: 0.91121 (Simulation time: 0 hr 2 min 4 sec) 
Heartbeat CPU  0 instructions:   92000000 cycles:  100847314 heartbeat IPC: 1.02059 cumulative IPC: 0.91227 (Simulation time: 0 hr 2 min 5 sec) 
Heartbeat CPU  0 instructions:   93000001 cycles:  101746220 heartbeat IPC: 1.11246 cumulative IPC: 0.91404 (Simulation time: 0 hr 2 min 7 sec) 
Heartbeat CPU  0 instructions:   94000003 cycles:  102777130 heartbeat IPC: 0.97002 cumulative IPC: 0.91460 (Simulation time: 0 hr 2 min 8 sec) 
Heartbeat CPU  0 instructions:   95000002 cycles:  103811099 heartbeat IPC: 0.96715 cumulative IPC: 0.91512 (Simulation time: 0 hr 2 min 10 sec) 
Heartbeat CPU  0 instructions:   96000000 cycles:  104782425 heartbeat IPC: 1.02952 cumulative IPC: 0.91618 (Simulation time: 0 hr 2 min 11 sec) 
Heartbeat CPU  0 instructions:   97000001 cycles:  105720935 heartbeat IPC: 1.06552 cumulative IPC: 0.91751 (Simulation time: 0 hr 2 min 12 sec) 
Heartbeat CPU  0 instructions:   98000001 cycles:  106598946 heartbeat IPC: 1.13894 cumulative IPC: 0.91933 (Simulation time: 0 hr 2 min 14 sec) 
Heartbeat CPU  0 instructions:   99000001 cycles:  107519548 heartbeat IPC: 1.08625 cumulative IPC: 0.92076 (Simulation time: 0 hr 2 min 15 sec) 
Heartbeat CPU  0 instructions:  100000000 cycles:  108438416 heartbeat IPC: 1.08829 cumulative IPC: 0.92218 (Simulation time: 0 hr 2 min 17 sec) 

Warmup complete CPU  0 instructions:  100000002 cycles:  108438417 (Simulation time: 0 hr 2 min 17 sec) 

Heartbeat CPU  0 instructions:  101000000 cycles:  127479350 heartbeat IPC: 0.05252 cumulative IPC: 0.05252 (Simulation time: 0 hr 2 min 23 sec) 
Heartbeat CPU  0 instructions:  102000000 cycles:  154099416 heartbeat IPC: 0.03757 cumulative IPC: 0.04380 (Simulation time: 0 hr 2 min 33 sec) 
Heartbeat CPU  0 instructions:  103000001 cycles:  164389391 heartbeat IPC: 0.09718 cumulative IPC: 0.05362 (Simulation time: 0 hr 2 min 37 sec) 
Heartbeat CPU  0 instructions:  104000000 cycles:  174201065 heartbeat IPC: 0.10192 cumulative IPC: 0.06082 (Simulation time: 0 hr 2 min 40 sec) 
Heartbeat CPU  0 instructions:  105000003 cycles:  207755372 heartbeat IPC: 0.02980 cumulative IPC: 0.05034 (Simulation time: 0 hr 2 min 52 sec) 
Heartbeat CPU  0 instructions:  106000000 cycles:  219736536 heartbeat IPC: 0.08346 cumulative IPC: 0.05391 (Simulation time: 0 hr 2 min 57 sec) 
Heartbeat CPU  0 instructions:  107000000 cycles:  229671870 heartbeat IPC: 0.10065 cumulative IPC: 0.05774 (Simulation time: 0 hr 3 min 0 sec) 
Heartbeat CPU  0 instructions:  108000000 cycles:  253677950 heartbeat IPC: 0.04166 cumulative IPC: 0.05508 (Simulation time: 0 hr 3 min 9 sec) 
Heartbeat CPU  0 instructions:  109000002 cycles:  275161133 heartbeat IPC: 0.04655 cumulative IPC: 0.05398 (Simulation time: 0 hr 3 min 16 sec) 
Heartbeat CPU  0 instructions:  110000001 cycles:  284905046 heartbeat IPC: 0.10263 cumulative IPC: 0.05667 (Simulation time: 0 hr 3 min 20 sec) 
Heartbeat CPU  0 instructions:  111000001 cycles:  299157059 heartbeat IPC: 0.07017 cumulative IPC: 0.05768 (Simulation time: 0 hr 3 min 25 sec) 
Heartbeat CPU  0 instructions:  112000000 cycles:  330408366 heartbeat IPC: 0.03200 cumulative IPC: 0.05406 (Simulation time: 0 hr 3 min 36 sec) 
Heartbeat CPU  0 instructions:  113000001 cycles:  342106493 heartbeat IPC: 0.08548 cumulative IPC: 0.05563 (Simulation time: 0 hr 3 min 41 sec) 
Heartbeat CPU  0 instructions:  114000002 cycles:  352738633 heartbeat IPC: 0.09405 cumulative IPC: 0.05731 (Simulation time: 0 hr 3 min 45 sec) 
Heartbeat CPU  0 instructions:  115000000 cycles:  379635361 heartbeat IPC: 0.03718 cumulative IPC: 0.05531 (Simulation time: 0 hr 3 min 54 sec) 
Heartbeat CPU  0 instructions:  116000000 cycles:  401966931 heartbeat IPC: 0.04478 cumulative IPC: 0.05451 (Simulation time: 0 hr 4 min 2 sec) 
Heartbeat CPU  0 instructions:  117000000 cycles:  413232628 heartbeat IPC: 0.08877 cumulative IPC: 0.05578 (Simulation time: 0 hr 4 min 7 sec) 
Heartbeat CPU  0 instructions:  118000001 cycles:  427798996 heartbeat IPC: 0.06865 cumulative IPC: 0.05636 (Simulation time: 0 hr 4 min 12 sec) 
Heartbeat CPU  0 instructions:  119000000 cycles:  461528520 heartbeat IPC: 0.02965 cumulative IPC: 0.05381 (Simulation time: 0 hr 4 min 24 sec) 
Heartbeat CPU  0 instructions:  120000000 cycles:  475573027 heartbeat IPC: 0.07120 cumulative IPC: 0.05448 (Simulation time: 0 hr 4 min 29 sec) 
Heartbeat CPU  0 instructions:  121000000 cycles:  488039886 heartbeat IPC: 0.08021 cumulative IPC: 0.05532 (Simulation time: 0 hr 4 min 34 sec) 
Heartbeat CPU  0 instructions:  122000001 cycles:  508035351 heartbeat IPC: 0.05001 cumulative IPC: 0.05506 (Simulation time: 0 hr 4 min 41 sec) 
Heartbeat CPU  0 instructions:  123000000 cycles:  536324955 heartbeat IPC: 0.03535 cumulative IPC: 0.05375 (Simulation time: 0 hr 4 min 51 sec) 
Heartbeat CPU  0 instructions:  124000000 cycles:  548624202 heartbeat IPC: 0.08131 cumulative IPC: 0.05452 (Simulation time: 0 hr 4 min 56 sec) 
Heartbeat CPU  0 instructions:  125000000 cycles:  559011062 heartbeat IPC: 0.09628 cumulative IPC: 0.05548 (Simulation time: 0 hr 5 min 0 sec) 
Heartbeat CPU  0 instructions:  126000003 cycles:  579945164 heartbeat IPC: 0.04777 cumulative IPC: 0.05514 (Simulation time: 0 hr 5 min 7 sec) 
Heartbeat CPU  0 instructions:  127000000 cycles:  608569841 heartbeat IPC: 0.03493 cumulative IPC: 0.05399 (Simulation time: 0 hr 5 min 17 sec) 
Heartbeat CPU  0 instructions:  128000000 cycles:  620815732 heartbeat IPC: 0.08166 cumulative IPC: 0.05465 (Simulation time: 0 hr 5 min 22 sec) 
Heartbeat CPU  0 instructions:  129000000 cycles:  632586851 heartbeat IPC: 0.08495 cumulative IPC: 0.05533 (Simulation time: 0 hr 5 min 26 sec) 
Heartbeat CPU  0 instructions:  130000003 cycles:  656623220 heartbeat IPC: 0.04160 cumulative IPC: 0.05473 (Simulation time: 0 hr 5 min 35 sec) 
Heartbeat CPU  0 instructions:  131000001 cycles:  681521457 heartbeat IPC: 0.04016 cumulative IPC: 0.05409 (Simulation time: 0 hr 5 min 43 sec) 
Heartbeat CPU  0 instructions:  132000000 cycles:  692758134 heartbeat IPC: 0.08899 cumulative IPC: 0.05476 (Simulation time: 0 hr 5 min 48 sec) 
Heartbeat CPU  0 instructions:  133000000 cycles:  704103514 heartbeat IPC: 0.08814 cumulative IPC: 0.05540 (Simulation time: 0 hr 5 min 52 sec) 
Heartbeat CPU  0 instructions:  134000002 cycles:  728492857 heartbeat IPC: 0.04100 cumulative IPC: 0.05483 (Simulation time: 0 hr 6 min 1 sec) 
Heartbeat CPU  0 instructions:  135000000 cycles:  752382046 heartbeat IPC: 0.04186 cumulative IPC: 0.05435 (Simulation time: 0 hr 6 min 9 sec) 
Heartbeat CPU  0 instructions:  136000000 cycles:  764633454 heartbeat IPC: 0.08162 cumulative IPC: 0.05486 (Simulation time: 0 hr 6 min 14 sec) 
Heartbeat CPU  0 instructions:  137000002 cycles:  776282191 heartbeat IPC: 0.08585 cumulative IPC: 0.05540 (Simulation time: 0 hr 6 min 19 sec) 
Heartbeat CPU  0 instructions:  138000002 cycles:  799516193 heartbeat IPC: 0.04304 cumulative IPC: 0.05499 (Simulation time: 0 hr 6 min 27 sec) 
Heartbeat CPU  0 instructions:  139000001 cycles:  824973316 heartbeat IPC: 0.03928 cumulative IPC: 0.05443 (Simulation time: 0 hr 6 min 36 sec) 
Heartbeat CPU  0 instructions:  140000000 cycles:  836848167 heartbeat IPC: 0.08421 cumulative IPC: 0.05491 (Simulation time: 0 hr 6 min 40 sec) 
Heartbeat CPU  0 instructions:  141000000 cycles:  847574511 heartbeat IPC: 0.09323 cumulative IPC: 0.05547 (Simulation time: 0 hr 6 min 44 sec) 
Heartbeat CPU  0 instructions:  142000000 cycles:  871097135 heartbeat IPC: 0.04251 cumulative IPC: 0.05507 (Simulation time: 0 hr 6 min 53 sec) 
Heartbeat CPU  0 instructions:  143000000 cycles:  896124004 heartbeat IPC: 0.03996 cumulative IPC: 0.05459 (Simulation time: 0 hr 7 min 1 sec) 
Heartbeat CPU  0 instructions:  144000000 cycles:  907548086 heartbeat IPC: 0.08753 cumulative IPC: 0.05506 (Simulation time: 0 hr 7 min 6 sec) 
Heartbeat CPU  0 instructions:  145000000 cycles:  919322701 heartbeat IPC: 0.08493 cumulative IPC: 0.05549 (Simulation time: 0 hr 7 min 10 sec) 
Heartbeat CPU  0 instructions:  146000000 cycles:  943606909 heartbeat IPC: 0.04118 cumulative IPC: 0.05508 (Simulation time: 0 hr 7 min 18 sec) 
Heartbeat CPU  0 instructions:  147000001 cycles:  968459886 heartbeat IPC: 0.04024 cumulative IPC: 0.05465 (Simulation time: 0 hr 7 min 27 sec) 
Heartbeat CPU  0 instructions:  148000000 cycles:  978995143 heartbeat IPC: 0.09492 cumulative IPC: 0.05514 (Simulation time: 0 hr 7 min 31 sec) 
Heartbeat CPU  0 instructions:  149000000 cycles:  988750159 heartbeat IPC: 0.10251 cumulative IPC: 0.05566 (Simulation time: 0 hr 7 min 35 sec) 
Heartbeat CPU  0 instructions:  150000001 cycles: 1013876188 heartbeat IPC: 0.03980 cumulative IPC: 0.05522 (Simulation time: 0 hr 7 min 44 sec) 
Heartbeat CPU  0 instructions:  151000000 cycles: 1036039046 heartbeat IPC: 0.04512 cumulative IPC: 0.05498 (Simulation time: 0 hr 7 min 52 sec) 
Heartbeat CPU  0 instructions:  152000000 cycles: 1046612599 heartbeat IPC: 0.09458 cumulative IPC: 0.05543 (Simulation time: 0 hr 7 min 56 sec) 
Heartbeat CPU  0 instructions:  153000000 cycles: 1058004683 heartbeat IPC: 0.08778 cumulative IPC: 0.05581 (Simulation time: 0 hr 8 min 0 sec) 
Heartbeat CPU  0 instructions:  154000000 cycles: 1087390646 heartbeat IPC: 0.03403 cumulative IPC: 0.05516 (Simulation time: 0 hr 8 min 10 sec) 
Heartbeat CPU  0 instructions:  155000000 cycles: 1105385482 heartbeat IPC: 0.05557 cumulative IPC: 0.05517 (Simulation time: 0 hr 8 min 17 sec) 
Heartbeat CPU  0 instructions:  156000000 cycles: 1116072733 heartbeat IPC: 0.09357 cumulative IPC: 0.05558 (Simulation time: 0 hr 8 min 21 sec) 
Heartbeat CPU  0 instructions:  157000002 cycles: 1128488588 heartbeat IPC: 0.08054 cumulative IPC: 0.05588 (Simulation time: 0 hr 8 min 25 sec) 
Heartbeat CPU  0 instructions:  158000002 cycles: 1161406694 heartbeat IPC: 0.03038 cumulative IPC: 0.05508 (Simulation time: 0 hr 8 min 37 sec) 
Heartbeat CPU  0 instructions:  159000000 cycles: 1174202133 heartbeat IPC: 0.07815 cumulative IPC: 0.05536 (Simulation time: 0 hr 8 min 41 sec) 
Heartbeat CPU  0 instructions:  160000000 cycles: 1184841176 heartbeat IPC: 0.09399 cumulative IPC: 0.05574 (Simulation time: 0 hr 8 min 45 sec) 
Heartbeat CPU  0 instructions:  161000001 cycles: 1201493873 heartbeat IPC: 0.06005 cumulative IPC: 0.05581 (Simulation time: 0 hr 8 min 51 sec) 
Heartbeat CPU  0 instructions:  162000000 cycles: 1231357429 heartbeat IPC: 0.03349 cumulative IPC: 0.05521 (Simulation time: 0 hr 9 min 2 sec) 
Heartbeat CPU  0 instructions:  163000000 cycles: 1243669964 heartbeat IPC: 0.08122 cumulative IPC: 0.05550 (Simulation time: 0 hr 9 min 6 sec) 
Heartbeat CPU  0 instructions:  164000000 cycles: 1254800400 heartbeat IPC: 0.08984 cumulative IPC: 0.05583 (Simulation time: 0 hr 9 min 10 sec) 
Heartbeat CPU  0 instructions:  165000000 cycles: 1274990231 heartbeat IPC: 0.04953 cumulative IPC: 0.05572 (Simulation time: 0 hr 9 min 18 sec) 
Heartbeat CPU  0 instructions:  166000000 cycles: 1302769784 heartbeat IPC: 0.03600 cumulative IPC: 0.05526 (Simulation time: 0 hr 9 min 27 sec) 
Heartbeat CPU  0 instructions:  167000001 cycles: 1314739872 heartbeat IPC: 0.08354 cumulative IPC: 0.05554 (Simulation time: 0 hr 9 min 32 sec) 
Heartbeat CPU  0 instructions:  168000000 cycles: 1326382569 heartbeat IPC: 0.08589 cumulative IPC: 0.05583 (Simulation time: 0 hr 9 min 36 sec) 
Heartbeat CPU  0 instructions:  169000000 cycles: 1339766520 heartbeat IPC: 0.07472 cumulative IPC: 0.05604 (Simulation time: 0 hr 9 min 41 sec) 
Heartbeat CPU  0 instructions:  170000003 cycles: 1372191657 heartbeat IPC: 0.03084 cumulative IPC: 0.05539 (Simulation time: 0 hr 9 min 52 sec) 
Heartbeat CPU  0 instructions:  171000000 cycles: 1385936371 heartbeat IPC: 0.07276 cumulative IPC: 0.05558 (Simulation time: 0 hr 9 min 57 sec) 
Heartbeat CPU  0 instructions:  172000000 cycles: 1397740540 heartbeat IPC: 0.08472 cumulative IPC: 0.05584 (Simulation time: 0 hr 10 min 1 sec) 
Heartbeat CPU  0 instructions:  173000000 cycles: 1409095121 heartbeat IPC: 0.08807 cumulative IPC: 0.05613 (Simulation time: 0 hr 10 min 5 sec) 
Heartbeat CPU  0 instructions:  174000000 cycles: 1440202329 heartbeat IPC: 0.03215 cumulative IPC: 0.05557 (Simulation time: 0 hr 10 min 16 sec) 
Heartbeat CPU  0 instructions:  175000003 cycles: 1457245482 heartbeat IPC: 0.05867 cumulative IPC: 0.05560 (Simulation time: 0 hr 10 min 22 sec) 
Heartbeat CPU  0 instructions:  176000000 cycles: 1469123997 heartbeat IPC: 0.08419 cumulative IPC: 0.05585 (Simulation time: 0 hr 10 min 27 sec) 
Heartbeat CPU  0 instructions:  177000003 cycles: 1481376598 heartbeat IPC: 0.08162 cumulative IPC: 0.05608 (Simulation time: 0 hr 10 min 31 sec) 
Heartbeat CPU  0 instructions:  178000003 cycles: 1506852920 heartbeat IPC: 0.03925 cumulative IPC: 0.05578 (Simulation time: 0 hr 10 min 40 sec) 
Heartbeat CPU  0 instructions:  179000003 cycles: 1530443815 heartbeat IPC: 0.04239 cumulative IPC: 0.05556 (Simulation time: 0 hr 10 min 48 sec) 
Heartbeat CPU  0 instructions:  180000000 cycles: 1542194739 heartbeat IPC: 0.08510 cumulative IPC: 0.05580 (Simulation time: 0 hr 10 min 52 sec) 
Heartbeat CPU  0 instructions:  181000001 cycles: 1554880411 heartbeat IPC: 0.07883 cumulative IPC: 0.05600 (Simulation time: 0 hr 10 min 56 sec) 
Heartbeat CPU  0 instructions:  182000001 cycles: 1568953410 heartbeat IPC: 0.07106 cumulative IPC: 0.05614 (Simulation time: 0 hr 11 min 1 sec) 
Heartbeat CPU  0 instructions:  183000001 cycles: 1602213977 heartbeat IPC: 0.03007 cumulative IPC: 0.05556 (Simulation time: 0 hr 11 min 13 sec) 
Heartbeat CPU  0 instructions:  184000000 cycles: 1617686657 heartbeat IPC: 0.06463 cumulative IPC: 0.05566 (Simulation time: 0 hr 11 min 18 sec) 
Heartbeat CPU  0 instructions:  185000002 cycles: 1631030390 heartbeat IPC: 0.07494 cumulative IPC: 0.05583 (Simulation time: 0 hr 11 min 23 sec) 
Heartbeat CPU  0 instructions:  186000001 cycles: 1643834889 heartbeat IPC: 0.07810 cumulative IPC: 0.05601 (Simulation time: 0 hr 11 min 27 sec) 
Heartbeat CPU  0 instructions:  187000000 cycles: 1655495622 heartbeat IPC: 0.08576 cumulative IPC: 0.05624 (Simulation time: 0 hr 11 min 31 sec) 
Heartbeat CPU  0 instructions:  188000000 cycles: 1686051941 heartbeat IPC: 0.03273 cumulative IPC: 0.05578 (Simulation time: 0 hr 11 min 42 sec) 
Heartbeat CPU  0 instructions:  189000001 cycles: 1704004568 heartbeat IPC: 0.05570 cumulative IPC: 0.05578 (Simulation time: 0 hr 11 min 48 sec) 
Heartbeat CPU  0 instructions:  190000000 cycles: 1716505796 heartbeat IPC: 0.07999 cumulative IPC: 0.05597 (Simulation time: 0 hr 11 min 52 sec) 
Heartbeat CPU  0 instructions:  191000001 cycles: 1730003128 heartbeat IPC: 0.07409 cumulative IPC: 0.05612 (Simulation time: 0 hr 11 min 57 sec) 
Heartbeat CPU  0 instructions:  192000000 cycles: 1743131431 heartbeat IPC: 0.07617 cumulative IPC: 0.05628 (Simulation time: 0 hr 12 min 2 sec) 
Heartbeat CPU  0 instructions:  193000000 cycles: 1777191835 heartbeat IPC: 0.02936 cumulative IPC: 0.05573 (Simulation time: 0 hr 12 min 13 sec) 
Heartbeat CPU  0 instructions:  194000000 cycles: 1793539069 heartbeat IPC: 0.06117 cumulative IPC: 0.05578 (Simulation time: 0 hr 12 min 19 sec) 
Heartbeat CPU  0 instructions:  195000000 cycles: 1807139189 heartbeat IPC: 0.07353 cumulative IPC: 0.05593 (Simulation time: 0 hr 12 min 23 sec) 
Heartbeat CPU  0 instructions:  196000000 cycles: 1820241505 heartbeat IPC: 0.07632 cumulative IPC: 0.05608 (Simulation time: 0 hr 12 min 28 sec) 
Heartbeat CPU  0 instructions:  197000001 cycles: 1832516511 heartbeat IPC: 0.08147 cumulative IPC: 0.05626 (Simulation time: 0 hr 12 min 32 sec) 
Heartbeat CPU  0 instructions:  198000003 cycles: 1856777127 heartbeat IPC: 0.04122 cumulative IPC: 0.05605 (Simulation time: 0 hr 12 min 40 sec) 
Heartbeat CPU  0 instructions:  199000001 cycles: 1883702591 heartbeat IPC: 0.03714 cumulative IPC: 0.05577 (Simulation time: 0 hr 12 min 49 sec) 
Heartbeat CPU  0 instructions:  200000000 cycles: 1896508481 heartbeat IPC: 0.07809 cumulative IPC: 0.05593 (Simulation time: 0 hr 12 min 54 sec) 
Heartbeat CPU  0 instructions:  201000002 cycles: 1908173497 heartbeat IPC: 0.08573 cumulative IPC: 0.05612 (Simulation time: 0 hr 12 min 58 sec) 
Heartbeat CPU  0 instructions:  202000000 cycles: 1918984327 heartbeat IPC: 0.09250 cumulative IPC: 0.05634 (Simulation time: 0 hr 13 min 2 sec) 
Heartbeat CPU  0 instructions:  203000000 cycles: 1953055586 heartbeat IPC: 0.02935 cumulative IPC: 0.05584 (Simulation time: 0 hr 13 min 14 sec) 
Heartbeat CPU  0 instructions:  204000000 cycles: 1966715325 heartbeat IPC: 0.07321 cumulative IPC: 0.05597 (Simulation time: 0 hr 13 min 19 sec) 
Heartbeat CPU  0 instructions:  205000000 cycles: 1977892046 heartbeat IPC: 0.08947 cumulative IPC: 0.05617 (Simulation time: 0 hr 13 min 23 sec) 
Heartbeat CPU  0 instructions:  206000000 cycles: 1988342336 heartbeat IPC: 0.09569 cumulative IPC: 0.05639 (Simulation time: 0 hr 13 min 27 sec) 
Heartbeat CPU  0 instructions:  207000002 cycles: 2010968813 heartbeat IPC: 0.04420 cumulative IPC: 0.05624 (Simulation time: 0 hr 13 min 35 sec) 
Heartbeat CPU  0 instructions:  208000000 cycles: 2036444652 heartbeat IPC: 0.03925 cumulative IPC: 0.05602 (Simulation time: 0 hr 13 min 44 sec) 
Heartbeat CPU  0 instructions:  209000001 cycles: 2049551314 heartbeat IPC: 0.07630 cumulative IPC: 0.05615 (Simulation time: 0 hr 13 min 49 sec) 
Heartbeat CPU  0 instructions:  210000000 cycles: 2062810564 heartbeat IPC: 0.07542 cumulative IPC: 0.05628 (Simulation time: 0 hr 13 min 53 sec) 
Heartbeat CPU  0 instructions:  211000001 cycles: 2076643253 heartbeat IPC: 0.07229 cumulative IPC: 0.05640 (Simulation time: 0 hr 13 min 58 sec) 
Heartbeat CPU  0 instructions:  212000000 cycles: 2093829635 heartbeat IPC: 0.05819 cumulative IPC: 0.05641 (Simulation time: 0 hr 14 min 4 sec) 
Heartbeat CPU  0 instructions:  213000001 cycles: 2125292036 heartbeat IPC: 0.03178 cumulative IPC: 0.05603 (Simulation time: 0 hr 14 min 15 sec) 
Heartbeat CPU  0 instructions:  214000001 cycles: 2138315448 heartbeat IPC: 0.07678 cumulative IPC: 0.05616 (Simulation time: 0 hr 14 min 20 sec) 
Heartbeat CPU  0 instructions:  215000000 cycles: 2150668993 heartbeat IPC: 0.08095 cumulative IPC: 0.05631 (Simulation time: 0 hr 14 min 24 sec) 
Heartbeat CPU  0 instructions:  216000000 cycles: 2163904425 heartbeat IPC: 0.07555 cumulative IPC: 0.05643 (Simulation time: 0 hr 14 min 29 sec) 
Heartbeat CPU  0 instructions:  217000001 cycles: 2183618483 heartbeat IPC: 0.05073 cumulative IPC: 0.05638 (Simulation time: 0 hr 14 min 36 sec) 
Heartbeat CPU  0 instructions:  218000000 cycles: 2210617065 heartbeat IPC: 0.03704 cumulative IPC: 0.05613 (Simulation time: 0 hr 14 min 45 sec) 
Heartbeat CPU  0 instructions:  219000001 cycles: 2222922219 heartbeat IPC: 0.08127 cumulative IPC: 0.05628 (Simulation time: 0 hr 14 min 50 sec) 
Heartbeat CPU  0 instructions:  220000000 cycles: 2234818524 heartbeat IPC: 0.08406 cumulative IPC: 0.05643 (Simulation time: 0 hr 14 min 54 sec) 
Heartbeat CPU  0 instructions:  221000002 cycles: 2247708210 heartbeat IPC: 0.07758 cumulative IPC: 0.05656 (Simulation time: 0 hr 14 min 59 sec) 
Heartbeat CPU  0 instructions:  222000003 cycles: 2270238784 heartbeat IPC: 0.04438 cumulative IPC: 0.05643 (Simulation time: 0 hr 15 min 8 sec) 
Heartbeat CPU  0 instructions:  223000001 cycles: 2297627845 heartbeat IPC: 0.03651 cumulative IPC: 0.05619 (Simulation time: 0 hr 15 min 18 sec) 
Heartbeat CPU  0 instructions:  224000000 cycles: 2312073410 heartbeat IPC: 0.06923 cumulative IPC: 0.05627 (Simulation time: 0 hr 15 min 23 sec) 
Heartbeat CPU  0 instructions:  225000001 cycles: 2325890705 heartbeat IPC: 0.07237 cumulative IPC: 0.05637 (Simulation time: 0 hr 15 min 28 sec) 
Heartbeat CPU  0 instructions:  226000003 cycles: 2338194654 heartbeat IPC: 0.08127 cumulative IPC: 0.05651 (Simulation time: 0 hr 15 min 32 sec) 
Heartbeat CPU  0 instructions:  227000001 cycles: 2355585702 heartbeat IPC: 0.05750 cumulative IPC: 0.05652 (Simulation time: 0 hr 15 min 38 sec) 
Heartbeat CPU  0 instructions:  228000000 cycles: 2384872263 heartbeat IPC: 0.03415 cumulative IPC: 0.05623 (Simulation time: 0 hr 15 min 48 sec) 
Heartbeat CPU  0 instructions:  229000003 cycles: 2398363363 heartbeat IPC: 0.07412 cumulative IPC: 0.05633 (Simulation time: 0 hr 15 min 53 sec) 
Heartbeat CPU  0 instructions:  230000000 cycles: 2411481058 heartbeat IPC: 0.07623 cumulative IPC: 0.05645 (Simulation time: 0 hr 15 min 58 sec) 
Heartbeat CPU  0 instructions:  231000001 cycles: 2424180739 heartbeat IPC: 0.07874 cumulative IPC: 0.05657 (Simulation time: 0 hr 16 min 2 sec) 
Heartbeat CPU  0 instructions:  232000000 cycles: 2438593220 heartbeat IPC: 0.06938 cumulative IPC: 0.05665 (Simulation time: 0 hr 16 min 7 sec) 
Heartbeat CPU  0 instructions:  233000002 cycles: 2472201708 heartbeat IPC: 0.02975 cumulative IPC: 0.05627 (Simulation time: 0 hr 16 min 19 sec) 
Heartbeat CPU  0 instructions:  234000001 cycles: 2487889836 heartbeat IPC: 0.06374 cumulative IPC: 0.05632 (Simulation time: 0 hr 16 min 24 sec) 
Heartbeat CPU  0 instructions:  235000000 cycles: 2500122791 heartbeat IPC: 0.08175 cumulative IPC: 0.05645 (Simulation time: 0 hr 16 min 29 sec) 
Heartbeat CPU  0 instructions:  236000000 cycles: 2513296324 heartbeat IPC: 0.07591 cumulative IPC: 0.05655 (Simulation time: 0 hr 16 min 33 sec) 
Heartbeat CPU  0 instructions:  237000003 cycles: 2526974573 heartbeat IPC: 0.07311 cumulative IPC: 0.05665 (Simulation time: 0 hr 16 min 38 sec) 
Heartbeat CPU  0 instructions:  238000000 cycles: 2546355850 heartbeat IPC: 0.05160 cumulative IPC: 0.05661 (Simulation time: 0 hr 16 min 44 sec) 
Heartbeat CPU  0 instructions:  239000002 cycles: 2574902211 heartbeat IPC: 0.03503 cumulative IPC: 0.05636 (Simulation time: 0 hr 16 min 54 sec) 
Heartbeat CPU  0 instructions:  240000000 cycles: 2589448870 heartbeat IPC: 0.06874 cumulative IPC: 0.05643 (Simulation time: 0 hr 16 min 59 sec) 
Heartbeat CPU  0 instructions:  241000000 cycles: 2602377680 heartbeat IPC: 0.07735 cumulative IPC: 0.05654 (Simulation time: 0 hr 17 min 4 sec) 
Heartbeat CPU  0 instructions:  242000000 cycles: 2614957840 heartbeat IPC: 0.07949 cumulative IPC: 0.05665 (Simulation time: 0 hr 17 min 8 sec) 
Heartbeat CPU  0 instructions:  243000001 cycles: 2628360515 heartbeat IPC: 0.07461 cumulative IPC: 0.05675 (Simulation time: 0 hr 17 min 13 sec) 
Heartbeat CPU  0 instructions:  244000000 cycles: 2662212935 heartbeat IPC: 0.02954 cumulative IPC: 0.05639 (Simulation time: 0 hr 17 min 25 sec) 
Heartbeat CPU  0 instructions:  245000000 cycles: 2676548278 heartbeat IPC: 0.06976 cumulative IPC: 0.05646 (Simulation time: 0 hr 17 min 30 sec) 
Heartbeat CPU  0 instructions:  246000001 cycles: 2689578177 heartbeat IPC: 0.07675 cumulative IPC: 0.05656 (Simulation time: 0 hr 17 min 34 sec) 
Heartbeat CPU  0 instructions:  247000000 cycles: 2701652126 heartbeat IPC: 0.08282 cumulative IPC: 0.05669 (Simulation time: 0 hr 17 min 39 sec) 
Heartbeat CPU  0 instructions:  248000000 cycles: 2715400309 heartbeat IPC: 0.07274 cumulative IPC: 0.05677 (Simulation time: 0 hr 17 min 44 sec) 
Heartbeat CPU  0 instructions:  249000002 cycles: 2748833121 heartbeat IPC: 0.02991 cumulative IPC: 0.05643 (Simulation time: 0 hr 17 min 55 sec) 
Heartbeat CPU  0 instructions:  250000000 cycles: 2764452321 heartbeat IPC: 0.06402 cumulative IPC: 0.05648 (Simulation time: 0 hr 18 min 1 sec) 
Heartbeat CPU  0 instructions:  251000000 cycles: 2782261704 heartbeat IPC: 0.05615 cumulative IPC: 0.05647 (Simulation time: 0 hr 18 min 6 sec) 
Heartbeat CPU  0 instructions:  252000000 cycles: 2794393411 heartbeat IPC: 0.08243 cumulative IPC: 0.05659 (Simulation time: 0 hr 18 min 11 sec) 
Heartbeat CPU  0 instructions:  253000003 cycles: 2806825195 heartbeat IPC: 0.08044 cumulative IPC: 0.05670 (Simulation time: 0 hr 18 min 15 sec) 
Heartbeat CPU  0 instructions:  254000002 cycles: 2839144809 heartbeat IPC: 0.03094 cumulative IPC: 0.05640 (Simulation time: 0 hr 18 min 26 sec) 
Heartbeat CPU  0 instructions:  255000000 cycles: 2856275315 heartbeat IPC: 0.05838 cumulative IPC: 0.05641 (Simulation time: 0 hr 18 min 33 sec) 
Heartbeat CPU  0 instructions:  256000000 cycles: 2868416821 heartbeat IPC: 0.08236 cumulative IPC: 0.05652 (Simulation time: 0 hr 18 min 37 sec) 
Heartbeat CPU  0 instructions:  257000000 cycles: 2878962332 heartbeat IPC: 0.09483 cumulative IPC: 0.05667 (Simulation time: 0 hr 18 min 41 sec) 
Heartbeat CPU  0 instructions:  258000003 cycles: 2897495664 heartbeat IPC: 0.05396 cumulative IPC: 0.05665 (Simulation time: 0 hr 18 min 48 sec) 
Heartbeat CPU  0 instructions:  259000001 cycles: 2925582577 heartbeat IPC: 0.03560 cumulative IPC: 0.05644 (Simulation time: 0 hr 18 min 57 sec) 
Heartbeat CPU  0 instructions:  260000000 cycles: 2938930993 heartbeat IPC: 0.07492 cumulative IPC: 0.05653 (Simulation time: 0 hr 19 min 2 sec) 
Heartbeat CPU  0 instructions:  261000001 cycles: 2951202023 heartbeat IPC: 0.08149 cumulative IPC: 0.05664 (Simulation time: 0 hr 19 min 7 sec) 
Heartbeat CPU  0 instructions:  262000000 cycles: 2964685413 heartbeat IPC: 0.07417 cumulative IPC: 0.05672 (Simulation time: 0 hr 19 min 11 sec) 
Heartbeat CPU  0 instructions:  263000002 cycles: 2981609740 heartbeat IPC: 0.05909 cumulative IPC: 0.05673 (Simulation time: 0 hr 19 min 17 sec) 
Heartbeat CPU  0 instructions:  264000000 cycles: 3012535886 heartbeat IPC: 0.03234 cumulative IPC: 0.05647 (Simulation time: 0 hr 19 min 28 sec) 
Heartbeat CPU  0 instructions:  265000000 cycles: 3026704384 heartbeat IPC: 0.07058 cumulative IPC: 0.05654 (Simulation time: 0 hr 19 min 33 sec) 
Heartbeat CPU  0 instructions:  266000000 cycles: 3039390858 heartbeat IPC: 0.07882 cumulative IPC: 0.05664 (Simulation time: 0 hr 19 min 37 sec) 
Heartbeat CPU  0 instructions:  267000000 cycles: 3052652702 heartbeat IPC: 0.07540 cumulative IPC: 0.05672 (Simulation time: 0 hr 19 min 42 sec) 
Heartbeat CPU  0 instructions:  268000000 cycles: 3065729664 heartbeat IPC: 0.07647 cumulative IPC: 0.05681 (Simulation time: 0 hr 19 min 47 sec) 
Heartbeat CPU  0 instructions:  269000000 cycles: 3087883911 heartbeat IPC: 0.04514 cumulative IPC: 0.05672 (Simulation time: 0 hr 19 min 54 sec) 
Heartbeat CPU  0 instructions:  270000000 cycles: 3114183135 heartbeat IPC: 0.03802 cumulative IPC: 0.05656 (Simulation time: 0 hr 20 min 4 sec) 
Heartbeat CPU  0 instructions:  271000000 cycles: 3125463199 heartbeat IPC: 0.08865 cumulative IPC: 0.05668 (Simulation time: 0 hr 20 min 8 sec) 
Heartbeat CPU  0 instructions:  272000000 cycles: 3136331878 heartbeat IPC: 0.09201 cumulative IPC: 0.05681 (Simulation time: 0 hr 20 min 12 sec) 
Heartbeat CPU  0 instructions:  273000001 cycles: 3147738277 heartbeat IPC: 0.08767 cumulative IPC: 0.05692 (Simulation time: 0 hr 20 min 17 sec) 
Heartbeat CPU  0 instructions:  274000000 cycles: 3182034400 heartbeat IPC: 0.02916 cumulative IPC: 0.05661 (Simulation time: 0 hr 20 min 28 sec) 
Heartbeat CPU  0 instructions:  275000000 cycles: 3194501603 heartbeat IPC: 0.08021 cumulative IPC: 0.05671 (Simulation time: 0 hr 20 min 33 sec) 
Heartbeat CPU  0 instructions:  276000000 cycles: 3204428047 heartbeat IPC: 0.10074 cumulative IPC: 0.05685 (Simulation time: 0 hr 20 min 37 sec) 
Heartbeat CPU  0 instructions:  277000000 cycles: 3225815244 heartbeat IPC: 0.04676 cumulative IPC: 0.05678 (Simulation time: 0 hr 20 min 44 sec) 
Heartbeat CPU  0 instructions:  278000002 cycles: 3240804873 heartbeat IPC: 0.06671 cumulative IPC: 0.05683 (Simulation time: 0 hr 20 min 49 sec) 
Heartbeat CPU  0 instructions:  279000000 cycles: 3273976839 heartbeat IPC: 0.03015 cumulative IPC: 0.05655 (Simulation time: 0 hr 21 min 1 sec) 
Heartbeat CPU  0 instructions:  280000000 cycles: 3289486605 heartbeat IPC: 0.06448 cumulative IPC: 0.05659 (Simulation time: 0 hr 21 min 6 sec) 
Heartbeat CPU  0 instructions:  281000000 cycles: 3300705391 heartbeat IPC: 0.08914 cumulative IPC: 0.05670 (Simulation time: 0 hr 21 min 10 sec) 
Heartbeat CPU  0 instructions:  282000000 cycles: 3314236686 heartbeat IPC: 0.07390 cumulative IPC: 0.05677 (Simulation time: 0 hr 21 min 15 sec) 
Heartbeat CPU  0 instructions:  283000000 cycles: 3330285617 heartbeat IPC: 0.06231 cumulative IPC: 0.05680 (Simulation time: 0 hr 21 min 21 sec) 
Heartbeat CPU  0 instructions:  284000000 cycles: 3360136167 heartbeat IPC: 0.03350 cumulative IPC: 0.05659 (Simulation time: 0 hr 21 min 31 sec) 
Heartbeat CPU  0 instructions:  285000000 cycles: 3380585870 heartbeat IPC: 0.04890 cumulative IPC: 0.05654 (Simulation time: 0 hr 21 min 38 sec) 
Heartbeat CPU  0 instructions:  286000001 cycles: 3392963266 heartbeat IPC: 0.08079 cumulative IPC: 0.05663 (Simulation time: 0 hr 21 min 43 sec) 
Heartbeat CPU  0 instructions:  287000001 cycles: 3404838222 heartbeat IPC: 0.08421 cumulative IPC: 0.05673 (Simulation time: 0 hr 21 min 47 sec) 
Heartbeat CPU  0 instructions:  288000000 cycles: 3433551868 heartbeat IPC: 0.03483 cumulative IPC: 0.05654 (Simulation time: 0 hr 21 min 57 sec) 
Heartbeat CPU  0 instructions:  289000000 cycles: 3452440793 heartbeat IPC: 0.05294 cumulative IPC: 0.05652 (Simulation time: 0 hr 22 min 4 sec) 
Heartbeat CPU  0 instructions:  290000001 cycles: 3464685877 heartbeat IPC: 0.08167 cumulative IPC: 0.05661 (Simulation time: 0 hr 22 min 8 sec) 
Heartbeat CPU  0 instructions:  291000000 cycles: 3476346877 heartbeat IPC: 0.08576 cumulative IPC: 0.05671 (Simulation time: 0 hr 22 min 13 sec) 
Heartbeat CPU  0 instructions:  292000000 cycles: 3489476945 heartbeat IPC: 0.07616 cumulative IPC: 0.05679 (Simulation time: 0 hr 22 min 17 sec) 
Heartbeat CPU  0 instructions:  293000001 cycles: 3516654517 heartbeat IPC: 0.03680 cumulative IPC: 0.05663 (Simulation time: 0 hr 22 min 27 sec) 
Heartbeat CPU  0 instructions:  294000000 cycles: 3538024372 heartbeat IPC: 0.04679 cumulative IPC: 0.05657 (Simulation time: 0 hr 22 min 34 sec) 
Heartbeat CPU  0 instructions:  295000000 cycles: 3551405244 heartbeat IPC: 0.07473 cumulative IPC: 0.05664 (Simulation time: 0 hr 22 min 39 sec) 
Heartbeat CPU  0 instructions:  296000000 cycles: 3564936341 heartbeat IPC: 0.07390 cumulative IPC: 0.05670 (Simulation time: 0 hr 22 min 44 sec) 
Heartbeat CPU  0 instructions:  297000001 cycles: 3579784978 heartbeat IPC: 0.06735 cumulative IPC: 0.05675 (Simulation time: 0 hr 22 min 49 sec) 
Heartbeat CPU  0 instructions:  298000000 cycles: 3592887841 heartbeat IPC: 0.07632 cumulative IPC: 0.05682 (Simulation time: 0 hr 22 min 53 sec) 
Heartbeat CPU  0 instructions:  299000002 cycles: 3618534262 heartbeat IPC: 0.03899 cumulative IPC: 0.05669 (Simulation time: 0 hr 23 min 2 sec) 
Heartbeat CPU  0 instructions:  300000000 cycles: 3643715426 heartbeat IPC: 0.03971 cumulative IPC: 0.05657 (Simulation time: 0 hr 23 min 11 sec) 
Heartbeat CPU  0 instructions:  301000002 cycles: 3658429529 heartbeat IPC: 0.06796 cumulative IPC: 0.05662 (Simulation time: 0 hr 23 min 15 sec) 
Heartbeat CPU  0 instructions:  302000001 cycles: 3678056059 heartbeat IPC: 0.05095 cumulative IPC: 0.05659 (Simulation time: 0 hr 23 min 22 sec) 
Heartbeat CPU  0 instructions:  303000000 cycles: 3690698731 heartbeat IPC: 0.07910 cumulative IPC: 0.05667 (Simulation time: 0 hr 23 min 26 sec) 
Heartbeat CPU  0 instructions:  304000000 cycles: 3704232776 heartbeat IPC: 0.07389 cumulative IPC: 0.05673 (Simulation time: 0 hr 23 min 31 sec) 
Heartbeat CPU  0 instructions:  305000000 cycles: 3727300213 heartbeat IPC: 0.04335 cumulative IPC: 0.05665 (Simulation time: 0 hr 23 min 39 sec) 
Heartbeat CPU  0 instructions:  306000001 cycles: 3753793009 heartbeat IPC: 0.03775 cumulative IPC: 0.05651 (Simulation time: 0 hr 23 min 48 sec) 
Heartbeat CPU  0 instructions:  307000001 cycles: 3768409084 heartbeat IPC: 0.06842 cumulative IPC: 0.05656 (Simulation time: 0 hr 23 min 53 sec) 
Heartbeat CPU  0 instructions:  308000000 cycles: 3781525854 heartbeat IPC: 0.07624 cumulative IPC: 0.05663 (Simulation time: 0 hr 23 min 57 sec) 
Heartbeat CPU  0 instructions:  309000002 cycles: 3793660867 heartbeat IPC: 0.08241 cumulative IPC: 0.05671 (Simulation time: 0 hr 24 min 2 sec) 
Heartbeat CPU  0 instructions:  310000003 cycles: 3808958863 heartbeat IPC: 0.06537 cumulative IPC: 0.05675 (Simulation time: 0 hr 24 min 7 sec) 
Heartbeat CPU  0 instructions:  311000002 cycles: 3840289104 heartbeat IPC: 0.03192 cumulative IPC: 0.05654 (Simulation time: 0 hr 24 min 18 sec) 
Heartbeat CPU  0 instructions:  312000000 cycles: 3853895055 heartbeat IPC: 0.07350 cumulative IPC: 0.05660 (Simulation time: 0 hr 24 min 23 sec) 
Heartbeat CPU  0 instructions:  313000000 cycles: 3868168778 heartbeat IPC: 0.07006 cumulative IPC: 0.05665 (Simulation time: 0 hr 24 min 28 sec) 
Heartbeat CPU  0 instructions:  314000000 cycles: 3881974568 heartbeat IPC: 0.07243 cumulative IPC: 0.05671 (Simulation time: 0 hr 24 min 32 sec) 
Heartbeat CPU  0 instructions:  315000000 cycles: 3895557048 heartbeat IPC: 0.07362 cumulative IPC: 0.05677 (Simulation time: 0 hr 24 min 37 sec) 
Heartbeat CPU  0 instructions:  316000000 cycles: 3909743842 heartbeat IPC: 0.07049 cumulative IPC: 0.05682 (Simulation time: 0 hr 24 min 42 sec) 
Heartbeat CPU  0 instructions:  317000002 cycles: 3937297344 heartbeat IPC: 0.03629 cumulative IPC: 0.05667 (Simulation time: 0 hr 24 min 51 sec) 
Heartbeat CPU  0 instructions:  318000002 cycles: 3959876920 heartbeat IPC: 0.04429 cumulative IPC: 0.05660 (Simulation time: 0 hr 24 min 59 sec) 
Heartbeat CPU  0 instructions:  319000002 cycles: 3973456332 heartbeat IPC: 0.07364 cumulative IPC: 0.05666 (Simulation time: 0 hr 25 min 4 sec) 
Heartbeat CPU  0 instructions:  320000000 cycles: 3986258418 heartbeat IPC: 0.07811 cumulative IPC: 0.05673 (Simulation time: 0 hr 25 min 9 sec) 
Heartbeat CPU  0 instructions:  321000001 cycles: 3999995103 heartbeat IPC: 0.07280 cumulative IPC: 0.05679 (Simulation time: 0 hr 25 min 13 sec) 
Heartbeat CPU  0 instructions:  322000000 cycles: 4014280541 heartbeat IPC: 0.07000 cumulative IPC: 0.05684 (Simulation time: 0 hr 25 min 18 sec) 
Heartbeat CPU  0 instructions:  323000001 cycles: 4027272674 heartbeat IPC: 0.07697 cumulative IPC: 0.05690 (Simulation time: 0 hr 25 min 23 sec) 
Heartbeat CPU  0 instructions:  324000000 cycles: 4044383350 heartbeat IPC: 0.05844 cumulative IPC: 0.05691 (Simulation time: 0 hr 25 min 29 sec) 
Heartbeat CPU  0 instructions:  325000000 cycles: 4078965507 heartbeat IPC: 0.02892 cumulative IPC: 0.05667 (Simulation time: 0 hr 25 min 41 sec) 
Heartbeat CPU  0 instructions:  326000000 cycles: 4093989700 heartbeat IPC: 0.06656 cumulative IPC: 0.05670 (Simulation time: 0 hr 25 min 46 sec) 
Heartbeat CPU  0 instructions:  327000000 cycles: 4108891545 heartbeat IPC: 0.06711 cumulative IPC: 0.05674 (Simulation time: 0 hr 25 min 51 sec) 
Heartbeat CPU  0 instructions:  328000000 cycles: 4122534140 heartbeat IPC: 0.07330 cumulative IPC: 0.05680 (Simulation time: 0 hr 25 min 56 sec) 
Heartbeat CPU  0 instructions:  329000001 cycles: 4134205463 heartbeat IPC: 0.08568 cumulative IPC: 0.05688 (Simulation time: 0 hr 26 min 0 sec) 
Heartbeat CPU  0 instructions:  330000000 cycles: 4147248662 heartbeat IPC: 0.07667 cumulative IPC: 0.05695 (Simulation time: 0 hr 26 min 5 sec) 
Heartbeat CPU  0 instructions:  331000003 cycles: 4161034449 heartbeat IPC: 0.07254 cumulative IPC: 0.05700 (Simulation time: 0 hr 26 min 9 sec) 
Heartbeat CPU  0 instructions:  332000000 cycles: 4195360452 heartbeat IPC: 0.02913 cumulative IPC: 0.05677 (Simulation time: 0 hr 26 min 21 sec) 
Heartbeat CPU  0 instructions:  333000001 cycles: 4216824425 heartbeat IPC: 0.04659 cumulative IPC: 0.05671 (Simulation time: 0 hr 26 min 29 sec) 
Heartbeat CPU  0 instructions:  334000000 cycles: 4232380409 heartbeat IPC: 0.06428 cumulative IPC: 0.05674 (Simulation time: 0 hr 26 min 34 sec) 
Heartbeat CPU  0 instructions:  335000000 cycles: 4244327367 heartbeat IPC: 0.08370 cumulative IPC: 0.05682 (Simulation time: 0 hr 26 min 39 sec) 
Heartbeat CPU  0 instructions:  336000000 cycles: 4259677477 heartbeat IPC: 0.06515 cumulative IPC: 0.05685 (Simulation time: 0 hr 26 min 44 sec) 
Heartbeat CPU  0 instructions:  337000000 cycles: 4273152827 heartbeat IPC: 0.07421 cumulative IPC: 0.05691 (Simulation time: 0 hr 26 min 49 sec) 
Heartbeat CPU  0 instructions:  338000000 cycles: 4286364180 heartbeat IPC: 0.07569 cumulative IPC: 0.05697 (Simulation time: 0 hr 26 min 53 sec) 
Heartbeat CPU  0 instructions:  339000000 cycles: 4300567541 heartbeat IPC: 0.07041 cumulative IPC: 0.05701 (Simulation time: 0 hr 26 min 58 sec) 
Heartbeat CPU  0 instructions:  340000000 cycles: 4333370845 heartbeat IPC: 0.03048 cumulative IPC: 0.05681 (Simulation time: 0 hr 27 min 9 sec) 
Heartbeat CPU  0 instructions:  341000000 cycles: 4353682270 heartbeat IPC: 0.04923 cumulative IPC: 0.05677 (Simulation time: 0 hr 27 min 16 sec) 
Heartbeat CPU  0 instructions:  342000000 cycles: 4366790211 heartbeat IPC: 0.07629 cumulative IPC: 0.05683 (Simulation time: 0 hr 27 min 20 sec) 
Heartbeat CPU  0 instructions:  343000000 cycles: 4378788142 heartbeat IPC: 0.08335 cumulative IPC: 0.05690 (Simulation time: 0 hr 27 min 24 sec) 
Heartbeat CPU  0 instructions:  344000000 cycles: 4392710141 heartbeat IPC: 0.07183 cumulative IPC: 0.05695 (Simulation time: 0 hr 27 min 29 sec) 
Heartbeat CPU  0 instructions:  345000000 cycles: 4406000483 heartbeat IPC: 0.07524 cumulative IPC: 0.05701 (Simulation time: 0 hr 27 min 34 sec) 
Heartbeat CPU  0 instructions:  346000001 cycles: 4418358548 heartbeat IPC: 0.08092 cumulative IPC: 0.05708 (Simulation time: 0 hr 27 min 38 sec) 
Heartbeat CPU  0 instructions:  347000003 cycles: 4438420344 heartbeat IPC: 0.04985 cumulative IPC: 0.05704 (Simulation time: 0 hr 27 min 46 sec) 
Heartbeat CPU  0 instructions:  348000000 cycles: 4463464314 heartbeat IPC: 0.03993 cumulative IPC: 0.05695 (Simulation time: 0 hr 27 min 55 sec) 
Heartbeat CPU  0 instructions:  349000001 cycles: 4475821872 heartbeat IPC: 0.08092 cumulative IPC: 0.05701 (Simulation time: 0 hr 28 min 0 sec) 
Heartbeat CPU  0 instructions:  350000000 cycles: 4501069412 heartbeat IPC: 0.03961 cumulative IPC: 0.05691 (Simulation time: 0 hr 28 min 8 sec) 
Heartbeat CPU  0 instructions:  351000000 cycles: 4511782161 heartbeat IPC: 0.09335 cumulative IPC: 0.05700 (Simulation time: 0 hr 28 min 14 sec) 
Heartbeat CPU  0 instructions:  352000000 cycles: 4521356335 heartbeat IPC: 0.10445 cumulative IPC: 0.05711 (Simulation time: 0 hr 28 min 18 sec) 
Heartbeat CPU  0 instructions:  353000003 cycles: 4546777190 heartbeat IPC: 0.03934 cumulative IPC: 0.05700 (Simulation time: 0 hr 28 min 28 sec) 
Heartbeat CPU  0 instructions:  354000002 cycles: 4571128554 heartbeat IPC: 0.04107 cumulative IPC: 0.05692 (Simulation time: 0 hr 28 min 37 sec) 
Heartbeat CPU  0 instructions:  355000002 cycles: 4580644470 heartbeat IPC: 0.10509 cumulative IPC: 0.05702 (Simulation time: 0 hr 28 min 42 sec) 
Heartbeat CPU  0 instructions:  356000000 cycles: 4590404803 heartbeat IPC: 0.10246 cumulative IPC: 0.05712 (Simulation time: 0 hr 28 min 47 sec) 
Heartbeat CPU  0 instructions:  357000000 cycles: 4598864079 heartbeat IPC: 0.11821 cumulative IPC: 0.05723 (Simulation time: 0 hr 28 min 51 sec) 
Heartbeat CPU  0 instructions:  358000001 cycles: 4621347739 heartbeat IPC: 0.04448 cumulative IPC: 0.05717 (Simulation time: 0 hr 29 min 0 sec) 
Heartbeat CPU  0 instructions:  359000002 cycles: 4646212215 heartbeat IPC: 0.04022 cumulative IPC: 0.05708 (Simulation time: 0 hr 29 min 9 sec) 
Heartbeat CPU  0 instructions:  360000000 cycles: 4657055804 heartbeat IPC: 0.09222 cumulative IPC: 0.05716 (Simulation time: 0 hr 29 min 14 sec) 
Heartbeat CPU  0 instructions:  361000001 cycles: 4666376842 heartbeat IPC: 0.10728 cumulative IPC: 0.05726 (Simulation time: 0 hr 29 min 19 sec) 
Heartbeat CPU  0 instructions:  362000001 cycles: 4675661736 heartbeat IPC: 0.10770 cumulative IPC: 0.05737 (Simulation time: 0 hr 29 min 24 sec) 
Heartbeat CPU  0 instructions:  363000002 cycles: 4693961394 heartbeat IPC: 0.05465 cumulative IPC: 0.05735 (Simulation time: 0 hr 29 min 31 sec) 
Heartbeat CPU  0 instructions:  364000000 cycles: 4722078712 heartbeat IPC: 0.03557 cumulative IPC: 0.05722 (Simulation time: 0 hr 29 min 41 sec) 
Heartbeat CPU  0 instructions:  365000001 cycles: 4732421861 heartbeat IPC: 0.09668 cumulative IPC: 0.05731 (Simulation time: 0 hr 29 min 47 sec) 
Heartbeat CPU  0 instructions:  366000001 cycles: 4741776518 heartbeat IPC: 0.10690 cumulative IPC: 0.05741 (Simulation time: 0 hr 29 min 51 sec) 
Heartbeat CPU  0 instructions:  367000000 cycles: 4750943454 heartbeat IPC: 0.10909 cumulative IPC: 0.05751 (Simulation time: 0 hr 29 min 56 sec) 
Heartbeat CPU  0 instructions:  368000000 cycles: 4762764784 heartbeat IPC: 0.08459 cumulative IPC: 0.05758 (Simulation time: 0 hr 30 min 2 sec) 
Heartbeat CPU  0 instructions:  369000000 cycles: 4797895992 heartbeat IPC: 0.02846 cumulative IPC: 0.05736 (Simulation time: 0 hr 30 min 14 sec) 
Heartbeat CPU  0 instructions:  370000002 cycles: 4812703538 heartbeat IPC: 0.06753 cumulative IPC: 0.05739 (Simulation time: 0 hr 30 min 20 sec) 
Heartbeat CPU  0 instructions:  371000000 cycles: 4824238481 heartbeat IPC: 0.08669 cumulative IPC: 0.05747 (Simulation time: 0 hr 30 min 26 sec) 
Heartbeat CPU  0 instructions:  372000000 cycles: 4835636595 heartbeat IPC: 0.08773 cumulative IPC: 0.05754 (Simulation time: 0 hr 30 min 31 sec) 
Heartbeat CPU  0 instructions:  373000000 cycles: 4846896630 heartbeat IPC: 0.08881 cumulative IPC: 0.05761 (Simulation time: 0 hr 30 min 36 sec) 
Heartbeat CPU  0 instructions:  374000000 cycles: 4859135869 heartbeat IPC: 0.08170 cumulative IPC: 0.05768 (Simulation time: 0 hr 30 min 42 sec) 
Heartbeat CPU  0 instructions:  375000002 cycles: 4885805767 heartbeat IPC: 0.03750 cumulative IPC: 0.05756 (Simulation time: 0 hr 30 min 51 sec) 
Heartbeat CPU  0 instructions:  376000000 cycles: 4909313602 heartbeat IPC: 0.04254 cumulative IPC: 0.05749 (Simulation time: 0 hr 31 min 1 sec) 
Heartbeat CPU  0 instructions:  377000000 cycles: 4921444436 heartbeat IPC: 0.08243 cumulative IPC: 0.05755 (Simulation time: 0 hr 31 min 6 sec) 
Heartbeat CPU  0 instructions:  378000002 cycles: 4935522171 heartbeat IPC: 0.07103 cumulative IPC: 0.05759 (Simulation time: 0 hr 31 min 12 sec) 
Heartbeat CPU  0 instructions:  379000000 cycles: 4947068954 heartbeat IPC: 0.08660 cumulative IPC: 0.05766 (Simulation time: 0 hr 31 min 17 sec) 
Heartbeat CPU  0 instructions:  380000000 cycles: 4962990684 heartbeat IPC: 0.06281 cumulative IPC: 0.05768 (Simulation time: 0 hr 31 min 23 sec) 
Heartbeat CPU  0 instructions:  381000002 cycles: 4975627726 heartbeat IPC: 0.07913 cumulative IPC: 0.05773 (Simulation time: 0 hr 31 min 29 sec) 
Heartbeat CPU  0 instructions:  382000001 cycles: 5006489801 heartbeat IPC: 0.03240 cumulative IPC: 0.05757 (Simulation time: 0 hr 31 min 40 sec) 
Heartbeat CPU  0 instructions:  383000002 cycles: 5026357669 heartbeat IPC: 0.05033 cumulative IPC: 0.05754 (Simulation time: 0 hr 31 min 48 sec) 
Heartbeat CPU  0 instructions:  384000000 cycles: 5039684142 heartbeat IPC: 0.07504 cumulative IPC: 0.05759 (Simulation time: 0 hr 31 min 53 sec) 
Heartbeat CPU  0 instructions:  385000002 cycles: 5052340570 heartbeat IPC: 0.07901 cumulative IPC: 0.05765 (Simulation time: 0 hr 31 min 58 sec) 
Heartbeat CPU  0 instructions:  386000001 cycles: 5066127762 heartbeat IPC: 0.07253 cumulative IPC: 0.05769 (Simulation time: 0 hr 32 min 4 sec) 
Heartbeat CPU  0 instructions:  387000000 cycles: 5079493350 heartbeat IPC: 0.07482 cumulative IPC: 0.05773 (Simulation time: 0 hr 32 min 9 sec) 
Heartbeat CPU  0 instructions:  388000000 cycles: 5102807796 heartbeat IPC: 0.04289 cumulative IPC: 0.05766 (Simulation time: 0 hr 32 min 17 sec) 
Heartbeat CPU  0 instructions:  389000000 cycles: 5133032855 heartbeat IPC: 0.03309 cumulative IPC: 0.05752 (Simulation time: 0 hr 32 min 27 sec) 
Heartbeat CPU  0 instructions:  390000001 cycles: 5147805676 heartbeat IPC: 0.06769 cumulative IPC: 0.05755 (Simulation time: 0 hr 32 min 32 sec) 
Heartbeat CPU  0 instructions:  391000001 cycles: 5162333121 heartbeat IPC: 0.06884 cumulative IPC: 0.05758 (Simulation time: 0 hr 32 min 37 sec) 
Heartbeat CPU  0 instructions:  392000000 cycles: 5176252943 heartbeat IPC: 0.07184 cumulative IPC: 0.05762 (Simulation time: 0 hr 32 min 41 sec) 
Heartbeat CPU  0 instructions:  393000003 cycles: 5190077811 heartbeat IPC: 0.07233 cumulative IPC: 0.05766 (Simulation time: 0 hr 32 min 46 sec) 
Heartbeat CPU  0 instructions:  394000001 cycles: 5204008501 heartbeat IPC: 0.07178 cumulative IPC: 0.05770 (Simulation time: 0 hr 32 min 51 sec) 
Heartbeat CPU  0 instructions:  395000000 cycles: 5218443012 heartbeat IPC: 0.06928 cumulative IPC: 0.05773 (Simulation time: 0 hr 32 min 55 sec) 
Heartbeat CPU  0 instructions:  396000000 cycles: 5241758060 heartbeat IPC: 0.04289 cumulative IPC: 0.05766 (Simulation time: 0 hr 33 min 3 sec) 
Heartbeat CPU  0 instructions:  397000001 cycles: 5268369490 heartbeat IPC: 0.03758 cumulative IPC: 0.05756 (Simulation time: 0 hr 33 min 13 sec) 
Heartbeat CPU  0 instructions:  398000000 cycles: 5283369040 heartbeat IPC: 0.06667 cumulative IPC: 0.05759 (Simulation time: 0 hr 33 min 17 sec) 
Heartbeat CPU  0 instructions:  399000000 cycles: 5298169856 heartbeat IPC: 0.06756 cumulative IPC: 0.05761 (Simulation time: 0 hr 33 min 22 sec) 
Heartbeat CPU  0 instructions:  400000000 cycles: 5312660838 heartbeat IPC: 0.06901 cumulative IPC: 0.05765 (Simulation time: 0 hr 33 min 27 sec) 
Heartbeat CPU  0 instructions:  401000001 cycles: 5326725533 heartbeat IPC: 0.07110 cumulative IPC: 0.05768 (Simulation time: 0 hr 33 min 32 sec) 
Heartbeat CPU  0 instructions:  402000001 cycles: 5340350328 heartbeat IPC: 0.07340 cumulative IPC: 0.05772 (Simulation time: 0 hr 33 min 36 sec) 
Heartbeat CPU  0 instructions:  403000000 cycles: 5354744877 heartbeat IPC: 0.06947 cumulative IPC: 0.05775 (Simulation time: 0 hr 33 min 41 sec) 
Heartbeat CPU  0 instructions:  404000000 cycles: 5374563193 heartbeat IPC: 0.05046 cumulative IPC: 0.05773 (Simulation time: 0 hr 33 min 48 sec) 
Heartbeat CPU  0 instructions:  405000001 cycles: 5406140345 heartbeat IPC: 0.03167 cumulative IPC: 0.05757 (Simulation time: 0 hr 33 min 59 sec) 
Heartbeat CPU  0 instructions:  406000002 cycles: 5420122480 heartbeat IPC: 0.07152 cumulative IPC: 0.05761 (Simulation time: 0 hr 34 min 4 sec) 
Heartbeat CPU  0 instructions:  407000000 cycles: 5433868290 heartbeat IPC: 0.07275 cumulative IPC: 0.05765 (Simulation time: 0 hr 34 min 8 sec) 
Heartbeat CPU  0 instructions:  408000000 cycles: 5448213037 heartbeat IPC: 0.06971 cumulative IPC: 0.05768 (Simulation time: 0 hr 34 min 13 sec) 
Heartbeat CPU  0 instructions:  409000001 cycles: 5463437358 heartbeat IPC: 0.06568 cumulative IPC: 0.05770 (Simulation time: 0 hr 34 min 18 sec) 
Heartbeat CPU  0 instructions:  410000000 cycles: 5478479827 heartbeat IPC: 0.06648 cumulative IPC: 0.05773 (Simulation time: 0 hr 34 min 23 sec) 
Heartbeat CPU  0 instructions:  411000000 cycles: 5492715622 heartbeat IPC: 0.07025 cumulative IPC: 0.05776 (Simulation time: 0 hr 34 min 27 sec) 
Heartbeat CPU  0 instructions:  412000000 cycles: 5507647778 heartbeat IPC: 0.06697 cumulative IPC: 0.05779 (Simulation time: 0 hr 34 min 32 sec) 
Heartbeat CPU  0 instructions:  413000002 cycles: 5522980979 heartbeat IPC: 0.06522 cumulative IPC: 0.05781 (Simulation time: 0 hr 34 min 37 sec) 
Heartbeat CPU  0 instructions:  414000001 cycles: 5556295815 heartbeat IPC: 0.03002 cumulative IPC: 0.05764 (Simulation time: 0 hr 34 min 49 sec) 
Heartbeat CPU  0 instructions:  415000001 cycles: 5569697229 heartbeat IPC: 0.07462 cumulative IPC: 0.05768 (Simulation time: 0 hr 34 min 54 sec) 
Heartbeat CPU  0 instructions:  416000000 cycles: 5578450243 heartbeat IPC: 0.11425 cumulative IPC: 0.05777 (Simulation time: 0 hr 34 min 58 sec) 
Heartbeat CPU  0 instructions:  417000000 cycles: 5586684184 heartbeat IPC: 0.12145 cumulative IPC: 0.05787 (Simulation time: 0 hr 35 min 2 sec) 
Heartbeat CPU  0 instructions:  418000000 cycles: 5620245170 heartbeat IPC: 0.02980 cumulative IPC: 0.05769 (Simulation time: 0 hr 35 min 13 sec) 
Heartbeat CPU  0 instructions:  419000000 cycles: 5633950229 heartbeat IPC: 0.07297 cumulative IPC: 0.05773 (Simulation time: 0 hr 35 min 19 sec) 
Heartbeat CPU  0 instructions:  420000000 cycles: 5642745519 heartbeat IPC: 0.11370 cumulative IPC: 0.05782 (Simulation time: 0 hr 35 min 23 sec) 
Heartbeat CPU  0 instructions:  421000000 cycles: 5668424780 heartbeat IPC: 0.03894 cumulative IPC: 0.05773 (Simulation time: 0 hr 35 min 31 sec) 
Heartbeat CPU  0 instructions:  422000003 cycles: 5688926136 heartbeat IPC: 0.04878 cumulative IPC: 0.05770 (Simulation time: 0 hr 35 min 39 sec) 
Heartbeat CPU  0 instructions:  423000000 cycles: 5716184850 heartbeat IPC: 0.03669 cumulative IPC: 0.05760 (Simulation time: 0 hr 35 min 49 sec) 
Heartbeat CPU  0 instructions:  424000000 cycles: 5725069069 heartbeat IPC: 0.11256 cumulative IPC: 0.05769 (Simulation time: 0 hr 35 min 53 sec) 
Heartbeat CPU  0 instructions:  425000000 cycles: 5733133523 heartbeat IPC: 0.12400 cumulative IPC: 0.05778 (Simulation time: 0 hr 35 min 57 sec) 
Heartbeat CPU  0 instructions:  426000003 cycles: 5753070769 heartbeat IPC: 0.05016 cumulative IPC: 0.05775 (Simulation time: 0 hr 36 min 5 sec) 
Heartbeat CPU  0 instructions:  427000003 cycles: 5779331924 heartbeat IPC: 0.03808 cumulative IPC: 0.05766 (Simulation time: 0 hr 36 min 14 sec) 
Heartbeat CPU  0 instructions:  428000000 cycles: 5789482281 heartbeat IPC: 0.09852 cumulative IPC: 0.05774 (Simulation time: 0 hr 36 min 19 sec) 
Heartbeat CPU  0 instructions:  429000000 cycles: 5800623991 heartbeat IPC: 0.08975 cumulative IPC: 0.05780 (Simulation time: 0 hr 36 min 24 sec) 
Heartbeat CPU  0 instructions:  430000001 cycles: 5820257825 heartbeat IPC: 0.05093 cumulative IPC: 0.05777 (Simulation time: 0 hr 36 min 31 sec) 
Heartbeat CPU  0 instructions:  431000001 cycles: 5850964301 heartbeat IPC: 0.03257 cumulative IPC: 0.05764 (Simulation time: 0 hr 36 min 41 sec) 
Heartbeat CPU  0 instructions:  432000000 cycles: 5862518536 heartbeat IPC: 0.08655 cumulative IPC: 0.05770 (Simulation time: 0 hr 36 min 46 sec) 
Heartbeat CPU  0 instructions:  433000001 cycles: 5875957117 heartbeat IPC: 0.07441 cumulative IPC: 0.05774 (Simulation time: 0 hr 36 min 50 sec) 
Heartbeat CPU  0 instructions:  434000000 cycles: 5888964747 heartbeat IPC: 0.07688 cumulative IPC: 0.05778 (Simulation time: 0 hr 36 min 55 sec) 
Heartbeat CPU  0 instructions:  435000000 cycles: 5902332905 heartbeat IPC: 0.07480 cumulative IPC: 0.05782 (Simulation time: 0 hr 36 min 59 sec) 
Heartbeat CPU  0 instructions:  436000000 cycles: 5930506925 heartbeat IPC: 0.03549 cumulative IPC: 0.05771 (Simulation time: 0 hr 37 min 9 sec) 
Heartbeat CPU  0 instructions:  437000001 cycles: 5952754580 heartbeat IPC: 0.04495 cumulative IPC: 0.05766 (Simulation time: 0 hr 37 min 17 sec) 
Heartbeat CPU  0 instructions:  438000000 cycles: 5967441603 heartbeat IPC: 0.06809 cumulative IPC: 0.05769 (Simulation time: 0 hr 37 min 22 sec) 
Heartbeat CPU  0 instructions:  439000001 cycles: 5981354798 heartbeat IPC: 0.07187 cumulative IPC: 0.05772 (Simulation time: 0 hr 37 min 26 sec) 
Heartbeat CPU  0 instructions:  440000000 cycles: 5995869187 heartbeat IPC: 0.06890 cumulative IPC: 0.05775 (Simulation time: 0 hr 37 min 31 sec) 
Heartbeat CPU  0 instructions:  441000000 cycles: 6010496908 heartbeat IPC: 0.06836 cumulative IPC: 0.05778 (Simulation time: 0 hr 37 min 36 sec) 
Heartbeat CPU  0 instructions:  442000001 cycles: 6024652329 heartbeat IPC: 0.07064 cumulative IPC: 0.05781 (Simulation time: 0 hr 37 min 41 sec) 
Heartbeat CPU  0 instructions:  443000002 cycles: 6045870495 heartbeat IPC: 0.04713 cumulative IPC: 0.05777 (Simulation time: 0 hr 37 min 49 sec) 
Heartbeat CPU  0 instructions:  444000000 cycles: 6074557817 heartbeat IPC: 0.03486 cumulative IPC: 0.05766 (Simulation time: 0 hr 37 min 59 sec) 
Heartbeat CPU  0 instructions:  445000001 cycles: 6089178726 heartbeat IPC: 0.06840 cumulative IPC: 0.05769 (Simulation time: 0 hr 38 min 4 sec) 
Heartbeat CPU  0 instructions:  446000001 cycles: 6104077945 heartbeat IPC: 0.06712 cumulative IPC: 0.05771 (Simulation time: 0 hr 38 min 9 sec) 
Heartbeat CPU  0 instructions:  447000000 cycles: 6119874565 heartbeat IPC: 0.06330 cumulative IPC: 0.05772 (Simulation time: 0 hr 38 min 14 sec) 
Heartbeat CPU  0 instructions:  448000000 cycles: 6133050873 heartbeat IPC: 0.07589 cumulative IPC: 0.05776 (Simulation time: 0 hr 38 min 19 sec) 
Heartbeat CPU  0 instructions:  449000001 cycles: 6156640356 heartbeat IPC: 0.04239 cumulative IPC: 0.05770 (Simulation time: 0 hr 38 min 27 sec) 
Heartbeat CPU  0 instructions:  450000000 cycles: 6181559801 heartbeat IPC: 0.04013 cumulative IPC: 0.05763 (Simulation time: 0 hr 38 min 36 sec) 
Heartbeat CPU  0 instructions:  451000002 cycles: 6195454292 heartbeat IPC: 0.07197 cumulative IPC: 0.05766 (Simulation time: 0 hr 38 min 40 sec) 
Heartbeat CPU  0 instructions:  452000000 cycles: 6209427828 heartbeat IPC: 0.07156 cumulative IPC: 0.05770 (Simulation time: 0 hr 38 min 45 sec) 
Heartbeat CPU  0 instructions:  453000000 cycles: 6222527927 heartbeat IPC: 0.07634 cumulative IPC: 0.05774 (Simulation time: 0 hr 38 min 50 sec) 
Heartbeat CPU  0 instructions:  454000003 cycles: 6236165042 heartbeat IPC: 0.07333 cumulative IPC: 0.05777 (Simulation time: 0 hr 38 min 54 sec) 
Heartbeat CPU  0 instructions:  455000000 cycles: 6250732923 heartbeat IPC: 0.06864 cumulative IPC: 0.05780 (Simulation time: 0 hr 38 min 59 sec) 
Heartbeat CPU  0 instructions:  456000000 cycles: 6268551225 heartbeat IPC: 0.05612 cumulative IPC: 0.05779 (Simulation time: 0 hr 39 min 5 sec) 
Heartbeat CPU  0 instructions:  457000001 cycles: 6300100763 heartbeat IPC: 0.03170 cumulative IPC: 0.05766 (Simulation time: 0 hr 39 min 16 sec) 
Heartbeat CPU  0 instructions:  458000000 cycles: 6316535031 heartbeat IPC: 0.06085 cumulative IPC: 0.05767 (Simulation time: 0 hr 39 min 22 sec) 
Heartbeat CPU  0 instructions:  459000003 cycles: 6330698670 heartbeat IPC: 0.07060 cumulative IPC: 0.05770 (Simulation time: 0 hr 39 min 26 sec) 
Heartbeat CPU  0 instructions:  460000000 cycles: 6345278525 heartbeat IPC: 0.06859 cumulative IPC: 0.05772 (Simulation time: 0 hr 39 min 31 sec) 
Heartbeat CPU  0 instructions:  461000002 cycles: 6369644520 heartbeat IPC: 0.04104 cumulative IPC: 0.05766 (Simulation time: 0 hr 39 min 39 sec) 
Heartbeat CPU  0 instructions:  462000000 cycles: 6384204824 heartbeat IPC: 0.06868 cumulative IPC: 0.05768 (Simulation time: 0 hr 39 min 44 sec) 
Heartbeat CPU  0 instructions:  463000000 cycles: 6399175608 heartbeat IPC: 0.06680 cumulative IPC: 0.05770 (Simulation time: 0 hr 39 min 49 sec) 
Heartbeat CPU  0 instructions:  464000000 cycles: 6414645413 heartbeat IPC: 0.06464 cumulative IPC: 0.05772 (Simulation time: 0 hr 39 min 54 sec) 
Heartbeat CPU  0 instructions:  465000000 cycles: 6430275608 heartbeat IPC: 0.06398 cumulative IPC: 0.05774 (Simulation time: 0 hr 39 min 59 sec) 
Heartbeat CPU  0 instructions:  466000000 cycles: 6444501636 heartbeat IPC: 0.07029 cumulative IPC: 0.05776 (Simulation time: 0 hr 40 min 3 sec) 
Heartbeat CPU  0 instructions:  467000003 cycles: 6477291085 heartbeat IPC: 0.03050 cumulative IPC: 0.05762 (Simulation time: 0 hr 40 min 15 sec) 
Heartbeat CPU  0 instructions:  468000000 cycles: 6495623782 heartbeat IPC: 0.05455 cumulative IPC: 0.05762 (Simulation time: 0 hr 40 min 21 sec) 
Heartbeat CPU  0 instructions:  469000000 cycles: 6509536443 heartbeat IPC: 0.07188 cumulative IPC: 0.05765 (Simulation time: 0 hr 40 min 25 sec) 
Heartbeat CPU  0 instructions:  470000001 cycles: 6523942146 heartbeat IPC: 0.06942 cumulative IPC: 0.05767 (Simulation time: 0 hr 40 min 30 sec) 
Heartbeat CPU  0 instructions:  471000000 cycles: 6539565078 heartbeat IPC: 0.06401 cumulative IPC: 0.05769 (Simulation time: 0 hr 40 min 35 sec) 
Heartbeat CPU  0 instructions:  472000000 cycles: 6554943532 heartbeat IPC: 0.06503 cumulative IPC: 0.05771 (Simulation time: 0 hr 40 min 40 sec) 
Heartbeat CPU  0 instructions:  473000001 cycles: 6569895446 heartbeat IPC: 0.06688 cumulative IPC: 0.05773 (Simulation time: 0 hr 40 min 45 sec) 
Heartbeat CPU  0 instructions:  474000000 cycles: 6584219702 heartbeat IPC: 0.06981 cumulative IPC: 0.05775 (Simulation time: 0 hr 40 min 50 sec) 
Heartbeat CPU  0 instructions:  475000001 cycles: 6599590011 heartbeat IPC: 0.06506 cumulative IPC: 0.05777 (Simulation time: 0 hr 40 min 55 sec) 
Heartbeat CPU  0 instructions:  476000000 cycles: 6615167995 heartbeat IPC: 0.06419 cumulative IPC: 0.05779 (Simulation time: 0 hr 41 min 0 sec) 
Heartbeat CPU  0 instructions:  477000000 cycles: 6630021366 heartbeat IPC: 0.06732 cumulative IPC: 0.05781 (Simulation time: 0 hr 41 min 4 sec) 
Heartbeat CPU  0 instructions:  478000002 cycles: 6646840359 heartbeat IPC: 0.05946 cumulative IPC: 0.05781 (Simulation time: 0 hr 41 min 10 sec) 
Heartbeat CPU  0 instructions:  479000000 cycles: 6679679113 heartbeat IPC: 0.03045 cumulative IPC: 0.05768 (Simulation time: 0 hr 41 min 21 sec) 
Heartbeat CPU  0 instructions:  480000000 cycles: 6695688435 heartbeat IPC: 0.06246 cumulative IPC: 0.05769 (Simulation time: 0 hr 41 min 27 sec) 
Heartbeat CPU  0 instructions:  481000000 cycles: 6710491749 heartbeat IPC: 0.06755 cumulative IPC: 0.05771 (Simulation time: 0 hr 41 min 32 sec) 
Heartbeat CPU  0 instructions:  482000000 cycles: 6726395223 heartbeat IPC: 0.06288 cumulative IPC: 0.05772 (Simulation time: 0 hr 41 min 37 sec) 
Heartbeat CPU  0 instructions:  483000000 cycles: 6741953681 heartbeat IPC: 0.06427 cumulative IPC: 0.05774 (Simulation time: 0 hr 41 min 42 sec) 
Heartbeat CPU  0 instructions:  484000000 cycles: 6757434534 heartbeat IPC: 0.06460 cumulative IPC: 0.05775 (Simulation time: 0 hr 41 min 47 sec) 
Heartbeat CPU  0 instructions:  485000001 cycles: 6772243735 heartbeat IPC: 0.06753 cumulative IPC: 0.05777 (Simulation time: 0 hr 41 min 52 sec) 
Heartbeat CPU  0 instructions:  486000000 cycles: 6787375149 heartbeat IPC: 0.06609 cumulative IPC: 0.05779 (Simulation time: 0 hr 41 min 57 sec) 
Heartbeat CPU  0 instructions:  487000002 cycles: 6801678726 heartbeat IPC: 0.06991 cumulative IPC: 0.05782 (Simulation time: 0 hr 42 min 2 sec) 
Heartbeat CPU  0 instructions:  488000000 cycles: 6830246787 heartbeat IPC: 0.03500 cumulative IPC: 0.05772 (Simulation time: 0 hr 42 min 12 sec) 
Heartbeat CPU  0 instructions:  489000000 cycles: 6853432388 heartbeat IPC: 0.04313 cumulative IPC: 0.05767 (Simulation time: 0 hr 42 min 20 sec) 
Heartbeat CPU  0 instructions:  490000000 cycles: 6867528779 heartbeat IPC: 0.07094 cumulative IPC: 0.05770 (Simulation time: 0 hr 42 min 25 sec) 
Heartbeat CPU  0 instructions:  491000000 cycles: 6882149827 heartbeat IPC: 0.06839 cumulative IPC: 0.05772 (Simulation time: 0 hr 42 min 30 sec) 
Heartbeat CPU  0 instructions:  492000000 cycles: 6896373524 heartbeat IPC: 0.07031 cumulative IPC: 0.05775 (Simulation time: 0 hr 42 min 35 sec) 
Heartbeat CPU  0 instructions:  493000000 cycles: 6910835501 heartbeat IPC: 0.06915 cumulative IPC: 0.05777 (Simulation time: 0 hr 42 min 39 sec) 
Heartbeat CPU  0 instructions:  494000001 cycles: 6925838887 heartbeat IPC: 0.06665 cumulative IPC: 0.05779 (Simulation time: 0 hr 42 min 44 sec) 
Heartbeat CPU  0 instructions:  495000000 cycles: 6940570519 heartbeat IPC: 0.06788 cumulative IPC: 0.05782 (Simulation time: 0 hr 42 min 49 sec) 
Heartbeat CPU  0 instructions:  496000000 cycles: 6954968974 heartbeat IPC: 0.06945 cumulative IPC: 0.05784 (Simulation time: 0 hr 42 min 54 sec) 
Heartbeat CPU  0 instructions:  497000001 cycles: 6969360858 heartbeat IPC: 0.06948 cumulative IPC: 0.05786 (Simulation time: 0 hr 42 min 59 sec) 
Heartbeat CPU  0 instructions:  498000000 cycles: 6983047602 heartbeat IPC: 0.07306 cumulative IPC: 0.05789 (Simulation time: 0 hr 43 min 4 sec) 
Heartbeat CPU  0 instructions:  499000000 cycles: 7004085147 heartbeat IPC: 0.04753 cumulative IPC: 0.05786 (Simulation time: 0 hr 43 min 11 sec) 
Heartbeat CPU  0 instructions:  500000000 cycles: 7032067568 heartbeat IPC: 0.03574 cumulative IPC: 0.05777 (Simulation time: 0 hr 43 min 21 sec) 
Heartbeat CPU  0 instructions:  501000000 cycles: 7046765837 heartbeat IPC: 0.06804 cumulative IPC: 0.05779 (Simulation time: 0 hr 43 min 26 sec) 
Heartbeat CPU  0 instructions:  502000000 cycles: 7061930523 heartbeat IPC: 0.06594 cumulative IPC: 0.05781 (Simulation time: 0 hr 43 min 31 sec) 
Heartbeat CPU  0 instructions:  503000000 cycles: 7077291554 heartbeat IPC: 0.06510 cumulative IPC: 0.05783 (Simulation time: 0 hr 43 min 36 sec) 
Heartbeat CPU  0 instructions:  504000000 cycles: 7092503376 heartbeat IPC: 0.06574 cumulative IPC: 0.05785 (Simulation time: 0 hr 43 min 41 sec) 
Heartbeat CPU  0 instructions:  505000002 cycles: 7107553953 heartbeat IPC: 0.06644 cumulative IPC: 0.05786 (Simulation time: 0 hr 43 min 46 sec) 
Heartbeat CPU  0 instructions:  506000000 cycles: 7122932769 heartbeat IPC: 0.06502 cumulative IPC: 0.05788 (Simulation time: 0 hr 43 min 51 sec) 
Heartbeat CPU  0 instructions:  507000001 cycles: 7138214245 heartbeat IPC: 0.06544 cumulative IPC: 0.05790 (Simulation time: 0 hr 43 min 56 sec) 
Heartbeat CPU  0 instructions:  508000000 cycles: 7153088075 heartbeat IPC: 0.06723 cumulative IPC: 0.05792 (Simulation time: 0 hr 44 min 1 sec) 
Heartbeat CPU  0 instructions:  509000000 cycles: 7167456239 heartbeat IPC: 0.06960 cumulative IPC: 0.05794 (Simulation time: 0 hr 44 min 5 sec) 
Heartbeat CPU  0 instructions:  510000000 cycles: 7182544435 heartbeat IPC: 0.06628 cumulative IPC: 0.05796 (Simulation time: 0 hr 44 min 10 sec) 
Heartbeat CPU  0 instructions:  511000000 cycles: 7197200118 heartbeat IPC: 0.06823 cumulative IPC: 0.05798 (Simulation time: 0 hr 44 min 15 sec) 
Heartbeat CPU  0 instructions:  512000000 cycles: 7212003577 heartbeat IPC: 0.06755 cumulative IPC: 0.05800 (Simulation time: 0 hr 44 min 20 sec) 
Heartbeat CPU  0 instructions:  513000001 cycles: 7227195816 heartbeat IPC: 0.06582 cumulative IPC: 0.05802 (Simulation time: 0 hr 44 min 25 sec) 
Heartbeat CPU  0 instructions:  514000001 cycles: 7260880177 heartbeat IPC: 0.02969 cumulative IPC: 0.05788 (Simulation time: 0 hr 44 min 37 sec) 
Heartbeat CPU  0 instructions:  515000000 cycles: 7277992502 heartbeat IPC: 0.05844 cumulative IPC: 0.05788 (Simulation time: 0 hr 44 min 43 sec) 
Heartbeat CPU  0 instructions:  516000000 cycles: 7293416602 heartbeat IPC: 0.06483 cumulative IPC: 0.05790 (Simulation time: 0 hr 44 min 47 sec) 
Heartbeat CPU  0 instructions:  517000001 cycles: 7308898049 heartbeat IPC: 0.06459 cumulative IPC: 0.05791 (Simulation time: 0 hr 44 min 52 sec) 
Heartbeat CPU  0 instructions:  518000003 cycles: 7324818025 heartbeat IPC: 0.06281 cumulative IPC: 0.05792 (Simulation time: 0 hr 44 min 57 sec) 
Heartbeat CPU  0 instructions:  519000003 cycles: 7340174942 heartbeat IPC: 0.06512 cumulative IPC: 0.05794 (Simulation time: 0 hr 45 min 2 sec) 
Heartbeat CPU  0 instructions:  520000000 cycles: 7354761891 heartbeat IPC: 0.06855 cumulative IPC: 0.05796 (Simulation time: 0 hr 45 min 7 sec) 
Heartbeat CPU  0 instructions:  521000000 cycles: 7369161112 heartbeat IPC: 0.06945 cumulative IPC: 0.05798 (Simulation time: 0 hr 45 min 12 sec) 
Heartbeat CPU  0 instructions:  522000000 cycles: 7384773865 heartbeat IPC: 0.06405 cumulative IPC: 0.05800 (Simulation time: 0 hr 45 min 17 sec) 
Heartbeat CPU  0 instructions:  523000001 cycles: 7400268693 heartbeat IPC: 0.06454 cumulative IPC: 0.05801 (Simulation time: 0 hr 45 min 22 sec) 
Heartbeat CPU  0 instructions:  524000000 cycles: 7415301920 heartbeat IPC: 0.06652 cumulative IPC: 0.05803 (Simulation time: 0 hr 45 min 27 sec) 
Heartbeat CPU  0 instructions:  525000000 cycles: 7430577753 heartbeat IPC: 0.06546 cumulative IPC: 0.05804 (Simulation time: 0 hr 45 min 31 sec) 
Heartbeat CPU  0 instructions:  526000000 cycles: 7445515798 heartbeat IPC: 0.06694 cumulative IPC: 0.05806 (Simulation time: 0 hr 45 min 36 sec) 
Heartbeat CPU  0 instructions:  527000000 cycles: 7461451155 heartbeat IPC: 0.06275 cumulative IPC: 0.05807 (Simulation time: 0 hr 45 min 41 sec) 
Heartbeat CPU  0 instructions:  528000000 cycles: 7476858619 heartbeat IPC: 0.06490 cumulative IPC: 0.05809 (Simulation time: 0 hr 45 min 46 sec) 
[...]
Heartbeat CPU  0 instructions:  553000000 cycles: 7892554798 heartbeat IPC: 0.08654 cumulative IPC: 0.05820 (Simulation time: 0 hr 48 min 13 sec) 
Heartbeat CPU  0 instructions:  554000000 cycles: 7902327802 heartbeat IPC: 0.10232 cumulative IPC: 0.05825 (Simulation time: 0 hr 48 min 16 sec) 
Heartbeat CPU  0 instructions:  555000000 cycles: 7924523060 heartbeat IPC: 0.04505 cumulative IPC: 0.05821 (Simulation time: 0 hr 48 min 24 sec) 
Heartbeat CPU  0 instructions:  556000000 cycles: 7949306136 heartbeat IPC: 0.04035 cumulative IPC: 0.05816 (Simulation time: 0 hr 48 min 33 sec) 
Heartbeat CPU  0 instructions:  557000000 cycles: 7960089752 heartbeat IPC: 0.09273 cumulative IPC: 0.05820 (Simulation time: 0 hr 48 min 37 sec) 
Heartbeat CPU  0 instructions:  558000000 cycles: 7970188547 heartbeat IPC: 0.09902 cumulative IPC: 0.05826 (Simulation time: 0 hr 48 min 41 sec) 
Heartbeat CPU  0 instructions:  559000000 cycles: 7996493975 heartbeat IPC: 0.03801 cumulative IPC: 0.05819 (Simulation time: 0 hr 48 min 50 sec) 
Heartbeat CPU  0 instructions:  560000000 cycles: 8017186074 heartbeat IPC: 0.04833 cumulative IPC: 0.05816 (Simulation time: 0 hr 48 min 58 sec) 
Heartbeat CPU  0 instructions:  561000003 cycles: 8029487680 heartbeat IPC: 0.08129 cumulative IPC: 0.05820 (Simulation time: 0 hr 49 min 3 sec) 
Heartbeat CPU  0 instructions:  562000003 cycles: 8039931060 heartbeat IPC: 0.09575 cumulative IPC: 0.05825 (Simulation time: 0 hr 49 min 7 sec) 
Heartbeat CPU  0 instructions:  563000002 cycles: 8066792626 heartbeat IPC: 0.03723 cumulative IPC: 0.05818 (Simulation time: 0 hr 49 min 16 sec) 
Heartbeat CPU  0 instructions:  564000000 cycles: 8086360370 heartbeat IPC: 0.05110 cumulative IPC: 0.05816 (Simulation time: 0 hr 49 min 24 sec) 
Heartbeat CPU  0 instructions:  565000000 cycles: 8096520158 heartbeat IPC: 0.09843 cumulative IPC: 0.05821 (Simulation time: 0 hr 49 min 28 sec) 
Heartbeat CPU  0 instructions:  566000002 cycles: 8111747916 heartbeat IPC: 0.06567 cumulative IPC: 0.05823 (Simulation time: 0 hr 49 min 33 sec) 
Heartbeat CPU  0 instructions:  567000000 cycles: 8141992709 heartbeat IPC: 0.03306 cumulative IPC: 0.05813 (Simulation time: 0 hr 49 min 44 sec) 
Heartbeat CPU  0 instructions:  568000000 cycles: 8153759848 heartbeat IPC: 0.08498 cumulative IPC: 0.05817 (Simulation time: 0 hr 49 min 48 sec) 
Heartbeat CPU  0 instructions:  569000001 cycles: 8164380879 heartbeat IPC: 0.09415 cumulative IPC: 0.05822 (Simulation time: 0 hr 49 min 52 sec) 
Heartbeat CPU  0 instructions:  570000003 cycles: 8187556310 heartbeat IPC: 0.04315 cumulative IPC: 0.05817 (Simulation time: 0 hr 50 min 0 sec) 
Heartbeat CPU  0 instructions:  571000000 cycles: 8210617951 heartbeat IPC: 0.04336 cumulative IPC: 0.05813 (Simulation time: 0 hr 50 min 9 sec) 
Heartbeat CPU  0 instructions:  572000000 cycles: 8220715914 heartbeat IPC: 0.09903 cumulative IPC: 0.05818 (Simulation time: 0 hr 50 min 13 sec) 
Heartbeat CPU  0 instructions:  573000001 cycles: 8230694203 heartbeat IPC: 0.10022 cumulative IPC: 0.05824 (Simulation time: 0 hr 50 min 16 sec) 
Heartbeat CPU  0 instructions:  574000003 cycles: 8264697133 heartbeat IPC: 0.02941 cumulative IPC: 0.05811 (Simulation time: 0 hr 50 min 28 sec) 
Heartbeat CPU  0 instructions:  575000000 cycles: 8276441800 heartbeat IPC: 0.08514 cumulative IPC: 0.05815 (Simulation time: 0 hr 50 min 33 sec) 
Heartbeat CPU  0 instructions:  576000000 cycles: 8286283001 heartbeat IPC: 0.10161 cumulative IPC: 0.05821 (Simulation time: 0 hr 50 min 37 sec) 
Heartbeat CPU  0 instructions:  577000001 cycles: 8305231503 heartbeat IPC: 0.05277 cumulative IPC: 0.05819 (Simulation time: 0 hr 50 min 43 sec) 
Heartbeat CPU  0 instructions:  578000000 cycles: 8331860699 heartbeat IPC: 0.03755 cumulative IPC: 0.05813 (Simulation time: 0 hr 50 min 53 sec) 
Heartbeat CPU  0 instructions:  579000000 cycles: 8342517681 heartbeat IPC: 0.09384 cumulative IPC: 0.05817 (Simulation time: 0 hr 50 min 57 sec) 
Heartbeat CPU  0 instructions:  580000000 cycles: 8352089637 heartbeat IPC: 0.10447 cumulative IPC: 0.05823 (Simulation time: 0 hr 51 min 1 sec) 
Heartbeat CPU  0 instructions:  581000002 cycles: 8383318756 heartbeat IPC: 0.03202 cumulative IPC: 0.05813 (Simulation time: 0 hr 51 min 12 sec) 
Heartbeat CPU  0 instructions:  582000001 cycles: 8398533302 heartbeat IPC: 0.06573 cumulative IPC: 0.05814 (Simulation time: 0 hr 51 min 18 sec) 
Heartbeat CPU  0 instructions:  583000003 cycles: 8408627137 heartbeat IPC: 0.09907 cumulative IPC: 0.05819 (Simulation time: 0 hr 51 min 21 sec) 
Heartbeat CPU  0 instructions:  584000000 cycles: 8427077307 heartbeat IPC: 0.05420 cumulative IPC: 0.05818 (Simulation time: 0 hr 51 min 28 sec) 
Heartbeat CPU  0 instructions:  585000000 cycles: 8455060417 heartbeat IPC: 0.03574 cumulative IPC: 0.05811 (Simulation time: 0 hr 51 min 38 sec) 
Heartbeat CPU  0 instructions:  586000001 cycles: 8465452132 heartbeat IPC: 0.09623 cumulative IPC: 0.05815 (Simulation time: 0 hr 51 min 42 sec) 
Heartbeat CPU  0 instructions:  587000000 cycles: 8474739799 heartbeat IPC: 0.10767 cumulative IPC: 0.05821 (Simulation time: 0 hr 51 min 46 sec) 
Heartbeat CPU  0 instructions:  588000000 cycles: 8504495523 heartbeat IPC: 0.03361 cumulative IPC: 0.05812 (Simulation time: 0 hr 51 min 56 sec) 
Heartbeat CPU  0 instructions:  589000000 cycles: 8520744364 heartbeat IPC: 0.06154 cumulative IPC: 0.05813 (Simulation time: 0 hr 52 min 2 sec) 
Heartbeat CPU  0 instructions:  590000001 cycles: 8530065969 heartbeat IPC: 0.10728 cumulative IPC: 0.05818 (Simulation time: 0 hr 52 min 6 sec) 
Heartbeat CPU  0 instructions:  591000003 cycles: 8546651986 heartbeat IPC: 0.06029 cumulative IPC: 0.05819 (Simulation time: 0 hr 52 min 12 sec) 
Heartbeat CPU  0 instructions:  592000000 cycles: 8574012041 heartbeat IPC: 0.03655 cumulative IPC: 0.05812 (Simulation time: 0 hr 52 min 21 sec) 
Heartbeat CPU  0 instructions:  593000000 cycles: 8584391415 heartbeat IPC: 0.09634 cumulative IPC: 0.05816 (Simulation time: 0 hr 52 min 26 sec) 
Heartbeat CPU  0 instructions:  594000001 cycles: 8593524432 heartbeat IPC: 0.10949 cumulative IPC: 0.05822 (Simulation time: 0 hr 52 min 29 sec) 
Heartbeat CPU  0 instructions:  595000003 cycles: 8622353579 heartbeat IPC: 0.03469 cumulative IPC: 0.05814 (Simulation time: 0 hr 52 min 39 sec) 
Heartbeat CPU  0 instructions:  596000000 cycles: 8639287991 heartbeat IPC: 0.05905 cumulative IPC: 0.05814 (Simulation time: 0 hr 52 min 46 sec) 
Heartbeat CPU  0 instructions:  597000000 cycles: 8648482553 heartbeat IPC: 0.10876 cumulative IPC: 0.05820 (Simulation time: 0 hr 52 min 50 sec) 
Heartbeat CPU  0 instructions:  598000001 cycles: 8662430297 heartbeat IPC: 0.07170 cumulative IPC: 0.05822 (Simulation time: 0 hr 52 min 55 sec) 
Heartbeat CPU  0 instructions:  599000000 cycles: 8693052262 heartbeat IPC: 0.03266 cumulative IPC: 0.05813 (Simulation time: 0 hr 53 min 6 sec) 
Heartbeat CPU  0 instructions:  600000000 cycles: 8703667698 heartbeat IPC: 0.09420 cumulative IPC: 0.05817 (Simulation time: 0 hr 53 min 10 sec) 
Finished CPU 0 instructions: 500000000 cycles: 8595229291 cumulative IPC: 0.05817 (Simulation time: 0 hr 53 min 10 sec) 

ChampSim completed all CPUs

[ROI Statistics]
Core_0_instructions 500000000
Core_0_cycles 8595229291
Core_0_IPC 0.05817

Core_0_branch_prediction_accuracy 93.42004
Core_0_branch_MPKI 15.82262
Core_0_average_ROB_occupancy_at_mispredict 58.54992

Core_0_L1D_total_access 121291282
Core_0_L1D_total_hit 56582861
Core_0_L1D_total_miss 64708421
Core_0_L1D_loads 105720635
Core_0_L1D_load_hit 41845324
Core_0_L1D_load_miss 63875311
Core_0_L1D_RFOs 15570647
Core_0_L1D_RFO_hit 14737537
Core_0_L1D_RFO_miss 833110
Core_0_L1D_prefetches 0
Core_0_L1D_prefetch_hit 0
Core_0_L1D_prefetch_miss 0
Core_0_L1D_writebacks 0
Core_0_L1D_writeback_hit 0
Core_0_L1D_writeback_miss 0
Core_0_L1D_prefetch_requested 0
Core_0_L1D_prefetch_dropped 0
Core_0_L1D_prefetch_issued 0
Core_0_L1D_prefetch_filled 0
Core_0_L1D_prefetch_useful 0
Core_0_L1D_prefetch_useless 0
Core_0_L1D_prefetch_late 0
Core_0_L1D_average_miss_latency 255.99351

Core_0_L1D_rq_access 160999603
Core_0_L1D_rq_forward 0
Core_0_L1D_rq_merged 54870610
Core_0_L1D_rq_to_cache 106128993
Core_0_L1D_rq_full 0

Core_0_L1D_wq_access 16623469
Core_0_L1D_wq_forward 0
Core_0_L1D_wq_merged 945266
Core_0_L1D_wq_to_cache 15678203
Core_0_L1D_wq_full 0

Core_0_L1D_pq_access 0
Core_0_L1D_pq_forward 0
Core_0_L1D_pq_merged 0
Core_0_L1D_pq_to_cache 0
Core_0_L1D_pq_full 0

Core_0_L1D_acc_epochs 8088662
Core_0_L1D_acc_level_0 8088662
Core_0_L1D_acc_level_1 0
Core_0_L1D_acc_level_2 0
Core_0_L1D_acc_level_3 0
Core_0_L1D_acc_level_4 0
Core_0_L1D_acc_level_5 0
Core_0_L1D_acc_level_6 0
Core_0_L1D_acc_level_7 0
Core_0_L1D_acc_level_8 0
Core_0_L1D_acc_level_9 0

Core_0_L1I_total_access 104172720
Core_0_L1I_total_hit 104172720
Core_0_L1I_total_miss 0
Core_0_L1I_loads 104172720
Core_0_L1I_load_hit 104172720
Core_0_L1I_load_miss 0
Core_0_L1I_RFOs 0
Core_0_L1I_RFO_hit 0
Core_0_L1I_RFO_miss 0
Core_0_L1I_prefetches 0
Core_0_L1I_prefetch_hit 0
Core_0_L1I_prefetch_miss 0
Core_0_L1I_writebacks 0
Core_0_L1I_writeback_hit 0
Core_0_L1I_writeback_miss 0
Core_0_L1I_prefetch_requested 0
Core_0_L1I_prefetch_dropped 0
Core_0_L1I_prefetch_issued 0
Core_0_L1I_prefetch_filled 0
Core_0_L1I_prefetch_useful 0
Core_0_L1I_prefetch_useless 0
Core_0_L1I_prefetch_late 0
Core_0_L1I_average_miss_latency -nan

Core_0_L1I_rq_access 500000052
Core_0_L1I_rq_forward 0
Core_0_L1I_rq_merged 395827332
Core_0_L1I_rq_to_cache 104172720
Core_0_L1I_rq_full 0

Core_0_L1I_wq_access 0
Core_0_L1I_wq_forward 0
Core_0_L1I_wq_merged 0
Core_0_L1I_wq_to_cache 0
Core_0_L1I_wq_full 0

Core_0_L1I_pq_access 0
Core_0_L1I_pq_forward 0
Core_0_L1I_pq_merged 0
Core_0_L1I_pq_to_cache 0
Core_0_L1I_pq_full 0

Core_0_L1I_acc_epochs 8088662
Core_0_L1I_acc_level_0 8088662
Core_0_L1I_acc_level_1 0
Core_0_L1I_acc_level_2 0
Core_0_L1I_acc_level_3 0
Core_0_L1I_acc_level_4 0
Core_0_L1I_acc_level_5 0
Core_0_L1I_acc_level_6 0
Core_0_L1I_acc_level_7 0
Core_0_L1I_acc_level_8 0
Core_0_L1I_acc_level_9 0

Core_0_L2C_total_access 76008867
Core_0_L2C_total_hit 27232098
Core_0_L2C_total_miss 48776769
Core_0_L2C_loads 63875008
Core_0_L2C_load_hit 15862472
Core_0_L2C_load_miss 48012536
Core_0_L2C_RFOs 833101
Core_0_L2C_RFO_hit 293884
Core_0_L2C_RFO_miss 539217
Core_0_L2C_prefetches 2609257
Core_0_L2C_prefetch_hit 2385087
Core_0_L2C_prefetch_miss 224170
Core_0_L2C_writebacks 8691501
Core_0_L2C_writeback_hit 8690655
Core_0_L2C_writeback_miss 846
Core_0_L2C_prefetch_requested 8548782
Core_0_L2C_prefetch_dropped 102
Core_0_L2C_prefetch_issued 8548680
Core_0_L2C_prefetch_filled 224963
Core_0_L2C_prefetch_useful 5533
Core_0_L2C_prefetch_useless 219429
Core_0_L2C_prefetch_late 125
Core_0_L2C_average_miss_latency 319.82697

Core_0_L2C_rq_access 64708421
Core_0_L2C_rq_forward 0
Core_0_L2C_rq_merged 0
Core_0_L2C_rq_to_cache 64708109
Core_0_L2C_rq_full 0

Core_0_L2C_wq_access 8691501
Core_0_L2C_wq_forward 323
Core_0_L2C_wq_merged 0
Core_0_L2C_wq_to_cache 8691501
Core_0_L2C_wq_full 0

Core_0_L2C_pq_access 8548680
Core_0_L2C_pq_forward 0
Core_0_L2C_pq_merged 74012
Core_0_L2C_pq_to_cache 8474657
Core_0_L2C_pq_full 0

Core_0_L2C_acc_epochs 8088662
Core_0_L2C_acc_level_0 8083737
Core_0_L2C_acc_level_1 3074
Core_0_L2C_acc_level_2 1176
Core_0_L2C_acc_level_3 161
Core_0_L2C_acc_level_4 25
Core_0_L2C_acc_level_5 445
Core_0_L2C_acc_level_6 22
Core_0_L2C_acc_level_7 7
Core_0_L2C_acc_level_8 3
Core_0_L2C_acc_level_9 12

Core_0_LLC_total_access 59591893
Core_0_LLC_total_hit 28243515
Core_0_LLC_total_miss 31348378
Core_0_LLC_loads 48012244
Core_0_LLC_load_hit 21182184
Core_0_LLC_load_miss 26830060
Core_0_LLC_RFOs 539217
Core_0_LLC_RFO_hit 217875
Core_0_LLC_RFO_miss 321342
Core_0_LLC_prefetches 4661168
Core_0_LLC_prefetch_hit 2715433
Core_0_LLC_prefetch_miss 1945735
Core_0_LLC_writebacks 6379264
Core_0_LLC_writeback_hit 4128023
Core_0_LLC_writeback_miss 2251241
Core_0_LLC_prefetch_requested 0
Core_0_LLC_prefetch_dropped 0
Core_0_LLC_prefetch_issued 0
Core_0_LLC_prefetch_filled 2112965
Core_0_LLC_prefetch_useful 446553
Core_0_LLC_prefetch_useless 1665625
Core_0_LLC_prefetch_late 8814
Core_0_LLC_average_miss_latency 503.19250

Core_0_LLC_rq_access 48551628
Core_0_LLC_rq_forward 0
Core_0_LLC_rq_merged 0
Core_0_LLC_rq_to_cache 48551461
Core_0_LLC_rq_full 0

Core_0_LLC_wq_access 6379264
Core_0_LLC_wq_forward 174
Core_0_LLC_wq_merged 0
Core_0_LLC_wq_to_cache 6379264
Core_0_LLC_wq_full 0

Core_0_LLC_pq_access 4918819
Core_0_LLC_pq_forward 0
Core_0_LLC_pq_merged 48
Core_0_LLC_pq_to_cache 4918764
Core_0_LLC_pq_full 0

Core_0_LLC_acc_epochs 8499676
Core_0_LLC_acc_level_0 8162691
Core_0_LLC_acc_level_1 101811
Core_0_LLC_acc_level_2 95887
Core_0_LLC_acc_level_3 14366
Core_0_LLC_acc_level_4 6274
Core_0_LLC_acc_level_5 81985
Core_0_LLC_acc_level_6 8194
Core_0_LLC_acc_level_7 6685
Core_0_LLC_acc_level_8 3629
Core_0_LLC_acc_level_9 18154

Core_0_major_page_fault 0
Core_0_minor_page_fault 289215

spp.pref.total 8548782
spp.pref.at_L2 413381
spp.pref.at_LLC 8135401

spp.depth.max 6
spp.depth.min 0
spp.depth.avg 0

spp.breadth.max 2
spp.breadth.min 0
spp.breadth.avg 0

delta_1 4262561
delta_-1 3440745
delta_-2 1466867
delta_2 54745
delta_14 47360
delta_-7 14609
delta_6 12478
delta_41 11113
delta_-22 9660
delta_-4 6042
delta_25 5934
delta_-19 5906
delta_3 5615
delta_27 4940
delta_-25 4677
delta_4 4419
delta_-24 4407
delta_-27 4383
delta_17 4329
delta_26 4311
delta_29 3912
delta_-18 3765
delta_-46 3536
delta_-8 3359
delta_16 3300
delta_-9 3288
delta_5 3268
delta_-43 3213
delta_9 3162
delta_15 3120
delta_-29 2757
delta_-37 2734
delta_-14 2730
delta_-30 2725
delta_-11 2653
delta_11 2402
delta_8 2269
delta_21 2251
delta_-5 2232
delta_-12 2100
delta_31 1975
delta_7 1948
delta_19 1908
delta_-3 1843
delta_-45 1784
delta_-41 1746
delta_22 1647
delta_28 1614
delta_-6 1464
delta_-16 1446
delta_-17 1400
delta_-15 1387
delta_12 1354
delta_-31 1307
delta_-32 1303
delta_-10 1301
delta_-53 1236
delta_10 1208
delta_30 1205
delta_43 1183
delta_-23 1180
delta_48 1179
delta_18 1149
delta_-39 1139
delta_42 1103
delta_40 1100
delta_37 1099
delta_-59 1039
delta_-42 981
delta_-20 968
delta_-13 937
delta_-48 929
delta_13 892
delta_-21 820
delta_24 812
delta_-38 802
delta_-33 714
delta_34 699
delta_45 677
delta_-28 656
delta_-34 653
delta_46 592
delta_23 491
delta_47 476
delta_-35 469
delta_35 441
delta_33 425
delta_38 423
delta_39 379
delta_-61 364
delta_-50 344
delta_-36 333
delta_20 327
delta_-52 319
delta_-56 284
delta_44 274
delta_-26 252
delta_36 234
delta_51 230
delta_59 224
delta_50 219
delta_57 196
delta_32 175
delta_-44 124
delta_53 116
delta_-40 108
delta_52 92
delta_54 83
delta_-47 80
delta_49 68
delta_-49 61
delta_62 41
delta_-62 29
delta_63 23
delta_55 19
delta_60 9
delta_-63 9
delta_56 8
delta_-57 8
delta_58 3
delta_-54 3

depth_1_delta_1 4051847
depth_1_delta_-1 3413181
depth_1_delta_-2 1462728
depth_1_delta_2 54271
depth_1_delta_14 46863
depth_1_delta_-7 14180
depth_1_delta_6 11673
depth_1_delta_41 11010
depth_1_delta_-22 8849
depth_1_delta_-19 5893
depth_1_delta_-4 5862
depth_1_delta_25 5468
depth_1_delta_3 5459
depth_1_delta_27 4904
depth_1_delta_-25 4354
depth_1_delta_17 4323
depth_1_delta_-27 4208
depth_1_delta_4 4204
depth_1_delta_-24 4110
depth_1_delta_29 3781
depth_1_delta_-18 3765
depth_1_delta_-46 3413
depth_1_delta_26 3376
depth_1_delta_-8 3288
depth_1_delta_-9 3181
depth_1_delta_9 3038
depth_1_delta_16 3022
depth_1_delta_-43 3017
depth_1_delta_5 3007
depth_1_delta_15 2915
depth_1_delta_-37 2729
depth_1_delta_-14 2700
depth_1_delta_-29 2348
depth_1_delta_-11 2292
depth_1_delta_-30 2230
depth_1_delta_8 2221
depth_1_delta_-5 2159
depth_1_delta_11 2109
depth_1_delta_21 1953
depth_1_delta_19 1856
depth_1_delta_-12 1849
depth_1_delta_31 1845
depth_1_delta_-3 1842
depth_1_delta_-45 1667
depth_1_delta_7 1605
depth_1_delta_28 1591
depth_1_delta_-41 1558
depth_1_delta_22 1511
depth_1_delta_-6 1453
depth_1_delta_-16 1418
depth_1_delta_-17 1385
depth_1_delta_12 1335
depth_1_delta_-31 1299
depth_1_delta_-10 1296
depth_1_delta_-32 1282
depth_1_delta_-53 1236
depth_1_delta_-15 1231
depth_1_delta_10 1196
depth_1_delta_48 1179
depth_1_delta_43 1173
depth_1_delta_30 1167
depth_1_delta_18 1123
depth_1_delta_-39 1083
depth_1_delta_-59 1039
depth_1_delta_37 1030
depth_1_delta_-23 992
depth_1_delta_-20 956
depth_1_delta_-48 928
depth_1_delta_-13 923
depth_1_delta_40 921
depth_1_delta_42 901
depth_1_delta_-42 900
depth_1_delta_13 892
depth_1_delta_24 812
depth_1_delta_-38 798
depth_1_delta_-21 773
depth_1_delta_-33 677
depth_1_delta_45 675
depth_1_delta_-34 653
depth_1_delta_-28 625
depth_1_delta_46 592
depth_1_delta_34 535
depth_1_delta_-35 457
depth_1_delta_23 455
depth_1_delta_35 441
depth_1_delta_47 432
depth_1_delta_38 397
depth_1_delta_33 381
depth_1_delta_39 379
depth_1_delta_-61 364
depth_1_delta_-50 344
depth_1_delta_-36 333
depth_1_delta_20 325
depth_1_delta_-52 300
depth_1_delta_-56 284
depth_1_delta_-26 252
depth_1_delta_44 250
depth_1_delta_36 234
depth_1_delta_59 224
depth_1_delta_50 217
depth_1_delta_51 201
depth_1_delta_57 177
depth_1_delta_32 175
depth_1_delta_-44 124
depth_1_delta_53 116
depth_1_delta_-40 105
depth_1_delta_52 92
depth_1_delta_54 83
depth_1_delta_-47 80
depth_1_delta_49 68
depth_1_delta_-49 61
depth_1_delta_62 41
depth_1_delta_-62 29
depth_1_delta_63 23
depth_1_delta_55 19
depth_1_delta_-63 9
depth_1_delta_60 9
depth_1_delta_56 8
depth_1_delta_-57 8
depth_1_delta_58 3
depth_1_delta_-54 3
depth_2_delta_1 210636
depth_2_delta_-1 26334
depth_2_delta_-2 4132
depth_2_delta_-22 811
depth_2_delta_26 775
depth_2_delta_6 731
depth_2_delta_14 497
depth_2_delta_-30 477
depth_2_delta_25 463
depth_2_delta_2 457
depth_2_delta_-7 428
depth_2_delta_-29 409
depth_2_delta_-11 361
depth_2_delta_7 340
depth_2_delta_-25 323
depth_2_delta_21 298
depth_2_delta_-24 297
depth_2_delta_11 293
depth_2_delta_16 277
depth_2_delta_5 261
depth_2_delta_-12 251
depth_2_delta_4 215
depth_2_delta_42 202
depth_2_delta_15 199
depth_2_delta_-43 196
depth_2_delta_-23 188
depth_2_delta_-41 188
depth_2_delta_-4 180
depth_2_delta_40 179
depth_2_delta_34 164
depth_2_delta_-27 162
depth_2_delta_-15 156
depth_2_delta_3 156
depth_2_delta_22 136
depth_2_delta_29 131
depth_2_delta_31 130
depth_2_delta_9 124
depth_2_delta_-46 123
depth_2_delta_-45 115
depth_2_delta_-9 107
depth_2_delta_41 103
depth_2_delta_-42 81
depth_2_delta_-5 73
depth_2_delta_-8 71
depth_2_delta_37 69
depth_2_delta_-39 56
depth_2_delta_19 52
depth_2_delta_8 48
depth_2_delta_-21 47
depth_2_delta_33 44
depth_2_delta_47 44
depth_2_delta_30 38
depth_2_delta_-33 37
depth_2_delta_23 36
depth_2_delta_27 36
depth_2_delta_-28 31
depth_2_delta_-14 30
depth_2_delta_51 29
depth_2_delta_-16 28
depth_2_delta_18 26
depth_2_delta_38 26
depth_2_delta_44 24
depth_2_delta_28 23
depth_2_delta_-32 21
depth_2_delta_57 19
depth_2_delta_-52 19
depth_2_delta_12 19
depth_2_delta_-17 15
depth_2_delta_-13 14
depth_2_delta_-19 13
depth_2_delta_-20 12
depth_2_delta_-35 12
depth_2_delta_10 12
depth_2_delta_-6 11
depth_2_delta_43 10
depth_2_delta_-31 8
depth_2_delta_17 6
depth_2_delta_-37 5
depth_2_delta_-10 5
depth_2_delta_-38 4
depth_2_delta_-40 3
depth_2_delta_20 2
depth_2_delta_50 2
depth_2_delta_45 2
depth_2_delta_-48 1
depth_2_delta_-3 1
depth_3_delta_-1 1206
depth_3_delta_26 160
depth_3_delta_1 78
depth_3_delta_6 74
depth_3_delta_-30 18
depth_3_delta_2 17
depth_3_delta_-27 11
depth_3_delta_-2 7
depth_3_delta_15 6
depth_3_delta_7 3
depth_3_delta_25 3
depth_3_delta_-45 2
depth_3_delta_16 1
depth_3_delta_-7 1
depth_4_delta_-1 24
depth_4_delta_-27 2

Channel_0_RQ_row_buffer_hit 399903
Channel_0_RQ_row_buffer_miss 28692650
Channel_0_WQ_row_buffer_hit 1769269
Channel_0_WQ_row_buffer_miss 2598737
Channel_0_WQ_full 0
Channel_0_dbus_congested 29817105

avg_congested_cycle 131

DRAM_bw_pochs 33998702
DRAM_bw_level_0 10754474
DRAM_bw_level_1 0
DRAM_bw_level_2 0
DRAM_bw_level_3 23244228
