*************************************************
   ChampSim Multicore Out-of-Order Simulator
   Last compiled: Dec 11 2024 17:59:53
*************************************************
parsing config file: /home/functionmain/桌面/Pythia/config/bingo.ini

trace_0 /home/functionmain/桌面/Pythia/traces/429.mcf-192B.champsimtrace.xz
adding L2C_PREFETCHER: Bingo
Initialize SHIP state
warmup_instructions 100000000
simulation_instructions 500000000
champsim_seed 222
measure_ipc 0
measure_ipc_epoch 1000
measure_dram_bw 1
measure_dram_bw_epoch 256
measure_cache_acc 1
measure_cache_acc_epoch 1024
l1d_perfect 0
l2c_perfect 0
llc_perfect 0
l1d_semi_perfect 0
l2c_semi_perfect 0
llc_semi_perfect 0
semi_perfect_cache_page_buffer_size 64

num_cpus 1
cpu_freq 4000
dram_io_freq 1200
page_size 4096
block_size 64
max_read_per_cycle 8
max_fill_per_cycle 1
dram_channels 1
log2_dram_channels 0
dram_ranks 1
dram_banks 8
dram_rows 65536
dram_columns 128
dram_row_size 8
dram_size 4096
dram_pages 1048576

fetch_width 6
decode_width 6
exec_width 4
lq_width 2
sq_width 2
retire_width 4
scheduler_size 128
branch_mispredict_penalty 20
rob_size 256
lq_size 72
sq_size 56
num_instr_destinations_sparc 4
num_instr_destinations 2
num_instr_sources 4

itlb_set 16
itlb_way 8
itlb_rq_size 16
itlb_wq_size 16
itlb_pq_size 0
itlb_mshr_size 8
itlb_latency 1

dtlb_set 16
dtlb_way 4
dtlb_rq_size 16
dtlb_wq_size 16
dtlb_pq_size 0
dtlb_mshr_size 8
dtlb_latency 1

stlb_set 128
stlb_way 12
stlb_rq_size 32
stlb_wq_size 32
stlb_pq_size 0
stlb_mshr_size 16
stlb_latency 8

l1i_size 32
l1i_set 64
l1i_way 8
l1i_rq_size 64
l1i_wq_size 64
l1i_pq_size 8
l1i_mshr_size 8
l1i_latency 1

l1d_size 32
l1d_set 64
l1d_way 8
l1d_rq_size 64
l1d_wq_size 64
l1d_pq_size 8
l1d_mshr_size 16
l1d_latency 4

l2c_size 256
l2c_set 512
l2c_way 8
l2c_rq_size 32
l2c_wq_size 32
l2c_pq_size 32
l2c_mshr_size 32
l2c_latency 10

llc_size 2048
llc_set 2048
llc_way 16
llc_rq_size 32
llc_wq_size 32
llc_pq_size 32
llc_mshr_size 64
llc_latency 20

dram_channel_width 8
dram_wq_size 64
dram_rq_size 64
tRP 15
tRCD 15
tCAS 12.5
dram_dbus_turn_around_time 30
dram_write_high_wm 56
dram_write_low_wm 48
min_dram_writes_per_switch 16
dram_mtps 1200
dram_dbus_return_time 26

bingo_region_size 2048
bingo_pattern_len 32
bingo_pc_width 16
bingo_min_addr_width 5
bingo_max_addr_width 16
bingo_ft_size 64
bingo_at_size 128
bingo_pht_size 4096
bingo_pht_ways 16
bingo_pf_streamer_size 128
bingo_debug_level 0
bingo_l1d_thresh 1.01
bingo_l2c_thresh 0.8
bingo_llc_thresh 0.05
bingo_pc_address_fill_level L2


Heartbeat CPU  0 instructions:    1000002 cycles:    1179134 heartbeat IPC: 0.84808 cumulative IPC: 0.84808 (Simulation time: 0 hr 0 min 3 sec) 
Heartbeat CPU  0 instructions:    2000002 cycles:    2370240 heartbeat IPC: 0.83956 cumulative IPC: 0.84380 (Simulation time: 0 hr 0 min 6 sec) 
Heartbeat CPU  0 instructions:    3000000 cycles:    3543316 heartbeat IPC: 0.85246 cumulative IPC: 0.84666 (Simulation time: 0 hr 0 min 8 sec) 
Heartbeat CPU  0 instructions:    4000000 cycles:    4692077 heartbeat IPC: 0.87050 cumulative IPC: 0.85250 (Simulation time: 0 hr 0 min 11 sec) 
Heartbeat CPU  0 instructions:    5000001 cycles:    5860008 heartbeat IPC: 0.85622 cumulative IPC: 0.85324 (Simulation time: 0 hr 0 min 14 sec) 
Heartbeat CPU  0 instructions:    6000002 cycles:    7022918 heartbeat IPC: 0.85991 cumulative IPC: 0.85435 (Simulation time: 0 hr 0 min 17 sec) 
Heartbeat CPU  0 instructions:    7000000 cycles:    8204804 heartbeat IPC: 0.84610 cumulative IPC: 0.85316 (Simulation time: 0 hr 0 min 20 sec) 
Heartbeat CPU  0 instructions:    8000000 cycles:    9371010 heartbeat IPC: 0.85748 cumulative IPC: 0.85370 (Simulation time: 0 hr 0 min 23 sec) 
Heartbeat CPU  0 instructions:    9000002 cycles:   10546773 heartbeat IPC: 0.85051 cumulative IPC: 0.85334 (Simulation time: 0 hr 0 min 25 sec) 
Heartbeat CPU  0 instructions:   10000000 cycles:   11720099 heartbeat IPC: 0.85228 cumulative IPC: 0.85324 (Simulation time: 0 hr 0 min 28 sec) 
Heartbeat CPU  0 instructions:   11000003 cycles:   12866425 heartbeat IPC: 0.87235 cumulative IPC: 0.85494 (Simulation time: 0 hr 0 min 31 sec) 
Heartbeat CPU  0 instructions:   12000000 cycles:   13986657 heartbeat IPC: 0.89267 cumulative IPC: 0.85796 (Simulation time: 0 hr 0 min 34 sec) 
Heartbeat CPU  0 instructions:   13000001 cycles:   15137648 heartbeat IPC: 0.86882 cumulative IPC: 0.85879 (Simulation time: 0 hr 0 min 37 sec) 
Heartbeat CPU  0 instructions:   14000000 cycles:   16297364 heartbeat IPC: 0.86228 cumulative IPC: 0.85903 (Simulation time: 0 hr 0 min 40 sec) 
Heartbeat CPU  0 instructions:   15000000 cycles:   17471368 heartbeat IPC: 0.85179 cumulative IPC: 0.85855 (Simulation time: 0 hr 0 min 43 sec) 
Heartbeat CPU  0 instructions:   16000000 cycles:   18647940 heartbeat IPC: 0.84993 cumulative IPC: 0.85800 (Simulation time: 0 hr 0 min 45 sec) 
Heartbeat CPU  0 instructions:   17000001 cycles:   19831651 heartbeat IPC: 0.84480 cumulative IPC: 0.85722 (Simulation time: 0 hr 0 min 48 sec) 
Heartbeat CPU  0 instructions:   18000000 cycles:   21011378 heartbeat IPC: 0.84765 cumulative IPC: 0.85668 (Simulation time: 0 hr 0 min 51 sec) 
Heartbeat CPU  0 instructions:   19000003 cycles:   22175458 heartbeat IPC: 0.85905 cumulative IPC: 0.85680 (Simulation time: 0 hr 0 min 54 sec) 
Heartbeat CPU  0 instructions:   20000000 cycles:   23332602 heartbeat IPC: 0.86419 cumulative IPC: 0.85717 (Simulation time: 0 hr 0 min 57 sec) 
Heartbeat CPU  0 instructions:   21000000 cycles:   24497536 heartbeat IPC: 0.85842 cumulative IPC: 0.85723 (Simulation time: 0 hr 1 min 0 sec) 
Heartbeat CPU  0 instructions:   22000003 cycles:   25667171 heartbeat IPC: 0.85497 cumulative IPC: 0.85713 (Simulation time: 0 hr 1 min 3 sec) 
Heartbeat CPU  0 instructions:   23000001 cycles:   26821217 heartbeat IPC: 0.86651 cumulative IPC: 0.85753 (Simulation time: 0 hr 1 min 5 sec) 
Heartbeat CPU  0 instructions:   24000000 cycles:   27975566 heartbeat IPC: 0.86629 cumulative IPC: 0.85789 (Simulation time: 0 hr 1 min 8 sec) 
Heartbeat CPU  0 instructions:   25000001 cycles:   29129463 heartbeat IPC: 0.86663 cumulative IPC: 0.85824 (Simulation time: 0 hr 1 min 11 sec) 
Heartbeat CPU  0 instructions:   26000000 cycles:   30289565 heartbeat IPC: 0.86199 cumulative IPC: 0.85838 (Simulation time: 0 hr 1 min 14 sec) 
Heartbeat CPU  0 instructions:   27000000 cycles:   31450121 heartbeat IPC: 0.86166 cumulative IPC: 0.85850 (Simulation time: 0 hr 1 min 17 sec) 
Heartbeat CPU  0 instructions:   28000000 cycles:   32588215 heartbeat IPC: 0.87866 cumulative IPC: 0.85921 (Simulation time: 0 hr 1 min 20 sec) 
Heartbeat CPU  0 instructions:   29000000 cycles:   33771061 heartbeat IPC: 0.84542 cumulative IPC: 0.85872 (Simulation time: 0 hr 1 min 23 sec) 
Heartbeat CPU  0 instructions:   30000002 cycles:   34952454 heartbeat IPC: 0.84646 cumulative IPC: 0.85831 (Simulation time: 0 hr 1 min 26 sec) 
Heartbeat CPU  0 instructions:   31000002 cycles:   36140622 heartbeat IPC: 0.84163 cumulative IPC: 0.85776 (Simulation time: 0 hr 1 min 28 sec) 
Heartbeat CPU  0 instructions:   32000000 cycles:   37314845 heartbeat IPC: 0.85163 cumulative IPC: 0.85757 (Simulation time: 0 hr 1 min 31 sec) 
Heartbeat CPU  0 instructions:   33000000 cycles:   38486317 heartbeat IPC: 0.85363 cumulative IPC: 0.85745 (Simulation time: 0 hr 1 min 34 sec) 
Heartbeat CPU  0 instructions:   34000002 cycles:   39653603 heartbeat IPC: 0.85669 cumulative IPC: 0.85743 (Simulation time: 0 hr 1 min 37 sec) 
Heartbeat CPU  0 instructions:   35000000 cycles:   40833467 heartbeat IPC: 0.84755 cumulative IPC: 0.85714 (Simulation time: 0 hr 1 min 40 sec) 
Heartbeat CPU  0 instructions:   36000000 cycles:   42025293 heartbeat IPC: 0.83905 cumulative IPC: 0.85663 (Simulation time: 0 hr 1 min 42 sec) 
Heartbeat CPU  0 instructions:   37000001 cycles:   43210057 heartbeat IPC: 0.84405 cumulative IPC: 0.85628 (Simulation time: 0 hr 1 min 45 sec) 
Heartbeat CPU  0 instructions:   38000000 cycles:   44380922 heartbeat IPC: 0.85407 cumulative IPC: 0.85622 (Simulation time: 0 hr 1 min 48 sec) 
Heartbeat CPU  0 instructions:   39000000 cycles:   45550912 heartbeat IPC: 0.85471 cumulative IPC: 0.85618 (Simulation time: 0 hr 1 min 51 sec) 
Heartbeat CPU  0 instructions:   40000000 cycles:   46715173 heartbeat IPC: 0.85891 cumulative IPC: 0.85625 (Simulation time: 0 hr 1 min 54 sec) 
Heartbeat CPU  0 instructions:   41000001 cycles:   47926076 heartbeat IPC: 0.82583 cumulative IPC: 0.85548 (Simulation time: 0 hr 1 min 57 sec) 
Heartbeat CPU  0 instructions:   42000000 cycles:   49121276 heartbeat IPC: 0.83668 cumulative IPC: 0.85503 (Simulation time: 0 hr 2 min 0 sec) 
Heartbeat CPU  0 instructions:   43000000 cycles:   50309866 heartbeat IPC: 0.84133 cumulative IPC: 0.85470 (Simulation time: 0 hr 2 min 2 sec) 
Heartbeat CPU  0 instructions:   44000000 cycles:   51478621 heartbeat IPC: 0.85561 cumulative IPC: 0.85472 (Simulation time: 0 hr 2 min 5 sec) 
Heartbeat CPU  0 instructions:   45000000 cycles:   52646745 heartbeat IPC: 0.85607 cumulative IPC: 0.85475 (Simulation time: 0 hr 2 min 8 sec) 
Heartbeat CPU  0 instructions:   46000002 cycles:   53790100 heartbeat IPC: 0.87462 cumulative IPC: 0.85518 (Simulation time: 0 hr 2 min 11 sec) 
Heartbeat CPU  0 instructions:   47000000 cycles:   54953940 heartbeat IPC: 0.85922 cumulative IPC: 0.85526 (Simulation time: 0 hr 2 min 14 sec) 
Heartbeat CPU  0 instructions:   48000000 cycles:   56115343 heartbeat IPC: 0.86103 cumulative IPC: 0.85538 (Simulation time: 0 hr 2 min 16 sec) 
Heartbeat CPU  0 instructions:   49000001 cycles:   57281738 heartbeat IPC: 0.85734 cumulative IPC: 0.85542 (Simulation time: 0 hr 2 min 19 sec) 
Heartbeat CPU  0 instructions:   50000002 cycles:   58429531 heartbeat IPC: 0.87124 cumulative IPC: 0.85573 (Simulation time: 0 hr 2 min 22 sec) 
Heartbeat CPU  0 instructions:   51000000 cycles:   59572774 heartbeat IPC: 0.87470 cumulative IPC: 0.85610 (Simulation time: 0 hr 2 min 25 sec) 
Heartbeat CPU  0 instructions:   52000000 cycles:   60711264 heartbeat IPC: 0.87836 cumulative IPC: 0.85651 (Simulation time: 0 hr 2 min 28 sec) 
Heartbeat CPU  0 instructions:   53000001 cycles:   61847235 heartbeat IPC: 0.88031 cumulative IPC: 0.85695 (Simulation time: 0 hr 2 min 30 sec) 
Heartbeat CPU  0 instructions:   54000000 cycles:   62983027 heartbeat IPC: 0.88044 cumulative IPC: 0.85737 (Simulation time: 0 hr 2 min 33 sec) 
Heartbeat CPU  0 instructions:   55000001 cycles:   64118963 heartbeat IPC: 0.88033 cumulative IPC: 0.85778 (Simulation time: 0 hr 2 min 36 sec) 
Heartbeat CPU  0 instructions:   56000000 cycles:   65279025 heartbeat IPC: 0.86202 cumulative IPC: 0.85786 (Simulation time: 0 hr 2 min 39 sec) 
Heartbeat CPU  0 instructions:   57000000 cycles:   66428445 heartbeat IPC: 0.87000 cumulative IPC: 0.85807 (Simulation time: 0 hr 2 min 42 sec) 
Heartbeat CPU  0 instructions:   58000003 cycles:   67586685 heartbeat IPC: 0.86338 cumulative IPC: 0.85816 (Simulation time: 0 hr 2 min 44 sec) 
Heartbeat CPU  0 instructions:   59000003 cycles:   68755646 heartbeat IPC: 0.85546 cumulative IPC: 0.85811 (Simulation time: 0 hr 2 min 47 sec) 
Heartbeat CPU  0 instructions:   60000000 cycles:   69932097 heartbeat IPC: 0.85001 cumulative IPC: 0.85798 (Simulation time: 0 hr 2 min 50 sec) 
Heartbeat CPU  0 instructions:   61000002 cycles:   71120429 heartbeat IPC: 0.84152 cumulative IPC: 0.85770 (Simulation time: 0 hr 2 min 53 sec) 
Heartbeat CPU  0 instructions:   62000000 cycles:   72308706 heartbeat IPC: 0.84155 cumulative IPC: 0.85743 (Simulation time: 0 hr 2 min 56 sec) 
Heartbeat CPU  0 instructions:   63000000 cycles:   73509112 heartbeat IPC: 0.83305 cumulative IPC: 0.85704 (Simulation time: 0 hr 2 min 59 sec) 
Heartbeat CPU  0 instructions:   64000000 cycles:   74713642 heartbeat IPC: 0.83020 cumulative IPC: 0.85660 (Simulation time: 0 hr 3 min 1 sec) 
Heartbeat CPU  0 instructions:   65000000 cycles:   75921708 heartbeat IPC: 0.82777 cumulative IPC: 0.85615 (Simulation time: 0 hr 3 min 4 sec) 
Heartbeat CPU  0 instructions:   66000002 cycles:   77126348 heartbeat IPC: 0.83013 cumulative IPC: 0.85574 (Simulation time: 0 hr 3 min 7 sec) 
Heartbeat CPU  0 instructions:   67000001 cycles:   78317736 heartbeat IPC: 0.83936 cumulative IPC: 0.85549 (Simulation time: 0 hr 3 min 10 sec) 
Heartbeat CPU  0 instructions:   68000000 cycles:   79505507 heartbeat IPC: 0.84191 cumulative IPC: 0.85529 (Simulation time: 0 hr 3 min 13 sec) 
Heartbeat CPU  0 instructions:   69000001 cycles:   80692465 heartbeat IPC: 0.84249 cumulative IPC: 0.85510 (Simulation time: 0 hr 3 min 16 sec) 
Heartbeat CPU  0 instructions:   70000001 cycles:   81877614 heartbeat IPC: 0.84378 cumulative IPC: 0.85493 (Simulation time: 0 hr 3 min 19 sec) 
Heartbeat CPU  0 instructions:   71000003 cycles:   83058589 heartbeat IPC: 0.84676 cumulative IPC: 0.85482 (Simulation time: 0 hr 3 min 22 sec) 
Heartbeat CPU  0 instructions:   72000000 cycles:   84231554 heartbeat IPC: 0.85254 cumulative IPC: 0.85479 (Simulation time: 0 hr 3 min 24 sec) 
Heartbeat CPU  0 instructions:   73000000 cycles:   85417323 heartbeat IPC: 0.84333 cumulative IPC: 0.85463 (Simulation time: 0 hr 3 min 27 sec) 
Heartbeat CPU  0 instructions:   74000000 cycles:   86606194 heartbeat IPC: 0.84113 cumulative IPC: 0.85444 (Simulation time: 0 hr 3 min 30 sec) 
Heartbeat CPU  0 instructions:   75000001 cycles:   87766826 heartbeat IPC: 0.86160 cumulative IPC: 0.85454 (Simulation time: 0 hr 3 min 33 sec) 
Heartbeat CPU  0 instructions:   76000000 cycles:   88829288 heartbeat IPC: 0.94121 cumulative IPC: 0.85557 (Simulation time: 0 hr 3 min 36 sec) 
Heartbeat CPU  0 instructions:   77000000 cycles:   89811743 heartbeat IPC: 1.01786 cumulative IPC: 0.85735 (Simulation time: 0 hr 3 min 38 sec) 
Heartbeat CPU  0 instructions:   78000001 cycles:   91004751 heartbeat IPC: 0.83822 cumulative IPC: 0.85710 (Simulation time: 0 hr 3 min 41 sec) 
Heartbeat CPU  0 instructions:   79000003 cycles:   92202383 heartbeat IPC: 0.83498 cumulative IPC: 0.85681 (Simulation time: 0 hr 3 min 44 sec) 
Heartbeat CPU  0 instructions:   80000000 cycles:   93406417 heartbeat IPC: 0.83054 cumulative IPC: 0.85647 (Simulation time: 0 hr 3 min 47 sec) 
Heartbeat CPU  0 instructions:   81000003 cycles:   94591321 heartbeat IPC: 0.84395 cumulative IPC: 0.85632 (Simulation time: 0 hr 3 min 50 sec) 
Heartbeat CPU  0 instructions:   82000003 cycles:   95776552 heartbeat IPC: 0.84372 cumulative IPC: 0.85616 (Simulation time: 0 hr 3 min 53 sec) 
Heartbeat CPU  0 instructions:   83000003 cycles:   96953186 heartbeat IPC: 0.84988 cumulative IPC: 0.85608 (Simulation time: 0 hr 3 min 56 sec) 
Heartbeat CPU  0 instructions:   84000000 cycles:   98121172 heartbeat IPC: 0.85617 cumulative IPC: 0.85608 (Simulation time: 0 hr 3 min 59 sec) 
Heartbeat CPU  0 instructions:   85000001 cycles:   99291267 heartbeat IPC: 0.85463 cumulative IPC: 0.85607 (Simulation time: 0 hr 4 min 2 sec) 
Heartbeat CPU  0 instructions:   86000000 cycles:  100442689 heartbeat IPC: 0.86849 cumulative IPC: 0.85621 (Simulation time: 0 hr 4 min 4 sec) 
Heartbeat CPU  0 instructions:   87000001 cycles:  101614444 heartbeat IPC: 0.85342 cumulative IPC: 0.85618 (Simulation time: 0 hr 4 min 7 sec) 
Heartbeat CPU  0 instructions:   88000000 cycles:  102763205 heartbeat IPC: 0.87050 cumulative IPC: 0.85634 (Simulation time: 0 hr 4 min 10 sec) 
Heartbeat CPU  0 instructions:   89000000 cycles:  103939780 heartbeat IPC: 0.84992 cumulative IPC: 0.85627 (Simulation time: 0 hr 4 min 13 sec) 
Heartbeat CPU  0 instructions:   90000000 cycles:  105076889 heartbeat IPC: 0.87942 cumulative IPC: 0.85652 (Simulation time: 0 hr 4 min 16 sec) 
Heartbeat CPU  0 instructions:   91000003 cycles:  106208972 heartbeat IPC: 0.88333 cumulative IPC: 0.85680 (Simulation time: 0 hr 4 min 19 sec) 
Heartbeat CPU  0 instructions:   92000000 cycles:  107339234 heartbeat IPC: 0.88475 cumulative IPC: 0.85710 (Simulation time: 0 hr 4 min 22 sec) 
Heartbeat CPU  0 instructions:   93000002 cycles:  108468997 heartbeat IPC: 0.88514 cumulative IPC: 0.85739 (Simulation time: 0 hr 4 min 25 sec) 
Heartbeat CPU  0 instructions:   94000001 cycles:  109606052 heartbeat IPC: 0.87946 cumulative IPC: 0.85762 (Simulation time: 0 hr 4 min 27 sec) 
Heartbeat CPU  0 instructions:   95000001 cycles:  110770832 heartbeat IPC: 0.85853 cumulative IPC: 0.85763 (Simulation time: 0 hr 4 min 30 sec) 
Heartbeat CPU  0 instructions:   96000000 cycles:  111938206 heartbeat IPC: 0.85662 cumulative IPC: 0.85762 (Simulation time: 0 hr 4 min 33 sec) 
Heartbeat CPU  0 instructions:   97000000 cycles:  113104643 heartbeat IPC: 0.85731 cumulative IPC: 0.85761 (Simulation time: 0 hr 4 min 36 sec) 
Heartbeat CPU  0 instructions:   98000001 cycles:  114259863 heartbeat IPC: 0.86564 cumulative IPC: 0.85769 (Simulation time: 0 hr 4 min 39 sec) 
Heartbeat CPU  0 instructions:   99000000 cycles:  115432274 heartbeat IPC: 0.85294 cumulative IPC: 0.85765 (Simulation time: 0 hr 4 min 42 sec) 
Heartbeat CPU  0 instructions:  100000000 cycles:  116585575 heartbeat IPC: 0.86708 cumulative IPC: 0.85774 (Simulation time: 0 hr 4 min 45 sec) 

Warmup complete CPU  0 instructions:  100000002 cycles:  116585576 (Simulation time: 0 hr 4 min 45 sec) 

Heartbeat CPU  0 instructions:  101000000 cycles:  142419347 heartbeat IPC: 0.03871 cumulative IPC: 0.03871 (Simulation time: 0 hr 4 min 57 sec) 
Heartbeat CPU  0 instructions:  102000000 cycles:  168281919 heartbeat IPC: 0.03867 cumulative IPC: 0.03869 (Simulation time: 0 hr 5 min 8 sec) 
Heartbeat CPU  0 instructions:  103000000 cycles:  193398686 heartbeat IPC: 0.03981 cumulative IPC: 0.03906 (Simulation time: 0 hr 5 min 19 sec) 
Heartbeat CPU  0 instructions:  104000000 cycles:  218796610 heartbeat IPC: 0.03937 cumulative IPC: 0.03913 (Simulation time: 0 hr 5 min 31 sec) 
Heartbeat CPU  0 instructions:  105000000 cycles:  244654660 heartbeat IPC: 0.03867 cumulative IPC: 0.03904 (Simulation time: 0 hr 5 min 42 sec) 
Heartbeat CPU  0 instructions:  106000000 cycles:  270676125 heartbeat IPC: 0.03843 cumulative IPC: 0.03894 (Simulation time: 0 hr 5 min 53 sec) 
Heartbeat CPU  0 instructions:  107000001 cycles:  296435830 heartbeat IPC: 0.03882 cumulative IPC: 0.03892 (Simulation time: 0 hr 6 min 5 sec) 
Heartbeat CPU  0 instructions:  108000000 cycles:  322409685 heartbeat IPC: 0.03850 cumulative IPC: 0.03887 (Simulation time: 0 hr 6 min 16 sec) 
Heartbeat CPU  0 instructions:  109000000 cycles:  348233404 heartbeat IPC: 0.03872 cumulative IPC: 0.03885 (Simulation time: 0 hr 6 min 28 sec) 
Heartbeat CPU  0 instructions:  110000000 cycles:  374742522 heartbeat IPC: 0.03772 cumulative IPC: 0.03874 (Simulation time: 0 hr 6 min 40 sec) 
Heartbeat CPU  0 instructions:  111000001 cycles:  400638409 heartbeat IPC: 0.03862 cumulative IPC: 0.03873 (Simulation time: 0 hr 6 min 51 sec) 
Heartbeat CPU  0 instructions:  112000000 cycles:  426938569 heartbeat IPC: 0.03802 cumulative IPC: 0.03867 (Simulation time: 0 hr 7 min 3 sec) 
Heartbeat CPU  0 instructions:  113000000 cycles:  452963647 heartbeat IPC: 0.03842 cumulative IPC: 0.03865 (Simulation time: 0 hr 7 min 14 sec) 
Heartbeat CPU  0 instructions:  114000000 cycles:  478971934 heartbeat IPC: 0.03845 cumulative IPC: 0.03863 (Simulation time: 0 hr 7 min 26 sec) 
Heartbeat CPU  0 instructions:  115000001 cycles:  505089627 heartbeat IPC: 0.03829 cumulative IPC: 0.03861 (Simulation time: 0 hr 7 min 38 sec) 
Heartbeat CPU  0 instructions:  116000000 cycles:  531463099 heartbeat IPC: 0.03792 cumulative IPC: 0.03857 (Simulation time: 0 hr 7 min 49 sec) 
Heartbeat CPU  0 instructions:  117000000 cycles:  557634327 heartbeat IPC: 0.03821 cumulative IPC: 0.03854 (Simulation time: 0 hr 8 min 1 sec) 
Heartbeat CPU  0 instructions:  118000000 cycles:  583959398 heartbeat IPC: 0.03799 cumulative IPC: 0.03851 (Simulation time: 0 hr 8 min 13 sec) 
Heartbeat CPU  0 instructions:  119000002 cycles:  610046477 heartbeat IPC: 0.03833 cumulative IPC: 0.03850 (Simulation time: 0 hr 8 min 24 sec) 
Heartbeat CPU  0 instructions:  120000000 cycles:  635864917 heartbeat IPC: 0.03873 cumulative IPC: 0.03851 (Simulation time: 0 hr 8 min 36 sec) 
Heartbeat CPU  0 instructions:  121000000 cycles:  661550173 heartbeat IPC: 0.03893 cumulative IPC: 0.03853 (Simulation time: 0 hr 8 min 47 sec) 
Heartbeat CPU  0 instructions:  122000000 cycles:  687664315 heartbeat IPC: 0.03829 cumulative IPC: 0.03852 (Simulation time: 0 hr 8 min 59 sec) 
Heartbeat CPU  0 instructions:  123000000 cycles:  713932152 heartbeat IPC: 0.03807 cumulative IPC: 0.03850 (Simulation time: 0 hr 9 min 10 sec) 
Heartbeat CPU  0 instructions:  124000000 cycles:  740164540 heartbeat IPC: 0.03812 cumulative IPC: 0.03849 (Simulation time: 0 hr 9 min 22 sec) 
Heartbeat CPU  0 instructions:  125000000 cycles:  766099445 heartbeat IPC: 0.03856 cumulative IPC: 0.03849 (Simulation time: 0 hr 9 min 33 sec) 
Heartbeat CPU  0 instructions:  126000001 cycles:  792178308 heartbeat IPC: 0.03835 cumulative IPC: 0.03848 (Simulation time: 0 hr 9 min 45 sec) 
Heartbeat CPU  0 instructions:  127000001 cycles:  817960839 heartbeat IPC: 0.03879 cumulative IPC: 0.03850 (Simulation time: 0 hr 9 min 57 sec) 
Heartbeat CPU  0 instructions:  128000000 cycles:  843475226 heartbeat IPC: 0.03919 cumulative IPC: 0.03852 (Simulation time: 0 hr 10 min 8 sec) 
Heartbeat CPU  0 instructions:  129000002 cycles:  868687229 heartbeat IPC: 0.03966 cumulative IPC: 0.03856 (Simulation time: 0 hr 10 min 20 sec) 
Heartbeat CPU  0 instructions:  130000001 cycles:  894198117 heartbeat IPC: 0.03920 cumulative IPC: 0.03858 (Simulation time: 0 hr 10 min 31 sec) 
Heartbeat CPU  0 instructions:  131000001 cycles:  919424244 heartbeat IPC: 0.03964 cumulative IPC: 0.03861 (Simulation time: 0 hr 10 min 43 sec) 
Heartbeat CPU  0 instructions:  132000000 cycles:  944840124 heartbeat IPC: 0.03935 cumulative IPC: 0.03864 (Simulation time: 0 hr 10 min 54 sec) 
Heartbeat CPU  0 instructions:  133000000 cycles:  970243553 heartbeat IPC: 0.03936 cumulative IPC: 0.03866 (Simulation time: 0 hr 11 min 5 sec) 
Heartbeat CPU  0 instructions:  134000001 cycles:  995153396 heartbeat IPC: 0.04014 cumulative IPC: 0.03870 (Simulation time: 0 hr 11 min 17 sec) 
Heartbeat CPU  0 instructions:  135000000 cycles: 1020269729 heartbeat IPC: 0.03981 cumulative IPC: 0.03873 (Simulation time: 0 hr 11 min 28 sec) 
Heartbeat CPU  0 instructions:  136000000 cycles: 1045070234 heartbeat IPC: 0.04032 cumulative IPC: 0.03877 (Simulation time: 0 hr 11 min 40 sec) 
Heartbeat CPU  0 instructions:  137000000 cycles: 1070603452 heartbeat IPC: 0.03916 cumulative IPC: 0.03878 (Simulation time: 0 hr 11 min 51 sec) 
Heartbeat CPU  0 instructions:  138000000 cycles: 1095196277 heartbeat IPC: 0.04066 cumulative IPC: 0.03883 (Simulation time: 0 hr 12 min 2 sec) 
Heartbeat CPU  0 instructions:  139000000 cycles: 1120174145 heartbeat IPC: 0.04004 cumulative IPC: 0.03886 (Simulation time: 0 hr 12 min 13 sec) 
Heartbeat CPU  0 instructions:  140000000 cycles: 1145683067 heartbeat IPC: 0.03920 cumulative IPC: 0.03887 (Simulation time: 0 hr 12 min 24 sec) 
Heartbeat CPU  0 instructions:  141000000 cycles: 1170888359 heartbeat IPC: 0.03967 cumulative IPC: 0.03889 (Simulation time: 0 hr 12 min 36 sec) 
Heartbeat CPU  0 instructions:  142000001 cycles: 1195822099 heartbeat IPC: 0.04011 cumulative IPC: 0.03892 (Simulation time: 0 hr 12 min 47 sec) 
Heartbeat CPU  0 instructions:  143000003 cycles: 1221083125 heartbeat IPC: 0.03959 cumulative IPC: 0.03893 (Simulation time: 0 hr 12 min 58 sec) 
Heartbeat CPU  0 instructions:  144000000 cycles: 1246541871 heartbeat IPC: 0.03928 cumulative IPC: 0.03894 (Simulation time: 0 hr 13 min 10 sec) 
Heartbeat CPU  0 instructions:  145000000 cycles: 1272361863 heartbeat IPC: 0.03873 cumulative IPC: 0.03893 (Simulation time: 0 hr 13 min 21 sec) 
Heartbeat CPU  0 instructions:  146000001 cycles: 1298400118 heartbeat IPC: 0.03841 cumulative IPC: 0.03892 (Simulation time: 0 hr 13 min 33 sec) 
Heartbeat CPU  0 instructions:  147000002 cycles: 1324145679 heartbeat IPC: 0.03884 cumulative IPC: 0.03892 (Simulation time: 0 hr 13 min 44 sec) 
Heartbeat CPU  0 instructions:  148000000 cycles: 1350133098 heartbeat IPC: 0.03848 cumulative IPC: 0.03891 (Simulation time: 0 hr 13 min 56 sec) 
Heartbeat CPU  0 instructions:  149000000 cycles: 1376292120 heartbeat IPC: 0.03823 cumulative IPC: 0.03890 (Simulation time: 0 hr 14 min 8 sec) 
Heartbeat CPU  0 instructions:  150000000 cycles: 1402319193 heartbeat IPC: 0.03842 cumulative IPC: 0.03889 (Simulation time: 0 hr 14 min 19 sec) 
Heartbeat CPU  0 instructions:  151000000 cycles: 1428893814 heartbeat IPC: 0.03763 cumulative IPC: 0.03886 (Simulation time: 0 hr 14 min 31 sec) 
Heartbeat CPU  0 instructions:  152000000 cycles: 1454704696 heartbeat IPC: 0.03874 cumulative IPC: 0.03886 (Simulation time: 0 hr 14 min 42 sec) 
Heartbeat CPU  0 instructions:  153000000 cycles: 1478703594 heartbeat IPC: 0.04167 cumulative IPC: 0.03891 (Simulation time: 0 hr 14 min 53 sec) 
Heartbeat CPU  0 instructions:  154000000 cycles: 1504797615 heartbeat IPC: 0.03832 cumulative IPC: 0.03890 (Simulation time: 0 hr 15 min 5 sec) 
Heartbeat CPU  0 instructions:  155000000 cycles: 1531145374 heartbeat IPC: 0.03795 cumulative IPC: 0.03888 (Simulation time: 0 hr 15 min 16 sec) 
Heartbeat CPU  0 instructions:  156000000 cycles: 1557281442 heartbeat IPC: 0.03826 cumulative IPC: 0.03887 (Simulation time: 0 hr 15 min 28 sec) 
Heartbeat CPU  0 instructions:  157000000 cycles: 1583696954 heartbeat IPC: 0.03786 cumulative IPC: 0.03885 (Simulation time: 0 hr 15 min 39 sec) 
Heartbeat CPU  0 instructions:  158000000 cycles: 1609947423 heartbeat IPC: 0.03809 cumulative IPC: 0.03884 (Simulation time: 0 hr 15 min 51 sec) 
Heartbeat CPU  0 instructions:  159000000 cycles: 1636248248 heartbeat IPC: 0.03802 cumulative IPC: 0.03882 (Simulation time: 0 hr 16 min 3 sec) 
Heartbeat CPU  0 instructions:  160000000 cycles: 1662621235 heartbeat IPC: 0.03792 cumulative IPC: 0.03881 (Simulation time: 0 hr 16 min 14 sec) 
Heartbeat CPU  0 instructions:  161000001 cycles: 1689001040 heartbeat IPC: 0.03791 cumulative IPC: 0.03879 (Simulation time: 0 hr 16 min 26 sec) 
Heartbeat CPU  0 instructions:  162000000 cycles: 1715374305 heartbeat IPC: 0.03792 cumulative IPC: 0.03878 (Simulation time: 0 hr 16 min 37 sec) 
Heartbeat CPU  0 instructions:  163000002 cycles: 1742007853 heartbeat IPC: 0.03755 cumulative IPC: 0.03876 (Simulation time: 0 hr 16 min 49 sec) 
Heartbeat CPU  0 instructions:  164000000 cycles: 1768802340 heartbeat IPC: 0.03732 cumulative IPC: 0.03874 (Simulation time: 0 hr 17 min 1 sec) 
Heartbeat CPU  0 instructions:  165000001 cycles: 1795155851 heartbeat IPC: 0.03795 cumulative IPC: 0.03872 (Simulation time: 0 hr 17 min 13 sec) 
Heartbeat CPU  0 instructions:  166000000 cycles: 1821643933 heartbeat IPC: 0.03775 cumulative IPC: 0.03871 (Simulation time: 0 hr 17 min 25 sec) 
Heartbeat CPU  0 instructions:  167000000 cycles: 1848432683 heartbeat IPC: 0.03733 cumulative IPC: 0.03869 (Simulation time: 0 hr 17 min 36 sec) 
Heartbeat CPU  0 instructions:  168000000 cycles: 1874867790 heartbeat IPC: 0.03783 cumulative IPC: 0.03867 (Simulation time: 0 hr 17 min 48 sec) 
Heartbeat CPU  0 instructions:  169000000 cycles: 1901340138 heartbeat IPC: 0.03778 cumulative IPC: 0.03866 (Simulation time: 0 hr 18 min 0 sec) 
Heartbeat CPU  0 instructions:  170000000 cycles: 1928099836 heartbeat IPC: 0.03737 cumulative IPC: 0.03864 (Simulation time: 0 hr 18 min 12 sec) 
Heartbeat CPU  0 instructions:  171000000 cycles: 1954837420 heartbeat IPC: 0.03740 cumulative IPC: 0.03862 (Simulation time: 0 hr 18 min 24 sec) 
Heartbeat CPU  0 instructions:  172000000 cycles: 1981364768 heartbeat IPC: 0.03770 cumulative IPC: 0.03861 (Simulation time: 0 hr 18 min 36 sec) 
Heartbeat CPU  0 instructions:  173000000 cycles: 2007335899 heartbeat IPC: 0.03850 cumulative IPC: 0.03861 (Simulation time: 0 hr 18 min 47 sec) 
Heartbeat CPU  0 instructions:  174000002 cycles: 2033314557 heartbeat IPC: 0.03849 cumulative IPC: 0.03861 (Simulation time: 0 hr 19 min 3 sec) 
Heartbeat CPU  0 instructions:  175000001 cycles: 2059476328 heartbeat IPC: 0.03822 cumulative IPC: 0.03860 (Simulation time: 0 hr 19 min 17 sec) 
Heartbeat CPU  0 instructions:  176000000 cycles: 2085307882 heartbeat IPC: 0.03871 cumulative IPC: 0.03860 (Simulation time: 0 hr 19 min 30 sec) 
Heartbeat CPU  0 instructions:  177000002 cycles: 2111203869 heartbeat IPC: 0.03862 cumulative IPC: 0.03860 (Simulation time: 0 hr 19 min 43 sec) 
Heartbeat CPU  0 instructions:  178000001 cycles: 2137137568 heartbeat IPC: 0.03856 cumulative IPC: 0.03860 (Simulation time: 0 hr 19 min 56 sec) 
Heartbeat CPU  0 instructions:  179000001 cycles: 2162904452 heartbeat IPC: 0.03881 cumulative IPC: 0.03861 (Simulation time: 0 hr 20 min 9 sec) 
Heartbeat CPU  0 instructions:  180000000 cycles: 2189031722 heartbeat IPC: 0.03827 cumulative IPC: 0.03860 (Simulation time: 0 hr 20 min 21 sec) 
Heartbeat CPU  0 instructions:  181000002 cycles: 2215422587 heartbeat IPC: 0.03789 cumulative IPC: 0.03859 (Simulation time: 0 hr 20 min 34 sec) 
Heartbeat CPU  0 instructions:  182000000 cycles: 2241523305 heartbeat IPC: 0.03831 cumulative IPC: 0.03859 (Simulation time: 0 hr 20 min 46 sec) 
Heartbeat CPU  0 instructions:  183000002 cycles: 2267559396 heartbeat IPC: 0.03841 cumulative IPC: 0.03859 (Simulation time: 0 hr 20 min 59 sec) 
Heartbeat CPU  0 instructions:  184000000 cycles: 2293719335 heartbeat IPC: 0.03823 cumulative IPC: 0.03858 (Simulation time: 0 hr 21 min 11 sec) 
Heartbeat CPU  0 instructions:  185000001 cycles: 2319279732 heartbeat IPC: 0.03912 cumulative IPC: 0.03859 (Simulation time: 0 hr 21 min 23 sec) 
Heartbeat CPU  0 instructions:  186000000 cycles: 2344973511 heartbeat IPC: 0.03892 cumulative IPC: 0.03859 (Simulation time: 0 hr 21 min 35 sec) 
Heartbeat CPU  0 instructions:  187000000 cycles: 2370474734 heartbeat IPC: 0.03921 cumulative IPC: 0.03860 (Simulation time: 0 hr 21 min 47 sec) 
Heartbeat CPU  0 instructions:  188000000 cycles: 2396720915 heartbeat IPC: 0.03810 cumulative IPC: 0.03859 (Simulation time: 0 hr 22 min 0 sec) 
Heartbeat CPU  0 instructions:  189000000 cycles: 2423126944 heartbeat IPC: 0.03787 cumulative IPC: 0.03859 (Simulation time: 0 hr 22 min 12 sec) 
Heartbeat CPU  0 instructions:  190000000 cycles: 2449325446 heartbeat IPC: 0.03817 cumulative IPC: 0.03858 (Simulation time: 0 hr 22 min 24 sec) 
Heartbeat CPU  0 instructions:  191000000 cycles: 2475687973 heartbeat IPC: 0.03793 cumulative IPC: 0.03857 (Simulation time: 0 hr 22 min 37 sec) 
Heartbeat CPU  0 instructions:  192000000 cycles: 2502105606 heartbeat IPC: 0.03785 cumulative IPC: 0.03857 (Simulation time: 0 hr 22 min 49 sec) 
Heartbeat CPU  0 instructions:  193000001 cycles: 2528527578 heartbeat IPC: 0.03785 cumulative IPC: 0.03856 (Simulation time: 0 hr 23 min 3 sec) 
Heartbeat CPU  0 instructions:  194000001 cycles: 2554921708 heartbeat IPC: 0.03789 cumulative IPC: 0.03855 (Simulation time: 0 hr 23 min 16 sec) 
Heartbeat CPU  0 instructions:  195000000 cycles: 2581151274 heartbeat IPC: 0.03812 cumulative IPC: 0.03855 (Simulation time: 0 hr 23 min 29 sec) 
Heartbeat CPU  0 instructions:  196000000 cycles: 2607175740 heartbeat IPC: 0.03843 cumulative IPC: 0.03855 (Simulation time: 0 hr 23 min 43 sec) 
Heartbeat CPU  0 instructions:  197000000 cycles: 2633581752 heartbeat IPC: 0.03787 cumulative IPC: 0.03854 (Simulation time: 0 hr 23 min 56 sec) 
Heartbeat CPU  0 instructions:  198000001 cycles: 2660208443 heartbeat IPC: 0.03756 cumulative IPC: 0.03853 (Simulation time: 0 hr 24 min 10 sec) 
Heartbeat CPU  0 instructions:  199000001 cycles: 2686536929 heartbeat IPC: 0.03798 cumulative IPC: 0.03852 (Simulation time: 0 hr 24 min 23 sec) 
Heartbeat CPU  0 instructions:  200000000 cycles: 2712915841 heartbeat IPC: 0.03791 cumulative IPC: 0.03852 (Simulation time: 0 hr 24 min 37 sec) 
Heartbeat CPU  0 instructions:  201000000 cycles: 2739291867 heartbeat IPC: 0.03791 cumulative IPC: 0.03851 (Simulation time: 0 hr 24 min 51 sec) 
Heartbeat CPU  0 instructions:  202000000 cycles: 2765312923 heartbeat IPC: 0.03843 cumulative IPC: 0.03851 (Simulation time: 0 hr 25 min 3 sec) 
Heartbeat CPU  0 instructions:  203000003 cycles: 2791181479 heartbeat IPC: 0.03866 cumulative IPC: 0.03851 (Simulation time: 0 hr 25 min 16 sec) 
Heartbeat CPU  0 instructions:  204000000 cycles: 2816769619 heartbeat IPC: 0.03908 cumulative IPC: 0.03852 (Simulation time: 0 hr 25 min 27 sec) 
Heartbeat CPU  0 instructions:  205000000 cycles: 2842648219 heartbeat IPC: 0.03864 cumulative IPC: 0.03852 (Simulation time: 0 hr 25 min 39 sec) 
Heartbeat CPU  0 instructions:  206000000 cycles: 2868564240 heartbeat IPC: 0.03859 cumulative IPC: 0.03852 (Simulation time: 0 hr 25 min 50 sec) 
Heartbeat CPU  0 instructions:  207000000 cycles: 2894457559 heartbeat IPC: 0.03862 cumulative IPC: 0.03852 (Simulation time: 0 hr 26 min 2 sec) 
Heartbeat CPU  0 instructions:  208000000 cycles: 2920225307 heartbeat IPC: 0.03881 cumulative IPC: 0.03852 (Simulation time: 0 hr 26 min 14 sec) 
Heartbeat CPU  0 instructions:  209000002 cycles: 2946200569 heartbeat IPC: 0.03850 cumulative IPC: 0.03852 (Simulation time: 0 hr 26 min 26 sec) 
Heartbeat CPU  0 instructions:  210000002 cycles: 2972103458 heartbeat IPC: 0.03861 cumulative IPC: 0.03852 (Simulation time: 0 hr 26 min 37 sec) 
Heartbeat CPU  0 instructions:  211000000 cycles: 2997848675 heartbeat IPC: 0.03884 cumulative IPC: 0.03852 (Simulation time: 0 hr 26 min 49 sec) 
Heartbeat CPU  0 instructions:  212000000 cycles: 3023840339 heartbeat IPC: 0.03847 cumulative IPC: 0.03852 (Simulation time: 0 hr 27 min 0 sec) 
Heartbeat CPU  0 instructions:  213000000 cycles: 3050112807 heartbeat IPC: 0.03806 cumulative IPC: 0.03852 (Simulation time: 0 hr 27 min 12 sec) 
Heartbeat CPU  0 instructions:  214000000 cycles: 3076223751 heartbeat IPC: 0.03830 cumulative IPC: 0.03852 (Simulation time: 0 hr 27 min 24 sec) 
Heartbeat CPU  0 instructions:  215000000 cycles: 3102294953 heartbeat IPC: 0.03836 cumulative IPC: 0.03852 (Simulation time: 0 hr 27 min 35 sec) 
Heartbeat CPU  0 instructions:  216000000 cycles: 3128413242 heartbeat IPC: 0.03829 cumulative IPC: 0.03851 (Simulation time: 0 hr 27 min 47 sec) 
Heartbeat CPU  0 instructions:  217000002 cycles: 3154786275 heartbeat IPC: 0.03792 cumulative IPC: 0.03851 (Simulation time: 0 hr 27 min 59 sec) 
Heartbeat CPU  0 instructions:  218000003 cycles: 3181115797 heartbeat IPC: 0.03798 cumulative IPC: 0.03851 (Simulation time: 0 hr 28 min 11 sec) 
Heartbeat CPU  0 instructions:  219000001 cycles: 3207392452 heartbeat IPC: 0.03806 cumulative IPC: 0.03850 (Simulation time: 0 hr 28 min 22 sec) 
Heartbeat CPU  0 instructions:  220000000 cycles: 3233331970 heartbeat IPC: 0.03855 cumulative IPC: 0.03850 (Simulation time: 0 hr 28 min 34 sec) 
Heartbeat CPU  0 instructions:  221000000 cycles: 3258803550 heartbeat IPC: 0.03926 cumulative IPC: 0.03851 (Simulation time: 0 hr 28 min 45 sec) 
Heartbeat CPU  0 instructions:  222000000 cycles: 3284851349 heartbeat IPC: 0.03839 cumulative IPC: 0.03851 (Simulation time: 0 hr 28 min 57 sec) 
Heartbeat CPU  0 instructions:  223000000 cycles: 3310631429 heartbeat IPC: 0.03879 cumulative IPC: 0.03851 (Simulation time: 0 hr 29 min 8 sec) 
Heartbeat CPU  0 instructions:  224000000 cycles: 3335999935 heartbeat IPC: 0.03942 cumulative IPC: 0.03852 (Simulation time: 0 hr 29 min 20 sec) 
Heartbeat CPU  0 instructions:  225000000 cycles: 3362144421 heartbeat IPC: 0.03825 cumulative IPC: 0.03851 (Simulation time: 0 hr 29 min 31 sec) 
Heartbeat CPU  0 instructions:  226000001 cycles: 3387972262 heartbeat IPC: 0.03872 cumulative IPC: 0.03852 (Simulation time: 0 hr 29 min 43 sec) 
Heartbeat CPU  0 instructions:  227000002 cycles: 3413604285 heartbeat IPC: 0.03901 cumulative IPC: 0.03852 (Simulation time: 0 hr 29 min 54 sec) 
Heartbeat CPU  0 instructions:  228000000 cycles: 3439213029 heartbeat IPC: 0.03905 cumulative IPC: 0.03852 (Simulation time: 0 hr 30 min 5 sec) 
Heartbeat CPU  0 instructions:  229000000 cycles: 3464384950 heartbeat IPC: 0.03973 cumulative IPC: 0.03853 (Simulation time: 0 hr 30 min 16 sec) 
Heartbeat CPU  0 instructions:  230000001 cycles: 3489330253 heartbeat IPC: 0.04009 cumulative IPC: 0.03854 (Simulation time: 0 hr 30 min 28 sec) 
Heartbeat CPU  0 instructions:  231000000 cycles: 3514531844 heartbeat IPC: 0.03968 cumulative IPC: 0.03855 (Simulation time: 0 hr 30 min 39 sec) 
Heartbeat CPU  0 instructions:  232000000 cycles: 3538572777 heartbeat IPC: 0.04160 cumulative IPC: 0.03857 (Simulation time: 0 hr 30 min 50 sec) 
Heartbeat CPU  0 instructions:  233000000 cycles: 3563218333 heartbeat IPC: 0.04058 cumulative IPC: 0.03859 (Simulation time: 0 hr 31 min 1 sec) 
Heartbeat CPU  0 instructions:  234000000 cycles: 3588165623 heartbeat IPC: 0.04008 cumulative IPC: 0.03860 (Simulation time: 0 hr 31 min 12 sec) 
Heartbeat CPU  0 instructions:  235000000 cycles: 3613820919 heartbeat IPC: 0.03898 cumulative IPC: 0.03860 (Simulation time: 0 hr 31 min 23 sec) 
Heartbeat CPU  0 instructions:  236000000 cycles: 3639361717 heartbeat IPC: 0.03915 cumulative IPC: 0.03861 (Simulation time: 0 hr 31 min 35 sec) 
Heartbeat CPU  0 instructions:  237000001 cycles: 3665174904 heartbeat IPC: 0.03874 cumulative IPC: 0.03861 (Simulation time: 0 hr 31 min 46 sec) 
Heartbeat CPU  0 instructions:  238000000 cycles: 3690878591 heartbeat IPC: 0.03890 cumulative IPC: 0.03861 (Simulation time: 0 hr 31 min 58 sec) 
Heartbeat CPU  0 instructions:  239000002 cycles: 3716315897 heartbeat IPC: 0.03931 cumulative IPC: 0.03861 (Simulation time: 0 hr 32 min 10 sec) 
Heartbeat CPU  0 instructions:  240000000 cycles: 3742241470 heartbeat IPC: 0.03857 cumulative IPC: 0.03861 (Simulation time: 0 hr 32 min 21 sec) 
Heartbeat CPU  0 instructions:  241000000 cycles: 3767961770 heartbeat IPC: 0.03888 cumulative IPC: 0.03862 (Simulation time: 0 hr 32 min 33 sec) 
Heartbeat CPU  0 instructions:  242000000 cycles: 3793716656 heartbeat IPC: 0.03883 cumulative IPC: 0.03862 (Simulation time: 0 hr 32 min 45 sec) 
Heartbeat CPU  0 instructions:  243000001 cycles: 3819563466 heartbeat IPC: 0.03869 cumulative IPC: 0.03862 (Simulation time: 0 hr 32 min 56 sec) 
Heartbeat CPU  0 instructions:  244000000 cycles: 3845608909 heartbeat IPC: 0.03839 cumulative IPC: 0.03862 (Simulation time: 0 hr 33 min 8 sec) 
Heartbeat CPU  0 instructions:  245000000 cycles: 3871585597 heartbeat IPC: 0.03850 cumulative IPC: 0.03862 (Simulation time: 0 hr 33 min 20 sec) 
Heartbeat CPU  0 instructions:  246000000 cycles: 3897792601 heartbeat IPC: 0.03816 cumulative IPC: 0.03861 (Simulation time: 0 hr 33 min 32 sec) 
Heartbeat CPU  0 instructions:  247000000 cycles: 3923970286 heartbeat IPC: 0.03820 cumulative IPC: 0.03861 (Simulation time: 0 hr 33 min 44 sec) 
Heartbeat CPU  0 instructions:  248000000 cycles: 3950076394 heartbeat IPC: 0.03831 cumulative IPC: 0.03861 (Simulation time: 0 hr 33 min 55 sec) 
Heartbeat CPU  0 instructions:  249000003 cycles: 3976537924 heartbeat IPC: 0.03779 cumulative IPC: 0.03860 (Simulation time: 0 hr 34 min 7 sec) 
Heartbeat CPU  0 instructions:  250000002 cycles: 4002670856 heartbeat IPC: 0.03827 cumulative IPC: 0.03860 (Simulation time: 0 hr 34 min 19 sec) 
Heartbeat CPU  0 instructions:  251000000 cycles: 4028641130 heartbeat IPC: 0.03851 cumulative IPC: 0.03860 (Simulation time: 0 hr 34 min 31 sec) 
Heartbeat CPU  0 instructions:  252000000 cycles: 4054751314 heartbeat IPC: 0.03830 cumulative IPC: 0.03860 (Simulation time: 0 hr 34 min 42 sec) 
Heartbeat CPU  0 instructions:  253000000 cycles: 4081180992 heartbeat IPC: 0.03784 cumulative IPC: 0.03859 (Simulation time: 0 hr 34 min 54 sec) 
Heartbeat CPU  0 instructions:  254000000 cycles: 4107561477 heartbeat IPC: 0.03791 cumulative IPC: 0.03859 (Simulation time: 0 hr 35 min 6 sec) 
Heartbeat CPU  0 instructions:  255000002 cycles: 4133853191 heartbeat IPC: 0.03803 cumulative IPC: 0.03858 (Simulation time: 0 hr 35 min 17 sec) 
Heartbeat CPU  0 instructions:  256000000 cycles: 4160212305 heartbeat IPC: 0.03794 cumulative IPC: 0.03858 (Simulation time: 0 hr 35 min 29 sec) 
Heartbeat CPU  0 instructions:  257000000 cycles: 4186200800 heartbeat IPC: 0.03848 cumulative IPC: 0.03858 (Simulation time: 0 hr 35 min 41 sec) 
Heartbeat CPU  0 instructions:  258000002 cycles: 4212311352 heartbeat IPC: 0.03830 cumulative IPC: 0.03858 (Simulation time: 0 hr 35 min 52 sec) 
Heartbeat CPU  0 instructions:  259000001 cycles: 4238558780 heartbeat IPC: 0.03810 cumulative IPC: 0.03857 (Simulation time: 0 hr 36 min 4 sec) 
Heartbeat CPU  0 instructions:  260000000 cycles: 4264643310 heartbeat IPC: 0.03834 cumulative IPC: 0.03857 (Simulation time: 0 hr 36 min 16 sec) 
Heartbeat CPU  0 instructions:  261000002 cycles: 4290944176 heartbeat IPC: 0.03802 cumulative IPC: 0.03857 (Simulation time: 0 hr 36 min 28 sec) 
Heartbeat CPU  0 instructions:  262000001 cycles: 4317013846 heartbeat IPC: 0.03836 cumulative IPC: 0.03857 (Simulation time: 0 hr 36 min 39 sec) 
Heartbeat CPU  0 instructions:  263000000 cycles: 4342585946 heartbeat IPC: 0.03911 cumulative IPC: 0.03857 (Simulation time: 0 hr 36 min 51 sec) 
Heartbeat CPU  0 instructions:  264000000 cycles: 4369151839 heartbeat IPC: 0.03764 cumulative IPC: 0.03856 (Simulation time: 0 hr 37 min 2 sec) 
Heartbeat CPU  0 instructions:  265000000 cycles: 4395120874 heartbeat IPC: 0.03851 cumulative IPC: 0.03856 (Simulation time: 0 hr 37 min 14 sec) 
Heartbeat CPU  0 instructions:  266000000 cycles: 4418794736 heartbeat IPC: 0.04224 cumulative IPC: 0.03858 (Simulation time: 0 hr 37 min 25 sec) 
Heartbeat CPU  0 instructions:  267000003 cycles: 4445465820 heartbeat IPC: 0.03749 cumulative IPC: 0.03858 (Simulation time: 0 hr 37 min 36 sec) 
Heartbeat CPU  0 instructions:  268000000 cycles: 4472135925 heartbeat IPC: 0.03750 cumulative IPC: 0.03857 (Simulation time: 0 hr 37 min 48 sec) 
Heartbeat CPU  0 instructions:  269000000 cycles: 4498427914 heartbeat IPC: 0.03803 cumulative IPC: 0.03857 (Simulation time: 0 hr 38 min 0 sec) 
Heartbeat CPU  0 instructions:  270000000 cycles: 4525122473 heartbeat IPC: 0.03746 cumulative IPC: 0.03856 (Simulation time: 0 hr 38 min 11 sec) 
Heartbeat CPU  0 instructions:  271000000 cycles: 4551763418 heartbeat IPC: 0.03754 cumulative IPC: 0.03856 (Simulation time: 0 hr 38 min 23 sec) 
Heartbeat CPU  0 instructions:  272000000 cycles: 4578037558 heartbeat IPC: 0.03806 cumulative IPC: 0.03855 (Simulation time: 0 hr 38 min 35 sec) 
Heartbeat CPU  0 instructions:  273000000 cycles: 4604618603 heartbeat IPC: 0.03762 cumulative IPC: 0.03855 (Simulation time: 0 hr 38 min 47 sec) 
Heartbeat CPU  0 instructions:  274000000 cycles: 4630953481 heartbeat IPC: 0.03797 cumulative IPC: 0.03854 (Simulation time: 0 hr 38 min 58 sec) 
Heartbeat CPU  0 instructions:  275000001 cycles: 4657341372 heartbeat IPC: 0.03790 cumulative IPC: 0.03854 (Simulation time: 0 hr 39 min 10 sec) 
Heartbeat CPU  0 instructions:  276000000 cycles: 4683777113 heartbeat IPC: 0.03783 cumulative IPC: 0.03854 (Simulation time: 0 hr 39 min 22 sec) 
Heartbeat CPU  0 instructions:  277000001 cycles: 4709926192 heartbeat IPC: 0.03824 cumulative IPC: 0.03853 (Simulation time: 0 hr 39 min 34 sec) 
Heartbeat CPU  0 instructions:  278000000 cycles: 4736436438 heartbeat IPC: 0.03772 cumulative IPC: 0.03853 (Simulation time: 0 hr 39 min 46 sec) 
Heartbeat CPU  0 instructions:  279000003 cycles: 4762833104 heartbeat IPC: 0.03788 cumulative IPC: 0.03853 (Simulation time: 0 hr 39 min 57 sec) 
Heartbeat CPU  0 instructions:  280000000 cycles: 4789177076 heartbeat IPC: 0.03796 cumulative IPC: 0.03852 (Simulation time: 0 hr 40 min 9 sec) 
Heartbeat CPU  0 instructions:  281000001 cycles: 4815517793 heartbeat IPC: 0.03796 cumulative IPC: 0.03852 (Simulation time: 0 hr 40 min 21 sec) 
Heartbeat CPU  0 instructions:  282000000 cycles: 4841842097 heartbeat IPC: 0.03799 cumulative IPC: 0.03852 (Simulation time: 0 hr 40 min 32 sec) 
Heartbeat CPU  0 instructions:  283000000 cycles: 4867985110 heartbeat IPC: 0.03825 cumulative IPC: 0.03851 (Simulation time: 0 hr 40 min 44 sec) 
Heartbeat CPU  0 instructions:  284000000 cycles: 4894419788 heartbeat IPC: 0.03783 cumulative IPC: 0.03851 (Simulation time: 0 hr 40 min 56 sec) 
Heartbeat CPU  0 instructions:  285000001 cycles: 4920672530 heartbeat IPC: 0.03809 cumulative IPC: 0.03851 (Simulation time: 0 hr 41 min 8 sec) 
Heartbeat CPU  0 instructions:  286000001 cycles: 4947391435 heartbeat IPC: 0.03743 cumulative IPC: 0.03850 (Simulation time: 0 hr 41 min 19 sec) 
Heartbeat CPU  0 instructions:  287000000 cycles: 4974133307 heartbeat IPC: 0.03739 cumulative IPC: 0.03850 (Simulation time: 0 hr 41 min 31 sec) 
Heartbeat CPU  0 instructions:  288000000 cycles: 5000734266 heartbeat IPC: 0.03759 cumulative IPC: 0.03849 (Simulation time: 0 hr 41 min 43 sec) 
Heartbeat CPU  0 instructions:  289000001 cycles: 5027159409 heartbeat IPC: 0.03784 cumulative IPC: 0.03849 (Simulation time: 0 hr 41 min 55 sec) 
Heartbeat CPU  0 instructions:  290000001 cycles: 5053485801 heartbeat IPC: 0.03798 cumulative IPC: 0.03849 (Simulation time: 0 hr 42 min 6 sec) 
Heartbeat CPU  0 instructions:  291000000 cycles: 5079439225 heartbeat IPC: 0.03853 cumulative IPC: 0.03849 (Simulation time: 0 hr 42 min 18 sec) 
Heartbeat CPU  0 instructions:  292000000 cycles: 5105563334 heartbeat IPC: 0.03828 cumulative IPC: 0.03848 (Simulation time: 0 hr 42 min 29 sec) 
Heartbeat CPU  0 instructions:  293000000 cycles: 5131886271 heartbeat IPC: 0.03799 cumulative IPC: 0.03848 (Simulation time: 0 hr 42 min 41 sec) 
Heartbeat CPU  0 instructions:  294000002 cycles: 5158206209 heartbeat IPC: 0.03799 cumulative IPC: 0.03848 (Simulation time: 0 hr 42 min 53 sec) 
Heartbeat CPU  0 instructions:  295000000 cycles: 5183976963 heartbeat IPC: 0.03880 cumulative IPC: 0.03848 (Simulation time: 0 hr 43 min 5 sec) 
Heartbeat CPU  0 instructions:  296000000 cycles: 5209993276 heartbeat IPC: 0.03844 cumulative IPC: 0.03848 (Simulation time: 0 hr 43 min 17 sec) 
Heartbeat CPU  0 instructions:  297000000 cycles: 5236656851 heartbeat IPC: 0.03750 cumulative IPC: 0.03848 (Simulation time: 0 hr 43 min 28 sec) 
Heartbeat CPU  0 instructions:  298000002 cycles: 5263549948 heartbeat IPC: 0.03718 cumulative IPC: 0.03847 (Simulation time: 0 hr 43 min 40 sec) 
Heartbeat CPU  0 instructions:  299000001 cycles: 5290067833 heartbeat IPC: 0.03771 cumulative IPC: 0.03847 (Simulation time: 0 hr 43 min 52 sec) 
Heartbeat CPU  0 instructions:  300000000 cycles: 5316694599 heartbeat IPC: 0.03756 cumulative IPC: 0.03846 (Simulation time: 0 hr 44 min 4 sec) 
Heartbeat CPU  0 instructions:  301000000 cycles: 5343101968 heartbeat IPC: 0.03787 cumulative IPC: 0.03846 (Simulation time: 0 hr 44 min 16 sec) 
Heartbeat CPU  0 instructions:  302000000 cycles: 5369627374 heartbeat IPC: 0.03770 cumulative IPC: 0.03845 (Simulation time: 0 hr 44 min 28 sec) 
Heartbeat CPU  0 instructions:  303000000 cycles: 5396227098 heartbeat IPC: 0.03759 cumulative IPC: 0.03845 (Simulation time: 0 hr 44 min 39 sec) 
Heartbeat CPU  0 instructions:  304000000 cycles: 5422815261 heartbeat IPC: 0.03761 cumulative IPC: 0.03845 (Simulation time: 0 hr 44 min 51 sec) 
Heartbeat CPU  0 instructions:  305000003 cycles: 5449373134 heartbeat IPC: 0.03765 cumulative IPC: 0.03844 (Simulation time: 0 hr 45 min 3 sec) 
Heartbeat CPU  0 instructions:  306000000 cycles: 5476131800 heartbeat IPC: 0.03737 cumulative IPC: 0.03844 (Simulation time: 0 hr 45 min 15 sec) 
Heartbeat CPU  0 instructions:  307000000 cycles: 5503057292 heartbeat IPC: 0.03714 cumulative IPC: 0.03843 (Simulation time: 0 hr 45 min 27 sec) 
Heartbeat CPU  0 instructions:  308000000 cycles: 5529914874 heartbeat IPC: 0.03723 cumulative IPC: 0.03842 (Simulation time: 0 hr 45 min 39 sec) 
Heartbeat CPU  0 instructions:  309000000 cycles: 5556772889 heartbeat IPC: 0.03723 cumulative IPC: 0.03842 (Simulation time: 0 hr 45 min 51 sec) 
Heartbeat CPU  0 instructions:  310000001 cycles: 5583501640 heartbeat IPC: 0.03741 cumulative IPC: 0.03841 (Simulation time: 0 hr 46 min 3 sec) 
Heartbeat CPU  0 instructions:  311000000 cycles: 5610072190 heartbeat IPC: 0.03764 cumulative IPC: 0.03841 (Simulation time: 0 hr 46 min 15 sec) 
Heartbeat CPU  0 instructions:  312000000 cycles: 5636776738 heartbeat IPC: 0.03745 cumulative IPC: 0.03840 (Simulation time: 0 hr 46 min 27 sec) 
Heartbeat CPU  0 instructions:  313000000 cycles: 5663403879 heartbeat IPC: 0.03756 cumulative IPC: 0.03840 (Simulation time: 0 hr 46 min 39 sec) 
Heartbeat CPU  0 instructions:  314000000 cycles: 5689857091 heartbeat IPC: 0.03780 cumulative IPC: 0.03840 (Simulation time: 0 hr 46 min 51 sec) 
Heartbeat CPU  0 instructions:  315000000 cycles: 5716279953 heartbeat IPC: 0.03785 cumulative IPC: 0.03839 (Simulation time: 0 hr 47 min 2 sec) 
Heartbeat CPU  0 instructions:  316000000 cycles: 5742616301 heartbeat IPC: 0.03797 cumulative IPC: 0.03839 (Simulation time: 0 hr 47 min 14 sec) 
Heartbeat CPU  0 instructions:  317000001 cycles: 5768895743 heartbeat IPC: 0.03805 cumulative IPC: 0.03839 (Simulation time: 0 hr 47 min 26 sec) 
Heartbeat CPU  0 instructions:  318000001 cycles: 5795414941 heartbeat IPC: 0.03771 cumulative IPC: 0.03839 (Simulation time: 0 hr 47 min 38 sec) 
Heartbeat CPU  0 instructions:  319000001 cycles: 5822107194 heartbeat IPC: 0.03746 cumulative IPC: 0.03838 (Simulation time: 0 hr 47 min 50 sec) 
Heartbeat CPU  0 instructions:  320000000 cycles: 5848995388 heartbeat IPC: 0.03719 cumulative IPC: 0.03838 (Simulation time: 0 hr 48 min 2 sec) 
Heartbeat CPU  0 instructions:  321000000 cycles: 5875990197 heartbeat IPC: 0.03704 cumulative IPC: 0.03837 (Simulation time: 0 hr 48 min 14 sec) 
Heartbeat CPU  0 instructions:  322000001 cycles: 5903081319 heartbeat IPC: 0.03691 cumulative IPC: 0.03837 (Simulation time: 0 hr 48 min 26 sec) 
Heartbeat CPU  0 instructions:  323000003 cycles: 5929978009 heartbeat IPC: 0.03718 cumulative IPC: 0.03836 (Simulation time: 0 hr 48 min 38 sec) 
Heartbeat CPU  0 instructions:  324000000 cycles: 5956445287 heartbeat IPC: 0.03778 cumulative IPC: 0.03836 (Simulation time: 0 hr 48 min 50 sec) 
Heartbeat CPU  0 instructions:  325000000 cycles: 5982560459 heartbeat IPC: 0.03829 cumulative IPC: 0.03836 (Simulation time: 0 hr 49 min 1 sec) 
Heartbeat CPU  0 instructions:  326000000 cycles: 6008141172 heartbeat IPC: 0.03909 cumulative IPC: 0.03836 (Simulation time: 0 hr 49 min 13 sec) 
Heartbeat CPU  0 instructions:  327000000 cycles: 6034161252 heartbeat IPC: 0.03843 cumulative IPC: 0.03836 (Simulation time: 0 hr 49 min 25 sec) 
Heartbeat CPU  0 instructions:  328000000 cycles: 6060188829 heartbeat IPC: 0.03842 cumulative IPC: 0.03836 (Simulation time: 0 hr 49 min 36 sec) 
Heartbeat CPU  0 instructions:  329000000 cycles: 6086832232 heartbeat IPC: 0.03753 cumulative IPC: 0.03836 (Simulation time: 0 hr 49 min 48 sec) 
Heartbeat CPU  0 instructions:  330000000 cycles: 6113556836 heartbeat IPC: 0.03742 cumulative IPC: 0.03835 (Simulation time: 0 hr 50 min 0 sec) 
Heartbeat CPU  0 instructions:  331000000 cycles: 6140450644 heartbeat IPC: 0.03718 cumulative IPC: 0.03835 (Simulation time: 0 hr 50 min 12 sec) 
Heartbeat CPU  0 instructions:  332000000 cycles: 6166746956 heartbeat IPC: 0.03803 cumulative IPC: 0.03835 (Simulation time: 0 hr 50 min 24 sec) 
Heartbeat CPU  0 instructions:  333000000 cycles: 6193078289 heartbeat IPC: 0.03798 cumulative IPC: 0.03834 (Simulation time: 0 hr 50 min 36 sec) 
Heartbeat CPU  0 instructions:  334000001 cycles: 6219321000 heartbeat IPC: 0.03811 cumulative IPC: 0.03834 (Simulation time: 0 hr 50 min 48 sec) 
Heartbeat CPU  0 instructions:  335000000 cycles: 6246062087 heartbeat IPC: 0.03740 cumulative IPC: 0.03834 (Simulation time: 0 hr 51 min 0 sec) 
Heartbeat CPU  0 instructions:  336000000 cycles: 6272859867 heartbeat IPC: 0.03732 cumulative IPC: 0.03833 (Simulation time: 0 hr 51 min 12 sec) 
Heartbeat CPU  0 instructions:  337000000 cycles: 6299462463 heartbeat IPC: 0.03759 cumulative IPC: 0.03833 (Simulation time: 0 hr 51 min 23 sec) 
Heartbeat CPU  0 instructions:  338000002 cycles: 6325701191 heartbeat IPC: 0.03811 cumulative IPC: 0.03833 (Simulation time: 0 hr 51 min 35 sec) 
Heartbeat CPU  0 instructions:  339000000 cycles: 6352346060 heartbeat IPC: 0.03753 cumulative IPC: 0.03833 (Simulation time: 0 hr 51 min 47 sec) 
Heartbeat CPU  0 instructions:  340000000 cycles: 6378915319 heartbeat IPC: 0.03764 cumulative IPC: 0.03832 (Simulation time: 0 hr 51 min 59 sec) 
Heartbeat CPU  0 instructions:  341000001 cycles: 6405424450 heartbeat IPC: 0.03772 cumulative IPC: 0.03832 (Simulation time: 0 hr 52 min 11 sec) 
Heartbeat CPU  0 instructions:  342000000 cycles: 6432224953 heartbeat IPC: 0.03731 cumulative IPC: 0.03832 (Simulation time: 0 hr 52 min 23 sec) 
Heartbeat CPU  0 instructions:  343000000 cycles: 6459054365 heartbeat IPC: 0.03727 cumulative IPC: 0.03831 (Simulation time: 0 hr 52 min 35 sec) 
Heartbeat CPU  0 instructions:  344000000 cycles: 6485769597 heartbeat IPC: 0.03743 cumulative IPC: 0.03831 (Simulation time: 0 hr 52 min 48 sec) 
Heartbeat CPU  0 instructions:  345000000 cycles: 6512037469 heartbeat IPC: 0.03807 cumulative IPC: 0.03831 (Simulation time: 0 hr 53 min 0 sec) 
Heartbeat CPU  0 instructions:  346000000 cycles: 6538912624 heartbeat IPC: 0.03721 cumulative IPC: 0.03830 (Simulation time: 0 hr 53 min 12 sec) 
Heartbeat CPU  0 instructions:  347000001 cycles: 6565696569 heartbeat IPC: 0.03734 cumulative IPC: 0.03830 (Simulation time: 0 hr 53 min 24 sec) 
Heartbeat CPU  0 instructions:  348000000 cycles: 6592360292 heartbeat IPC: 0.03750 cumulative IPC: 0.03830 (Simulation time: 0 hr 53 min 35 sec) 
Heartbeat CPU  0 instructions:  349000000 cycles: 6618763288 heartbeat IPC: 0.03787 cumulative IPC: 0.03829 (Simulation time: 0 hr 53 min 47 sec) 
Heartbeat CPU  0 instructions:  350000000 cycles: 6645629772 heartbeat IPC: 0.03722 cumulative IPC: 0.03829 (Simulation time: 0 hr 53 min 59 sec) 
Heartbeat CPU  0 instructions:  351000000 cycles: 6671822798 heartbeat IPC: 0.03818 cumulative IPC: 0.03829 (Simulation time: 0 hr 54 min 11 sec) 
Heartbeat CPU  0 instructions:  352000000 cycles: 6697898802 heartbeat IPC: 0.03835 cumulative IPC: 0.03829 (Simulation time: 0 hr 54 min 22 sec) 
Heartbeat CPU  0 instructions:  353000000 cycles: 6723950367 heartbeat IPC: 0.03839 cumulative IPC: 0.03829 (Simulation time: 0 hr 54 min 34 sec) 
Heartbeat CPU  0 instructions:  354000001 cycles: 6749765509 heartbeat IPC: 0.03874 cumulative IPC: 0.03829 (Simulation time: 0 hr 54 min 46 sec) 
Heartbeat CPU  0 instructions:  355000000 cycles: 6775874332 heartbeat IPC: 0.03830 cumulative IPC: 0.03829 (Simulation time: 0 hr 54 min 58 sec) 
Heartbeat CPU  0 instructions:  356000000 cycles: 6801775250 heartbeat IPC: 0.03861 cumulative IPC: 0.03829 (Simulation time: 0 hr 55 min 9 sec) 
Heartbeat CPU  0 instructions:  357000003 cycles: 6827847312 heartbeat IPC: 0.03836 cumulative IPC: 0.03829 (Simulation time: 0 hr 55 min 21 sec) 
Heartbeat CPU  0 instructions:  358000000 cycles: 6853977933 heartbeat IPC: 0.03827 cumulative IPC: 0.03829 (Simulation time: 0 hr 55 min 33 sec) 
Heartbeat CPU  0 instructions:  359000000 cycles: 6880404069 heartbeat IPC: 0.03784 cumulative IPC: 0.03829 (Simulation time: 0 hr 55 min 45 sec) 
Heartbeat CPU  0 instructions:  360000000 cycles: 6906266933 heartbeat IPC: 0.03867 cumulative IPC: 0.03829 (Simulation time: 0 hr 55 min 57 sec) 
Heartbeat CPU  0 instructions:  361000000 cycles: 6932496409 heartbeat IPC: 0.03813 cumulative IPC: 0.03829 (Simulation time: 0 hr 56 min 8 sec) 
Heartbeat CPU  0 instructions:  362000000 cycles: 6958687680 heartbeat IPC: 0.03818 cumulative IPC: 0.03829 (Simulation time: 0 hr 56 min 20 sec) 
Heartbeat CPU  0 instructions:  363000000 cycles: 6985125595 heartbeat IPC: 0.03782 cumulative IPC: 0.03829 (Simulation time: 0 hr 56 min 32 sec) 
Heartbeat CPU  0 instructions:  364000000 cycles: 7011886440 heartbeat IPC: 0.03737 cumulative IPC: 0.03829 (Simulation time: 0 hr 56 min 44 sec) 
Heartbeat CPU  0 instructions:  365000000 cycles: 7038285774 heartbeat IPC: 0.03788 cumulative IPC: 0.03829 (Simulation time: 0 hr 56 min 56 sec) 
Heartbeat CPU  0 instructions:  366000000 cycles: 7065459586 heartbeat IPC: 0.03680 cumulative IPC: 0.03828 (Simulation time: 0 hr 57 min 8 sec) 
Heartbeat CPU  0 instructions:  367000000 cycles: 7092149226 heartbeat IPC: 0.03747 cumulative IPC: 0.03828 (Simulation time: 0 hr 57 min 20 sec) 
Heartbeat CPU  0 instructions:  368000000 cycles: 7119075636 heartbeat IPC: 0.03714 cumulative IPC: 0.03827 (Simulation time: 0 hr 57 min 31 sec) 
Heartbeat CPU  0 instructions:  369000000 cycles: 7145240469 heartbeat IPC: 0.03822 cumulative IPC: 0.03827 (Simulation time: 0 hr 57 min 43 sec) 
Heartbeat CPU  0 instructions:  370000002 cycles: 7172177877 heartbeat IPC: 0.03712 cumulative IPC: 0.03827 (Simulation time: 0 hr 57 min 55 sec) 
Heartbeat CPU  0 instructions:  371000000 cycles: 7198720462 heartbeat IPC: 0.03768 cumulative IPC: 0.03827 (Simulation time: 0 hr 58 min 7 sec) 
Heartbeat CPU  0 instructions:  372000000 cycles: 7224979295 heartbeat IPC: 0.03808 cumulative IPC: 0.03826 (Simulation time: 0 hr 58 min 18 sec) 
Heartbeat CPU  0 instructions:  373000000 cycles: 7251545226 heartbeat IPC: 0.03764 cumulative IPC: 0.03826 (Simulation time: 0 hr 58 min 30 sec) 
Heartbeat CPU  0 instructions:  374000002 cycles: 7278089156 heartbeat IPC: 0.03767 cumulative IPC: 0.03826 (Simulation time: 0 hr 58 min 42 sec) 
Heartbeat CPU  0 instructions:  375000000 cycles: 7304395291 heartbeat IPC: 0.03801 cumulative IPC: 0.03826 (Simulation time: 0 hr 58 min 53 sec) 
Heartbeat CPU  0 instructions:  376000000 cycles: 7330807286 heartbeat IPC: 0.03786 cumulative IPC: 0.03826 (Simulation time: 0 hr 59 min 5 sec) 
Heartbeat CPU  0 instructions:  377000000 cycles: 7357390619 heartbeat IPC: 0.03762 cumulative IPC: 0.03826 (Simulation time: 0 hr 59 min 17 sec) 
Heartbeat CPU  0 instructions:  378000003 cycles: 7383176756 heartbeat IPC: 0.03878 cumulative IPC: 0.03826 (Simulation time: 0 hr 59 min 28 sec) 
Heartbeat CPU  0 instructions:  379000001 cycles: 7409214039 heartbeat IPC: 0.03841 cumulative IPC: 0.03826 (Simulation time: 0 hr 59 min 40 sec) 
Heartbeat CPU  0 instructions:  380000000 cycles: 7435163961 heartbeat IPC: 0.03854 cumulative IPC: 0.03826 (Simulation time: 0 hr 59 min 51 sec) 
Heartbeat CPU  0 instructions:  381000000 cycles: 7461500986 heartbeat IPC: 0.03797 cumulative IPC: 0.03826 (Simulation time: 1 hr 0 min 3 sec) 
Heartbeat CPU  0 instructions:  382000000 cycles: 7487931779 heartbeat IPC: 0.03783 cumulative IPC: 0.03826 (Simulation time: 1 hr 0 min 15 sec) 
Heartbeat CPU  0 instructions:  383000001 cycles: 7514549224 heartbeat IPC: 0.03757 cumulative IPC: 0.03825 (Simulation time: 1 hr 0 min 26 sec) 
Heartbeat CPU  0 instructions:  384000000 cycles: 7541113274 heartbeat IPC: 0.03764 cumulative IPC: 0.03825 (Simulation time: 1 hr 0 min 38 sec) 
Heartbeat CPU  0 instructions:  385000000 cycles: 7567666574 heartbeat IPC: 0.03766 cumulative IPC: 0.03825 (Simulation time: 1 hr 0 min 50 sec) 
Heartbeat CPU  0 instructions:  386000000 cycles: 7594369319 heartbeat IPC: 0.03745 cumulative IPC: 0.03825 (Simulation time: 1 hr 1 min 2 sec) 
Heartbeat CPU  0 instructions:  387000000 cycles: 7620712777 heartbeat IPC: 0.03796 cumulative IPC: 0.03825 (Simulation time: 1 hr 1 min 13 sec) 
Heartbeat CPU  0 instructions:  388000000 cycles: 7647298330 heartbeat IPC: 0.03761 cumulative IPC: 0.03824 (Simulation time: 1 hr 1 min 25 sec) 
Heartbeat CPU  0 instructions:  389000000 cycles: 7673855835 heartbeat IPC: 0.03765 cumulative IPC: 0.03824 (Simulation time: 1 hr 1 min 37 sec) 
Heartbeat CPU  0 instructions:  390000000 cycles: 7700131349 heartbeat IPC: 0.03806 cumulative IPC: 0.03824 (Simulation time: 1 hr 1 min 49 sec) 
Heartbeat CPU  0 instructions:  391000000 cycles: 7726493536 heartbeat IPC: 0.03793 cumulative IPC: 0.03824 (Simulation time: 1 hr 2 min 0 sec) 
Heartbeat CPU  0 instructions:  392000000 cycles: 7752952384 heartbeat IPC: 0.03779 cumulative IPC: 0.03824 (Simulation time: 1 hr 2 min 12 sec) 
Heartbeat CPU  0 instructions:  393000000 cycles: 7779678100 heartbeat IPC: 0.03742 cumulative IPC: 0.03824 (Simulation time: 1 hr 2 min 23 sec) 
Heartbeat CPU  0 instructions:  394000001 cycles: 7806211544 heartbeat IPC: 0.03769 cumulative IPC: 0.03823 (Simulation time: 1 hr 2 min 35 sec) 
Heartbeat CPU  0 instructions:  395000003 cycles: 7831686629 heartbeat IPC: 0.03925 cumulative IPC: 0.03824 (Simulation time: 1 hr 2 min 46 sec) 
Heartbeat CPU  0 instructions:  396000000 cycles: 7856781893 heartbeat IPC: 0.03985 cumulative IPC: 0.03824 (Simulation time: 1 hr 2 min 57 sec) 
Heartbeat CPU  0 instructions:  397000002 cycles: 7882689679 heartbeat IPC: 0.03860 cumulative IPC: 0.03824 (Simulation time: 1 hr 3 min 9 sec) 
Heartbeat CPU  0 instructions:  398000001 cycles: 7908742973 heartbeat IPC: 0.03838 cumulative IPC: 0.03824 (Simulation time: 1 hr 3 min 23 sec) 
Heartbeat CPU  0 instructions:  399000002 cycles: 7934621756 heartbeat IPC: 0.03864 cumulative IPC: 0.03824 (Simulation time: 1 hr 3 min 36 sec) 
Heartbeat CPU  0 instructions:  400000000 cycles: 7960782974 heartbeat IPC: 0.03822 cumulative IPC: 0.03824 (Simulation time: 1 hr 3 min 49 sec) 
Heartbeat CPU  0 instructions:  401000001 cycles: 7987133165 heartbeat IPC: 0.03795 cumulative IPC: 0.03824 (Simulation time: 1 hr 4 min 3 sec) 
Heartbeat CPU  0 instructions:  402000000 cycles: 8013262007 heartbeat IPC: 0.03827 cumulative IPC: 0.03824 (Simulation time: 1 hr 4 min 17 sec) 
Heartbeat CPU  0 instructions:  403000000 cycles: 8039136593 heartbeat IPC: 0.03865 cumulative IPC: 0.03825 (Simulation time: 1 hr 4 min 31 sec) 
Heartbeat CPU  0 instructions:  404000000 cycles: 8065013345 heartbeat IPC: 0.03864 cumulative IPC: 0.03825 (Simulation time: 1 hr 4 min 44 sec) 
Heartbeat CPU  0 instructions:  405000003 cycles: 8090905747 heartbeat IPC: 0.03862 cumulative IPC: 0.03825 (Simulation time: 1 hr 4 min 58 sec) 
Heartbeat CPU  0 instructions:  406000003 cycles: 8116400191 heartbeat IPC: 0.03922 cumulative IPC: 0.03825 (Simulation time: 1 hr 5 min 10 sec) 
Heartbeat CPU  0 instructions:  407000000 cycles: 8141500473 heartbeat IPC: 0.03984 cumulative IPC: 0.03826 (Simulation time: 1 hr 5 min 22 sec) 
Heartbeat CPU  0 instructions:  408000000 cycles: 8167281290 heartbeat IPC: 0.03879 cumulative IPC: 0.03826 (Simulation time: 1 hr 5 min 35 sec) 
Heartbeat CPU  0 instructions:  409000000 cycles: 8193298336 heartbeat IPC: 0.03844 cumulative IPC: 0.03826 (Simulation time: 1 hr 5 min 46 sec) 
Heartbeat CPU  0 instructions:  410000001 cycles: 8219014136 heartbeat IPC: 0.03889 cumulative IPC: 0.03826 (Simulation time: 1 hr 5 min 58 sec) 
Heartbeat CPU  0 instructions:  411000000 cycles: 8244979425 heartbeat IPC: 0.03851 cumulative IPC: 0.03826 (Simulation time: 1 hr 6 min 10 sec) 
Heartbeat CPU  0 instructions:  412000000 cycles: 8270712100 heartbeat IPC: 0.03886 cumulative IPC: 0.03826 (Simulation time: 1 hr 6 min 21 sec) 
Heartbeat CPU  0 instructions:  413000003 cycles: 8296653325 heartbeat IPC: 0.03855 cumulative IPC: 0.03826 (Simulation time: 1 hr 6 min 33 sec) 
Heartbeat CPU  0 instructions:  414000000 cycles: 8322218688 heartbeat IPC: 0.03912 cumulative IPC: 0.03827 (Simulation time: 1 hr 6 min 45 sec) 
Heartbeat CPU  0 instructions:  415000001 cycles: 8347880322 heartbeat IPC: 0.03897 cumulative IPC: 0.03827 (Simulation time: 1 hr 6 min 57 sec) 
Heartbeat CPU  0 instructions:  416000000 cycles: 8373927381 heartbeat IPC: 0.03839 cumulative IPC: 0.03827 (Simulation time: 1 hr 7 min 8 sec) 
Heartbeat CPU  0 instructions:  417000000 cycles: 8400229272 heartbeat IPC: 0.03802 cumulative IPC: 0.03827 (Simulation time: 1 hr 7 min 20 sec) 
Heartbeat CPU  0 instructions:  418000000 cycles: 8426817446 heartbeat IPC: 0.03761 cumulative IPC: 0.03827 (Simulation time: 1 hr 7 min 32 sec) 
Heartbeat CPU  0 instructions:  419000000 cycles: 8453028523 heartbeat IPC: 0.03815 cumulative IPC: 0.03827 (Simulation time: 1 hr 7 min 44 sec) 
Heartbeat CPU  0 instructions:  420000000 cycles: 8479265828 heartbeat IPC: 0.03811 cumulative IPC: 0.03827 (Simulation time: 1 hr 7 min 56 sec) 
Heartbeat CPU  0 instructions:  421000001 cycles: 8505074641 heartbeat IPC: 0.03875 cumulative IPC: 0.03827 (Simulation time: 1 hr 8 min 7 sec) 
Heartbeat CPU  0 instructions:  422000003 cycles: 8531381517 heartbeat IPC: 0.03801 cumulative IPC: 0.03827 (Simulation time: 1 hr 8 min 19 sec) 
Heartbeat CPU  0 instructions:  423000000 cycles: 8557760970 heartbeat IPC: 0.03791 cumulative IPC: 0.03826 (Simulation time: 1 hr 8 min 31 sec) 
Heartbeat CPU  0 instructions:  424000000 cycles: 8584023952 heartbeat IPC: 0.03808 cumulative IPC: 0.03826 (Simulation time: 1 hr 8 min 43 sec) 
Heartbeat CPU  0 instructions:  425000000 cycles: 8610341023 heartbeat IPC: 0.03800 cumulative IPC: 0.03826 (Simulation time: 1 hr 8 min 54 sec) 
Heartbeat CPU  0 instructions:  426000001 cycles: 8636893146 heartbeat IPC: 0.03766 cumulative IPC: 0.03826 (Simulation time: 1 hr 9 min 6 sec) 
Heartbeat CPU  0 instructions:  427000000 cycles: 8663278644 heartbeat IPC: 0.03790 cumulative IPC: 0.03826 (Simulation time: 1 hr 9 min 18 sec) 
Heartbeat CPU  0 instructions:  428000000 cycles: 8689338326 heartbeat IPC: 0.03837 cumulative IPC: 0.03826 (Simulation time: 1 hr 9 min 30 sec) 
Heartbeat CPU  0 instructions:  429000000 cycles: 8715278746 heartbeat IPC: 0.03855 cumulative IPC: 0.03826 (Simulation time: 1 hr 9 min 41 sec) 
Heartbeat CPU  0 instructions:  430000000 cycles: 8741091323 heartbeat IPC: 0.03874 cumulative IPC: 0.03826 (Simulation time: 1 hr 9 min 53 sec) 
Heartbeat CPU  0 instructions:  431000001 cycles: 8767072522 heartbeat IPC: 0.03849 cumulative IPC: 0.03826 (Simulation time: 1 hr 10 min 4 sec) 
Heartbeat CPU  0 instructions:  432000000 cycles: 8792877014 heartbeat IPC: 0.03875 cumulative IPC: 0.03827 (Simulation time: 1 hr 10 min 16 sec) 
Heartbeat CPU  0 instructions:  433000000 cycles: 8818640353 heartbeat IPC: 0.03881 cumulative IPC: 0.03827 (Simulation time: 1 hr 10 min 28 sec) 
Heartbeat CPU  0 instructions:  434000002 cycles: 8844624322 heartbeat IPC: 0.03849 cumulative IPC: 0.03827 (Simulation time: 1 hr 10 min 39 sec) 
Heartbeat CPU  0 instructions:  435000000 cycles: 8870676739 heartbeat IPC: 0.03838 cumulative IPC: 0.03827 (Simulation time: 1 hr 10 min 51 sec) 
Heartbeat CPU  0 instructions:  436000000 cycles: 8896548052 heartbeat IPC: 0.03865 cumulative IPC: 0.03827 (Simulation time: 1 hr 11 min 2 sec) 
Heartbeat CPU  0 instructions:  437000002 cycles: 8922193456 heartbeat IPC: 0.03899 cumulative IPC: 0.03827 (Simulation time: 1 hr 11 min 14 sec) 
Heartbeat CPU  0 instructions:  438000000 cycles: 8948021530 heartbeat IPC: 0.03872 cumulative IPC: 0.03827 (Simulation time: 1 hr 11 min 26 sec) 
Heartbeat CPU  0 instructions:  439000000 cycles: 8973916966 heartbeat IPC: 0.03862 cumulative IPC: 0.03827 (Simulation time: 1 hr 11 min 37 sec) 
Heartbeat CPU  0 instructions:  440000000 cycles: 8999819141 heartbeat IPC: 0.03861 cumulative IPC: 0.03827 (Simulation time: 1 hr 11 min 49 sec) 
Heartbeat CPU  0 instructions:  441000000 cycles: 9025778256 heartbeat IPC: 0.03852 cumulative IPC: 0.03828 (Simulation time: 1 hr 12 min 0 sec) 
Heartbeat CPU  0 instructions:  442000000 cycles: 9052022119 heartbeat IPC: 0.03810 cumulative IPC: 0.03827 (Simulation time: 1 hr 12 min 12 sec) 
Heartbeat CPU  0 instructions:  443000003 cycles: 9078518404 heartbeat IPC: 0.03774 cumulative IPC: 0.03827 (Simulation time: 1 hr 12 min 23 sec) 
Heartbeat CPU  0 instructions:  444000000 cycles: 9104623432 heartbeat IPC: 0.03831 cumulative IPC: 0.03827 (Simulation time: 1 hr 12 min 35 sec) 
Heartbeat CPU  0 instructions:  445000003 cycles: 9130934256 heartbeat IPC: 0.03801 cumulative IPC: 0.03827 (Simulation time: 1 hr 12 min 47 sec) 
Heartbeat CPU  0 instructions:  446000000 cycles: 9157572602 heartbeat IPC: 0.03754 cumulative IPC: 0.03827 (Simulation time: 1 hr 12 min 59 sec) 
Heartbeat CPU  0 instructions:  447000000 cycles: 9184087348 heartbeat IPC: 0.03771 cumulative IPC: 0.03827 (Simulation time: 1 hr 13 min 10 sec) 
Heartbeat CPU  0 instructions:  448000000 cycles: 9210061359 heartbeat IPC: 0.03850 cumulative IPC: 0.03827 (Simulation time: 1 hr 13 min 22 sec) 
Heartbeat CPU  0 instructions:  449000003 cycles: 9236534781 heartbeat IPC: 0.03777 cumulative IPC: 0.03827 (Simulation time: 1 hr 13 min 33 sec) 
Heartbeat CPU  0 instructions:  450000002 cycles: 9263533642 heartbeat IPC: 0.03704 cumulative IPC: 0.03826 (Simulation time: 1 hr 13 min 45 sec) 
Heartbeat CPU  0 instructions:  451000002 cycles: 9290329476 heartbeat IPC: 0.03732 cumulative IPC: 0.03826 (Simulation time: 1 hr 13 min 57 sec) 
Heartbeat CPU  0 instructions:  452000000 cycles: 9316654826 heartbeat IPC: 0.03799 cumulative IPC: 0.03826 (Simulation time: 1 hr 14 min 9 sec) 
Heartbeat CPU  0 instructions:  453000000 cycles: 9343430875 heartbeat IPC: 0.03735 cumulative IPC: 0.03826 (Simulation time: 1 hr 14 min 21 sec) 
Heartbeat CPU  0 instructions:  454000000 cycles: 9370098989 heartbeat IPC: 0.03750 cumulative IPC: 0.03826 (Simulation time: 1 hr 14 min 33 sec) 
Heartbeat CPU  0 instructions:  455000000 cycles: 9396939818 heartbeat IPC: 0.03726 cumulative IPC: 0.03825 (Simulation time: 1 hr 14 min 45 sec) 
Heartbeat CPU  0 instructions:  456000000 cycles: 9423435488 heartbeat IPC: 0.03774 cumulative IPC: 0.03825 (Simulation time: 1 hr 14 min 56 sec) 
Heartbeat CPU  0 instructions:  457000000 cycles: 9450259266 heartbeat IPC: 0.03728 cumulative IPC: 0.03825 (Simulation time: 1 hr 15 min 8 sec) 
Heartbeat CPU  0 instructions:  458000000 cycles: 9476917700 heartbeat IPC: 0.03751 cumulative IPC: 0.03825 (Simulation time: 1 hr 15 min 20 sec) 
Heartbeat CPU  0 instructions:  459000000 cycles: 9503540293 heartbeat IPC: 0.03756 cumulative IPC: 0.03824 (Simulation time: 1 hr 15 min 32 sec) 
Heartbeat CPU  0 instructions:  460000000 cycles: 9530025225 heartbeat IPC: 0.03776 cumulative IPC: 0.03824 (Simulation time: 1 hr 15 min 43 sec) 
Heartbeat CPU  0 instructions:  461000000 cycles: 9556225431 heartbeat IPC: 0.03817 cumulative IPC: 0.03824 (Simulation time: 1 hr 15 min 55 sec) 
Heartbeat CPU  0 instructions:  462000000 cycles: 9582445708 heartbeat IPC: 0.03814 cumulative IPC: 0.03824 (Simulation time: 1 hr 16 min 7 sec) 
Heartbeat CPU  0 instructions:  463000001 cycles: 9608233524 heartbeat IPC: 0.03878 cumulative IPC: 0.03824 (Simulation time: 1 hr 16 min 18 sec) 
Heartbeat CPU  0 instructions:  464000000 cycles: 9634720763 heartbeat IPC: 0.03775 cumulative IPC: 0.03824 (Simulation time: 1 hr 16 min 30 sec) 
Heartbeat CPU  0 instructions:  465000000 cycles: 9661631326 heartbeat IPC: 0.03716 cumulative IPC: 0.03824 (Simulation time: 1 hr 16 min 42 sec) 
Heartbeat CPU  0 instructions:  466000000 cycles: 9688559986 heartbeat IPC: 0.03714 cumulative IPC: 0.03824 (Simulation time: 1 hr 16 min 54 sec) 
Heartbeat CPU  0 instructions:  467000000 cycles: 9715254238 heartbeat IPC: 0.03746 cumulative IPC: 0.03823 (Simulation time: 1 hr 17 min 6 sec) 
Heartbeat CPU  0 instructions:  468000000 cycles: 9741956747 heartbeat IPC: 0.03745 cumulative IPC: 0.03823 (Simulation time: 1 hr 17 min 18 sec) 
Heartbeat CPU  0 instructions:  469000000 cycles: 9768855089 heartbeat IPC: 0.03718 cumulative IPC: 0.03823 (Simulation time: 1 hr 17 min 30 sec) 
Heartbeat CPU  0 instructions:  470000000 cycles: 9795527166 heartbeat IPC: 0.03749 cumulative IPC: 0.03823 (Simulation time: 1 hr 17 min 42 sec) 
Heartbeat CPU  0 instructions:  471000000 cycles: 9822115072 heartbeat IPC: 0.03761 cumulative IPC: 0.03823 (Simulation time: 1 hr 17 min 54 sec) 
Heartbeat CPU  0 instructions:  472000000 cycles: 9847980801 heartbeat IPC: 0.03866 cumulative IPC: 0.03823 (Simulation time: 1 hr 18 min 5 sec) 
Heartbeat CPU  0 instructions:  473000000 cycles: 9873582175 heartbeat IPC: 0.03906 cumulative IPC: 0.03823 (Simulation time: 1 hr 18 min 17 sec) 
Heartbeat CPU  0 instructions:  474000000 cycles: 9899781412 heartbeat IPC: 0.03817 cumulative IPC: 0.03823 (Simulation time: 1 hr 18 min 29 sec) 
Heartbeat CPU  0 instructions:  475000000 cycles: 9925417448 heartbeat IPC: 0.03901 cumulative IPC: 0.03823 (Simulation time: 1 hr 18 min 40 sec) 
Heartbeat CPU  0 instructions:  476000000 cycles: 9951619236 heartbeat IPC: 0.03817 cumulative IPC: 0.03823 (Simulation time: 1 hr 18 min 52 sec) 
Heartbeat CPU  0 instructions:  477000002 cycles: 9977731587 heartbeat IPC: 0.03830 cumulative IPC: 0.03823 (Simulation time: 1 hr 19 min 3 sec) 
Heartbeat CPU  0 instructions:  478000001 cycles: 10004011921 heartbeat IPC: 0.03805 cumulative IPC: 0.03823 (Simulation time: 1 hr 19 min 15 sec) 
Heartbeat CPU  0 instructions:  479000001 cycles: 10030018365 heartbeat IPC: 0.03845 cumulative IPC: 0.03823 (Simulation time: 1 hr 19 min 26 sec) 
Heartbeat CPU  0 instructions:  480000000 cycles: 10056076223 heartbeat IPC: 0.03838 cumulative IPC: 0.03823 (Simulation time: 1 hr 19 min 38 sec) 
Heartbeat CPU  0 instructions:  481000000 cycles: 10082368895 heartbeat IPC: 0.03803 cumulative IPC: 0.03823 (Simulation time: 1 hr 19 min 50 sec) 
Heartbeat CPU  0 instructions:  482000000 cycles: 10108340439 heartbeat IPC: 0.03850 cumulative IPC: 0.03823 (Simulation time: 1 hr 20 min 1 sec) 
Heartbeat CPU  0 instructions:  483000000 cycles: 10134231869 heartbeat IPC: 0.03862 cumulative IPC: 0.03823 (Simulation time: 1 hr 20 min 12 sec) 
Heartbeat CPU  0 instructions:  484000000 cycles: 10160409656 heartbeat IPC: 0.03820 cumulative IPC: 0.03823 (Simulation time: 1 hr 20 min 24 sec) 
Heartbeat CPU  0 instructions:  485000000 cycles: 10186886437 heartbeat IPC: 0.03777 cumulative IPC: 0.03823 (Simulation time: 1 hr 20 min 36 sec) 
Heartbeat CPU  0 instructions:  486000002 cycles: 10213012186 heartbeat IPC: 0.03828 cumulative IPC: 0.03823 (Simulation time: 1 hr 20 min 47 sec) 
Heartbeat CPU  0 instructions:  487000000 cycles: 10238899191 heartbeat IPC: 0.03863 cumulative IPC: 0.03823 (Simulation time: 1 hr 20 min 58 sec) 
Heartbeat CPU  0 instructions:  488000000 cycles: 10264393424 heartbeat IPC: 0.03922 cumulative IPC: 0.03823 (Simulation time: 1 hr 21 min 10 sec) 
Heartbeat CPU  0 instructions:  489000000 cycles: 10290189589 heartbeat IPC: 0.03877 cumulative IPC: 0.03824 (Simulation time: 1 hr 21 min 21 sec) 
Heartbeat CPU  0 instructions:  490000000 cycles: 10316162825 heartbeat IPC: 0.03850 cumulative IPC: 0.03824 (Simulation time: 1 hr 21 min 33 sec) 
Heartbeat CPU  0 instructions:  491000000 cycles: 10341878535 heartbeat IPC: 0.03889 cumulative IPC: 0.03824 (Simulation time: 1 hr 21 min 44 sec) 
Heartbeat CPU  0 instructions:  492000000 cycles: 10368130477 heartbeat IPC: 0.03809 cumulative IPC: 0.03824 (Simulation time: 1 hr 21 min 56 sec) 
Heartbeat CPU  0 instructions:  493000001 cycles: 10394522498 heartbeat IPC: 0.03789 cumulative IPC: 0.03824 (Simulation time: 1 hr 22 min 7 sec) 
Heartbeat CPU  0 instructions:  494000001 cycles: 10421115883 heartbeat IPC: 0.03760 cumulative IPC: 0.03824 (Simulation time: 1 hr 22 min 19 sec) 
Heartbeat CPU  0 instructions:  495000000 cycles: 10447482248 heartbeat IPC: 0.03793 cumulative IPC: 0.03823 (Simulation time: 1 hr 22 min 31 sec) 
Heartbeat CPU  0 instructions:  496000000 cycles: 10473618988 heartbeat IPC: 0.03826 cumulative IPC: 0.03823 (Simulation time: 1 hr 22 min 43 sec) 
Heartbeat CPU  0 instructions:  497000001 cycles: 10499948185 heartbeat IPC: 0.03798 cumulative IPC: 0.03823 (Simulation time: 1 hr 22 min 55 sec) 
Heartbeat CPU  0 instructions:  498000000 cycles: 10526263092 heartbeat IPC: 0.03800 cumulative IPC: 0.03823 (Simulation time: 1 hr 23 min 6 sec) 
Heartbeat CPU  0 instructions:  499000003 cycles: 10552574204 heartbeat IPC: 0.03801 cumulative IPC: 0.03823 (Simulation time: 1 hr 23 min 18 sec) 
Heartbeat CPU  0 instructions:  500000000 cycles: 10578611370 heartbeat IPC: 0.03841 cumulative IPC: 0.03823 (Simulation time: 1 hr 23 min 30 sec) 
Heartbeat CPU  0 instructions:  501000000 cycles: 10604994594 heartbeat IPC: 0.03790 cumulative IPC: 0.03823 (Simulation time: 1 hr 23 min 41 sec) 
Heartbeat CPU  0 instructions:  502000001 cycles: 10631371714 heartbeat IPC: 0.03791 cumulative IPC: 0.03823 (Simulation time: 1 hr 23 min 53 sec) 
Heartbeat CPU  0 instructions:  503000001 cycles: 10657681744 heartbeat IPC: 0.03801 cumulative IPC: 0.03823 (Simulation time: 1 hr 24 min 5 sec) 
Heartbeat CPU  0 instructions:  504000000 cycles: 10683742208 heartbeat IPC: 0.03837 cumulative IPC: 0.03823 (Simulation time: 1 hr 24 min 16 sec) 
Heartbeat CPU  0 instructions:  505000001 cycles: 10709796094 heartbeat IPC: 0.03838 cumulative IPC: 0.03823 (Simulation time: 1 hr 24 min 28 sec) 
Heartbeat CPU  0 instructions:  506000003 cycles: 10736128993 heartbeat IPC: 0.03798 cumulative IPC: 0.03823 (Simulation time: 1 hr 24 min 40 sec) 
Heartbeat CPU  0 instructions:  507000000 cycles: 10762010254 heartbeat IPC: 0.03864 cumulative IPC: 0.03823 (Simulation time: 1 hr 24 min 51 sec) 
Heartbeat CPU  0 instructions:  508000000 cycles: 10787976615 heartbeat IPC: 0.03851 cumulative IPC: 0.03823 (Simulation time: 1 hr 25 min 3 sec) 
Heartbeat CPU  0 instructions:  509000000 cycles: 10814358695 heartbeat IPC: 0.03790 cumulative IPC: 0.03823 (Simulation time: 1 hr 25 min 15 sec) 
Heartbeat CPU  0 instructions:  510000001 cycles: 10840145468 heartbeat IPC: 0.03878 cumulative IPC: 0.03823 (Simulation time: 1 hr 25 min 26 sec) 
Heartbeat CPU  0 instructions:  511000003 cycles: 10865870975 heartbeat IPC: 0.03887 cumulative IPC: 0.03824 (Simulation time: 1 hr 25 min 38 sec) 
Heartbeat CPU  0 instructions:  512000000 cycles: 10891855956 heartbeat IPC: 0.03848 cumulative IPC: 0.03824 (Simulation time: 1 hr 25 min 50 sec) 
Heartbeat CPU  0 instructions:  513000001 cycles: 10917805190 heartbeat IPC: 0.03854 cumulative IPC: 0.03824 (Simulation time: 1 hr 26 min 1 sec) 
Heartbeat CPU  0 instructions:  514000000 cycles: 10943614459 heartbeat IPC: 0.03875 cumulative IPC: 0.03824 (Simulation time: 1 hr 26 min 13 sec) 
Heartbeat CPU  0 instructions:  515000001 cycles: 10969332088 heartbeat IPC: 0.03888 cumulative IPC: 0.03824 (Simulation time: 1 hr 26 min 24 sec) 
Heartbeat CPU  0 instructions:  516000000 cycles: 10995663735 heartbeat IPC: 0.03798 cumulative IPC: 0.03824 (Simulation time: 1 hr 26 min 36 sec) 
Heartbeat CPU  0 instructions:  517000002 cycles: 11021694516 heartbeat IPC: 0.03842 cumulative IPC: 0.03824 (Simulation time: 1 hr 26 min 47 sec) 
Heartbeat CPU  0 instructions:  518000000 cycles: 11048158153 heartbeat IPC: 0.03779 cumulative IPC: 0.03824 (Simulation time: 1 hr 26 min 59 sec) 
Heartbeat CPU  0 instructions:  519000000 cycles: 11074483466 heartbeat IPC: 0.03799 cumulative IPC: 0.03824 (Simulation time: 1 hr 27 min 11 sec) 
Heartbeat CPU  0 instructions:  520000000 cycles: 11100541073 heartbeat IPC: 0.03838 cumulative IPC: 0.03824 (Simulation time: 1 hr 27 min 22 sec) 
Heartbeat CPU  0 instructions:  521000000 cycles: 11126702943 heartbeat IPC: 0.03822 cumulative IPC: 0.03824 (Simulation time: 1 hr 27 min 34 sec) 
Heartbeat CPU  0 instructions:  522000000 cycles: 11152453935 heartbeat IPC: 0.03883 cumulative IPC: 0.03824 (Simulation time: 1 hr 27 min 45 sec) 
Heartbeat CPU  0 instructions:  523000001 cycles: 11178475600 heartbeat IPC: 0.03843 cumulative IPC: 0.03824 (Simulation time: 1 hr 27 min 57 sec) 
Heartbeat CPU  0 instructions:  524000000 cycles: 11204565520 heartbeat IPC: 0.03833 cumulative IPC: 0.03824 (Simulation time: 1 hr 28 min 9 sec) 
Heartbeat CPU  0 instructions:  525000000 cycles: 11230816655 heartbeat IPC: 0.03809 cumulative IPC: 0.03824 (Simulation time: 1 hr 28 min 20 sec) 
Heartbeat CPU  0 instructions:  526000001 cycles: 11257215348 heartbeat IPC: 0.03788 cumulative IPC: 0.03824 (Simulation time: 1 hr 28 min 34 sec) 
Heartbeat CPU  0 instructions:  527000000 cycles: 11283396052 heartbeat IPC: 0.03820 cumulative IPC: 0.03824 (Simulation time: 1 hr 28 min 48 sec) 
Heartbeat CPU  0 instructions:  528000000 cycles: 11309476112 heartbeat IPC: 0.03834 cumulative IPC: 0.03824 (Simulation time: 1 hr 29 min 1 sec) 
Heartbeat CPU  0 instructions:  529000001 cycles: 11335761737 heartbeat IPC: 0.03804 cumulative IPC: 0.03824 (Simulation time: 1 hr 29 min 14 sec) 
Heartbeat CPU  0 instructions:  530000000 cycles: 11361603942 heartbeat IPC: 0.03870 cumulative IPC: 0.03824 (Simulation time: 1 hr 29 min 26 sec) 
Heartbeat CPU  0 instructions:  531000001 cycles: 11386305857 heartbeat IPC: 0.04048 cumulative IPC: 0.03824 (Simulation time: 1 hr 29 min 39 sec) 
Heartbeat CPU  0 instructions:  532000000 cycles: 11411979189 heartbeat IPC: 0.03895 cumulative IPC: 0.03825 (Simulation time: 1 hr 29 min 53 sec) 
Heartbeat CPU  0 instructions:  533000000 cycles: 11437997911 heartbeat IPC: 0.03843 cumulative IPC: 0.03825 (Simulation time: 1 hr 30 min 7 sec) 
Heartbeat CPU  0 instructions:  534000003 cycles: 11463638103 heartbeat IPC: 0.03900 cumulative IPC: 0.03825 (Simulation time: 1 hr 30 min 21 sec) 
Heartbeat CPU  0 instructions:  535000002 cycles: 11488691380 heartbeat IPC: 0.03991 cumulative IPC: 0.03825 (Simulation time: 1 hr 30 min 34 sec) 
Heartbeat CPU  0 instructions:  536000000 cycles: 11513791053 heartbeat IPC: 0.03984 cumulative IPC: 0.03825 (Simulation time: 1 hr 30 min 46 sec) 
Heartbeat CPU  0 instructions:  537000001 cycles: 11539635476 heartbeat IPC: 0.03869 cumulative IPC: 0.03826 (Simulation time: 1 hr 30 min 59 sec) 
Heartbeat CPU  0 instructions:  538000000 cycles: 11565412784 heartbeat IPC: 0.03879 cumulative IPC: 0.03826 (Simulation time: 1 hr 31 min 11 sec) 
Heartbeat CPU  0 instructions:  539000000 cycles: 11591160146 heartbeat IPC: 0.03884 cumulative IPC: 0.03826 (Simulation time: 1 hr 31 min 23 sec) 
Heartbeat CPU  0 instructions:  540000000 cycles: 11616996166 heartbeat IPC: 0.03871 cumulative IPC: 0.03826 (Simulation time: 1 hr 31 min 36 sec) 
Heartbeat CPU  0 instructions:  541000000 cycles: 11642481429 heartbeat IPC: 0.03924 cumulative IPC: 0.03826 (Simulation time: 1 hr 31 min 48 sec) 
Heartbeat CPU  0 instructions:  542000001 cycles: 11667902117 heartbeat IPC: 0.03934 cumulative IPC: 0.03826 (Simulation time: 1 hr 32 min 0 sec) 
Heartbeat CPU  0 instructions:  543000000 cycles: 11693356535 heartbeat IPC: 0.03929 cumulative IPC: 0.03827 (Simulation time: 1 hr 32 min 12 sec) 
Heartbeat CPU  0 instructions:  544000000 cycles: 11718532091 heartbeat IPC: 0.03972 cumulative IPC: 0.03827 (Simulation time: 1 hr 32 min 24 sec) 
Heartbeat CPU  0 instructions:  545000002 cycles: 11744470013 heartbeat IPC: 0.03855 cumulative IPC: 0.03827 (Simulation time: 1 hr 32 min 37 sec) 
Heartbeat CPU  0 instructions:  546000001 cycles: 11770152260 heartbeat IPC: 0.03894 cumulative IPC: 0.03827 (Simulation time: 1 hr 32 min 49 sec) 
Heartbeat CPU  0 instructions:  547000001 cycles: 11795682994 heartbeat IPC: 0.03917 cumulative IPC: 0.03827 (Simulation time: 1 hr 33 min 1 sec) 
Heartbeat CPU  0 instructions:  548000000 cycles: 11821124901 heartbeat IPC: 0.03931 cumulative IPC: 0.03828 (Simulation time: 1 hr 33 min 13 sec) 
Heartbeat CPU  0 instructions:  549000000 cycles: 11846712701 heartbeat IPC: 0.03908 cumulative IPC: 0.03828 (Simulation time: 1 hr 33 min 25 sec) 
Heartbeat CPU  0 instructions:  550000001 cycles: 11871793010 heartbeat IPC: 0.03987 cumulative IPC: 0.03828 (Simulation time: 1 hr 33 min 37 sec) 
Heartbeat CPU  0 instructions:  551000002 cycles: 11896776609 heartbeat IPC: 0.04003 cumulative IPC: 0.03828 (Simulation time: 1 hr 33 min 49 sec) 
Heartbeat CPU  0 instructions:  552000000 cycles: 11922169046 heartbeat IPC: 0.03938 cumulative IPC: 0.03829 (Simulation time: 1 hr 34 min 1 sec) 
Heartbeat CPU  0 instructions:  553000000 cycles: 11947700058 heartbeat IPC: 0.03917 cumulative IPC: 0.03829 (Simulation time: 1 hr 34 min 14 sec) 
Heartbeat CPU  0 instructions:  554000001 cycles: 11972969473 heartbeat IPC: 0.03957 cumulative IPC: 0.03829 (Simulation time: 1 hr 34 min 26 sec) 
Heartbeat CPU  0 instructions:  555000000 cycles: 11998261083 heartbeat IPC: 0.03954 cumulative IPC: 0.03829 (Simulation time: 1 hr 34 min 38 sec) 
Heartbeat CPU  0 instructions:  556000000 cycles: 12023390166 heartbeat IPC: 0.03979 cumulative IPC: 0.03830 (Simulation time: 1 hr 34 min 50 sec) 
Heartbeat CPU  0 instructions:  557000000 cycles: 12048464604 heartbeat IPC: 0.03988 cumulative IPC: 0.03830 (Simulation time: 1 hr 35 min 2 sec) 
Heartbeat CPU  0 instructions:  558000000 cycles: 12073362291 heartbeat IPC: 0.04016 cumulative IPC: 0.03830 (Simulation time: 1 hr 35 min 14 sec) 
Heartbeat CPU  0 instructions:  559000003 cycles: 12098643732 heartbeat IPC: 0.03955 cumulative IPC: 0.03831 (Simulation time: 1 hr 35 min 26 sec) 
Heartbeat CPU  0 instructions:  560000000 cycles: 12124098776 heartbeat IPC: 0.03928 cumulative IPC: 0.03831 (Simulation time: 1 hr 35 min 38 sec) 
Heartbeat CPU  0 instructions:  561000001 cycles: 12149419346 heartbeat IPC: 0.03949 cumulative IPC: 0.03831 (Simulation time: 1 hr 35 min 50 sec) 
Heartbeat CPU  0 instructions:  562000000 cycles: 12174851742 heartbeat IPC: 0.03932 cumulative IPC: 0.03831 (Simulation time: 1 hr 36 min 2 sec) 
Heartbeat CPU  0 instructions:  563000000 cycles: 12200095211 heartbeat IPC: 0.03961 cumulative IPC: 0.03832 (Simulation time: 1 hr 36 min 14 sec) 
Heartbeat CPU  0 instructions:  564000000 cycles: 12225413352 heartbeat IPC: 0.03950 cumulative IPC: 0.03832 (Simulation time: 1 hr 36 min 26 sec) 
Heartbeat CPU  0 instructions:  565000003 cycles: 12250481275 heartbeat IPC: 0.03989 cumulative IPC: 0.03832 (Simulation time: 1 hr 36 min 38 sec) 
Heartbeat CPU  0 instructions:  566000001 cycles: 12275643763 heartbeat IPC: 0.03974 cumulative IPC: 0.03833 (Simulation time: 1 hr 36 min 51 sec) 
Heartbeat CPU  0 instructions:  567000001 cycles: 12300680482 heartbeat IPC: 0.03994 cumulative IPC: 0.03833 (Simulation time: 1 hr 37 min 3 sec) 
Heartbeat CPU  0 instructions:  568000000 cycles: 12325938870 heartbeat IPC: 0.03959 cumulative IPC: 0.03833 (Simulation time: 1 hr 37 min 16 sec) 
Heartbeat CPU  0 instructions:  569000002 cycles: 12350698256 heartbeat IPC: 0.04039 cumulative IPC: 0.03834 (Simulation time: 1 hr 37 min 28 sec) 
Heartbeat CPU  0 instructions:  570000001 cycles: 12374856056 heartbeat IPC: 0.04139 cumulative IPC: 0.03834 (Simulation time: 1 hr 37 min 40 sec) 
Heartbeat CPU  0 instructions:  571000001 cycles: 12399541884 heartbeat IPC: 0.04051 cumulative IPC: 0.03835 (Simulation time: 1 hr 37 min 52 sec) 
Heartbeat CPU  0 instructions:  572000000 cycles: 12424310518 heartbeat IPC: 0.04037 cumulative IPC: 0.03835 (Simulation time: 1 hr 38 min 5 sec) 
Heartbeat CPU  0 instructions:  573000000 cycles: 12449237203 heartbeat IPC: 0.04012 cumulative IPC: 0.03835 (Simulation time: 1 hr 38 min 18 sec) 
Heartbeat CPU  0 instructions:  574000000 cycles: 12474017303 heartbeat IPC: 0.04035 cumulative IPC: 0.03836 (Simulation time: 1 hr 38 min 30 sec) 
Heartbeat CPU  0 instructions:  575000000 cycles: 12498733506 heartbeat IPC: 0.04046 cumulative IPC: 0.03836 (Simulation time: 1 hr 38 min 43 sec) 
Heartbeat CPU  0 instructions:  576000000 cycles: 12522973917 heartbeat IPC: 0.04125 cumulative IPC: 0.03837 (Simulation time: 1 hr 38 min 56 sec) 
Heartbeat CPU  0 instructions:  577000000 cycles: 12546946295 heartbeat IPC: 0.04171 cumulative IPC: 0.03837 (Simulation time: 1 hr 39 min 9 sec) 
Heartbeat CPU  0 instructions:  578000002 cycles: 12571026940 heartbeat IPC: 0.04153 cumulative IPC: 0.03838 (Simulation time: 1 hr 39 min 22 sec) 
Heartbeat CPU  0 instructions:  579000001 cycles: 12594746849 heartbeat IPC: 0.04216 cumulative IPC: 0.03839 (Simulation time: 1 hr 39 min 37 sec) 
Heartbeat CPU  0 instructions:  580000000 cycles: 12618447003 heartbeat IPC: 0.04219 cumulative IPC: 0.03839 (Simulation time: 1 hr 39 min 53 sec) 
Heartbeat CPU  0 instructions:  581000000 cycles: 12642179249 heartbeat IPC: 0.04214 cumulative IPC: 0.03840 (Simulation time: 1 hr 40 min 6 sec) 
Heartbeat CPU  0 instructions:  582000001 cycles: 12665382847 heartbeat IPC: 0.04310 cumulative IPC: 0.03841 (Simulation time: 1 hr 40 min 20 sec) 
Heartbeat CPU  0 instructions:  583000000 cycles: 12689045837 heartbeat IPC: 0.04226 cumulative IPC: 0.03842 (Simulation time: 1 hr 40 min 34 sec) 
Heartbeat CPU  0 instructions:  584000000 cycles: 12712830007 heartbeat IPC: 0.04204 cumulative IPC: 0.03842 (Simulation time: 1 hr 40 min 48 sec) 
Heartbeat CPU  0 instructions:  585000000 cycles: 12736603869 heartbeat IPC: 0.04206 cumulative IPC: 0.03843 (Simulation time: 1 hr 41 min 2 sec) 
Heartbeat CPU  0 instructions:  586000001 cycles: 12760718675 heartbeat IPC: 0.04147 cumulative IPC: 0.03844 (Simulation time: 1 hr 41 min 16 sec) 
Heartbeat CPU  0 instructions:  587000000 cycles: 12784714602 heartbeat IPC: 0.04167 cumulative IPC: 0.03844 (Simulation time: 1 hr 41 min 30 sec) 
Heartbeat CPU  0 instructions:  588000000 cycles: 12808889096 heartbeat IPC: 0.04137 cumulative IPC: 0.03845 (Simulation time: 1 hr 41 min 44 sec) 
Heartbeat CPU  0 instructions:  589000002 cycles: 12833278140 heartbeat IPC: 0.04100 cumulative IPC: 0.03845 (Simulation time: 1 hr 41 min 58 sec) 
Heartbeat CPU  0 instructions:  590000000 cycles: 12857458843 heartbeat IPC: 0.04136 cumulative IPC: 0.03846 (Simulation time: 1 hr 42 min 12 sec) 
Heartbeat CPU  0 instructions:  591000000 cycles: 12882165319 heartbeat IPC: 0.04048 cumulative IPC: 0.03846 (Simulation time: 1 hr 42 min 26 sec) 
Heartbeat CPU  0 instructions:  592000000 cycles: 12906655942 heartbeat IPC: 0.04083 cumulative IPC: 0.03847 (Simulation time: 1 hr 42 min 40 sec) 
Heartbeat CPU  0 instructions:  593000000 cycles: 12931078470 heartbeat IPC: 0.04095 cumulative IPC: 0.03847 (Simulation time: 1 hr 42 min 54 sec) 
Heartbeat CPU  0 instructions:  594000000 cycles: 12956165011 heartbeat IPC: 0.03986 cumulative IPC: 0.03847 (Simulation time: 1 hr 43 min 8 sec) 
Heartbeat CPU  0 instructions:  595000002 cycles: 12981077479 heartbeat IPC: 0.04014 cumulative IPC: 0.03848 (Simulation time: 1 hr 43 min 22 sec) 
Heartbeat CPU  0 instructions:  596000000 cycles: 13006120310 heartbeat IPC: 0.03993 cumulative IPC: 0.03848 (Simulation time: 1 hr 43 min 36 sec) 
Heartbeat CPU  0 instructions:  597000000 cycles: 13031264207 heartbeat IPC: 0.03977 cumulative IPC: 0.03848 (Simulation time: 1 hr 43 min 50 sec) 
Heartbeat CPU  0 instructions:  598000000 cycles: 13056483164 heartbeat IPC: 0.03965 cumulative IPC: 0.03849 (Simulation time: 1 hr 44 min 4 sec) 
Heartbeat CPU  0 instructions:  599000002 cycles: 13081478317 heartbeat IPC: 0.04001 cumulative IPC: 0.03849 (Simulation time: 1 hr 44 min 19 sec) 
Heartbeat CPU  0 instructions:  600000000 cycles: 13106649504 heartbeat IPC: 0.03973 cumulative IPC: 0.03849 (Simulation time: 1 hr 44 min 33 sec) 
Finished CPU 0 instructions: 500000003 cycles: 12990063938 cumulative IPC: 0.03849 (Simulation time: 1 hr 44 min 33 sec) 

ChampSim completed all CPUs

[ROI Statistics]
Core_0_instructions 500000003
Core_0_cycles 12990063938
Core_0_IPC 0.03849

Core_0_branch_prediction_accuracy 91.38259
Core_0_branch_MPKI 20.71461
Core_0_average_ROB_occupancy_at_mispredict 46.75707

Core_0_L1D_total_access 104098643
Core_0_L1D_total_hit 29056255
Core_0_L1D_total_miss 75042388
Core_0_L1D_loads 103983747
Core_0_L1D_load_hit 28943855
Core_0_L1D_load_miss 75039892
Core_0_L1D_RFOs 114896
Core_0_L1D_RFO_hit 112400
Core_0_L1D_RFO_miss 2496
Core_0_L1D_prefetches 0
Core_0_L1D_prefetch_hit 0
Core_0_L1D_prefetch_miss 0
Core_0_L1D_writebacks 0
Core_0_L1D_writeback_hit 0
Core_0_L1D_writeback_miss 0
Core_0_L1D_prefetch_requested 0
Core_0_L1D_prefetch_dropped 0
Core_0_L1D_prefetch_issued 0
Core_0_L1D_prefetch_filled 0
Core_0_L1D_prefetch_useful 0
Core_0_L1D_prefetch_useless 0
Core_0_L1D_prefetch_late 0
Core_0_L1D_average_miss_latency 331.29915

Core_0_L1D_rq_access 155342314
Core_0_L1D_rq_forward 0
Core_0_L1D_rq_merged 51322936
Core_0_L1D_rq_to_cache 104019378
Core_0_L1D_rq_full 0

Core_0_L1D_wq_access 123159
Core_0_L1D_wq_forward 0
Core_0_L1D_wq_merged 6868
Core_0_L1D_wq_to_cache 116291
Core_0_L1D_wq_full 0

Core_0_L1D_pq_access 0
Core_0_L1D_pq_forward 0
Core_0_L1D_pq_merged 0
Core_0_L1D_pq_to_cache 0
Core_0_L1D_pq_full 0

Core_0_L1D_acc_epochs 12675504
Core_0_L1D_acc_level_0 12675504
Core_0_L1D_acc_level_1 0
Core_0_L1D_acc_level_2 0
Core_0_L1D_acc_level_3 0
Core_0_L1D_acc_level_4 0
Core_0_L1D_acc_level_5 0
Core_0_L1D_acc_level_6 0
Core_0_L1D_acc_level_7 0
Core_0_L1D_acc_level_8 0
Core_0_L1D_acc_level_9 0

Core_0_L1I_total_access 90896506
Core_0_L1I_total_hit 90896506
Core_0_L1I_total_miss 0
Core_0_L1I_loads 90896506
Core_0_L1I_load_hit 90896506
Core_0_L1I_load_miss 0
Core_0_L1I_RFOs 0
Core_0_L1I_RFO_hit 0
Core_0_L1I_RFO_miss 0
Core_0_L1I_prefetches 0
Core_0_L1I_prefetch_hit 0
Core_0_L1I_prefetch_miss 0
Core_0_L1I_writebacks 0
Core_0_L1I_writeback_hit 0
Core_0_L1I_writeback_miss 0
Core_0_L1I_prefetch_requested 0
Core_0_L1I_prefetch_dropped 0
Core_0_L1I_prefetch_issued 0
Core_0_L1I_prefetch_filled 0
Core_0_L1I_prefetch_useful 0
Core_0_L1I_prefetch_useless 0
Core_0_L1I_prefetch_late 0
Core_0_L1I_average_miss_latency -nan

Core_0_L1I_rq_access 499999982
Core_0_L1I_rq_forward 0
Core_0_L1I_rq_merged 409103476
Core_0_L1I_rq_to_cache 90896506
Core_0_L1I_rq_full 0

Core_0_L1I_wq_access 0
Core_0_L1I_wq_forward 0
Core_0_L1I_wq_merged 0
Core_0_L1I_wq_to_cache 0
Core_0_L1I_wq_full 0

Core_0_L1I_pq_access 0
Core_0_L1I_pq_forward 0
Core_0_L1I_pq_merged 0
Core_0_L1I_pq_to_cache 0
Core_0_L1I_pq_full 0

Core_0_L1I_acc_epochs 12675504
Core_0_L1I_acc_level_0 12675504
Core_0_L1I_acc_level_1 0
Core_0_L1I_acc_level_2 0
Core_0_L1I_acc_level_3 0
Core_0_L1I_acc_level_4 0
Core_0_L1I_acc_level_5 0
Core_0_L1I_acc_level_6 0
Core_0_L1I_acc_level_7 0
Core_0_L1I_acc_level_8 0
Core_0_L1I_acc_level_9 0

Core_0_L2C_total_access 138631931
Core_0_L2C_total_hit 70934480
Core_0_L2C_total_miss 67697451
Core_0_L2C_loads 75039892
Core_0_L2C_load_hit 15731757
Core_0_L2C_load_miss 59308135
Core_0_L2C_RFOs 2496
Core_0_L2C_RFO_hit 570
Core_0_L2C_RFO_miss 1926
Core_0_L2C_prefetches 63526988
Core_0_L2C_prefetch_hit 55139612
Core_0_L2C_prefetch_miss 8387376
Core_0_L2C_writebacks 62555
Core_0_L2C_writeback_hit 62541
Core_0_L2C_writeback_miss 14
Core_0_L2C_prefetch_requested 939303341
Core_0_L2C_prefetch_dropped 0
Core_0_L2C_prefetch_issued 939303341
Core_0_L2C_prefetch_filled 9808562
Core_0_L2C_prefetch_useful 1841134
Core_0_L2C_prefetch_useless 7966931
Core_0_L2C_prefetch_late 23660
Core_0_L2C_average_miss_latency 381.08715

Core_0_L2C_rq_access 75042388
Core_0_L2C_rq_forward 0
Core_0_L2C_rq_merged 0
Core_0_L2C_rq_to_cache 75042388
Core_0_L2C_rq_full 0

Core_0_L2C_wq_access 62555
Core_0_L2C_wq_forward 0
Core_0_L2C_wq_merged 0
Core_0_L2C_wq_to_cache 62555
Core_0_L2C_wq_full 0

Core_0_L2C_pq_access 939303341
Core_0_L2C_pq_forward 0
Core_0_L2C_pq_merged 16
Core_0_L2C_pq_to_cache 939303325
Core_0_L2C_pq_full 0

Core_0_L2C_acc_epochs 12675504
Core_0_L2C_acc_level_0 11563166
Core_0_L2C_acc_level_1 464251
Core_0_L2C_acc_level_2 329310
Core_0_L2C_acc_level_3 40487
Core_0_L2C_acc_level_4 9006
Core_0_L2C_acc_level_5 212684
Core_0_L2C_acc_level_6 10799
Core_0_L2C_acc_level_7 8308
Core_0_L2C_acc_level_8 3110
Core_0_L2C_acc_level_9 34383

Core_0_LLC_total_access 867520711
Core_0_LLC_total_hit 573703053
Core_0_LLC_total_miss 293817658
Core_0_LLC_loads 59285067
Core_0_LLC_load_hit 18350013
Core_0_LLC_load_miss 40935054
Core_0_LLC_RFOs 1892
Core_0_LLC_RFO_hit 254
Core_0_LLC_RFO_miss 1638
Core_0_LLC_prefetches 808172604
Core_0_LLC_prefetch_hit 555309318
Core_0_LLC_prefetch_miss 252863286
Core_0_LLC_writebacks 61148
Core_0_LLC_writeback_hit 43468
Core_0_LLC_writeback_miss 17680
Core_0_LLC_prefetch_requested 0
Core_0_LLC_prefetch_dropped 0
Core_0_LLC_prefetch_issued 0
Core_0_LLC_prefetch_filled 275379168
Core_0_LLC_prefetch_useful 14753282
Core_0_LLC_prefetch_useless 260597457
Core_0_LLC_prefetch_late 26608
Core_0_LLC_average_miss_latency 580.11158

Core_0_LLC_rq_access 59286959
Core_0_LLC_rq_forward 0
Core_0_LLC_rq_merged 0
Core_0_LLC_rq_to_cache 59286959
Core_0_LLC_rq_full 0

Core_0_LLC_wq_access 61148
Core_0_LLC_wq_forward 0
Core_0_LLC_wq_merged 0
Core_0_LLC_wq_to_cache 61148
Core_0_LLC_wq_full 0

Core_0_LLC_pq_access 879656749
Core_0_LLC_pq_forward 0
Core_0_LLC_pq_merged 0
Core_0_LLC_pq_to_cache 879656746
Core_0_LLC_pq_full 0

Core_0_LLC_acc_epochs 12799463
Core_0_LLC_acc_level_0 8573312
Core_0_LLC_acc_level_1 2515835
Core_0_LLC_acc_level_2 808262
Core_0_LLC_acc_level_3 339597
Core_0_LLC_acc_level_4 116957
Core_0_LLC_acc_level_5 215128
Core_0_LLC_acc_level_6 46742
Core_0_LLC_acc_level_7 42739
Core_0_LLC_acc_level_8 23520
Core_0_LLC_acc_level_9 117371

Core_0_major_page_fault 0
Core_0_minor_page_fault 428295

[Bingo] PHT Access: 81120762
[Bingo] PHT Hit PC+Addr: 7059650
[Bingo] PHT Hit PC+Offs: 43221287
[Bingo] PHT Miss: 30839825
[Bingo] Prefetch PC+Addr: 0
[Bingo] Prefetch PC+Offs: 0
[Bingo] Useful PC+Addr: 0
[Bingo] Useful PC+Offs: 0
[Bingo] Useless PC+Addr: 0
[Bingo] Useless PC+Offs: 0
[Bingo] L1 Prefetch per Region: 0.00000
[Bingo] L2 Prefetch per Region: 1.38603
[Bingo] L3 Prefetch per Region: 20.30429
[Bingo] No Prefetch per Region: 10.30967
[Bingo] Number of Voters Mean: 15.86349
[Bingo] Number of Voters SD: 1.04173

Channel_0_RQ_row_buffer_hit 145674616
Channel_0_RQ_row_buffer_miss 148124888
Channel_0_WQ_row_buffer_hit 18959
Channel_0_WQ_row_buffer_miss 40232
Channel_0_WQ_full 0
Channel_0_dbus_congested 246061634

avg_congested_cycle 23

DRAM_bw_pochs 51197850
DRAM_bw_level_0 7812566
DRAM_bw_level_1 9140755
DRAM_bw_level_2 6537100
DRAM_bw_level_3 27707429
