*************************************************
   ChampSim Multicore Out-of-Order Simulator
   Last compiled: Dec 11 2024 17:59:53
*************************************************
parsing config file: /home/functionmain/桌面/Pythia/config/bingo.ini

trace_0 /home/functionmain/桌面/Pythia/traces/429.mcf-184B.champsimtrace.xz
adding L2C_PREFETCHER: Bingo
Initialize SHIP state
warmup_instructions 100000000
simulation_instructions 500000000
champsim_seed 223
measure_ipc 0
measure_ipc_epoch 1000
measure_dram_bw 1
measure_dram_bw_epoch 256
measure_cache_acc 1
measure_cache_acc_epoch 1024
l1d_perfect 0
l2c_perfect 0
llc_perfect 0
l1d_semi_perfect 0
l2c_semi_perfect 0
llc_semi_perfect 0
semi_perfect_cache_page_buffer_size 64

num_cpus 1
cpu_freq 4000
dram_io_freq 1200
page_size 4096
block_size 64
max_read_per_cycle 8
max_fill_per_cycle 1
dram_channels 1
log2_dram_channels 0
dram_ranks 1
dram_banks 8
dram_rows 65536
dram_columns 128
dram_row_size 8
dram_size 4096
dram_pages 1048576

fetch_width 6
decode_width 6
exec_width 4
lq_width 2
sq_width 2
retire_width 4
scheduler_size 128
branch_mispredict_penalty 20
rob_size 256
lq_size 72
sq_size 56
num_instr_destinations_sparc 4
num_instr_destinations 2
num_instr_sources 4

itlb_set 16
itlb_way 8
itlb_rq_size 16
itlb_wq_size 16
itlb_pq_size 0
itlb_mshr_size 8
itlb_latency 1

dtlb_set 16
dtlb_way 4
dtlb_rq_size 16
dtlb_wq_size 16
dtlb_pq_size 0
dtlb_mshr_size 8
dtlb_latency 1

stlb_set 128
stlb_way 12
stlb_rq_size 32
stlb_wq_size 32
stlb_pq_size 0
stlb_mshr_size 16
stlb_latency 8

l1i_size 32
l1i_set 64
l1i_way 8
l1i_rq_size 64
l1i_wq_size 64
l1i_pq_size 8
l1i_mshr_size 8
l1i_latency 1

l1d_size 32
l1d_set 64
l1d_way 8
l1d_rq_size 64
l1d_wq_size 64
l1d_pq_size 8
l1d_mshr_size 16
l1d_latency 4

l2c_size 256
l2c_set 512
l2c_way 8
l2c_rq_size 32
l2c_wq_size 32
l2c_pq_size 32
l2c_mshr_size 32
l2c_latency 10

llc_size 2048
llc_set 2048
llc_way 16
llc_rq_size 32
llc_wq_size 32
llc_pq_size 32
llc_mshr_size 64
llc_latency 20

dram_channel_width 8
dram_wq_size 64
dram_rq_size 64
tRP 15
tRCD 15
tCAS 12.5
dram_dbus_turn_around_time 30
dram_write_high_wm 56
dram_write_low_wm 48
min_dram_writes_per_switch 16
dram_mtps 1200
dram_dbus_return_time 26

bingo_region_size 2048
bingo_pattern_len 32
bingo_pc_width 16
bingo_min_addr_width 5
bingo_max_addr_width 16
bingo_ft_size 64
bingo_at_size 128
bingo_pht_size 4096
bingo_pht_ways 16
bingo_pf_streamer_size 128
bingo_debug_level 0
bingo_l1d_thresh 1.01
bingo_l2c_thresh 0.8
bingo_llc_thresh 0.05
bingo_pc_address_fill_level L2


Heartbeat CPU  0 instructions:    1000000 cycles:    1116853 heartbeat IPC: 0.89537 cumulative IPC: 0.89537 (Simulation time: 0 hr 0 min 2 sec) 
Heartbeat CPU  0 instructions:    2000002 cycles:    2229678 heartbeat IPC: 0.89862 cumulative IPC: 0.89699 (Simulation time: 0 hr 0 min 5 sec) 
Heartbeat CPU  0 instructions:    3000000 cycles:    3308829 heartbeat IPC: 0.92665 cumulative IPC: 0.90667 (Simulation time: 0 hr 0 min 7 sec) 
Heartbeat CPU  0 instructions:    4000000 cycles:    4326908 heartbeat IPC: 0.98224 cumulative IPC: 0.92445 (Simulation time: 0 hr 0 min 10 sec) 
Heartbeat CPU  0 instructions:    5000003 cycles:    5282458 heartbeat IPC: 1.04652 cumulative IPC: 0.94653 (Simulation time: 0 hr 0 min 13 sec) 
Heartbeat CPU  0 instructions:    6000003 cycles:    6456371 heartbeat IPC: 0.85185 cumulative IPC: 0.92932 (Simulation time: 0 hr 0 min 15 sec) 
Heartbeat CPU  0 instructions:    7000001 cycles:    7621074 heartbeat IPC: 0.85859 cumulative IPC: 0.91851 (Simulation time: 0 hr 0 min 18 sec) 
Heartbeat CPU  0 instructions:    8000000 cycles:    8763276 heartbeat IPC: 0.87550 cumulative IPC: 0.91290 (Simulation time: 0 hr 0 min 21 sec) 
Heartbeat CPU  0 instructions:    9000001 cycles:    9919548 heartbeat IPC: 0.86485 cumulative IPC: 0.90730 (Simulation time: 0 hr 0 min 23 sec) 
Heartbeat CPU  0 instructions:   10000001 cycles:   11041760 heartbeat IPC: 0.89110 cumulative IPC: 0.90565 (Simulation time: 0 hr 0 min 26 sec) 
Heartbeat CPU  0 instructions:   11000000 cycles:   12165504 heartbeat IPC: 0.88988 cumulative IPC: 0.90420 (Simulation time: 0 hr 0 min 29 sec) 
Heartbeat CPU  0 instructions:   12000000 cycles:   13328872 heartbeat IPC: 0.85957 cumulative IPC: 0.90030 (Simulation time: 0 hr 0 min 32 sec) 
Heartbeat CPU  0 instructions:   13000000 cycles:   14484456 heartbeat IPC: 0.86536 cumulative IPC: 0.89751 (Simulation time: 0 hr 0 min 34 sec) 
Heartbeat CPU  0 instructions:   14000001 cycles:   15669762 heartbeat IPC: 0.84366 cumulative IPC: 0.89344 (Simulation time: 0 hr 0 min 37 sec) 
Heartbeat CPU  0 instructions:   15000003 cycles:   16856921 heartbeat IPC: 0.84235 cumulative IPC: 0.88984 (Simulation time: 0 hr 0 min 40 sec) 
Heartbeat CPU  0 instructions:   16000000 cycles:   18039772 heartbeat IPC: 0.84541 cumulative IPC: 0.88693 (Simulation time: 0 hr 0 min 43 sec) 
Heartbeat CPU  0 instructions:   17000000 cycles:   19235099 heartbeat IPC: 0.83659 cumulative IPC: 0.88380 (Simulation time: 0 hr 0 min 46 sec) 
Heartbeat CPU  0 instructions:   18000000 cycles:   20451455 heartbeat IPC: 0.82213 cumulative IPC: 0.88013 (Simulation time: 0 hr 0 min 48 sec) 
Heartbeat CPU  0 instructions:   19000000 cycles:   21396846 heartbeat IPC: 1.05776 cumulative IPC: 0.88798 (Simulation time: 0 hr 0 min 51 sec) 
Heartbeat CPU  0 instructions:   20000000 cycles:   22518967 heartbeat IPC: 0.89117 cumulative IPC: 0.88814 (Simulation time: 0 hr 0 min 54 sec) 
Heartbeat CPU  0 instructions:   21000000 cycles:   23732096 heartbeat IPC: 0.82431 cumulative IPC: 0.88488 (Simulation time: 0 hr 0 min 57 sec) 
Heartbeat CPU  0 instructions:   22000001 cycles:   24871800 heartbeat IPC: 0.87742 cumulative IPC: 0.88454 (Simulation time: 0 hr 0 min 59 sec) 
Heartbeat CPU  0 instructions:   23000001 cycles:   26032200 heartbeat IPC: 0.86177 cumulative IPC: 0.88352 (Simulation time: 0 hr 1 min 2 sec) 
Heartbeat CPU  0 instructions:   24000000 cycles:   27210701 heartbeat IPC: 0.84853 cumulative IPC: 0.88201 (Simulation time: 0 hr 1 min 5 sec) 
Heartbeat CPU  0 instructions:   25000002 cycles:   28387911 heartbeat IPC: 0.84947 cumulative IPC: 0.88066 (Simulation time: 0 hr 1 min 8 sec) 
Heartbeat CPU  0 instructions:   26000000 cycles:   29525140 heartbeat IPC: 0.87933 cumulative IPC: 0.88061 (Simulation time: 0 hr 1 min 10 sec) 
Heartbeat CPU  0 instructions:   27000000 cycles:   30726991 heartbeat IPC: 0.83205 cumulative IPC: 0.87871 (Simulation time: 0 hr 1 min 13 sec) 
Heartbeat CPU  0 instructions:   28000000 cycles:   31921931 heartbeat IPC: 0.83686 cumulative IPC: 0.87714 (Simulation time: 0 hr 1 min 16 sec) 
Heartbeat CPU  0 instructions:   29000000 cycles:   33082998 heartbeat IPC: 0.86128 cumulative IPC: 0.87658 (Simulation time: 0 hr 1 min 19 sec) 
Heartbeat CPU  0 instructions:   30000000 cycles:   34270346 heartbeat IPC: 0.84221 cumulative IPC: 0.87539 (Simulation time: 0 hr 1 min 22 sec) 
Heartbeat CPU  0 instructions:   31000002 cycles:   35420116 heartbeat IPC: 0.86974 cumulative IPC: 0.87521 (Simulation time: 0 hr 1 min 24 sec) 
Heartbeat CPU  0 instructions:   32000000 cycles:   36566403 heartbeat IPC: 0.87238 cumulative IPC: 0.87512 (Simulation time: 0 hr 1 min 27 sec) 
Heartbeat CPU  0 instructions:   33000000 cycles:   37731385 heartbeat IPC: 0.85838 cumulative IPC: 0.87460 (Simulation time: 0 hr 1 min 30 sec) 
Heartbeat CPU  0 instructions:   34000002 cycles:   38684486 heartbeat IPC: 1.04921 cumulative IPC: 0.87891 (Simulation time: 0 hr 1 min 33 sec) 
Heartbeat CPU  0 instructions:   35000003 cycles:   39751854 heartbeat IPC: 0.93688 cumulative IPC: 0.88046 (Simulation time: 0 hr 1 min 35 sec) 
Heartbeat CPU  0 instructions:   36000000 cycles:   40927901 heartbeat IPC: 0.85030 cumulative IPC: 0.87960 (Simulation time: 0 hr 1 min 38 sec) 
Heartbeat CPU  0 instructions:   37000002 cycles:   42132033 heartbeat IPC: 0.83048 cumulative IPC: 0.87819 (Simulation time: 0 hr 1 min 41 sec) 
Heartbeat CPU  0 instructions:   38000003 cycles:   43301089 heartbeat IPC: 0.85539 cumulative IPC: 0.87758 (Simulation time: 0 hr 1 min 44 sec) 
Heartbeat CPU  0 instructions:   39000001 cycles:   44429730 heartbeat IPC: 0.88602 cumulative IPC: 0.87779 (Simulation time: 0 hr 1 min 46 sec) 
Heartbeat CPU  0 instructions:   40000000 cycles:   45549112 heartbeat IPC: 0.89335 cumulative IPC: 0.87817 (Simulation time: 0 hr 1 min 49 sec) 
Heartbeat CPU  0 instructions:   41000000 cycles:   46712994 heartbeat IPC: 0.85919 cumulative IPC: 0.87770 (Simulation time: 0 hr 1 min 52 sec) 
Heartbeat CPU  0 instructions:   42000000 cycles:   47886314 heartbeat IPC: 0.85228 cumulative IPC: 0.87708 (Simulation time: 0 hr 1 min 55 sec) 
Heartbeat CPU  0 instructions:   43000000 cycles:   49031095 heartbeat IPC: 0.87353 cumulative IPC: 0.87699 (Simulation time: 0 hr 1 min 57 sec) 
Heartbeat CPU  0 instructions:   44000000 cycles:   50171520 heartbeat IPC: 0.87687 cumulative IPC: 0.87699 (Simulation time: 0 hr 2 min 0 sec) 
Heartbeat CPU  0 instructions:   45000003 cycles:   51320918 heartbeat IPC: 0.87002 cumulative IPC: 0.87684 (Simulation time: 0 hr 2 min 3 sec) 
Heartbeat CPU  0 instructions:   46000003 cycles:   52422955 heartbeat IPC: 0.90741 cumulative IPC: 0.87748 (Simulation time: 0 hr 2 min 6 sec) 
Heartbeat CPU  0 instructions:   47000000 cycles:   53490993 heartbeat IPC: 0.93629 cumulative IPC: 0.87865 (Simulation time: 0 hr 2 min 8 sec) 
Heartbeat CPU  0 instructions:   48000000 cycles:   54369005 heartbeat IPC: 1.13894 cumulative IPC: 0.88286 (Simulation time: 0 hr 2 min 11 sec) 
Heartbeat CPU  0 instructions:   49000002 cycles:   55526762 heartbeat IPC: 0.86374 cumulative IPC: 0.88246 (Simulation time: 0 hr 2 min 14 sec) 
Heartbeat CPU  0 instructions:   50000003 cycles:   56694703 heartbeat IPC: 0.85621 cumulative IPC: 0.88192 (Simulation time: 0 hr 2 min 16 sec) 
Heartbeat CPU  0 instructions:   51000001 cycles:   57842266 heartbeat IPC: 0.87141 cumulative IPC: 0.88171 (Simulation time: 0 hr 2 min 19 sec) 
Heartbeat CPU  0 instructions:   52000000 cycles:   58989718 heartbeat IPC: 0.87150 cumulative IPC: 0.88151 (Simulation time: 0 hr 2 min 22 sec) 
Heartbeat CPU  0 instructions:   53000001 cycles:   60165213 heartbeat IPC: 0.85071 cumulative IPC: 0.88091 (Simulation time: 0 hr 2 min 25 sec) 
Heartbeat CPU  0 instructions:   54000001 cycles:   61335204 heartbeat IPC: 0.85471 cumulative IPC: 0.88041 (Simulation time: 0 hr 2 min 28 sec) 
Heartbeat CPU  0 instructions:   55000002 cycles:   62492888 heartbeat IPC: 0.86379 cumulative IPC: 0.88010 (Simulation time: 0 hr 2 min 30 sec) 
Heartbeat CPU  0 instructions:   56000000 cycles:   63592891 heartbeat IPC: 0.90909 cumulative IPC: 0.88060 (Simulation time: 0 hr 2 min 33 sec) 
Heartbeat CPU  0 instructions:   57000002 cycles:   64731188 heartbeat IPC: 0.87851 cumulative IPC: 0.88056 (Simulation time: 0 hr 2 min 36 sec) 
Heartbeat CPU  0 instructions:   58000002 cycles:   65866977 heartbeat IPC: 0.88045 cumulative IPC: 0.88056 (Simulation time: 0 hr 2 min 39 sec) 
Heartbeat CPU  0 instructions:   59000001 cycles:   66993851 heartbeat IPC: 0.88741 cumulative IPC: 0.88068 (Simulation time: 0 hr 2 min 41 sec) 
Heartbeat CPU  0 instructions:   60000000 cycles:   68139383 heartbeat IPC: 0.87296 cumulative IPC: 0.88055 (Simulation time: 0 hr 2 min 44 sec) 
Heartbeat CPU  0 instructions:   61000002 cycles:   69169661 heartbeat IPC: 0.97061 cumulative IPC: 0.88189 (Simulation time: 0 hr 2 min 47 sec) 
Heartbeat CPU  0 instructions:   62000000 cycles:   70108379 heartbeat IPC: 1.06528 cumulative IPC: 0.88435 (Simulation time: 0 hr 2 min 50 sec) 
Heartbeat CPU  0 instructions:   63000001 cycles:   71247378 heartbeat IPC: 0.87796 cumulative IPC: 0.88424 (Simulation time: 0 hr 2 min 52 sec) 
Heartbeat CPU  0 instructions:   64000000 cycles:   72355284 heartbeat IPC: 0.90260 cumulative IPC: 0.88452 (Simulation time: 0 hr 2 min 55 sec) 
Heartbeat CPU  0 instructions:   65000002 cycles:   73455833 heartbeat IPC: 0.90864 cumulative IPC: 0.88489 (Simulation time: 0 hr 2 min 57 sec) 
Heartbeat CPU  0 instructions:   66000000 cycles:   74576790 heartbeat IPC: 0.89209 cumulative IPC: 0.88499 (Simulation time: 0 hr 3 min 0 sec) 
Heartbeat CPU  0 instructions:   67000002 cycles:   75647097 heartbeat IPC: 0.93431 cumulative IPC: 0.88569 (Simulation time: 0 hr 3 min 3 sec) 
Heartbeat CPU  0 instructions:   68000000 cycles:   76762546 heartbeat IPC: 0.89650 cumulative IPC: 0.88585 (Simulation time: 0 hr 3 min 5 sec) 
Heartbeat CPU  0 instructions:   69000002 cycles:   77720181 heartbeat IPC: 1.04424 cumulative IPC: 0.88780 (Simulation time: 0 hr 3 min 8 sec) 
Heartbeat CPU  0 instructions:   70000001 cycles:   78753085 heartbeat IPC: 0.96814 cumulative IPC: 0.88885 (Simulation time: 0 hr 3 min 11 sec) 
Heartbeat CPU  0 instructions:   71000002 cycles:   79873367 heartbeat IPC: 0.89263 cumulative IPC: 0.88891 (Simulation time: 0 hr 3 min 13 sec) 
Heartbeat CPU  0 instructions:   72000000 cycles:   80963513 heartbeat IPC: 0.91731 cumulative IPC: 0.88929 (Simulation time: 0 hr 3 min 16 sec) 
Heartbeat CPU  0 instructions:   73000001 cycles:   82132956 heartbeat IPC: 0.85511 cumulative IPC: 0.88880 (Simulation time: 0 hr 3 min 19 sec) 
Heartbeat CPU  0 instructions:   74000000 cycles:   83253530 heartbeat IPC: 0.89240 cumulative IPC: 0.88885 (Simulation time: 0 hr 3 min 22 sec) 
Heartbeat CPU  0 instructions:   75000000 cycles:   84388560 heartbeat IPC: 0.88103 cumulative IPC: 0.88875 (Simulation time: 0 hr 3 min 25 sec) 
Heartbeat CPU  0 instructions:   76000000 cycles:   85537239 heartbeat IPC: 0.87057 cumulative IPC: 0.88850 (Simulation time: 0 hr 3 min 28 sec) 
Heartbeat CPU  0 instructions:   77000000 cycles:   86665480 heartbeat IPC: 0.88634 cumulative IPC: 0.88847 (Simulation time: 0 hr 3 min 30 sec) 
Heartbeat CPU  0 instructions:   78000002 cycles:   87743492 heartbeat IPC: 0.92764 cumulative IPC: 0.88895 (Simulation time: 0 hr 3 min 33 sec) 
Heartbeat CPU  0 instructions:   79000002 cycles:   88663577 heartbeat IPC: 1.08686 cumulative IPC: 0.89101 (Simulation time: 0 hr 3 min 36 sec) 
Heartbeat CPU  0 instructions:   80000000 cycles:   89767580 heartbeat IPC: 0.90579 cumulative IPC: 0.89119 (Simulation time: 0 hr 3 min 38 sec) 
Heartbeat CPU  0 instructions:   81000003 cycles:   90812102 heartbeat IPC: 0.95738 cumulative IPC: 0.89195 (Simulation time: 0 hr 3 min 41 sec) 
Heartbeat CPU  0 instructions:   82000003 cycles:   91821027 heartbeat IPC: 0.99115 cumulative IPC: 0.89304 (Simulation time: 0 hr 3 min 43 sec) 
Heartbeat CPU  0 instructions:   83000003 cycles:   92816251 heartbeat IPC: 1.00480 cumulative IPC: 0.89424 (Simulation time: 0 hr 3 min 46 sec) 
Heartbeat CPU  0 instructions:   84000000 cycles:   93700665 heartbeat IPC: 1.13069 cumulative IPC: 0.89647 (Simulation time: 0 hr 3 min 49 sec) 
Heartbeat CPU  0 instructions:   85000000 cycles:   94685488 heartbeat IPC: 1.01541 cumulative IPC: 0.89771 (Simulation time: 0 hr 3 min 51 sec) 
Heartbeat CPU  0 instructions:   86000000 cycles:   95625739 heartbeat IPC: 1.06355 cumulative IPC: 0.89934 (Simulation time: 0 hr 3 min 53 sec) 
Heartbeat CPU  0 instructions:   87000002 cycles:   96550160 heartbeat IPC: 1.08176 cumulative IPC: 0.90109 (Simulation time: 0 hr 3 min 55 sec) 
Heartbeat CPU  0 instructions:   88000000 cycles:   97427994 heartbeat IPC: 1.13917 cumulative IPC: 0.90323 (Simulation time: 0 hr 3 min 58 sec) 
Heartbeat CPU  0 instructions:   89000001 cycles:   98343184 heartbeat IPC: 1.09267 cumulative IPC: 0.90499 (Simulation time: 0 hr 4 min 0 sec) 
Heartbeat CPU  0 instructions:   90000000 cycles:   99316666 heartbeat IPC: 1.02724 cumulative IPC: 0.90619 (Simulation time: 0 hr 4 min 3 sec) 
Heartbeat CPU  0 instructions:   91000002 cycles:  100340932 heartbeat IPC: 0.97631 cumulative IPC: 0.90691 (Simulation time: 0 hr 4 min 5 sec) 
Heartbeat CPU  0 instructions:   92000000 cycles:  101322559 heartbeat IPC: 1.01871 cumulative IPC: 0.90799 (Simulation time: 0 hr 4 min 8 sec) 
Heartbeat CPU  0 instructions:   93000001 cycles:  102215311 heartbeat IPC: 1.12013 cumulative IPC: 0.90984 (Simulation time: 0 hr 4 min 11 sec) 
Heartbeat CPU  0 instructions:   94000003 cycles:  103250105 heartbeat IPC: 0.96638 cumulative IPC: 0.91041 (Simulation time: 0 hr 4 min 13 sec) 
Heartbeat CPU  0 instructions:   95000002 cycles:  104290457 heartbeat IPC: 0.96121 cumulative IPC: 0.91092 (Simulation time: 0 hr 4 min 15 sec) 
Heartbeat CPU  0 instructions:   96000000 cycles:  105267719 heartbeat IPC: 1.02327 cumulative IPC: 0.91196 (Simulation time: 0 hr 4 min 18 sec) 
Heartbeat CPU  0 instructions:   97000001 cycles:  106206505 heartbeat IPC: 1.06521 cumulative IPC: 0.91332 (Simulation time: 0 hr 4 min 20 sec) 
Heartbeat CPU  0 instructions:   98000001 cycles:  107078024 heartbeat IPC: 1.14742 cumulative IPC: 0.91522 (Simulation time: 0 hr 4 min 23 sec) 
Heartbeat CPU  0 instructions:   99000001 cycles:  107999081 heartbeat IPC: 1.08571 cumulative IPC: 0.91667 (Simulation time: 0 hr 4 min 25 sec) 
Heartbeat CPU  0 instructions:  100000000 cycles:  108916658 heartbeat IPC: 1.08983 cumulative IPC: 0.91813 (Simulation time: 0 hr 4 min 28 sec) 

Warmup complete CPU  0 instructions:  100000002 cycles:  108916659 (Simulation time: 0 hr 4 min 28 sec) 

Heartbeat CPU  0 instructions:  101000002 cycles:  125725015 heartbeat IPC: 0.05949 cumulative IPC: 0.05949 (Simulation time: 0 hr 4 min 36 sec) 
Heartbeat CPU  0 instructions:  102000000 cycles:  147047097 heartbeat IPC: 0.04690 cumulative IPC: 0.05245 (Simulation time: 0 hr 4 min 48 sec) 
Heartbeat CPU  0 instructions:  103000001 cycles:  157823005 heartbeat IPC: 0.09280 cumulative IPC: 0.06134 (Simulation time: 0 hr 4 min 53 sec) 
Heartbeat CPU  0 instructions:  104000000 cycles:  168961955 heartbeat IPC: 0.08977 cumulative IPC: 0.06662 (Simulation time: 0 hr 4 min 59 sec) 
Heartbeat CPU  0 instructions:  105000003 cycles:  195817376 heartbeat IPC: 0.03724 cumulative IPC: 0.05754 (Simulation time: 0 hr 5 min 13 sec) 
Heartbeat CPU  0 instructions:  106000000 cycles:  206991930 heartbeat IPC: 0.08949 cumulative IPC: 0.06118 (Simulation time: 0 hr 5 min 19 sec) 
Heartbeat CPU  0 instructions:  107000000 cycles:  217634949 heartbeat IPC: 0.09396 cumulative IPC: 0.06439 (Simulation time: 0 hr 5 min 25 sec) 
Heartbeat CPU  0 instructions:  108000000 cycles:  238180701 heartbeat IPC: 0.04867 cumulative IPC: 0.06189 (Simulation time: 0 hr 5 min 36 sec) 
Heartbeat CPU  0 instructions:  109000002 cycles:  255942170 heartbeat IPC: 0.05630 cumulative IPC: 0.06121 (Simulation time: 0 hr 5 min 45 sec) 
Heartbeat CPU  0 instructions:  110000001 cycles:  266852873 heartbeat IPC: 0.09165 cumulative IPC: 0.06332 (Simulation time: 0 hr 5 min 50 sec) 
Heartbeat CPU  0 instructions:  111000001 cycles:  279250232 heartbeat IPC: 0.08066 cumulative IPC: 0.06458 (Simulation time: 0 hr 5 min 57 sec) 
Heartbeat CPU  0 instructions:  112000000 cycles:  305073617 heartbeat IPC: 0.03872 cumulative IPC: 0.06118 (Simulation time: 0 hr 6 min 10 sec) 
Heartbeat CPU  0 instructions:  113000001 cycles:  315333226 heartbeat IPC: 0.09747 cumulative IPC: 0.06298 (Simulation time: 0 hr 6 min 16 sec) 
Heartbeat CPU  0 instructions:  114000002 cycles:  325459368 heartbeat IPC: 0.09875 cumulative IPC: 0.06465 (Simulation time: 0 hr 6 min 22 sec) 
Heartbeat CPU  0 instructions:  115000000 cycles:  347132801 heartbeat IPC: 0.04614 cumulative IPC: 0.06297 (Simulation time: 0 hr 6 min 33 sec) 
Heartbeat CPU  0 instructions:  116000000 cycles:  363618570 heartbeat IPC: 0.06066 cumulative IPC: 0.06282 (Simulation time: 0 hr 6 min 42 sec) 
Heartbeat CPU  0 instructions:  117000000 cycles:  374858746 heartbeat IPC: 0.08897 cumulative IPC: 0.06392 (Simulation time: 0 hr 6 min 48 sec) 
Heartbeat CPU  0 instructions:  118000001 cycles:  387014290 heartbeat IPC: 0.08227 cumulative IPC: 0.06473 (Simulation time: 0 hr 6 min 54 sec) 
Heartbeat CPU  0 instructions:  119000000 cycles:  413617782 heartbeat IPC: 0.03759 cumulative IPC: 0.06236 (Simulation time: 0 hr 7 min 8 sec) 
Heartbeat CPU  0 instructions:  120000000 cycles:  424852935 heartbeat IPC: 0.08901 cumulative IPC: 0.06330 (Simulation time: 0 hr 7 min 13 sec) 
Heartbeat CPU  0 instructions:  121000000 cycles:  435894148 heartbeat IPC: 0.09057 cumulative IPC: 0.06422 (Simulation time: 0 hr 7 min 19 sec) 
Heartbeat CPU  0 instructions:  122000001 cycles:  451680485 heartbeat IPC: 0.06335 cumulative IPC: 0.06418 (Simulation time: 0 hr 7 min 27 sec) 
Heartbeat CPU  0 instructions:  123000000 cycles:  473241443 heartbeat IPC: 0.04638 cumulative IPC: 0.06313 (Simulation time: 0 hr 7 min 38 sec) 
Heartbeat CPU  0 instructions:  124000000 cycles:  483339925 heartbeat IPC: 0.09902 cumulative IPC: 0.06410 (Simulation time: 0 hr 7 min 44 sec) 
Heartbeat CPU  0 instructions:  125000000 cycles:  493923631 heartbeat IPC: 0.09448 cumulative IPC: 0.06493 (Simulation time: 0 hr 7 min 49 sec) 
Heartbeat CPU  0 instructions:  126000003 cycles:  511108833 heartbeat IPC: 0.05819 cumulative IPC: 0.06465 (Simulation time: 0 hr 7 min 58 sec) 
Heartbeat CPU  0 instructions:  127000000 cycles:  531454285 heartbeat IPC: 0.04915 cumulative IPC: 0.06390 (Simulation time: 0 hr 8 min 8 sec) 
Heartbeat CPU  0 instructions:  128000000 cycles:  541552932 heartbeat IPC: 0.09902 cumulative IPC: 0.06472 (Simulation time: 0 hr 8 min 13 sec) 
Heartbeat CPU  0 instructions:  129000000 cycles:  552157620 heartbeat IPC: 0.09430 cumulative IPC: 0.06543 (Simulation time: 0 hr 8 min 19 sec) 
Heartbeat CPU  0 instructions:  130000003 cycles:  571723948 heartbeat IPC: 0.05111 cumulative IPC: 0.06482 (Simulation time: 0 hr 8 min 29 sec) 
Heartbeat CPU  0 instructions:  131000001 cycles:  589445170 heartbeat IPC: 0.05643 cumulative IPC: 0.06451 (Simulation time: 0 hr 8 min 38 sec) 
Heartbeat CPU  0 instructions:  132000000 cycles:  599818133 heartbeat IPC: 0.09640 cumulative IPC: 0.06519 (Simulation time: 0 hr 8 min 43 sec) 
Heartbeat CPU  0 instructions:  133000000 cycles:  610809982 heartbeat IPC: 0.09098 cumulative IPC: 0.06575 (Simulation time: 0 hr 8 min 49 sec) 
Heartbeat CPU  0 instructions:  134000002 cycles:  631234013 heartbeat IPC: 0.04896 cumulative IPC: 0.06509 (Simulation time: 0 hr 9 min 0 sec) 
Heartbeat CPU  0 instructions:  135000000 cycles:  648053050 heartbeat IPC: 0.05946 cumulative IPC: 0.06492 (Simulation time: 0 hr 9 min 8 sec) 
Heartbeat CPU  0 instructions:  136000000 cycles:  658798078 heartbeat IPC: 0.09307 cumulative IPC: 0.06547 (Simulation time: 0 hr 9 min 14 sec) 
Heartbeat CPU  0 instructions:  137000002 cycles:  670137847 heartbeat IPC: 0.08819 cumulative IPC: 0.06593 (Simulation time: 0 hr 9 min 19 sec) 
Heartbeat CPU  0 instructions:  138000002 cycles:  689968810 heartbeat IPC: 0.05043 cumulative IPC: 0.06540 (Simulation time: 0 hr 9 min 30 sec) 
Heartbeat CPU  0 instructions:  139000001 cycles:  708683876 heartbeat IPC: 0.05343 cumulative IPC: 0.06503 (Simulation time: 0 hr 9 min 39 sec) 
Heartbeat CPU  0 instructions:  140000000 cycles:  721297248 heartbeat IPC: 0.07928 cumulative IPC: 0.06532 (Simulation time: 0 hr 9 min 45 sec) 
Heartbeat CPU  0 instructions:  141000002 cycles:  733686026 heartbeat IPC: 0.08072 cumulative IPC: 0.06562 (Simulation time: 0 hr 9 min 51 sec) 
Heartbeat CPU  0 instructions:  142000003 cycles:  753461633 heartbeat IPC: 0.05057 cumulative IPC: 0.06516 (Simulation time: 0 hr 10 min 1 sec) 
Heartbeat CPU  0 instructions:  143000000 cycles:  772861099 heartbeat IPC: 0.05155 cumulative IPC: 0.06476 (Simulation time: 0 hr 10 min 11 sec) 
Heartbeat CPU  0 instructions:  144000000 cycles:  785685260 heartbeat IPC: 0.07798 cumulative IPC: 0.06501 (Simulation time: 0 hr 10 min 17 sec) 
Heartbeat CPU  0 instructions:  145000002 cycles:  800502672 heartbeat IPC: 0.06749 cumulative IPC: 0.06507 (Simulation time: 0 hr 10 min 24 sec) 
Heartbeat CPU  0 instructions:  146000000 cycles:  822364288 heartbeat IPC: 0.04574 cumulative IPC: 0.06448 (Simulation time: 0 hr 10 min 36 sec) 
Heartbeat CPU  0 instructions:  147000001 cycles:  842613224 heartbeat IPC: 0.04939 cumulative IPC: 0.06406 (Simulation time: 0 hr 10 min 46 sec) 
Heartbeat CPU  0 instructions:  148000000 cycles:  855727904 heartbeat IPC: 0.07625 cumulative IPC: 0.06427 (Simulation time: 0 hr 10 min 52 sec) 
Heartbeat CPU  0 instructions:  149000000 cycles:  867484100 heartbeat IPC: 0.08506 cumulative IPC: 0.06460 (Simulation time: 0 hr 10 min 58 sec) 
Heartbeat CPU  0 instructions:  150000001 cycles:  889058514 heartbeat IPC: 0.04635 cumulative IPC: 0.06409 (Simulation time: 0 hr 11 min 9 sec) 
Heartbeat CPU  0 instructions:  151000000 cycles:  906714567 heartbeat IPC: 0.05664 cumulative IPC: 0.06393 (Simulation time: 0 hr 11 min 18 sec) 
Heartbeat CPU  0 instructions:  152000000 cycles:  918246498 heartbeat IPC: 0.08672 cumulative IPC: 0.06425 (Simulation time: 0 hr 11 min 24 sec) 
Heartbeat CPU  0 instructions:  153000000 cycles:  929997961 heartbeat IPC: 0.08510 cumulative IPC: 0.06455 (Simulation time: 0 hr 11 min 31 sec) 
Heartbeat CPU  0 instructions:  154000000 cycles:  954274987 heartbeat IPC: 0.04119 cumulative IPC: 0.06388 (Simulation time: 0 hr 11 min 43 sec) 
Heartbeat CPU  0 instructions:  155000000 cycles:  968997795 heartbeat IPC: 0.06792 cumulative IPC: 0.06395 (Simulation time: 0 hr 11 min 51 sec) 
Heartbeat CPU  0 instructions:  156000000 cycles:  981155274 heartbeat IPC: 0.08225 cumulative IPC: 0.06420 (Simulation time: 0 hr 11 min 57 sec) 
Heartbeat CPU  0 instructions:  157000002 cycles:  994306202 heartbeat IPC: 0.07604 cumulative IPC: 0.06438 (Simulation time: 0 hr 12 min 4 sec) 
Heartbeat CPU  0 instructions:  158000002 cycles: 1020801679 heartbeat IPC: 0.03774 cumulative IPC: 0.06360 (Simulation time: 0 hr 12 min 18 sec) 
Heartbeat CPU  0 instructions:  159000000 cycles: 1033956191 heartbeat IPC: 0.07602 cumulative IPC: 0.06378 (Simulation time: 0 hr 12 min 24 sec) 
Heartbeat CPU  0 instructions:  160000000 cycles: 1046680228 heartbeat IPC: 0.07859 cumulative IPC: 0.06398 (Simulation time: 0 hr 12 min 31 sec) 
Heartbeat CPU  0 instructions:  161000001 cycles: 1060864124 heartbeat IPC: 0.07050 cumulative IPC: 0.06408 (Simulation time: 0 hr 12 min 38 sec) 
Heartbeat CPU  0 instructions:  162000000 cycles: 1085608090 heartbeat IPC: 0.04041 cumulative IPC: 0.06348 (Simulation time: 0 hr 12 min 51 sec) 
Heartbeat CPU  0 instructions:  163000000 cycles: 1098881835 heartbeat IPC: 0.07534 cumulative IPC: 0.06364 (Simulation time: 0 hr 12 min 57 sec) 
Heartbeat CPU  0 instructions:  164000000 cycles: 1113073921 heartbeat IPC: 0.07046 cumulative IPC: 0.06374 (Simulation time: 0 hr 13 min 4 sec) 
Heartbeat CPU  0 instructions:  165000002 cycles: 1132332884 heartbeat IPC: 0.05192 cumulative IPC: 0.06351 (Simulation time: 0 hr 13 min 14 sec) 
Heartbeat CPU  0 instructions:  166000000 cycles: 1154985421 heartbeat IPC: 0.04415 cumulative IPC: 0.06309 (Simulation time: 0 hr 13 min 25 sec) 
Heartbeat CPU  0 instructions:  167000000 cycles: 1169944060 heartbeat IPC: 0.06685 cumulative IPC: 0.06315 (Simulation time: 0 hr 13 min 32 sec) 
Heartbeat CPU  0 instructions:  168000000 cycles: 1184614926 heartbeat IPC: 0.06816 cumulative IPC: 0.06321 (Simulation time: 0 hr 13 min 40 sec) 
Heartbeat CPU  0 instructions:  169000000 cycles: 1198409866 heartbeat IPC: 0.07249 cumulative IPC: 0.06333 (Simulation time: 0 hr 13 min 47 sec) 
Heartbeat CPU  0 instructions:  170000003 cycles: 1225098356 heartbeat IPC: 0.03747 cumulative IPC: 0.06271 (Simulation time: 0 hr 14 min 1 sec) 
Heartbeat CPU  0 instructions:  171000000 cycles: 1240295327 heartbeat IPC: 0.06580 cumulative IPC: 0.06276 (Simulation time: 0 hr 14 min 8 sec) 
Heartbeat CPU  0 instructions:  172000000 cycles: 1256070735 heartbeat IPC: 0.06339 cumulative IPC: 0.06276 (Simulation time: 0 hr 14 min 15 sec) 
Heartbeat CPU  0 instructions:  173000000 cycles: 1271329185 heartbeat IPC: 0.06554 cumulative IPC: 0.06280 (Simulation time: 0 hr 14 min 22 sec) 
Heartbeat CPU  0 instructions:  174000000 cycles: 1297294760 heartbeat IPC: 0.03851 cumulative IPC: 0.06227 (Simulation time: 0 hr 14 min 36 sec) 
Heartbeat CPU  0 instructions:  175000003 cycles: 1313922146 heartbeat IPC: 0.06014 cumulative IPC: 0.06224 (Simulation time: 0 hr 14 min 44 sec) 
Heartbeat CPU  0 instructions:  176000000 cycles: 1329135664 heartbeat IPC: 0.06573 cumulative IPC: 0.06228 (Simulation time: 0 hr 14 min 51 sec) 
Heartbeat CPU  0 instructions:  177000003 cycles: 1345907970 heartbeat IPC: 0.05962 cumulative IPC: 0.06225 (Simulation time: 0 hr 14 min 59 sec) 
Heartbeat CPU  0 instructions:  178000003 cycles: 1369652127 heartbeat IPC: 0.04212 cumulative IPC: 0.06187 (Simulation time: 0 hr 15 min 11 sec) 
Heartbeat CPU  0 instructions:  179000003 cycles: 1389191630 heartbeat IPC: 0.05118 cumulative IPC: 0.06171 (Simulation time: 0 hr 15 min 21 sec) 
Heartbeat CPU  0 instructions:  180000000 cycles: 1403723519 heartbeat IPC: 0.06881 cumulative IPC: 0.06179 (Simulation time: 0 hr 15 min 28 sec) 
Heartbeat CPU  0 instructions:  181000002 cycles: 1419915551 heartbeat IPC: 0.06176 cumulative IPC: 0.06178 (Simulation time: 0 hr 15 min 35 sec) 
Heartbeat CPU  0 instructions:  182000001 cycles: 1436681841 heartbeat IPC: 0.05964 cumulative IPC: 0.06176 (Simulation time: 0 hr 15 min 43 sec) 
Heartbeat CPU  0 instructions:  183000003 cycles: 1463652661 heartbeat IPC: 0.03708 cumulative IPC: 0.06127 (Simulation time: 0 hr 15 min 57 sec) 
Heartbeat CPU  0 instructions:  184000000 cycles: 1481431325 heartbeat IPC: 0.05625 cumulative IPC: 0.06120 (Simulation time: 0 hr 16 min 6 sec) 
Heartbeat CPU  0 instructions:  185000001 cycles: 1499662672 heartbeat IPC: 0.05485 cumulative IPC: 0.06112 (Simulation time: 0 hr 16 min 14 sec) 
Heartbeat CPU  0 instructions:  186000001 cycles: 1517872982 heartbeat IPC: 0.05491 cumulative IPC: 0.06104 (Simulation time: 0 hr 16 min 22 sec) 
Heartbeat CPU  0 instructions:  187000000 cycles: 1533356689 heartbeat IPC: 0.06458 cumulative IPC: 0.06108 (Simulation time: 0 hr 16 min 29 sec) 
Heartbeat CPU  0 instructions:  188000000 cycles: 1558655053 heartbeat IPC: 0.03953 cumulative IPC: 0.06070 (Simulation time: 0 hr 16 min 42 sec) 
Heartbeat CPU  0 instructions:  189000001 cycles: 1575024234 heartbeat IPC: 0.06109 cumulative IPC: 0.06070 (Simulation time: 0 hr 16 min 50 sec) 
Heartbeat CPU  0 instructions:  190000000 cycles: 1589914357 heartbeat IPC: 0.06716 cumulative IPC: 0.06077 (Simulation time: 0 hr 16 min 58 sec) 
Heartbeat CPU  0 instructions:  191000001 cycles: 1606511826 heartbeat IPC: 0.06025 cumulative IPC: 0.06076 (Simulation time: 0 hr 17 min 6 sec) 
Heartbeat CPU  0 instructions:  192000000 cycles: 1621166100 heartbeat IPC: 0.06824 cumulative IPC: 0.06084 (Simulation time: 0 hr 17 min 13 sec) 
Heartbeat CPU  0 instructions:  193000000 cycles: 1648477059 heartbeat IPC: 0.03662 cumulative IPC: 0.06041 (Simulation time: 0 hr 17 min 27 sec) 
Heartbeat CPU  0 instructions:  194000000 cycles: 1666319527 heartbeat IPC: 0.05605 cumulative IPC: 0.06036 (Simulation time: 0 hr 17 min 35 sec) 
Heartbeat CPU  0 instructions:  195000000 cycles: 1684519966 heartbeat IPC: 0.05494 cumulative IPC: 0.06029 (Simulation time: 0 hr 17 min 44 sec) 
Heartbeat CPU  0 instructions:  196000000 cycles: 1702074801 heartbeat IPC: 0.05696 cumulative IPC: 0.06026 (Simulation time: 0 hr 17 min 52 sec) 
Heartbeat CPU  0 instructions:  197000001 cycles: 1718953986 heartbeat IPC: 0.05924 cumulative IPC: 0.06025 (Simulation time: 0 hr 18 min 0 sec) 
Heartbeat CPU  0 instructions:  198000003 cycles: 1741827948 heartbeat IPC: 0.04372 cumulative IPC: 0.06002 (Simulation time: 0 hr 18 min 12 sec) 
Heartbeat CPU  0 instructions:  199000001 cycles: 1764243933 heartbeat IPC: 0.04461 cumulative IPC: 0.05981 (Simulation time: 0 hr 18 min 23 sec) 
Heartbeat CPU  0 instructions:  200000000 cycles: 1780828281 heartbeat IPC: 0.06030 cumulative IPC: 0.05981 (Simulation time: 0 hr 18 min 31 sec) 
Heartbeat CPU  0 instructions:  201000002 cycles: 1796746462 heartbeat IPC: 0.06282 cumulative IPC: 0.05984 (Simulation time: 0 hr 18 min 38 sec) 
Heartbeat CPU  0 instructions:  202000000 cycles: 1810843221 heartbeat IPC: 0.07094 cumulative IPC: 0.05993 (Simulation time: 0 hr 18 min 45 sec) 
Heartbeat CPU  0 instructions:  203000000 cycles: 1837881862 heartbeat IPC: 0.03698 cumulative IPC: 0.05957 (Simulation time: 0 hr 18 min 59 sec) 
Heartbeat CPU  0 instructions:  204000000 cycles: 1851864883 heartbeat IPC: 0.07152 cumulative IPC: 0.05967 (Simulation time: 0 hr 19 min 6 sec) 
Heartbeat CPU  0 instructions:  205000000 cycles: 1864471273 heartbeat IPC: 0.07932 cumulative IPC: 0.05981 (Simulation time: 0 hr 19 min 12 sec) 
Heartbeat CPU  0 instructions:  206000000 cycles: 1876782826 heartbeat IPC: 0.08122 cumulative IPC: 0.05996 (Simulation time: 0 hr 19 min 18 sec) 
Heartbeat CPU  0 instructions:  207000002 cycles: 1897898756 heartbeat IPC: 0.04736 cumulative IPC: 0.05981 (Simulation time: 0 hr 19 min 29 sec) 
Heartbeat CPU  0 instructions:  208000000 cycles: 1918644727 heartbeat IPC: 0.04820 cumulative IPC: 0.05968 (Simulation time: 0 hr 19 min 40 sec) 
Heartbeat CPU  0 instructions:  209000001 cycles: 1934026582 heartbeat IPC: 0.06501 cumulative IPC: 0.05972 (Simulation time: 0 hr 19 min 47 sec) 
Heartbeat CPU  0 instructions:  210000000 cycles: 1949579940 heartbeat IPC: 0.06429 cumulative IPC: 0.05976 (Simulation time: 0 hr 19 min 55 sec) 
Heartbeat CPU  0 instructions:  211000001 cycles: 1965462447 heartbeat IPC: 0.06296 cumulative IPC: 0.05979 (Simulation time: 0 hr 20 min 3 sec) 
Heartbeat CPU  0 instructions:  212000000 cycles: 1982092766 heartbeat IPC: 0.06013 cumulative IPC: 0.05979 (Simulation time: 0 hr 20 min 12 sec) 
Heartbeat CPU  0 instructions:  213000001 cycles: 2007826993 heartbeat IPC: 0.03886 cumulative IPC: 0.05951 (Simulation time: 0 hr 20 min 25 sec) 
Heartbeat CPU  0 instructions:  214000001 cycles: 2023088750 heartbeat IPC: 0.06552 cumulative IPC: 0.05956 (Simulation time: 0 hr 20 min 32 sec) 
Heartbeat CPU  0 instructions:  215000000 cycles: 2039607940 heartbeat IPC: 0.06054 cumulative IPC: 0.05956 (Simulation time: 0 hr 20 min 40 sec) 
Heartbeat CPU  0 instructions:  216000000 cycles: 2057764440 heartbeat IPC: 0.05508 cumulative IPC: 0.05952 (Simulation time: 0 hr 20 min 48 sec) 
Heartbeat CPU  0 instructions:  217000001 cycles: 2076668786 heartbeat IPC: 0.05290 cumulative IPC: 0.05946 (Simulation time: 0 hr 20 min 58 sec) 
Heartbeat CPU  0 instructions:  218000000 cycles: 2099838206 heartbeat IPC: 0.04316 cumulative IPC: 0.05927 (Simulation time: 0 hr 21 min 10 sec) 
Heartbeat CPU  0 instructions:  219000001 cycles: 2114209363 heartbeat IPC: 0.06958 cumulative IPC: 0.05934 (Simulation time: 0 hr 21 min 17 sec) 
Heartbeat CPU  0 instructions:  220000000 cycles: 2130097547 heartbeat IPC: 0.06294 cumulative IPC: 0.05937 (Simulation time: 0 hr 21 min 24 sec) 
Heartbeat CPU  0 instructions:  221000002 cycles: 2147894225 heartbeat IPC: 0.05619 cumulative IPC: 0.05934 (Simulation time: 0 hr 21 min 32 sec) 
Heartbeat CPU  0 instructions:  222000003 cycles: 2170253318 heartbeat IPC: 0.04472 cumulative IPC: 0.05918 (Simulation time: 0 hr 21 min 43 sec) 
Heartbeat CPU  0 instructions:  223000001 cycles: 2191804137 heartbeat IPC: 0.04640 cumulative IPC: 0.05905 (Simulation time: 0 hr 21 min 54 sec) 
Heartbeat CPU  0 instructions:  224000000 cycles: 2207705147 heartbeat IPC: 0.06289 cumulative IPC: 0.05908 (Simulation time: 0 hr 22 min 2 sec) 
Heartbeat CPU  0 instructions:  225000001 cycles: 2225882268 heartbeat IPC: 0.05501 cumulative IPC: 0.05905 (Simulation time: 0 hr 22 min 11 sec) 
Heartbeat CPU  0 instructions:  226000003 cycles: 2241749468 heartbeat IPC: 0.06302 cumulative IPC: 0.05908 (Simulation time: 0 hr 22 min 18 sec) 
Heartbeat CPU  0 instructions:  227000001 cycles: 2259411497 heartbeat IPC: 0.05662 cumulative IPC: 0.05906 (Simulation time: 0 hr 22 min 28 sec) 
Heartbeat CPU  0 instructions:  228000000 cycles: 2283279781 heartbeat IPC: 0.04190 cumulative IPC: 0.05887 (Simulation time: 0 hr 22 min 40 sec) 
Heartbeat CPU  0 instructions:  229000001 cycles: 2299223652 heartbeat IPC: 0.06272 cumulative IPC: 0.05890 (Simulation time: 0 hr 22 min 47 sec) 
Heartbeat CPU  0 instructions:  230000000 cycles: 2316852908 heartbeat IPC: 0.05672 cumulative IPC: 0.05888 (Simulation time: 0 hr 22 min 55 sec) 
Heartbeat CPU  0 instructions:  231000001 cycles: 2334974823 heartbeat IPC: 0.05518 cumulative IPC: 0.05885 (Simulation time: 0 hr 23 min 4 sec) 
Heartbeat CPU  0 instructions:  232000000 cycles: 2354872253 heartbeat IPC: 0.05026 cumulative IPC: 0.05877 (Simulation time: 0 hr 23 min 13 sec) 
Heartbeat CPU  0 instructions:  233000002 cycles: 2382114055 heartbeat IPC: 0.03671 cumulative IPC: 0.05851 (Simulation time: 0 hr 23 min 27 sec) 
Heartbeat CPU  0 instructions:  234000001 cycles: 2400388180 heartbeat IPC: 0.05472 cumulative IPC: 0.05848 (Simulation time: 0 hr 23 min 35 sec) 
Heartbeat CPU  0 instructions:  235000000 cycles: 2417062789 heartbeat IPC: 0.05997 cumulative IPC: 0.05849 (Simulation time: 0 hr 23 min 43 sec) 
Heartbeat CPU  0 instructions:  236000000 cycles: 2435854603 heartbeat IPC: 0.05321 cumulative IPC: 0.05845 (Simulation time: 0 hr 23 min 52 sec) 
Heartbeat CPU  0 instructions:  237000003 cycles: 2454940170 heartbeat IPC: 0.05240 cumulative IPC: 0.05840 (Simulation time: 0 hr 24 min 1 sec) 
Heartbeat CPU  0 instructions:  238000003 cycles: 2474308320 heartbeat IPC: 0.05163 cumulative IPC: 0.05834 (Simulation time: 0 hr 24 min 10 sec) 
Heartbeat CPU  0 instructions:  239000002 cycles: 2497755325 heartbeat IPC: 0.04265 cumulative IPC: 0.05819 (Simulation time: 0 hr 24 min 22 sec) 
Heartbeat CPU  0 instructions:  240000000 cycles: 2514318616 heartbeat IPC: 0.06037 cumulative IPC: 0.05820 (Simulation time: 0 hr 24 min 30 sec) 
Heartbeat CPU  0 instructions:  241000000 cycles: 2531935779 heartbeat IPC: 0.05676 cumulative IPC: 0.05819 (Simulation time: 0 hr 24 min 38 sec) 
Heartbeat CPU  0 instructions:  242000000 cycles: 2549553984 heartbeat IPC: 0.05676 cumulative IPC: 0.05818 (Simulation time: 0 hr 24 min 46 sec) 
Heartbeat CPU  0 instructions:  243000001 cycles: 2566942714 heartbeat IPC: 0.05751 cumulative IPC: 0.05818 (Simulation time: 0 hr 24 min 54 sec) 
Heartbeat CPU  0 instructions:  244000000 cycles: 2594391436 heartbeat IPC: 0.03643 cumulative IPC: 0.05794 (Simulation time: 0 hr 25 min 9 sec) 
Heartbeat CPU  0 instructions:  245000000 cycles: 2609915579 heartbeat IPC: 0.06442 cumulative IPC: 0.05798 (Simulation time: 0 hr 25 min 16 sec) 
Heartbeat CPU  0 instructions:  246000001 cycles: 2627997389 heartbeat IPC: 0.05530 cumulative IPC: 0.05796 (Simulation time: 0 hr 25 min 24 sec) 
Heartbeat CPU  0 instructions:  247000000 cycles: 2644048226 heartbeat IPC: 0.06230 cumulative IPC: 0.05799 (Simulation time: 0 hr 25 min 32 sec) 
Heartbeat CPU  0 instructions:  248000000 cycles: 2660181722 heartbeat IPC: 0.06198 cumulative IPC: 0.05801 (Simulation time: 0 hr 25 min 40 sec) 
Heartbeat CPU  0 instructions:  249000002 cycles: 2687191976 heartbeat IPC: 0.03702 cumulative IPC: 0.05779 (Simulation time: 0 hr 25 min 54 sec) 
Heartbeat CPU  0 instructions:  250000000 cycles: 2703935223 heartbeat IPC: 0.05973 cumulative IPC: 0.05780 (Simulation time: 0 hr 26 min 2 sec) 
Heartbeat CPU  0 instructions:  251000000 cycles: 2720653545 heartbeat IPC: 0.05981 cumulative IPC: 0.05782 (Simulation time: 0 hr 26 min 10 sec) 
Heartbeat CPU  0 instructions:  252000000 cycles: 2736461418 heartbeat IPC: 0.06326 cumulative IPC: 0.05785 (Simulation time: 0 hr 26 min 17 sec) 
Heartbeat CPU  0 instructions:  253000003 cycles: 2752288362 heartbeat IPC: 0.06318 cumulative IPC: 0.05788 (Simulation time: 0 hr 26 min 25 sec) 
Heartbeat CPU  0 instructions:  254000002 cycles: 2778720899 heartbeat IPC: 0.03783 cumulative IPC: 0.05768 (Simulation time: 0 hr 26 min 39 sec) 
Heartbeat CPU  0 instructions:  255000001 cycles: 2794178891 heartbeat IPC: 0.06469 cumulative IPC: 0.05772 (Simulation time: 0 hr 26 min 47 sec) 
Heartbeat CPU  0 instructions:  256000000 cycles: 2808405331 heartbeat IPC: 0.07029 cumulative IPC: 0.05779 (Simulation time: 0 hr 26 min 54 sec) 
Heartbeat CPU  0 instructions:  257000000 cycles: 2820400270 heartbeat IPC: 0.08337 cumulative IPC: 0.05790 (Simulation time: 0 hr 27 min 0 sec) 
Heartbeat CPU  0 instructions:  258000003 cycles: 2838046963 heartbeat IPC: 0.05667 cumulative IPC: 0.05789 (Simulation time: 0 hr 27 min 10 sec) 
Heartbeat CPU  0 instructions:  259000001 cycles: 2860105453 heartbeat IPC: 0.04533 cumulative IPC: 0.05779 (Simulation time: 0 hr 27 min 21 sec) 
Heartbeat CPU  0 instructions:  260000000 cycles: 2874481832 heartbeat IPC: 0.06956 cumulative IPC: 0.05785 (Simulation time: 0 hr 27 min 28 sec) 
Heartbeat CPU  0 instructions:  261000001 cycles: 2889066607 heartbeat IPC: 0.06856 cumulative IPC: 0.05791 (Simulation time: 0 hr 27 min 35 sec) 
Heartbeat CPU  0 instructions:  262000000 cycles: 2906065539 heartbeat IPC: 0.05883 cumulative IPC: 0.05792 (Simulation time: 0 hr 27 min 44 sec) 
Heartbeat CPU  0 instructions:  263000002 cycles: 2923966257 heartbeat IPC: 0.05586 cumulative IPC: 0.05790 (Simulation time: 0 hr 27 min 53 sec) 
Heartbeat CPU  0 instructions:  264000000 cycles: 2949428285 heartbeat IPC: 0.03927 cumulative IPC: 0.05774 (Simulation time: 0 hr 28 min 7 sec) 
Heartbeat CPU  0 instructions:  265000000 cycles: 2963921227 heartbeat IPC: 0.06900 cumulative IPC: 0.05779 (Simulation time: 0 hr 28 min 14 sec) 
Heartbeat CPU  0 instructions:  266000000 cycles: 2979225423 heartbeat IPC: 0.06534 cumulative IPC: 0.05783 (Simulation time: 0 hr 28 min 21 sec) 
Heartbeat CPU  0 instructions:  267000000 cycles: 2995482534 heartbeat IPC: 0.06151 cumulative IPC: 0.05785 (Simulation time: 0 hr 28 min 30 sec) 
Heartbeat CPU  0 instructions:  268000000 cycles: 3011822309 heartbeat IPC: 0.06120 cumulative IPC: 0.05787 (Simulation time: 0 hr 28 min 38 sec) 
Heartbeat CPU  0 instructions:  269000003 cycles: 3032931968 heartbeat IPC: 0.04737 cumulative IPC: 0.05780 (Simulation time: 0 hr 28 min 49 sec) 
Heartbeat CPU  0 instructions:  270000000 cycles: 3056057201 heartbeat IPC: 0.04324 cumulative IPC: 0.05768 (Simulation time: 0 hr 29 min 0 sec) 
Heartbeat CPU  0 instructions:  271000000 cycles: 3070635633 heartbeat IPC: 0.06859 cumulative IPC: 0.05774 (Simulation time: 0 hr 29 min 7 sec) 
Heartbeat CPU  0 instructions:  272000000 cycles: 3084697078 heartbeat IPC: 0.07112 cumulative IPC: 0.05780 (Simulation time: 0 hr 29 min 14 sec) 
Heartbeat CPU  0 instructions:  273000001 cycles: 3098094519 heartbeat IPC: 0.07464 cumulative IPC: 0.05788 (Simulation time: 0 hr 29 min 21 sec) 
Heartbeat CPU  0 instructions:  274000000 cycles: 3125199324 heartbeat IPC: 0.03689 cumulative IPC: 0.05769 (Simulation time: 0 hr 29 min 35 sec) 
Heartbeat CPU  0 instructions:  275000000 cycles: 3136273031 heartbeat IPC: 0.09030 cumulative IPC: 0.05781 (Simulation time: 0 hr 29 min 41 sec) 
Heartbeat CPU  0 instructions:  276000000 cycles: 3146948653 heartbeat IPC: 0.09367 cumulative IPC: 0.05793 (Simulation time: 0 hr 29 min 47 sec) 
Heartbeat CPU  0 instructions:  277000000 cycles: 3161545732 heartbeat IPC: 0.06851 cumulative IPC: 0.05798 (Simulation time: 0 hr 29 min 54 sec) 
Heartbeat CPU  0 instructions:  278000002 cycles: 3179349063 heartbeat IPC: 0.05617 cumulative IPC: 0.05797 (Simulation time: 0 hr 30 min 3 sec) 
Heartbeat CPU  0 instructions:  279000000 cycles: 3206168372 heartbeat IPC: 0.03729 cumulative IPC: 0.05779 (Simulation time: 0 hr 30 min 17 sec) 
Heartbeat CPU  0 instructions:  280000000 cycles: 3223691873 heartbeat IPC: 0.05707 cumulative IPC: 0.05779 (Simulation time: 0 hr 30 min 25 sec) 
Heartbeat CPU  0 instructions:  281000001 cycles: 3238285675 heartbeat IPC: 0.06852 cumulative IPC: 0.05784 (Simulation time: 0 hr 30 min 32 sec) 
Heartbeat CPU  0 instructions:  282000000 cycles: 3254402453 heartbeat IPC: 0.06205 cumulative IPC: 0.05786 (Simulation time: 0 hr 30 min 39 sec) 
Heartbeat CPU  0 instructions:  283000000 cycles: 3271428123 heartbeat IPC: 0.05873 cumulative IPC: 0.05787 (Simulation time: 0 hr 30 min 48 sec) 
Heartbeat CPU  0 instructions:  284000000 cycles: 3295754533 heartbeat IPC: 0.04111 cumulative IPC: 0.05774 (Simulation time: 0 hr 31 min 0 sec) 
Heartbeat CPU  0 instructions:  285000000 cycles: 3309505978 heartbeat IPC: 0.07272 cumulative IPC: 0.05780 (Simulation time: 0 hr 31 min 7 sec) 
Heartbeat CPU  0 instructions:  286000001 cycles: 3322167151 heartbeat IPC: 0.07898 cumulative IPC: 0.05789 (Simulation time: 0 hr 31 min 14 sec) 
Heartbeat CPU  0 instructions:  287000001 cycles: 3334999709 heartbeat IPC: 0.07793 cumulative IPC: 0.05797 (Simulation time: 0 hr 31 min 21 sec) 
Heartbeat CPU  0 instructions:  288000000 cycles: 3359556964 heartbeat IPC: 0.04072 cumulative IPC: 0.05783 (Simulation time: 0 hr 31 min 34 sec) 
Heartbeat CPU  0 instructions:  289000000 cycles: 3376473039 heartbeat IPC: 0.05912 cumulative IPC: 0.05784 (Simulation time: 0 hr 31 min 43 sec) 
Heartbeat CPU  0 instructions:  290000001 cycles: 3391465590 heartbeat IPC: 0.06670 cumulative IPC: 0.05788 (Simulation time: 0 hr 31 min 50 sec) 
Heartbeat CPU  0 instructions:  291000000 cycles: 3405586725 heartbeat IPC: 0.07082 cumulative IPC: 0.05794 (Simulation time: 0 hr 31 min 58 sec) 
Heartbeat CPU  0 instructions:  292000000 cycles: 3421145411 heartbeat IPC: 0.06427 cumulative IPC: 0.05797 (Simulation time: 0 hr 32 min 6 sec) 
Heartbeat CPU  0 instructions:  293000001 cycles: 3444913309 heartbeat IPC: 0.04207 cumulative IPC: 0.05785 (Simulation time: 0 hr 32 min 18 sec) 
Heartbeat CPU  0 instructions:  294000000 cycles: 3464223811 heartbeat IPC: 0.05179 cumulative IPC: 0.05782 (Simulation time: 0 hr 32 min 27 sec) 
Heartbeat CPU  0 instructions:  295000001 cycles: 3482296839 heartbeat IPC: 0.05533 cumulative IPC: 0.05781 (Simulation time: 0 hr 32 min 36 sec) 
Heartbeat CPU  0 instructions:  296000000 cycles: 3501301317 heartbeat IPC: 0.05262 cumulative IPC: 0.05778 (Simulation time: 0 hr 32 min 45 sec) 
Heartbeat CPU  0 instructions:  297000001 cycles: 3520568299 heartbeat IPC: 0.05190 cumulative IPC: 0.05774 (Simulation time: 0 hr 32 min 54 sec) 
Heartbeat CPU  0 instructions:  298000000 cycles: 3539169572 heartbeat IPC: 0.05376 cumulative IPC: 0.05772 (Simulation time: 0 hr 33 min 3 sec) 
Heartbeat CPU  0 instructions:  299000001 cycles: 3563267673 heartbeat IPC: 0.04150 cumulative IPC: 0.05761 (Simulation time: 0 hr 33 min 15 sec) 
Heartbeat CPU  0 instructions:  300000000 cycles: 3584287358 heartbeat IPC: 0.04757 cumulative IPC: 0.05755 (Simulation time: 0 hr 33 min 25 sec) 
Heartbeat CPU  0 instructions:  301000002 cycles: 3602738203 heartbeat IPC: 0.05420 cumulative IPC: 0.05753 (Simulation time: 0 hr 33 min 34 sec) 
Heartbeat CPU  0 instructions:  302000001 cycles: 3620533316 heartbeat IPC: 0.05620 cumulative IPC: 0.05752 (Simulation time: 0 hr 33 min 42 sec) 
Heartbeat CPU  0 instructions:  303000000 cycles: 3637241848 heartbeat IPC: 0.05985 cumulative IPC: 0.05753 (Simulation time: 0 hr 33 min 50 sec) 
Heartbeat CPU  0 instructions:  304000000 cycles: 3655857447 heartbeat IPC: 0.05372 cumulative IPC: 0.05751 (Simulation time: 0 hr 33 min 58 sec) 
Heartbeat CPU  0 instructions:  305000000 cycles: 3679099417 heartbeat IPC: 0.04303 cumulative IPC: 0.05742 (Simulation time: 0 hr 34 min 10 sec) 
Heartbeat CPU  0 instructions:  306000001 cycles: 3700284986 heartbeat IPC: 0.04720 cumulative IPC: 0.05736 (Simulation time: 0 hr 34 min 21 sec) 
Heartbeat CPU  0 instructions:  307000001 cycles: 3719991757 heartbeat IPC: 0.05074 cumulative IPC: 0.05732 (Simulation time: 0 hr 34 min 30 sec) 
Heartbeat CPU  0 instructions:  308000000 cycles: 3738513520 heartbeat IPC: 0.05399 cumulative IPC: 0.05731 (Simulation time: 0 hr 34 min 38 sec) 
Heartbeat CPU  0 instructions:  309000002 cycles: 3755567397 heartbeat IPC: 0.05864 cumulative IPC: 0.05731 (Simulation time: 0 hr 34 min 46 sec) 
Heartbeat CPU  0 instructions:  310000003 cycles: 3772661883 heartbeat IPC: 0.05850 cumulative IPC: 0.05732 (Simulation time: 0 hr 34 min 55 sec) 
Heartbeat CPU  0 instructions:  311000002 cycles: 3797688786 heartbeat IPC: 0.03996 cumulative IPC: 0.05720 (Simulation time: 0 hr 35 min 8 sec) 
Heartbeat CPU  0 instructions:  312000000 cycles: 3812668143 heartbeat IPC: 0.06676 cumulative IPC: 0.05724 (Simulation time: 0 hr 35 min 15 sec) 
Heartbeat CPU  0 instructions:  313000000 cycles: 3830706230 heartbeat IPC: 0.05544 cumulative IPC: 0.05723 (Simulation time: 0 hr 35 min 24 sec) 
Heartbeat CPU  0 instructions:  314000000 cycles: 3849342659 heartbeat IPC: 0.05366 cumulative IPC: 0.05721 (Simulation time: 0 hr 35 min 34 sec) 
Heartbeat CPU  0 instructions:  315000000 cycles: 3867998218 heartbeat IPC: 0.05360 cumulative IPC: 0.05719 (Simulation time: 0 hr 35 min 43 sec) 
Heartbeat CPU  0 instructions:  316000000 cycles: 3886399479 heartbeat IPC: 0.05434 cumulative IPC: 0.05718 (Simulation time: 0 hr 35 min 52 sec) 
Heartbeat CPU  0 instructions:  317000002 cycles: 3910254240 heartbeat IPC: 0.04192 cumulative IPC: 0.05709 (Simulation time: 0 hr 36 min 5 sec) 
Heartbeat CPU  0 instructions:  318000002 cycles: 3929859665 heartbeat IPC: 0.05101 cumulative IPC: 0.05705 (Simulation time: 0 hr 36 min 14 sec) 
Heartbeat CPU  0 instructions:  319000002 cycles: 3947771652 heartbeat IPC: 0.05583 cumulative IPC: 0.05705 (Simulation time: 0 hr 36 min 23 sec) 
Heartbeat CPU  0 instructions:  320000000 cycles: 3965428017 heartbeat IPC: 0.05664 cumulative IPC: 0.05705 (Simulation time: 0 hr 36 min 31 sec) 
Heartbeat CPU  0 instructions:  321000001 cycles: 3984796979 heartbeat IPC: 0.05163 cumulative IPC: 0.05702 (Simulation time: 0 hr 36 min 40 sec) 
Heartbeat CPU  0 instructions:  322000000 cycles: 4005717151 heartbeat IPC: 0.04780 cumulative IPC: 0.05697 (Simulation time: 0 hr 36 min 49 sec) 
Heartbeat CPU  0 instructions:  323000001 cycles: 4023885812 heartbeat IPC: 0.05504 cumulative IPC: 0.05696 (Simulation time: 0 hr 36 min 58 sec) 
Heartbeat CPU  0 instructions:  324000000 cycles: 4042942111 heartbeat IPC: 0.05248 cumulative IPC: 0.05694 (Simulation time: 0 hr 37 min 7 sec) 
Heartbeat CPU  0 instructions:  325000000 cycles: 4069514660 heartbeat IPC: 0.03763 cumulative IPC: 0.05681 (Simulation time: 0 hr 37 min 21 sec) 
Heartbeat CPU  0 instructions:  326000000 cycles: 4087207052 heartbeat IPC: 0.05652 cumulative IPC: 0.05681 (Simulation time: 0 hr 37 min 29 sec) 
Heartbeat CPU  0 instructions:  327000000 cycles: 4107654288 heartbeat IPC: 0.04891 cumulative IPC: 0.05677 (Simulation time: 0 hr 37 min 38 sec) 
Heartbeat CPU  0 instructions:  328000000 cycles: 4126917833 heartbeat IPC: 0.05191 cumulative IPC: 0.05674 (Simulation time: 0 hr 37 min 47 sec) 
Heartbeat CPU  0 instructions:  329000001 cycles: 4142519336 heartbeat IPC: 0.06410 cumulative IPC: 0.05677 (Simulation time: 0 hr 37 min 54 sec) 
Heartbeat CPU  0 instructions:  330000002 cycles: 4158949663 heartbeat IPC: 0.06086 cumulative IPC: 0.05679 (Simulation time: 0 hr 38 min 2 sec) 
Heartbeat CPU  0 instructions:  331000003 cycles: 4175800878 heartbeat IPC: 0.05934 cumulative IPC: 0.05680 (Simulation time: 0 hr 38 min 11 sec) 
Heartbeat CPU  0 instructions:  332000000 cycles: 4202451639 heartbeat IPC: 0.03752 cumulative IPC: 0.05667 (Simulation time: 0 hr 38 min 25 sec) 
Heartbeat CPU  0 instructions:  333000000 cycles: 4220654603 heartbeat IPC: 0.05494 cumulative IPC: 0.05667 (Simulation time: 0 hr 38 min 33 sec) 
Heartbeat CPU  0 instructions:  334000001 cycles: 4238000286 heartbeat IPC: 0.05765 cumulative IPC: 0.05667 (Simulation time: 0 hr 38 min 41 sec) 
Heartbeat CPU  0 instructions:  335000002 cycles: 4251913892 heartbeat IPC: 0.07187 cumulative IPC: 0.05672 (Simulation time: 0 hr 38 min 48 sec) 
Heartbeat CPU  0 instructions:  336000000 cycles: 4272668032 heartbeat IPC: 0.04818 cumulative IPC: 0.05668 (Simulation time: 0 hr 38 min 57 sec) 
Heartbeat CPU  0 instructions:  337000000 cycles: 4291394981 heartbeat IPC: 0.05340 cumulative IPC: 0.05666 (Simulation time: 0 hr 39 min 6 sec) 
Heartbeat CPU  0 instructions:  338000000 cycles: 4309283371 heartbeat IPC: 0.05590 cumulative IPC: 0.05666 (Simulation time: 0 hr 39 min 14 sec) 
Heartbeat CPU  0 instructions:  339000000 cycles: 4329162441 heartbeat IPC: 0.05030 cumulative IPC: 0.05663 (Simulation time: 0 hr 39 min 23 sec) 
Heartbeat CPU  0 instructions:  340000000 cycles: 4355675569 heartbeat IPC: 0.03772 cumulative IPC: 0.05651 (Simulation time: 0 hr 39 min 37 sec) 
Heartbeat CPU  0 instructions:  341000000 cycles: 4376851439 heartbeat IPC: 0.04722 cumulative IPC: 0.05647 (Simulation time: 0 hr 39 min 46 sec) 
Heartbeat CPU  0 instructions:  342000000 cycles: 4394899684 heartbeat IPC: 0.05541 cumulative IPC: 0.05646 (Simulation time: 0 hr 39 min 55 sec) 
Heartbeat CPU  0 instructions:  343000000 cycles: 4410698791 heartbeat IPC: 0.06329 cumulative IPC: 0.05649 (Simulation time: 0 hr 40 min 2 sec) 
Heartbeat CPU  0 instructions:  344000000 cycles: 4430175580 heartbeat IPC: 0.05134 cumulative IPC: 0.05647 (Simulation time: 0 hr 40 min 11 sec) 
Heartbeat CPU  0 instructions:  345000000 cycles: 4449132885 heartbeat IPC: 0.05275 cumulative IPC: 0.05645 (Simulation time: 0 hr 40 min 21 sec) 
Heartbeat CPU  0 instructions:  346000001 cycles: 4465761115 heartbeat IPC: 0.06014 cumulative IPC: 0.05646 (Simulation time: 0 hr 40 min 29 sec) 
Heartbeat CPU  0 instructions:  347000003 cycles: 4483096166 heartbeat IPC: 0.05769 cumulative IPC: 0.05647 (Simulation time: 0 hr 40 min 40 sec) 
Heartbeat CPU  0 instructions:  348000000 cycles: 4501608724 heartbeat IPC: 0.05402 cumulative IPC: 0.05646 (Simulation time: 0 hr 40 min 51 sec) 
Heartbeat CPU  0 instructions:  349000002 cycles: 4510275682 heartbeat IPC: 0.11538 cumulative IPC: 0.05657 (Simulation time: 0 hr 40 min 57 sec) 
Heartbeat CPU  0 instructions:  350000000 cycles: 4522575846 heartbeat IPC: 0.08130 cumulative IPC: 0.05664 (Simulation time: 0 hr 41 min 4 sec) 
Heartbeat CPU  0 instructions:  351000000 cycles: 4531217052 heartbeat IPC: 0.11572 cumulative IPC: 0.05676 (Simulation time: 0 hr 41 min 10 sec) 
Heartbeat CPU  0 instructions:  352000000 cycles: 4539976514 heartbeat IPC: 0.11416 cumulative IPC: 0.05687 (Simulation time: 0 hr 41 min 16 sec) 
Heartbeat CPU  0 instructions:  353000003 cycles: 4560099421 heartbeat IPC: 0.04969 cumulative IPC: 0.05684 (Simulation time: 0 hr 41 min 28 sec) 
Heartbeat CPU  0 instructions:  354000002 cycles: 4576121778 heartbeat IPC: 0.06241 cumulative IPC: 0.05686 (Simulation time: 0 hr 41 min 39 sec) 
Heartbeat CPU  0 instructions:  355000002 cycles: 4584157067 heartbeat IPC: 0.12445 cumulative IPC: 0.05698 (Simulation time: 0 hr 41 min 45 sec) 
Heartbeat CPU  0 instructions:  356000000 cycles: 4592919896 heartbeat IPC: 0.11412 cumulative IPC: 0.05709 (Simulation time: 0 hr 41 min 51 sec) 
Heartbeat CPU  0 instructions:  357000000 cycles: 4600706416 heartbeat IPC: 0.12843 cumulative IPC: 0.05722 (Simulation time: 0 hr 41 min 57 sec) 
Heartbeat CPU  0 instructions:  358000001 cycles: 4618478799 heartbeat IPC: 0.05627 cumulative IPC: 0.05721 (Simulation time: 0 hr 42 min 7 sec) 
Heartbeat CPU  0 instructions:  359000002 cycles: 4634794691 heartbeat IPC: 0.06129 cumulative IPC: 0.05723 (Simulation time: 0 hr 42 min 17 sec) 
Heartbeat CPU  0 instructions:  360000000 cycles: 4643557370 heartbeat IPC: 0.11412 cumulative IPC: 0.05734 (Simulation time: 0 hr 42 min 22 sec) 
Heartbeat CPU  0 instructions:  361000001 cycles: 4652105445 heartbeat IPC: 0.11699 cumulative IPC: 0.05745 (Simulation time: 0 hr 42 min 28 sec) 
Heartbeat CPU  0 instructions:  362000003 cycles: 4660619039 heartbeat IPC: 0.11746 cumulative IPC: 0.05756 (Simulation time: 0 hr 42 min 33 sec) 
Heartbeat CPU  0 instructions:  363000003 cycles: 4675748676 heartbeat IPC: 0.06610 cumulative IPC: 0.05759 (Simulation time: 0 hr 42 min 42 sec) 
Heartbeat CPU  0 instructions:  364000000 cycles: 4695176874 heartbeat IPC: 0.05147 cumulative IPC: 0.05756 (Simulation time: 0 hr 42 min 53 sec) 
Heartbeat CPU  0 instructions:  365000001 cycles: 4703280744 heartbeat IPC: 0.12340 cumulative IPC: 0.05768 (Simulation time: 0 hr 42 min 58 sec) 
Heartbeat CPU  0 instructions:  366000001 cycles: 4711708934 heartbeat IPC: 0.11865 cumulative IPC: 0.05779 (Simulation time: 0 hr 43 min 4 sec) 
Heartbeat CPU  0 instructions:  367000000 cycles: 4719906422 heartbeat IPC: 0.12199 cumulative IPC: 0.05791 (Simulation time: 0 hr 43 min 9 sec) 
Heartbeat CPU  0 instructions:  368000000 cycles: 4730916948 heartbeat IPC: 0.09082 cumulative IPC: 0.05798 (Simulation time: 0 hr 43 min 16 sec) 
Heartbeat CPU  0 instructions:  369000000 cycles: 4756739240 heartbeat IPC: 0.03873 cumulative IPC: 0.05788 (Simulation time: 0 hr 43 min 29 sec) 
Heartbeat CPU  0 instructions:  370000002 cycles: 4767162362 heartbeat IPC: 0.09594 cumulative IPC: 0.05796 (Simulation time: 0 hr 43 min 36 sec) 
Heartbeat CPU  0 instructions:  371000000 cycles: 4778382484 heartbeat IPC: 0.08913 cumulative IPC: 0.05804 (Simulation time: 0 hr 43 min 42 sec) 
Heartbeat CPU  0 instructions:  372000000 cycles: 4789630923 heartbeat IPC: 0.08890 cumulative IPC: 0.05811 (Simulation time: 0 hr 43 min 49 sec) 
Heartbeat CPU  0 instructions:  373000000 cycles: 4800732749 heartbeat IPC: 0.09008 cumulative IPC: 0.05819 (Simulation time: 0 hr 43 min 56 sec) 
Heartbeat CPU  0 instructions:  374000000 cycles: 4812604790 heartbeat IPC: 0.08423 cumulative IPC: 0.05825 (Simulation time: 0 hr 44 min 3 sec) 
Heartbeat CPU  0 instructions:  375000002 cycles: 4834389059 heartbeat IPC: 0.04590 cumulative IPC: 0.05820 (Simulation time: 0 hr 44 min 14 sec) 
Heartbeat CPU  0 instructions:  376000000 cycles: 4849751530 heartbeat IPC: 0.06509 cumulative IPC: 0.05822 (Simulation time: 0 hr 44 min 23 sec) 
Heartbeat CPU  0 instructions:  377000000 cycles: 4861323436 heartbeat IPC: 0.08642 cumulative IPC: 0.05829 (Simulation time: 0 hr 44 min 30 sec) 
Heartbeat CPU  0 instructions:  378000002 cycles: 4876162333 heartbeat IPC: 0.06739 cumulative IPC: 0.05831 (Simulation time: 0 hr 44 min 38 sec) 
Heartbeat CPU  0 instructions:  379000000 cycles: 4888146359 heartbeat IPC: 0.08344 cumulative IPC: 0.05838 (Simulation time: 0 hr 44 min 45 sec) 
Heartbeat CPU  0 instructions:  380000000 cycles: 4904030753 heartbeat IPC: 0.06295 cumulative IPC: 0.05839 (Simulation time: 0 hr 44 min 53 sec) 
Heartbeat CPU  0 instructions:  381000002 cycles: 4918396014 heartbeat IPC: 0.06961 cumulative IPC: 0.05843 (Simulation time: 0 hr 45 min 1 sec) 
Heartbeat CPU  0 instructions:  382000001 cycles: 4943054011 heartbeat IPC: 0.04055 cumulative IPC: 0.05834 (Simulation time: 0 hr 45 min 14 sec) 
Heartbeat CPU  0 instructions:  383000002 cycles: 4958505305 heartbeat IPC: 0.06472 cumulative IPC: 0.05836 (Simulation time: 0 hr 45 min 23 sec) 
Heartbeat CPU  0 instructions:  384000000 cycles: 4972575504 heartbeat IPC: 0.07107 cumulative IPC: 0.05839 (Simulation time: 0 hr 45 min 30 sec) 
Heartbeat CPU  0 instructions:  385000002 cycles: 4986315283 heartbeat IPC: 0.07278 cumulative IPC: 0.05843 (Simulation time: 0 hr 45 min 37 sec) 
Heartbeat CPU  0 instructions:  386000001 cycles: 5001465227 heartbeat IPC: 0.06601 cumulative IPC: 0.05846 (Simulation time: 0 hr 45 min 45 sec) 
Heartbeat CPU  0 instructions:  387000000 cycles: 5016111774 heartbeat IPC: 0.06828 cumulative IPC: 0.05849 (Simulation time: 0 hr 45 min 52 sec) 
Heartbeat CPU  0 instructions:  388000000 cycles: 5037568328 heartbeat IPC: 0.04661 cumulative IPC: 0.05843 (Simulation time: 0 hr 46 min 3 sec) 
Heartbeat CPU  0 instructions:  389000000 cycles: 5060113066 heartbeat IPC: 0.04436 cumulative IPC: 0.05837 (Simulation time: 0 hr 46 min 15 sec) 
Heartbeat CPU  0 instructions:  390000001 cycles: 5079359014 heartbeat IPC: 0.05196 cumulative IPC: 0.05834 (Simulation time: 0 hr 46 min 23 sec) 
Heartbeat CPU  0 instructions:  391000003 cycles: 5099787565 heartbeat IPC: 0.04895 cumulative IPC: 0.05831 (Simulation time: 0 hr 46 min 32 sec) 
Heartbeat CPU  0 instructions:  392000000 cycles: 5120184795 heartbeat IPC: 0.04903 cumulative IPC: 0.05827 (Simulation time: 0 hr 46 min 42 sec) 
Heartbeat CPU  0 instructions:  393000003 cycles: 5140057104 heartbeat IPC: 0.05032 cumulative IPC: 0.05824 (Simulation time: 0 hr 46 min 51 sec) 
Heartbeat CPU  0 instructions:  394000001 cycles: 5160388364 heartbeat IPC: 0.04919 cumulative IPC: 0.05820 (Simulation time: 0 hr 47 min 0 sec) 
Heartbeat CPU  0 instructions:  395000000 cycles: 5181879513 heartbeat IPC: 0.04653 cumulative IPC: 0.05815 (Simulation time: 0 hr 47 min 9 sec) 
Heartbeat CPU  0 instructions:  396000000 cycles: 5204978454 heartbeat IPC: 0.04329 cumulative IPC: 0.05808 (Simulation time: 0 hr 47 min 21 sec) 
Heartbeat CPU  0 instructions:  397000001 cycles: 5226314376 heartbeat IPC: 0.04687 cumulative IPC: 0.05804 (Simulation time: 0 hr 47 min 32 sec) 
Heartbeat CPU  0 instructions:  398000000 cycles: 5246372812 heartbeat IPC: 0.04985 cumulative IPC: 0.05801 (Simulation time: 0 hr 47 min 41 sec) 
Heartbeat CPU  0 instructions:  399000000 cycles: 5267750310 heartbeat IPC: 0.04678 cumulative IPC: 0.05796 (Simulation time: 0 hr 47 min 50 sec) 
Heartbeat CPU  0 instructions:  400000000 cycles: 5289336386 heartbeat IPC: 0.04633 cumulative IPC: 0.05791 (Simulation time: 0 hr 48 min 0 sec) 
Heartbeat CPU  0 instructions:  401000001 cycles: 5310118542 heartbeat IPC: 0.04812 cumulative IPC: 0.05787 (Simulation time: 0 hr 48 min 10 sec) 
Heartbeat CPU  0 instructions:  402000001 cycles: 5330120045 heartbeat IPC: 0.05000 cumulative IPC: 0.05784 (Simulation time: 0 hr 48 min 19 sec) 
Heartbeat CPU  0 instructions:  403000000 cycles: 5351587219 heartbeat IPC: 0.04658 cumulative IPC: 0.05779 (Simulation time: 0 hr 48 min 28 sec) 
Heartbeat CPU  0 instructions:  404000000 cycles: 5374181593 heartbeat IPC: 0.04426 cumulative IPC: 0.05774 (Simulation time: 0 hr 48 min 39 sec) 
Heartbeat CPU  0 instructions:  405000001 cycles: 5397921526 heartbeat IPC: 0.04212 cumulative IPC: 0.05767 (Simulation time: 0 hr 48 min 52 sec) 
Heartbeat CPU  0 instructions:  406000002 cycles: 5415964577 heartbeat IPC: 0.05542 cumulative IPC: 0.05766 (Simulation time: 0 hr 49 min 0 sec) 
Heartbeat CPU  0 instructions:  407000001 cycles: 5434629719 heartbeat IPC: 0.05358 cumulative IPC: 0.05764 (Simulation time: 0 hr 49 min 8 sec) 
Heartbeat CPU  0 instructions:  408000000 cycles: 5455707983 heartbeat IPC: 0.04744 cumulative IPC: 0.05760 (Simulation time: 0 hr 49 min 18 sec) 
Heartbeat CPU  0 instructions:  409000001 cycles: 5478691939 heartbeat IPC: 0.04351 cumulative IPC: 0.05754 (Simulation time: 0 hr 49 min 28 sec) 
Heartbeat CPU  0 instructions:  410000002 cycles: 5501424312 heartbeat IPC: 0.04399 cumulative IPC: 0.05749 (Simulation time: 0 hr 49 min 38 sec) 
Heartbeat CPU  0 instructions:  411000000 cycles: 5522906564 heartbeat IPC: 0.04655 cumulative IPC: 0.05744 (Simulation time: 0 hr 49 min 48 sec) 
Heartbeat CPU  0 instructions:  412000000 cycles: 5545295779 heartbeat IPC: 0.04466 cumulative IPC: 0.05739 (Simulation time: 0 hr 49 min 58 sec) 
Heartbeat CPU  0 instructions:  413000002 cycles: 5565529267 heartbeat IPC: 0.04942 cumulative IPC: 0.05736 (Simulation time: 0 hr 50 min 7 sec) 
Heartbeat CPU  0 instructions:  414000001 cycles: 5591174583 heartbeat IPC: 0.03899 cumulative IPC: 0.05728 (Simulation time: 0 hr 50 min 21 sec) 
Heartbeat CPU  0 instructions:  415000001 cycles: 5602440107 heartbeat IPC: 0.08877 cumulative IPC: 0.05734 (Simulation time: 0 hr 50 min 27 sec) 
Heartbeat CPU  0 instructions:  416000000 cycles: 5611646294 heartbeat IPC: 0.10862 cumulative IPC: 0.05743 (Simulation time: 0 hr 50 min 32 sec) 
Heartbeat CPU  0 instructions:  417000000 cycles: 5620511266 heartbeat IPC: 0.11280 cumulative IPC: 0.05752 (Simulation time: 0 hr 50 min 37 sec) 
Heartbeat CPU  0 instructions:  418000000 cycles: 5646593730 heartbeat IPC: 0.03834 cumulative IPC: 0.05742 (Simulation time: 0 hr 50 min 51 sec) 
Heartbeat CPU  0 instructions:  419000000 cycles: 5656204686 heartbeat IPC: 0.10405 cumulative IPC: 0.05751 (Simulation time: 0 hr 50 min 57 sec) 
Heartbeat CPU  0 instructions:  420000000 cycles: 5664852328 heartbeat IPC: 0.11564 cumulative IPC: 0.05760 (Simulation time: 0 hr 51 min 2 sec) 
Heartbeat CPU  0 instructions:  421000000 cycles: 5677794274 heartbeat IPC: 0.07727 cumulative IPC: 0.05764 (Simulation time: 0 hr 51 min 8 sec) 
Heartbeat CPU  0 instructions:  422000003 cycles: 5693887148 heartbeat IPC: 0.06214 cumulative IPC: 0.05765 (Simulation time: 0 hr 51 min 17 sec) 
Heartbeat CPU  0 instructions:  423000000 cycles: 5713588807 heartbeat IPC: 0.05076 cumulative IPC: 0.05763 (Simulation time: 0 hr 51 min 27 sec) 
Heartbeat CPU  0 instructions:  424000000 cycles: 5722121673 heartbeat IPC: 0.11719 cumulative IPC: 0.05772 (Simulation time: 0 hr 51 min 33 sec) 
Heartbeat CPU  0 instructions:  425000000 cycles: 5730666855 heartbeat IPC: 0.11703 cumulative IPC: 0.05781 (Simulation time: 0 hr 51 min 38 sec) 
Heartbeat CPU  0 instructions:  426000000 cycles: 5747648706 heartbeat IPC: 0.05889 cumulative IPC: 0.05781 (Simulation time: 0 hr 51 min 47 sec) 
Heartbeat CPU  0 instructions:  427000003 cycles: 5766366772 heartbeat IPC: 0.05342 cumulative IPC: 0.05780 (Simulation time: 0 hr 51 min 57 sec) 
Heartbeat CPU  0 instructions:  428000000 cycles: 5774879365 heartbeat IPC: 0.11747 cumulative IPC: 0.05789 (Simulation time: 0 hr 52 min 2 sec) 
Heartbeat CPU  0 instructions:  429000000 cycles: 5784616951 heartbeat IPC: 0.10269 cumulative IPC: 0.05797 (Simulation time: 0 hr 52 min 8 sec) 
Heartbeat CPU  0 instructions:  430000001 cycles: 5800435221 heartbeat IPC: 0.06322 cumulative IPC: 0.05798 (Simulation time: 0 hr 52 min 16 sec) 
Heartbeat CPU  0 instructions:  431000001 cycles: 5823391071 heartbeat IPC: 0.04356 cumulative IPC: 0.05792 (Simulation time: 0 hr 52 min 28 sec) 
Heartbeat CPU  0 instructions:  432000000 cycles: 5836576417 heartbeat IPC: 0.07584 cumulative IPC: 0.05796 (Simulation time: 0 hr 52 min 34 sec) 
Heartbeat CPU  0 instructions:  433000001 cycles: 5853514638 heartbeat IPC: 0.05904 cumulative IPC: 0.05797 (Simulation time: 0 hr 52 min 42 sec) 
Heartbeat CPU  0 instructions:  434000000 cycles: 5869172890 heartbeat IPC: 0.06386 cumulative IPC: 0.05798 (Simulation time: 0 hr 52 min 50 sec) 
Heartbeat CPU  0 instructions:  435000000 cycles: 5886001492 heartbeat IPC: 0.05942 cumulative IPC: 0.05799 (Simulation time: 0 hr 52 min 58 sec) 
Heartbeat CPU  0 instructions:  436000000 cycles: 5909642275 heartbeat IPC: 0.04230 cumulative IPC: 0.05792 (Simulation time: 0 hr 53 min 11 sec) 
Heartbeat CPU  0 instructions:  437000001 cycles: 5930035170 heartbeat IPC: 0.04904 cumulative IPC: 0.05789 (Simulation time: 0 hr 53 min 20 sec) 
Heartbeat CPU  0 instructions:  438000000 cycles: 5949543151 heartbeat IPC: 0.05126 cumulative IPC: 0.05787 (Simulation time: 0 hr 53 min 30 sec) 
Heartbeat CPU  0 instructions:  439000001 cycles: 5968800787 heartbeat IPC: 0.05193 cumulative IPC: 0.05785 (Simulation time: 0 hr 53 min 39 sec) 
Heartbeat CPU  0 instructions:  440000000 cycles: 5988020559 heartbeat IPC: 0.05203 cumulative IPC: 0.05783 (Simulation time: 0 hr 53 min 48 sec) 
Heartbeat CPU  0 instructions:  441000000 cycles: 6003683571 heartbeat IPC: 0.06384 cumulative IPC: 0.05785 (Simulation time: 0 hr 53 min 56 sec) 
Heartbeat CPU  0 instructions:  442000001 cycles: 6019558533 heartbeat IPC: 0.06299 cumulative IPC: 0.05786 (Simulation time: 0 hr 54 min 4 sec) 
Heartbeat CPU  0 instructions:  443000002 cycles: 6039431327 heartbeat IPC: 0.05032 cumulative IPC: 0.05784 (Simulation time: 0 hr 54 min 15 sec) 
Heartbeat CPU  0 instructions:  444000000 cycles: 6062185769 heartbeat IPC: 0.04395 cumulative IPC: 0.05778 (Simulation time: 0 hr 54 min 26 sec) 
Heartbeat CPU  0 instructions:  445000001 cycles: 6079046618 heartbeat IPC: 0.05931 cumulative IPC: 0.05779 (Simulation time: 0 hr 54 min 34 sec) 
Heartbeat CPU  0 instructions:  446000001 cycles: 6095515924 heartbeat IPC: 0.06072 cumulative IPC: 0.05780 (Simulation time: 0 hr 54 min 42 sec) 
Heartbeat CPU  0 instructions:  447000000 cycles: 6113818580 heartbeat IPC: 0.05464 cumulative IPC: 0.05779 (Simulation time: 0 hr 54 min 52 sec) 
Heartbeat CPU  0 instructions:  448000000 cycles: 6129795302 heartbeat IPC: 0.06259 cumulative IPC: 0.05780 (Simulation time: 0 hr 55 min 0 sec) 
Heartbeat CPU  0 instructions:  449000001 cycles: 6151461243 heartbeat IPC: 0.04616 cumulative IPC: 0.05776 (Simulation time: 0 hr 55 min 12 sec) 
Heartbeat CPU  0 instructions:  450000000 cycles: 6173530487 heartbeat IPC: 0.04531 cumulative IPC: 0.05771 (Simulation time: 0 hr 55 min 23 sec) 
Heartbeat CPU  0 instructions:  451000002 cycles: 6192076323 heartbeat IPC: 0.05392 cumulative IPC: 0.05770 (Simulation time: 0 hr 55 min 31 sec) 
Heartbeat CPU  0 instructions:  452000000 cycles: 6211615882 heartbeat IPC: 0.05118 cumulative IPC: 0.05768 (Simulation time: 0 hr 55 min 41 sec) 
Heartbeat CPU  0 instructions:  453000000 cycles: 6229622369 heartbeat IPC: 0.05554 cumulative IPC: 0.05767 (Simulation time: 0 hr 55 min 49 sec) 
Heartbeat CPU  0 instructions:  454000003 cycles: 6249085598 heartbeat IPC: 0.05138 cumulative IPC: 0.05765 (Simulation time: 0 hr 55 min 58 sec) 
Heartbeat CPU  0 instructions:  455000000 cycles: 6270102928 heartbeat IPC: 0.04758 cumulative IPC: 0.05762 (Simulation time: 0 hr 56 min 8 sec) 
Heartbeat CPU  0 instructions:  456000000 cycles: 6289950477 heartbeat IPC: 0.05038 cumulative IPC: 0.05760 (Simulation time: 0 hr 56 min 18 sec) 
Heartbeat CPU  0 instructions:  457000003 cycles: 6314995908 heartbeat IPC: 0.03993 cumulative IPC: 0.05752 (Simulation time: 0 hr 56 min 31 sec) 
Heartbeat CPU  0 instructions:  458000000 cycles: 6335969549 heartbeat IPC: 0.04768 cumulative IPC: 0.05749 (Simulation time: 0 hr 56 min 40 sec) 
Heartbeat CPU  0 instructions:  459000003 cycles: 6355983656 heartbeat IPC: 0.04996 cumulative IPC: 0.05747 (Simulation time: 0 hr 56 min 49 sec) 
Heartbeat CPU  0 instructions:  460000000 cycles: 6377606808 heartbeat IPC: 0.04625 cumulative IPC: 0.05743 (Simulation time: 0 hr 56 min 58 sec) 
Heartbeat CPU  0 instructions:  461000002 cycles: 6393872157 heartbeat IPC: 0.06148 cumulative IPC: 0.05744 (Simulation time: 0 hr 57 min 6 sec) 
Heartbeat CPU  0 instructions:  462000000 cycles: 6413409388 heartbeat IPC: 0.05118 cumulative IPC: 0.05742 (Simulation time: 0 hr 57 min 15 sec) 
Heartbeat CPU  0 instructions:  463000000 cycles: 6434540740 heartbeat IPC: 0.04732 cumulative IPC: 0.05739 (Simulation time: 0 hr 57 min 25 sec) 
Heartbeat CPU  0 instructions:  464000000 cycles: 6457187833 heartbeat IPC: 0.04416 cumulative IPC: 0.05734 (Simulation time: 0 hr 57 min 35 sec) 
Heartbeat CPU  0 instructions:  465000000 cycles: 6480508352 heartbeat IPC: 0.04288 cumulative IPC: 0.05729 (Simulation time: 0 hr 57 min 45 sec) 
Heartbeat CPU  0 instructions:  466000000 cycles: 6500923563 heartbeat IPC: 0.04898 cumulative IPC: 0.05726 (Simulation time: 0 hr 57 min 55 sec) 
Heartbeat CPU  0 instructions:  467000003 cycles: 6527330870 heartbeat IPC: 0.03787 cumulative IPC: 0.05718 (Simulation time: 0 hr 58 min 9 sec) 
Heartbeat CPU  0 instructions:  468000000 cycles: 6546980925 heartbeat IPC: 0.05089 cumulative IPC: 0.05716 (Simulation time: 0 hr 58 min 18 sec) 
Heartbeat CPU  0 instructions:  469000000 cycles: 6566411068 heartbeat IPC: 0.05147 cumulative IPC: 0.05714 (Simulation time: 0 hr 58 min 27 sec) 
Heartbeat CPU  0 instructions:  470000001 cycles: 6587644495 heartbeat IPC: 0.04710 cumulative IPC: 0.05711 (Simulation time: 0 hr 58 min 36 sec) 
Heartbeat CPU  0 instructions:  471000000 cycles: 6611275865 heartbeat IPC: 0.04232 cumulative IPC: 0.05706 (Simulation time: 0 hr 58 min 47 sec) 
Heartbeat CPU  0 instructions:  472000000 cycles: 6635368930 heartbeat IPC: 0.04151 cumulative IPC: 0.05700 (Simulation time: 0 hr 58 min 58 sec) 
Heartbeat CPU  0 instructions:  473000003 cycles: 6658945060 heartbeat IPC: 0.04242 cumulative IPC: 0.05695 (Simulation time: 0 hr 59 min 8 sec) 
Heartbeat CPU  0 instructions:  474000000 cycles: 6680642504 heartbeat IPC: 0.04609 cumulative IPC: 0.05691 (Simulation time: 0 hr 59 min 18 sec) 
Heartbeat CPU  0 instructions:  475000001 cycles: 6703493984 heartbeat IPC: 0.04376 cumulative IPC: 0.05686 (Simulation time: 0 hr 59 min 28 sec) 
Heartbeat CPU  0 instructions:  476000000 cycles: 6726637776 heartbeat IPC: 0.04321 cumulative IPC: 0.05682 (Simulation time: 0 hr 59 min 39 sec) 
Heartbeat CPU  0 instructions:  477000000 cycles: 6748554662 heartbeat IPC: 0.04563 cumulative IPC: 0.05678 (Simulation time: 0 hr 59 min 49 sec) 
Heartbeat CPU  0 instructions:  478000002 cycles: 6771176392 heartbeat IPC: 0.04421 cumulative IPC: 0.05674 (Simulation time: 0 hr 59 min 59 sec) 
Heartbeat CPU  0 instructions:  479000000 cycles: 6797637933 heartbeat IPC: 0.03779 cumulative IPC: 0.05666 (Simulation time: 1 hr 0 min 13 sec) 
Heartbeat CPU  0 instructions:  480000000 cycles: 6816494968 heartbeat IPC: 0.05303 cumulative IPC: 0.05665 (Simulation time: 1 hr 0 min 22 sec) 
Heartbeat CPU  0 instructions:  481000000 cycles: 6834082637 heartbeat IPC: 0.05686 cumulative IPC: 0.05665 (Simulation time: 1 hr 0 min 30 sec) 
Heartbeat CPU  0 instructions:  482000000 cycles: 6852725033 heartbeat IPC: 0.05364 cumulative IPC: 0.05664 (Simulation time: 1 hr 0 min 39 sec) 
Heartbeat CPU  0 instructions:  483000000 cycles: 6872177478 heartbeat IPC: 0.05141 cumulative IPC: 0.05663 (Simulation time: 1 hr 0 min 48 sec) 
Heartbeat CPU  0 instructions:  484000000 cycles: 6892218005 heartbeat IPC: 0.04990 cumulative IPC: 0.05661 (Simulation time: 1 hr 0 min 58 sec) 
Heartbeat CPU  0 instructions:  485000003 cycles: 6911805545 heartbeat IPC: 0.05105 cumulative IPC: 0.05659 (Simulation time: 1 hr 1 min 8 sec) 
Heartbeat CPU  0 instructions:  486000000 cycles: 6931842116 heartbeat IPC: 0.04991 cumulative IPC: 0.05657 (Simulation time: 1 hr 1 min 18 sec) 
Heartbeat CPU  0 instructions:  487000002 cycles: 6950752702 heartbeat IPC: 0.05288 cumulative IPC: 0.05656 (Simulation time: 1 hr 1 min 27 sec) 
Heartbeat CPU  0 instructions:  488000000 cycles: 6975560534 heartbeat IPC: 0.04031 cumulative IPC: 0.05651 (Simulation time: 1 hr 1 min 40 sec) 
Heartbeat CPU  0 instructions:  489000000 cycles: 6998053429 heartbeat IPC: 0.04446 cumulative IPC: 0.05647 (Simulation time: 1 hr 1 min 51 sec) 
Heartbeat CPU  0 instructions:  490000000 cycles: 7018681841 heartbeat IPC: 0.04848 cumulative IPC: 0.05644 (Simulation time: 1 hr 2 min 1 sec) 
Heartbeat CPU  0 instructions:  491000000 cycles: 7040351375 heartbeat IPC: 0.04615 cumulative IPC: 0.05641 (Simulation time: 1 hr 2 min 11 sec) 
Heartbeat CPU  0 instructions:  492000000 cycles: 7061774980 heartbeat IPC: 0.04668 cumulative IPC: 0.05638 (Simulation time: 1 hr 2 min 20 sec) 
Heartbeat CPU  0 instructions:  493000000 cycles: 7083854556 heartbeat IPC: 0.04529 cumulative IPC: 0.05634 (Simulation time: 1 hr 2 min 31 sec) 
Heartbeat CPU  0 instructions:  494000001 cycles: 7106730577 heartbeat IPC: 0.04371 cumulative IPC: 0.05630 (Simulation time: 1 hr 2 min 41 sec) 
Heartbeat CPU  0 instructions:  495000002 cycles: 7129719158 heartbeat IPC: 0.04350 cumulative IPC: 0.05626 (Simulation time: 1 hr 2 min 52 sec) 
Heartbeat CPU  0 instructions:  496000000 cycles: 7151987165 heartbeat IPC: 0.04491 cumulative IPC: 0.05623 (Simulation time: 1 hr 3 min 2 sec) 
Heartbeat CPU  0 instructions:  497000001 cycles: 7173667216 heartbeat IPC: 0.04613 cumulative IPC: 0.05619 (Simulation time: 1 hr 3 min 12 sec) 
Heartbeat CPU  0 instructions:  498000002 cycles: 7194347184 heartbeat IPC: 0.04836 cumulative IPC: 0.05617 (Simulation time: 1 hr 3 min 22 sec) 
Heartbeat CPU  0 instructions:  499000000 cycles: 7216789027 heartbeat IPC: 0.04456 cumulative IPC: 0.05613 (Simulation time: 1 hr 3 min 33 sec) 
Heartbeat CPU  0 instructions:  500000000 cycles: 7241490288 heartbeat IPC: 0.04048 cumulative IPC: 0.05608 (Simulation time: 1 hr 3 min 45 sec) 
Heartbeat CPU  0 instructions:  501000000 cycles: 7262231673 heartbeat IPC: 0.04821 cumulative IPC: 0.05606 (Simulation time: 1 hr 3 min 55 sec) 
Heartbeat CPU  0 instructions:  502000000 cycles: 7284787817 heartbeat IPC: 0.04433 cumulative IPC: 0.05602 (Simulation time: 1 hr 4 min 5 sec) 
Heartbeat CPU  0 instructions:  503000000 cycles: 7308025923 heartbeat IPC: 0.04303 cumulative IPC: 0.05598 (Simulation time: 1 hr 4 min 15 sec) 
Heartbeat CPU  0 instructions:  504000000 cycles: 7331310840 heartbeat IPC: 0.04295 cumulative IPC: 0.05594 (Simulation time: 1 hr 4 min 26 sec) 
Heartbeat CPU  0 instructions:  505000002 cycles: 7354227021 heartbeat IPC: 0.04364 cumulative IPC: 0.05590 (Simulation time: 1 hr 4 min 36 sec) 
Heartbeat CPU  0 instructions:  506000000 cycles: 7378148071 heartbeat IPC: 0.04180 cumulative IPC: 0.05585 (Simulation time: 1 hr 4 min 47 sec) 
Heartbeat CPU  0 instructions:  507000001 cycles: 7401605408 heartbeat IPC: 0.04263 cumulative IPC: 0.05581 (Simulation time: 1 hr 4 min 58 sec) 
Heartbeat CPU  0 instructions:  508000000 cycles: 7425076758 heartbeat IPC: 0.04261 cumulative IPC: 0.05577 (Simulation time: 1 hr 5 min 8 sec) 
Heartbeat CPU  0 instructions:  509000000 cycles: 7447395501 heartbeat IPC: 0.04481 cumulative IPC: 0.05573 (Simulation time: 1 hr 5 min 18 sec) 
Heartbeat CPU  0 instructions:  510000000 cycles: 7471230935 heartbeat IPC: 0.04195 cumulative IPC: 0.05569 (Simulation time: 1 hr 5 min 29 sec) 
Heartbeat CPU  0 instructions:  511000000 cycles: 7494429814 heartbeat IPC: 0.04311 cumulative IPC: 0.05565 (Simulation time: 1 hr 5 min 40 sec) 
Heartbeat CPU  0 instructions:  512000000 cycles: 7517588974 heartbeat IPC: 0.04318 cumulative IPC: 0.05561 (Simulation time: 1 hr 5 min 50 sec) 
Heartbeat CPU  0 instructions:  513000001 cycles: 7540706492 heartbeat IPC: 0.04326 cumulative IPC: 0.05557 (Simulation time: 1 hr 6 min 1 sec) 
Heartbeat CPU  0 instructions:  514000001 cycles: 7567565130 heartbeat IPC: 0.03723 cumulative IPC: 0.05551 (Simulation time: 1 hr 6 min 15 sec) 
Heartbeat CPU  0 instructions:  515000000 cycles: 7587961905 heartbeat IPC: 0.04903 cumulative IPC: 0.05549 (Simulation time: 1 hr 6 min 24 sec) 
Heartbeat CPU  0 instructions:  516000000 cycles: 7610130597 heartbeat IPC: 0.04511 cumulative IPC: 0.05546 (Simulation time: 1 hr 6 min 34 sec) 
Heartbeat CPU  0 instructions:  517000001 cycles: 7633035297 heartbeat IPC: 0.04366 cumulative IPC: 0.05542 (Simulation time: 1 hr 6 min 45 sec) 
Heartbeat CPU  0 instructions:  518000003 cycles: 7657000838 heartbeat IPC: 0.04173 cumulative IPC: 0.05538 (Simulation time: 1 hr 6 min 56 sec) 
Heartbeat CPU  0 instructions:  519000003 cycles: 7679812459 heartbeat IPC: 0.04384 cumulative IPC: 0.05534 (Simulation time: 1 hr 7 min 6 sec) 
Heartbeat CPU  0 instructions:  520000000 cycles: 7700723192 heartbeat IPC: 0.04782 cumulative IPC: 0.05532 (Simulation time: 1 hr 7 min 16 sec) 
Heartbeat CPU  0 instructions:  521000000 cycles: 7721745782 heartbeat IPC: 0.04757 cumulative IPC: 0.05530 (Simulation time: 1 hr 7 min 25 sec) 
Heartbeat CPU  0 instructions:  522000002 cycles: 7744902842 heartbeat IPC: 0.04318 cumulative IPC: 0.05526 (Simulation time: 1 hr 7 min 36 sec) 
Heartbeat CPU  0 instructions:  523000003 cycles: 7767927450 heartbeat IPC: 0.04343 cumulative IPC: 0.05523 (Simulation time: 1 hr 7 min 46 sec) 
Heartbeat CPU  0 instructions:  524000000 cycles: 7790247397 heartbeat IPC: 0.04480 cumulative IPC: 0.05520 (Simulation time: 1 hr 7 min 56 sec) 
Heartbeat CPU  0 instructions:  525000000 cycles: 7812672907 heartbeat IPC: 0.04459 cumulative IPC: 0.05517 (Simulation time: 1 hr 8 min 7 sec) 
Heartbeat CPU  0 instructions:  526000000 cycles: 7834643557 heartbeat IPC: 0.04552 cumulative IPC: 0.05514 (Simulation time: 1 hr 8 min 17 sec) 
Heartbeat CPU  0 instructions:  527000000 cycles: 7858413732 heartbeat IPC: 0.04207 cumulative IPC: 0.05510 (Simulation time: 1 hr 8 min 27 sec) 
Heartbeat CPU  0 instructions:  528000000 cycles: 7881373882 heartbeat IPC: 0.04355 cumulative IPC: 0.05507 (Simulation time: 1 hr 8 min 38 sec) 
Heartbeat CPU  0 instructions:  529000000 cycles: 7904671919 heartbeat IPC: 0.04292 cumulative IPC: 0.05503 (Simulation time: 1 hr 8 min 48 sec) 
Heartbeat CPU  0 instructions:  530000000 cycles: 7928361958 heartbeat IPC: 0.04221 cumulative IPC: 0.05499 (Simulation time: 1 hr 9 min 0 sec) 
Heartbeat CPU  0 instructions:  531000001 cycles: 7954106280 heartbeat IPC: 0.03884 cumulative IPC: 0.05494 (Simulation time: 1 hr 9 min 13 sec) 
Heartbeat CPU  0 instructions:  532000000 cycles: 7977143316 heartbeat IPC: 0.04341 cumulative IPC: 0.05490 (Simulation time: 1 hr 9 min 23 sec) 
Heartbeat CPU  0 instructions:  533000002 cycles: 8000637930 heartbeat IPC: 0.04256 cumulative IPC: 0.05487 (Simulation time: 1 hr 9 min 34 sec) 
Heartbeat CPU  0 instructions:  534000002 cycles: 8024927783 heartbeat IPC: 0.04117 cumulative IPC: 0.05483 (Simulation time: 1 hr 9 min 45 sec) 
Heartbeat CPU  0 instructions:  535000002 cycles: 8050117146 heartbeat IPC: 0.03970 cumulative IPC: 0.05478 (Simulation time: 1 hr 9 min 56 sec) 
Heartbeat CPU  0 instructions:  536000000 cycles: 8072771502 heartbeat IPC: 0.04414 cumulative IPC: 0.05475 (Simulation time: 1 hr 10 min 7 sec) 
Heartbeat CPU  0 instructions:  537000000 cycles: 8092934579 heartbeat IPC: 0.04960 cumulative IPC: 0.05473 (Simulation time: 1 hr 10 min 16 sec) 
Heartbeat CPU  0 instructions:  538000001 cycles: 8112065063 heartbeat IPC: 0.05227 cumulative IPC: 0.05473 (Simulation time: 1 hr 10 min 26 sec) 
Heartbeat CPU  0 instructions:  539000000 cycles: 8129554151 heartbeat IPC: 0.05718 cumulative IPC: 0.05473 (Simulation time: 1 hr 10 min 34 sec) 
Heartbeat CPU  0 instructions:  540000000 cycles: 8149158892 heartbeat IPC: 0.05101 cumulative IPC: 0.05472 (Simulation time: 1 hr 10 min 44 sec) 
Heartbeat CPU  0 instructions:  541000000 cycles: 8169146507 heartbeat IPC: 0.05003 cumulative IPC: 0.05471 (Simulation time: 1 hr 10 min 54 sec) 
Heartbeat CPU  0 instructions:  542000003 cycles: 8191392709 heartbeat IPC: 0.04495 cumulative IPC: 0.05469 (Simulation time: 1 hr 11 min 6 sec) 
Heartbeat CPU  0 instructions:  543000002 cycles: 8213086363 heartbeat IPC: 0.04610 cumulative IPC: 0.05466 (Simulation time: 1 hr 11 min 16 sec) 
Heartbeat CPU  0 instructions:  544000000 cycles: 8225525107 heartbeat IPC: 0.08039 cumulative IPC: 0.05470 (Simulation time: 1 hr 11 min 23 sec) 
Heartbeat CPU  0 instructions:  545000001 cycles: 8235081935 heartbeat IPC: 0.10464 cumulative IPC: 0.05476 (Simulation time: 1 hr 11 min 28 sec) 
Heartbeat CPU  0 instructions:  546000000 cycles: 8245001638 heartbeat IPC: 0.10081 cumulative IPC: 0.05482 (Simulation time: 1 hr 11 min 33 sec) 
Heartbeat CPU  0 instructions:  547000003 cycles: 8268701778 heartbeat IPC: 0.04219 cumulative IPC: 0.05478 (Simulation time: 1 hr 11 min 46 sec) 
Heartbeat CPU  0 instructions:  548000000 cycles: 8282372291 heartbeat IPC: 0.07315 cumulative IPC: 0.05481 (Simulation time: 1 hr 11 min 53 sec) 
Heartbeat CPU  0 instructions:  549000000 cycles: 8293409861 heartbeat IPC: 0.09060 cumulative IPC: 0.05486 (Simulation time: 1 hr 11 min 59 sec) 
Heartbeat CPU  0 instructions:  550000000 cycles: 8303564099 heartbeat IPC: 0.09848 cumulative IPC: 0.05491 (Simulation time: 1 hr 12 min 4 sec) 
Heartbeat CPU  0 instructions:  551000000 cycles: 8318463550 heartbeat IPC: 0.06712 cumulative IPC: 0.05494 (Simulation time: 1 hr 12 min 12 sec) 
Heartbeat CPU  0 instructions:  552000000 cycles: 8341489519 heartbeat IPC: 0.04343 cumulative IPC: 0.05490 (Simulation time: 1 hr 12 min 24 sec) 
Heartbeat CPU  0 instructions:  553000000 cycles: 8352861942 heartbeat IPC: 0.08793 cumulative IPC: 0.05495 (Simulation time: 1 hr 12 min 29 sec) 
Heartbeat CPU  0 instructions:  554000000 cycles: 8364616298 heartbeat IPC: 0.08507 cumulative IPC: 0.05499 (Simulation time: 1 hr 12 min 35 sec) 
Heartbeat CPU  0 instructions:  555000000 cycles: 8384086280 heartbeat IPC: 0.05136 cumulative IPC: 0.05498 (Simulation time: 1 hr 12 min 45 sec) 
Heartbeat CPU  0 instructions:  556000000 cycles: 8404493707 heartbeat IPC: 0.04900 cumulative IPC: 0.05497 (Simulation time: 1 hr 12 min 55 sec) 
Heartbeat CPU  0 instructions:  557000000 cycles: 8417107126 heartbeat IPC: 0.07928 cumulative IPC: 0.05501 (Simulation time: 1 hr 13 min 1 sec) 
Heartbeat CPU  0 instructions:  558000000 cycles: 8429020244 heartbeat IPC: 0.08394 cumulative IPC: 0.05505 (Simulation time: 1 hr 13 min 7 sec) 
Heartbeat CPU  0 instructions:  559000000 cycles: 8450796289 heartbeat IPC: 0.04592 cumulative IPC: 0.05502 (Simulation time: 1 hr 13 min 19 sec) 
Heartbeat CPU  0 instructions:  560000000 cycles: 8465488908 heartbeat IPC: 0.06806 cumulative IPC: 0.05505 (Simulation time: 1 hr 13 min 27 sec) 
Heartbeat CPU  0 instructions:  561000001 cycles: 8475610485 heartbeat IPC: 0.09880 cumulative IPC: 0.05510 (Simulation time: 1 hr 13 min 32 sec) 
Heartbeat CPU  0 instructions:  562000003 cycles: 8487673216 heartbeat IPC: 0.08290 cumulative IPC: 0.05514 (Simulation time: 1 hr 13 min 38 sec) 
Heartbeat CPU  0 instructions:  563000002 cycles: 8509946709 heartbeat IPC: 0.04490 cumulative IPC: 0.05511 (Simulation time: 1 hr 13 min 50 sec) 
Heartbeat CPU  0 instructions:  564000000 cycles: 8526195203 heartbeat IPC: 0.06154 cumulative IPC: 0.05512 (Simulation time: 1 hr 13 min 58 sec) 
Heartbeat CPU  0 instructions:  565000000 cycles: 8538117051 heartbeat IPC: 0.08388 cumulative IPC: 0.05517 (Simulation time: 1 hr 14 min 4 sec) 
Heartbeat CPU  0 instructions:  566000002 cycles: 8552824401 heartbeat IPC: 0.06799 cumulative IPC: 0.05519 (Simulation time: 1 hr 14 min 12 sec) 
Heartbeat CPU  0 instructions:  567000000 cycles: 8577415215 heartbeat IPC: 0.04067 cumulative IPC: 0.05515 (Simulation time: 1 hr 14 min 25 sec) 
Heartbeat CPU  0 instructions:  568000000 cycles: 8590157144 heartbeat IPC: 0.07848 cumulative IPC: 0.05518 (Simulation time: 1 hr 14 min 31 sec) 
Heartbeat CPU  0 instructions:  569000001 cycles: 8602378389 heartbeat IPC: 0.08182 cumulative IPC: 0.05522 (Simulation time: 1 hr 14 min 37 sec) 
Heartbeat CPU  0 instructions:  570000003 cycles: 8622749566 heartbeat IPC: 0.04909 cumulative IPC: 0.05520 (Simulation time: 1 hr 14 min 48 sec) 
Heartbeat CPU  0 instructions:  571000000 cycles: 8641080797 heartbeat IPC: 0.05455 cumulative IPC: 0.05520 (Simulation time: 1 hr 14 min 57 sec) 
Heartbeat CPU  0 instructions:  572000000 cycles: 8651555009 heartbeat IPC: 0.09547 cumulative IPC: 0.05525 (Simulation time: 1 hr 15 min 3 sec) 
Heartbeat CPU  0 instructions:  573000001 cycles: 8662280483 heartbeat IPC: 0.09324 cumulative IPC: 0.05530 (Simulation time: 1 hr 15 min 9 sec) 
Heartbeat CPU  0 instructions:  574000000 cycles: 8689154883 heartbeat IPC: 0.03721 cumulative IPC: 0.05524 (Simulation time: 1 hr 15 min 23 sec) 
Heartbeat CPU  0 instructions:  575000000 cycles: 8700589735 heartbeat IPC: 0.08745 cumulative IPC: 0.05529 (Simulation time: 1 hr 15 min 29 sec) 
Heartbeat CPU  0 instructions:  576000000 cycles: 8712310126 heartbeat IPC: 0.08532 cumulative IPC: 0.05533 (Simulation time: 1 hr 15 min 34 sec) 
Heartbeat CPU  0 instructions:  577000001 cycles: 8729680741 heartbeat IPC: 0.05757 cumulative IPC: 0.05533 (Simulation time: 1 hr 15 min 43 sec) 
Heartbeat CPU  0 instructions:  578000000 cycles: 8751136595 heartbeat IPC: 0.04661 cumulative IPC: 0.05531 (Simulation time: 1 hr 15 min 54 sec) 
Heartbeat CPU  0 instructions:  579000000 cycles: 8762857704 heartbeat IPC: 0.08532 cumulative IPC: 0.05535 (Simulation time: 1 hr 16 min 0 sec) 
Heartbeat CPU  0 instructions:  580000000 cycles: 8774052039 heartbeat IPC: 0.08933 cumulative IPC: 0.05539 (Simulation time: 1 hr 16 min 6 sec) 
Heartbeat CPU  0 instructions:  581000002 cycles: 8799402313 heartbeat IPC: 0.03945 cumulative IPC: 0.05535 (Simulation time: 1 hr 16 min 19 sec) 
Heartbeat CPU  0 instructions:  582000003 cycles: 8812005239 heartbeat IPC: 0.07935 cumulative IPC: 0.05538 (Simulation time: 1 hr 16 min 26 sec) 
Heartbeat CPU  0 instructions:  583000003 cycles: 8822149660 heartbeat IPC: 0.09858 cumulative IPC: 0.05543 (Simulation time: 1 hr 16 min 32 sec) 
Heartbeat CPU  0 instructions:  584000000 cycles: 8836992281 heartbeat IPC: 0.06737 cumulative IPC: 0.05545 (Simulation time: 1 hr 16 min 40 sec) 
Heartbeat CPU  0 instructions:  585000000 cycles: 8860272942 heartbeat IPC: 0.04295 cumulative IPC: 0.05542 (Simulation time: 1 hr 16 min 52 sec) 
Heartbeat CPU  0 instructions:  586000001 cycles: 8870135737 heartbeat IPC: 0.10139 cumulative IPC: 0.05547 (Simulation time: 1 hr 16 min 57 sec) 
Heartbeat CPU  0 instructions:  587000000 cycles: 8879908563 heartbeat IPC: 0.10232 cumulative IPC: 0.05552 (Simulation time: 1 hr 17 min 3 sec) 
Heartbeat CPU  0 instructions:  588000000 cycles: 8903868267 heartbeat IPC: 0.04174 cumulative IPC: 0.05549 (Simulation time: 1 hr 17 min 15 sec) 
Heartbeat CPU  0 instructions:  589000000 cycles: 8917332083 heartbeat IPC: 0.07427 cumulative IPC: 0.05552 (Simulation time: 1 hr 17 min 23 sec) 
Heartbeat CPU  0 instructions:  590000001 cycles: 8926856807 heartbeat IPC: 0.10499 cumulative IPC: 0.05557 (Simulation time: 1 hr 17 min 28 sec) 
Heartbeat CPU  0 instructions:  591000003 cycles: 8940762851 heartbeat IPC: 0.07191 cumulative IPC: 0.05559 (Simulation time: 1 hr 17 min 36 sec) 
Heartbeat CPU  0 instructions:  592000000 cycles: 8964339990 heartbeat IPC: 0.04241 cumulative IPC: 0.05556 (Simulation time: 1 hr 17 min 48 sec) 
Heartbeat CPU  0 instructions:  593000000 cycles: 8974661913 heartbeat IPC: 0.09688 cumulative IPC: 0.05561 (Simulation time: 1 hr 17 min 54 sec) 
Heartbeat CPU  0 instructions:  594000001 cycles: 8984487980 heartbeat IPC: 0.10177 cumulative IPC: 0.05566 (Simulation time: 1 hr 17 min 59 sec) 
Heartbeat CPU  0 instructions:  595000003 cycles: 9008012054 heartbeat IPC: 0.04251 cumulative IPC: 0.05562 (Simulation time: 1 hr 18 min 12 sec) 
Heartbeat CPU  0 instructions:  596000000 cycles: 9022358535 heartbeat IPC: 0.06970 cumulative IPC: 0.05565 (Simulation time: 1 hr 18 min 19 sec) 
Heartbeat CPU  0 instructions:  597000000 cycles: 9033007406 heartbeat IPC: 0.09391 cumulative IPC: 0.05569 (Simulation time: 1 hr 18 min 25 sec) 
Heartbeat CPU  0 instructions:  598000001 cycles: 9046481472 heartbeat IPC: 0.07422 cumulative IPC: 0.05572 (Simulation time: 1 hr 18 min 32 sec) 
Heartbeat CPU  0 instructions:  599000000 cycles: 9071665404 heartbeat IPC: 0.03971 cumulative IPC: 0.05567 (Simulation time: 1 hr 18 min 45 sec) 
Heartbeat CPU  0 instructions:  600000000 cycles: 9081922706 heartbeat IPC: 0.09749 cumulative IPC: 0.05572 (Simulation time: 1 hr 18 min 50 sec) 
Finished CPU 0 instructions: 500000000 cycles: 8973006057 cumulative IPC: 0.05572 (Simulation time: 1 hr 18 min 50 sec) 

ChampSim completed all CPUs

[ROI Statistics]
Core_0_instructions 500000000
Core_0_cycles 8973006057
Core_0_IPC 0.05572

Core_0_branch_prediction_accuracy 93.42004
Core_0_branch_MPKI 15.82262
Core_0_average_ROB_occupancy_at_mispredict 59.09855

Core_0_L1D_total_access 121550915
Core_0_L1D_total_hit 56843122
Core_0_L1D_total_miss 64707793
Core_0_L1D_loads 105981368
Core_0_L1D_load_hit 42106412
Core_0_L1D_load_miss 63874956
Core_0_L1D_RFOs 15569547
Core_0_L1D_RFO_hit 14736710
Core_0_L1D_RFO_miss 832837
Core_0_L1D_prefetches 0
Core_0_L1D_prefetch_hit 0
Core_0_L1D_prefetch_miss 0
Core_0_L1D_writebacks 0
Core_0_L1D_writeback_hit 0
Core_0_L1D_writeback_miss 0
Core_0_L1D_prefetch_requested 0
Core_0_L1D_prefetch_dropped 0
Core_0_L1D_prefetch_issued 0
Core_0_L1D_prefetch_filled 0
Core_0_L1D_prefetch_useful 0
Core_0_L1D_prefetch_useless 0
Core_0_L1D_prefetch_late 0
Core_0_L1D_average_miss_latency 251.75771

Core_0_L1D_rq_access 161103944
Core_0_L1D_rq_forward 0
Core_0_L1D_rq_merged 54736257
Core_0_L1D_rq_to_cache 106367687
Core_0_L1D_rq_full 0

Core_0_L1D_wq_access 16623469
Core_0_L1D_wq_forward 0
Core_0_L1D_wq_merged 945348
Core_0_L1D_wq_to_cache 15678121
Core_0_L1D_wq_full 0

Core_0_L1D_pq_access 0
Core_0_L1D_pq_forward 0
Core_0_L1D_pq_merged 0
Core_0_L1D_pq_to_cache 0
Core_0_L1D_pq_full 0

Core_0_L1D_acc_epochs 8458054
Core_0_L1D_acc_level_0 8458054
Core_0_L1D_acc_level_1 0
Core_0_L1D_acc_level_2 0
Core_0_L1D_acc_level_3 0
Core_0_L1D_acc_level_4 0
Core_0_L1D_acc_level_5 0
Core_0_L1D_acc_level_6 0
Core_0_L1D_acc_level_7 0
Core_0_L1D_acc_level_8 0
Core_0_L1D_acc_level_9 0

Core_0_L1I_total_access 103891424
Core_0_L1I_total_hit 103891424
Core_0_L1I_total_miss 0
Core_0_L1I_loads 103891424
Core_0_L1I_load_hit 103891424
Core_0_L1I_load_miss 0
Core_0_L1I_RFOs 0
Core_0_L1I_RFO_hit 0
Core_0_L1I_RFO_miss 0
Core_0_L1I_prefetches 0
Core_0_L1I_prefetch_hit 0
Core_0_L1I_prefetch_miss 0
Core_0_L1I_writebacks 0
Core_0_L1I_writeback_hit 0
Core_0_L1I_writeback_miss 0
Core_0_L1I_prefetch_requested 0
Core_0_L1I_prefetch_dropped 0
Core_0_L1I_prefetch_issued 0
Core_0_L1I_prefetch_filled 0
Core_0_L1I_prefetch_useful 0
Core_0_L1I_prefetch_useless 0
Core_0_L1I_prefetch_late 0
Core_0_L1I_average_miss_latency -nan

Core_0_L1I_rq_access 500000052
Core_0_L1I_rq_forward 0
Core_0_L1I_rq_merged 396108628
Core_0_L1I_rq_to_cache 103891424
Core_0_L1I_rq_full 0

Core_0_L1I_wq_access 0
Core_0_L1I_wq_forward 0
Core_0_L1I_wq_merged 0
Core_0_L1I_wq_to_cache 0
Core_0_L1I_wq_full 0

Core_0_L1I_pq_access 0
Core_0_L1I_pq_forward 0
Core_0_L1I_pq_merged 0
Core_0_L1I_pq_to_cache 0
Core_0_L1I_pq_full 0

Core_0_L1I_acc_epochs 8458054
Core_0_L1I_acc_level_0 8458054
Core_0_L1I_acc_level_1 0
Core_0_L1I_acc_level_2 0
Core_0_L1I_acc_level_3 0
Core_0_L1I_acc_level_4 0
Core_0_L1I_acc_level_5 0
Core_0_L1I_acc_level_6 0
Core_0_L1I_acc_level_7 0
Core_0_L1I_acc_level_8 0
Core_0_L1I_acc_level_9 0

Core_0_L2C_total_access 117086211
Core_0_L2C_total_hit 61496488
Core_0_L2C_total_miss 55589723
Core_0_L2C_loads 63874643
Core_0_L2C_load_hit 17137310
Core_0_L2C_load_miss 46737333
Core_0_L2C_RFOs 832830
Core_0_L2C_RFO_hit 291267
Core_0_L2C_RFO_miss 541563
Core_0_L2C_prefetches 43686815
Core_0_L2C_prefetch_hit 35384470
Core_0_L2C_prefetch_miss 8302345
Core_0_L2C_writebacks 8691923
Core_0_L2C_writeback_hit 8683441
Core_0_L2C_writeback_miss 8482
Core_0_L2C_prefetch_requested 554636080
Core_0_L2C_prefetch_dropped 0
Core_0_L2C_prefetch_issued 554636080
Core_0_L2C_prefetch_filled 9983582
Core_0_L2C_prefetch_useful 2664535
Core_0_L2C_prefetch_useless 7318715
Core_0_L2C_prefetch_late 42481
Core_0_L2C_average_miss_latency 314.04926

Core_0_L2C_rq_access 64707793
Core_0_L2C_rq_forward 0
Core_0_L2C_rq_merged 0
Core_0_L2C_rq_to_cache 64707473
Core_0_L2C_rq_full 0

Core_0_L2C_wq_access 8691923
Core_0_L2C_wq_forward 386
Core_0_L2C_wq_merged 0
Core_0_L2C_wq_to_cache 8691923
Core_0_L2C_wq_full 0

Core_0_L2C_pq_access 554636080
Core_0_L2C_pq_forward 0
Core_0_L2C_pq_merged 7
Core_0_L2C_pq_to_cache 554636007
Core_0_L2C_pq_full 0

Core_0_L2C_acc_epochs 8458054
Core_0_L2C_acc_level_0 6889997
Core_0_L2C_acc_level_1 501246
Core_0_L2C_acc_level_2 369655
Core_0_L2C_acc_level_3 132805
Core_0_L2C_acc_level_4 58354
Core_0_L2C_acc_level_5 244880
Core_0_L2C_acc_level_6 56256
Core_0_L2C_acc_level_7 41426
Core_0_L2C_acc_level_8 24897
Core_0_L2C_acc_level_9 138538

Core_0_LLC_total_access 503744039
Core_0_LLC_total_hit 293605376
Core_0_LLC_total_miss 210138663
Core_0_LLC_loads 46697444
Core_0_LLC_load_hit 18972695
Core_0_LLC_load_miss 27724749
Core_0_LLC_RFOs 541556
Core_0_LLC_RFO_hit 386844
Core_0_LLC_RFO_miss 154712
Core_0_LLC_prefetches 449971831
Core_0_LLC_prefetch_hit 269493345
Core_0_LLC_prefetch_miss 180478486
Core_0_LLC_writebacks 6533208
Core_0_LLC_writeback_hit 4752492
Core_0_LLC_writeback_miss 1780716
Core_0_LLC_prefetch_requested 0
Core_0_LLC_prefetch_dropped 0
Core_0_LLC_prefetch_issued 0
Core_0_LLC_prefetch_filled 204064088
Core_0_LLC_prefetch_useful 15078119
Core_0_LLC_prefetch_useless 188960719
Core_0_LLC_prefetch_late 109841
Core_0_LLC_average_miss_latency 561.47428

Core_0_LLC_rq_access 47239062
Core_0_LLC_rq_forward 0
Core_0_LLC_rq_merged 0
Core_0_LLC_rq_to_cache 47239000
Core_0_LLC_rq_full 0

Core_0_LLC_wq_access 6533208
Core_0_LLC_wq_forward 143
Core_0_LLC_wq_merged 0
Core_0_LLC_wq_to_cache 6533208
Core_0_LLC_wq_full 0

Core_0_LLC_pq_access 512692549
Core_0_LLC_pq_forward 0
Core_0_LLC_pq_merged 0
Core_0_LLC_pq_to_cache 512692465
Core_0_LLC_pq_full 0

Core_0_LLC_acc_epochs 8869066
Core_0_LLC_acc_level_0 5723117
Core_0_LLC_acc_level_1 2018644
Core_0_LLC_acc_level_2 572673
Core_0_LLC_acc_level_3 215175
Core_0_LLC_acc_level_4 79644
Core_0_LLC_acc_level_5 102530
Core_0_LLC_acc_level_6 30912
Core_0_LLC_acc_level_7 23536
Core_0_LLC_acc_level_8 15593
Core_0_LLC_acc_level_9 87242

Core_0_major_page_fault 0
Core_0_minor_page_fault 289215

[Bingo] PHT Access: 59236090
[Bingo] PHT Hit PC+Addr: 6753763
[Bingo] PHT Hit PC+Offs: 35326565
[Bingo] PHT Miss: 17155762
[Bingo] Prefetch PC+Addr: 0
[Bingo] Prefetch PC+Offs: 0
[Bingo] Useful PC+Addr: 0
[Bingo] Useful PC+Offs: 0
[Bingo] Useless PC+Addr: 0
[Bingo] Useless PC+Offs: 0
[Bingo] L1 Prefetch per Region: 0.00000
[Bingo] L2 Prefetch per Region: 1.50867
[Bingo] L3 Prefetch per Region: 14.39803
[Bingo] No Prefetch per Region: 16.09329
[Bingo] Number of Voters Mean: 13.03074
[Bingo] Number of Voters SD: 4.49417

Channel_0_RQ_row_buffer_hit 95248809
Channel_0_RQ_row_buffer_miss 113078174
Channel_0_WQ_row_buffer_hit 942749
Channel_0_WQ_row_buffer_miss 4902329
Channel_0_WQ_full 0
Channel_0_dbus_congested 182371052

avg_congested_cycle 23

DRAM_bw_pochs 35476261
DRAM_bw_level_0 4914796
DRAM_bw_level_1 4987888
DRAM_bw_level_2 4383455
DRAM_bw_level_3 21190122
