*************************************************
   ChampSim Multicore Out-of-Order Simulator
   Last compiled: Dec 11 2024 17:59:53
*************************************************
parsing config file: /home/functionmain/桌面/Pythia/config/spp_dev2.ini

trace_0 /home/functionmain/桌面/Pythia/traces/429.mcf-51B.champsimtrace.xz
adding L2C_PREFETCHER: SPP_dev2
Initialize SIGNATURE TABLE
ST_SET: 1
ST_WAY: 256
ST_TAG_BIT: 16
ST_TAG_MASK: ffff

Initialize PATTERN TABLE
PT_SET: 512
PT_WAY: 4
SIG_DELTA_BIT: 7
C_SIG_BIT: 4
C_DELTA_BIT: 4

Initialize PREFETCH FILTER
FILTER_SET: 1024
fill_threshold: 90
pf_threshold: 40

Initialize SHIP state
warmup_instructions 100000000
simulation_instructions 500000000
champsim_seed 168
measure_ipc 0
measure_ipc_epoch 1000
measure_dram_bw 1
measure_dram_bw_epoch 256
measure_cache_acc 1
measure_cache_acc_epoch 1024
l1d_perfect 0
l2c_perfect 0
llc_perfect 0
l1d_semi_perfect 0
l2c_semi_perfect 0
llc_semi_perfect 0
semi_perfect_cache_page_buffer_size 64

num_cpus 1
cpu_freq 4000
dram_io_freq 300
page_size 4096
block_size 64
max_read_per_cycle 8
max_fill_per_cycle 1
dram_channels 1
log2_dram_channels 0
dram_ranks 1
dram_banks 8
dram_rows 65536
dram_columns 128
dram_row_size 8
dram_size 4096
dram_pages 1048576

fetch_width 6
decode_width 6
exec_width 4
lq_width 2
sq_width 2
retire_width 4
scheduler_size 128
branch_mispredict_penalty 20
rob_size 256
lq_size 72
sq_size 56
num_instr_destinations_sparc 4
num_instr_destinations 2
num_instr_sources 4

itlb_set 16
itlb_way 8
itlb_rq_size 16
itlb_wq_size 16
itlb_pq_size 0
itlb_mshr_size 8
itlb_latency 1

dtlb_set 16
dtlb_way 4
dtlb_rq_size 16
dtlb_wq_size 16
dtlb_pq_size 0
dtlb_mshr_size 8
dtlb_latency 1

stlb_set 128
stlb_way 12
stlb_rq_size 32
stlb_wq_size 32
stlb_pq_size 0
stlb_mshr_size 16
stlb_latency 8

l1i_size 32
l1i_set 64
l1i_way 8
l1i_rq_size 64
l1i_wq_size 64
l1i_pq_size 8
l1i_mshr_size 8
l1i_latency 1

l1d_size 32
l1d_set 64
l1d_way 8
l1d_rq_size 64
l1d_wq_size 64
l1d_pq_size 8
l1d_mshr_size 16
l1d_latency 4

l2c_size 256
l2c_set 512
l2c_way 8
l2c_rq_size 32
l2c_wq_size 32
l2c_pq_size 32
l2c_mshr_size 32
l2c_latency 10

llc_size 2048
llc_set 2048
llc_way 16
llc_rq_size 32
llc_wq_size 32
llc_pq_size 32
llc_mshr_size 64
llc_latency 20

dram_channel_width 8
dram_wq_size 64
dram_rq_size 64
tRP 15
tRCD 15
tCAS 12.5
dram_dbus_turn_around_time 30
dram_write_high_wm 56
dram_write_low_wm 48
min_dram_writes_per_switch 16
dram_mtps 300
dram_dbus_return_time 106


Heartbeat CPU  0 instructions:    1000003 cycles:     855225 heartbeat IPC: 1.16929 cumulative IPC: 1.16929 (Simulation time: 0 hr 0 min 1 sec) 
Heartbeat CPU  0 instructions:    2000000 cycles:    1635365 heartbeat IPC: 1.28182 cumulative IPC: 1.22297 (Simulation time: 0 hr 0 min 3 sec) 
Heartbeat CPU  0 instructions:    3000002 cycles:    2426863 heartbeat IPC: 1.26343 cumulative IPC: 1.23616 (Simulation time: 0 hr 0 min 4 sec) 
Heartbeat CPU  0 instructions:    4000000 cycles:    3246073 heartbeat IPC: 1.22069 cumulative IPC: 1.23226 (Simulation time: 0 hr 0 min 6 sec) 
Heartbeat CPU  0 instructions:    5000002 cycles:    4027533 heartbeat IPC: 1.27966 cumulative IPC: 1.24146 (Simulation time: 0 hr 0 min 7 sec) 
Heartbeat CPU  0 instructions:    6000001 cycles:    4799744 heartbeat IPC: 1.29498 cumulative IPC: 1.25007 (Simulation time: 0 hr 0 min 9 sec) 
Heartbeat CPU  0 instructions:    7000000 cycles:    5577137 heartbeat IPC: 1.28635 cumulative IPC: 1.25512 (Simulation time: 0 hr 0 min 10 sec) 
Heartbeat CPU  0 instructions:    8000000 cycles:    6425398 heartbeat IPC: 1.17888 cumulative IPC: 1.24506 (Simulation time: 0 hr 0 min 12 sec) 
Heartbeat CPU  0 instructions:    9000001 cycles:    7218333 heartbeat IPC: 1.26114 cumulative IPC: 1.24683 (Simulation time: 0 hr 0 min 13 sec) 
Heartbeat CPU  0 instructions:   10000000 cycles:    8022904 heartbeat IPC: 1.24290 cumulative IPC: 1.24643 (Simulation time: 0 hr 0 min 15 sec) 
Heartbeat CPU  0 instructions:   11000002 cycles:    8870620 heartbeat IPC: 1.17964 cumulative IPC: 1.24005 (Simulation time: 0 hr 0 min 16 sec) 
Heartbeat CPU  0 instructions:   12000000 cycles:    9721545 heartbeat IPC: 1.17519 cumulative IPC: 1.23437 (Simulation time: 0 hr 0 min 17 sec) 
Heartbeat CPU  0 instructions:   13000000 cycles:   10534472 heartbeat IPC: 1.23012 cumulative IPC: 1.23404 (Simulation time: 0 hr 0 min 19 sec) 
Heartbeat CPU  0 instructions:   14000002 cycles:   11305554 heartbeat IPC: 1.29688 cumulative IPC: 1.23833 (Simulation time: 0 hr 0 min 21 sec) 
Heartbeat CPU  0 instructions:   15000001 cycles:   12079761 heartbeat IPC: 1.29164 cumulative IPC: 1.24175 (Simulation time: 0 hr 0 min 22 sec) 
Heartbeat CPU  0 instructions:   16000000 cycles:   12871343 heartbeat IPC: 1.26329 cumulative IPC: 1.24307 (Simulation time: 0 hr 0 min 23 sec) 
Heartbeat CPU  0 instructions:   17000000 cycles:   13678285 heartbeat IPC: 1.23925 cumulative IPC: 1.24285 (Simulation time: 0 hr 0 min 25 sec) 
Heartbeat CPU  0 instructions:   18000002 cycles:   14453887 heartbeat IPC: 1.28932 cumulative IPC: 1.24534 (Simulation time: 0 hr 0 min 26 sec) 
Heartbeat CPU  0 instructions:   19000000 cycles:   15277153 heartbeat IPC: 1.21467 cumulative IPC: 1.24369 (Simulation time: 0 hr 0 min 28 sec) 
Heartbeat CPU  0 instructions:   20000000 cycles:   16119280 heartbeat IPC: 1.18747 cumulative IPC: 1.24075 (Simulation time: 0 hr 0 min 29 sec) 
Heartbeat CPU  0 instructions:   21000001 cycles:   16918296 heartbeat IPC: 1.25154 cumulative IPC: 1.24126 (Simulation time: 0 hr 0 min 31 sec) 
Heartbeat CPU  0 instructions:   22000000 cycles:   17709331 heartbeat IPC: 1.26417 cumulative IPC: 1.24228 (Simulation time: 0 hr 0 min 32 sec) 
Heartbeat CPU  0 instructions:   23000001 cycles:   18517120 heartbeat IPC: 1.23795 cumulative IPC: 1.24209 (Simulation time: 0 hr 0 min 34 sec) 
Heartbeat CPU  0 instructions:   24000000 cycles:   19312210 heartbeat IPC: 1.25772 cumulative IPC: 1.24274 (Simulation time: 0 hr 0 min 35 sec) 
Heartbeat CPU  0 instructions:   25000003 cycles:   20117771 heartbeat IPC: 1.24137 cumulative IPC: 1.24268 (Simulation time: 0 hr 0 min 37 sec) 
Heartbeat CPU  0 instructions:   26000002 cycles:   20922360 heartbeat IPC: 1.24287 cumulative IPC: 1.24269 (Simulation time: 0 hr 0 min 38 sec) 
Heartbeat CPU  0 instructions:   27000000 cycles:   21736396 heartbeat IPC: 1.22844 cumulative IPC: 1.24216 (Simulation time: 0 hr 0 min 40 sec) 
Heartbeat CPU  0 instructions:   28000000 cycles:   22582245 heartbeat IPC: 1.18224 cumulative IPC: 1.23991 (Simulation time: 0 hr 0 min 41 sec) 
Heartbeat CPU  0 instructions:   29000000 cycles:   23359260 heartbeat IPC: 1.28698 cumulative IPC: 1.24148 (Simulation time: 0 hr 0 min 43 sec) 
Heartbeat CPU  0 instructions:   30000000 cycles:   24180545 heartbeat IPC: 1.21760 cumulative IPC: 1.24067 (Simulation time: 0 hr 0 min 44 sec) 
Heartbeat CPU  0 instructions:   31000002 cycles:   25039256 heartbeat IPC: 1.16454 cumulative IPC: 1.23806 (Simulation time: 0 hr 0 min 46 sec) 
Heartbeat CPU  0 instructions:   32000000 cycles:   25902032 heartbeat IPC: 1.15905 cumulative IPC: 1.23542 (Simulation time: 0 hr 0 min 47 sec) 
Heartbeat CPU  0 instructions:   33000002 cycles:   26665535 heartbeat IPC: 1.30976 cumulative IPC: 1.23755 (Simulation time: 0 hr 0 min 49 sec) 
Heartbeat CPU  0 instructions:   34000003 cycles:   27526092 heartbeat IPC: 1.16204 cumulative IPC: 1.23519 (Simulation time: 0 hr 0 min 50 sec) 
Heartbeat CPU  0 instructions:   35000001 cycles:   28384120 heartbeat IPC: 1.16546 cumulative IPC: 1.23308 (Simulation time: 0 hr 0 min 51 sec) 
Heartbeat CPU  0 instructions:   36000000 cycles:   29208201 heartbeat IPC: 1.21347 cumulative IPC: 1.23253 (Simulation time: 0 hr 0 min 53 sec) 
Heartbeat CPU  0 instructions:   37000003 cycles:   29984352 heartbeat IPC: 1.28841 cumulative IPC: 1.23398 (Simulation time: 0 hr 0 min 55 sec) 
Heartbeat CPU  0 instructions:   38000003 cycles:   30789740 heartbeat IPC: 1.24164 cumulative IPC: 1.23418 (Simulation time: 0 hr 0 min 56 sec) 
Heartbeat CPU  0 instructions:   39000000 cycles:   31509837 heartbeat IPC: 1.38870 cumulative IPC: 1.23771 (Simulation time: 0 hr 0 min 57 sec) 
Heartbeat CPU  0 instructions:   40000000 cycles:   32216230 heartbeat IPC: 1.41564 cumulative IPC: 1.24161 (Simulation time: 0 hr 0 min 59 sec) 
Heartbeat CPU  0 instructions:   41000003 cycles:   32971587 heartbeat IPC: 1.32388 cumulative IPC: 1.24349 (Simulation time: 0 hr 1 min 1 sec) 
Heartbeat CPU  0 instructions:   42000001 cycles:   33651975 heartbeat IPC: 1.46975 cumulative IPC: 1.24807 (Simulation time: 0 hr 1 min 2 sec) 
Heartbeat CPU  0 instructions:   43000000 cycles:   34341922 heartbeat IPC: 1.44939 cumulative IPC: 1.25211 (Simulation time: 0 hr 1 min 4 sec) 
Heartbeat CPU  0 instructions:   44000000 cycles:   35088383 heartbeat IPC: 1.33965 cumulative IPC: 1.25398 (Simulation time: 0 hr 1 min 5 sec) 
Heartbeat CPU  0 instructions:   45000000 cycles:   35945677 heartbeat IPC: 1.16646 cumulative IPC: 1.25189 (Simulation time: 0 hr 1 min 7 sec) 
Heartbeat CPU  0 instructions:   46000000 cycles:   36901490 heartbeat IPC: 1.04623 cumulative IPC: 1.24656 (Simulation time: 0 hr 1 min 8 sec) 
Heartbeat CPU  0 instructions:   47000001 cycles:   37929076 heartbeat IPC: 0.97316 cumulative IPC: 1.23915 (Simulation time: 0 hr 1 min 9 sec) 
Heartbeat CPU  0 instructions:   48000000 cycles:   38927100 heartbeat IPC: 1.00198 cumulative IPC: 1.23307 (Simulation time: 0 hr 1 min 11 sec) 
Heartbeat CPU  0 instructions:   49000001 cycles:   39820958 heartbeat IPC: 1.11875 cumulative IPC: 1.23051 (Simulation time: 0 hr 1 min 12 sec) 
Heartbeat CPU  0 instructions:   50000001 cycles:   40677792 heartbeat IPC: 1.16709 cumulative IPC: 1.22917 (Simulation time: 0 hr 1 min 14 sec) 
Heartbeat CPU  0 instructions:   51000001 cycles:   41668229 heartbeat IPC: 1.00966 cumulative IPC: 1.22395 (Simulation time: 0 hr 1 min 15 sec) 
Heartbeat CPU  0 instructions:   52000000 cycles:   42613824 heartbeat IPC: 1.05753 cumulative IPC: 1.22026 (Simulation time: 0 hr 1 min 16 sec) 
Heartbeat CPU  0 instructions:   53000002 cycles:   43508526 heartbeat IPC: 1.11769 cumulative IPC: 1.21815 (Simulation time: 0 hr 1 min 17 sec) 
Heartbeat CPU  0 instructions:   54000002 cycles:   44303886 heartbeat IPC: 1.25729 cumulative IPC: 1.21885 (Simulation time: 0 hr 1 min 19 sec) 
Heartbeat CPU  0 instructions:   55000001 cycles:   45192054 heartbeat IPC: 1.12591 cumulative IPC: 1.21703 (Simulation time: 0 hr 1 min 20 sec) 
Heartbeat CPU  0 instructions:   56000000 cycles:   46156634 heartbeat IPC: 1.03672 cumulative IPC: 1.21326 (Simulation time: 0 hr 1 min 22 sec) 
Heartbeat CPU  0 instructions:   57000001 cycles:   47002360 heartbeat IPC: 1.18242 cumulative IPC: 1.21271 (Simulation time: 0 hr 1 min 23 sec) 
Heartbeat CPU  0 instructions:   58000000 cycles:   47826967 heartbeat IPC: 1.21270 cumulative IPC: 1.21271 (Simulation time: 0 hr 1 min 25 sec) 
Heartbeat CPU  0 instructions:   59000001 cycles:   48608184 heartbeat IPC: 1.28006 cumulative IPC: 1.21379 (Simulation time: 0 hr 1 min 26 sec) 
Heartbeat CPU  0 instructions:   60000000 cycles:   49429975 heartbeat IPC: 1.21685 cumulative IPC: 1.21384 (Simulation time: 0 hr 1 min 28 sec) 
Heartbeat CPU  0 instructions:   61000002 cycles:   50292991 heartbeat IPC: 1.15873 cumulative IPC: 1.21289 (Simulation time: 0 hr 1 min 29 sec) 
Heartbeat CPU  0 instructions:   62000000 cycles:   51108236 heartbeat IPC: 1.22662 cumulative IPC: 1.21311 (Simulation time: 0 hr 1 min 31 sec) 
Heartbeat CPU  0 instructions:   63000001 cycles:   51870025 heartbeat IPC: 1.31270 cumulative IPC: 1.21457 (Simulation time: 0 hr 1 min 32 sec) 
Heartbeat CPU  0 instructions:   64000000 cycles:   52660710 heartbeat IPC: 1.26472 cumulative IPC: 1.21533 (Simulation time: 0 hr 1 min 34 sec) 
Heartbeat CPU  0 instructions:   65000000 cycles:   53455305 heartbeat IPC: 1.25850 cumulative IPC: 1.21597 (Simulation time: 0 hr 1 min 35 sec) 
Heartbeat CPU  0 instructions:   66000002 cycles:   54247520 heartbeat IPC: 1.26229 cumulative IPC: 1.21665 (Simulation time: 0 hr 1 min 37 sec) 
Heartbeat CPU  0 instructions:   67000003 cycles:   55085509 heartbeat IPC: 1.19333 cumulative IPC: 1.21629 (Simulation time: 0 hr 1 min 38 sec) 
Heartbeat CPU  0 instructions:   68000000 cycles:   56003925 heartbeat IPC: 1.08883 cumulative IPC: 1.21420 (Simulation time: 0 hr 1 min 40 sec) 
Heartbeat CPU  0 instructions:   69000000 cycles:   56895123 heartbeat IPC: 1.12209 cumulative IPC: 1.21276 (Simulation time: 0 hr 1 min 41 sec) 
Heartbeat CPU  0 instructions:   70000001 cycles:   57752974 heartbeat IPC: 1.16570 cumulative IPC: 1.21206 (Simulation time: 0 hr 1 min 43 sec) 
Heartbeat CPU  0 instructions:   71000000 cycles:   58564070 heartbeat IPC: 1.23290 cumulative IPC: 1.21235 (Simulation time: 0 hr 1 min 44 sec) 
Heartbeat CPU  0 instructions:   72000000 cycles:   59494068 heartbeat IPC: 1.07527 cumulative IPC: 1.21020 (Simulation time: 0 hr 1 min 45 sec) 
Heartbeat CPU  0 instructions:   73000000 cycles:   60408835 heartbeat IPC: 1.09317 cumulative IPC: 1.20843 (Simulation time: 0 hr 1 min 47 sec) 
Heartbeat CPU  0 instructions:   74000000 cycles:   61260164 heartbeat IPC: 1.17463 cumulative IPC: 1.20796 (Simulation time: 0 hr 1 min 48 sec) 
Heartbeat CPU  0 instructions:   75000002 cycles:   62087636 heartbeat IPC: 1.20850 cumulative IPC: 1.20797 (Simulation time: 0 hr 1 min 50 sec) 
Heartbeat CPU  0 instructions:   76000000 cycles:   63011511 heartbeat IPC: 1.08240 cumulative IPC: 1.20613 (Simulation time: 0 hr 1 min 51 sec) 
Heartbeat CPU  0 instructions:   77000003 cycles:   63943322 heartbeat IPC: 1.07318 cumulative IPC: 1.20419 (Simulation time: 0 hr 1 min 53 sec) 
Heartbeat CPU  0 instructions:   78000000 cycles:   64784667 heartbeat IPC: 1.18857 cumulative IPC: 1.20399 (Simulation time: 0 hr 1 min 54 sec) 
Heartbeat CPU  0 instructions:   79000002 cycles:   65605315 heartbeat IPC: 1.21855 cumulative IPC: 1.20417 (Simulation time: 0 hr 1 min 56 sec) 
Heartbeat CPU  0 instructions:   80000000 cycles:   66479609 heartbeat IPC: 1.14378 cumulative IPC: 1.20338 (Simulation time: 0 hr 1 min 57 sec) 
Heartbeat CPU  0 instructions:   81000001 cycles:   67318849 heartbeat IPC: 1.19156 cumulative IPC: 1.20323 (Simulation time: 0 hr 1 min 58 sec) 
Heartbeat CPU  0 instructions:   82000000 cycles:   68339137 heartbeat IPC: 0.98011 cumulative IPC: 1.19990 (Simulation time: 0 hr 2 min 0 sec) 
Heartbeat CPU  0 instructions:   83000003 cycles:   69108113 heartbeat IPC: 1.30043 cumulative IPC: 1.20102 (Simulation time: 0 hr 2 min 2 sec) 
Heartbeat CPU  0 instructions:   84000000 cycles:   69894230 heartbeat IPC: 1.27207 cumulative IPC: 1.20182 (Simulation time: 0 hr 2 min 3 sec) 
Heartbeat CPU  0 instructions:   85000001 cycles:   70663872 heartbeat IPC: 1.29931 cumulative IPC: 1.20288 (Simulation time: 0 hr 2 min 4 sec) 
Heartbeat CPU  0 instructions:   86000002 cycles:   71438338 heartbeat IPC: 1.29121 cumulative IPC: 1.20384 (Simulation time: 0 hr 2 min 6 sec) 
Heartbeat CPU  0 instructions:   87000000 cycles:   72204414 heartbeat IPC: 1.30535 cumulative IPC: 1.20491 (Simulation time: 0 hr 2 min 7 sec) 
Heartbeat CPU  0 instructions:   88000000 cycles:   72966821 heartbeat IPC: 1.31164 cumulative IPC: 1.20603 (Simulation time: 0 hr 2 min 9 sec) 
Heartbeat CPU  0 instructions:   89000002 cycles:   73725811 heartbeat IPC: 1.31754 cumulative IPC: 1.20718 (Simulation time: 0 hr 2 min 10 sec) 
Heartbeat CPU  0 instructions:   90000001 cycles:   74493947 heartbeat IPC: 1.30185 cumulative IPC: 1.20815 (Simulation time: 0 hr 2 min 11 sec) 
Heartbeat CPU  0 instructions:   91000001 cycles:   75261436 heartbeat IPC: 1.30295 cumulative IPC: 1.20912 (Simulation time: 0 hr 2 min 13 sec) 
Heartbeat CPU  0 instructions:   92000000 cycles:   76002571 heartbeat IPC: 1.34928 cumulative IPC: 1.21049 (Simulation time: 0 hr 2 min 14 sec) 
Heartbeat CPU  0 instructions:   93000000 cycles:   76788687 heartbeat IPC: 1.27208 cumulative IPC: 1.21112 (Simulation time: 0 hr 2 min 16 sec) 
Heartbeat CPU  0 instructions:   94000001 cycles:   77669592 heartbeat IPC: 1.13520 cumulative IPC: 1.21025 (Simulation time: 0 hr 2 min 17 sec) 
Heartbeat CPU  0 instructions:   95000003 cycles:   78454270 heartbeat IPC: 1.27441 cumulative IPC: 1.21090 (Simulation time: 0 hr 2 min 19 sec) 
Heartbeat CPU  0 instructions:   96000000 cycles:   79286838 heartbeat IPC: 1.20110 cumulative IPC: 1.21079 (Simulation time: 0 hr 2 min 20 sec) 
Heartbeat CPU  0 instructions:   97000001 cycles:   80023707 heartbeat IPC: 1.35709 cumulative IPC: 1.21214 (Simulation time: 0 hr 2 min 22 sec) 
Heartbeat CPU  0 instructions:   98000000 cycles:   80739205 heartbeat IPC: 1.39763 cumulative IPC: 1.21378 (Simulation time: 0 hr 2 min 23 sec) 
Heartbeat CPU  0 instructions:   99000000 cycles:   81467515 heartbeat IPC: 1.37304 cumulative IPC: 1.21521 (Simulation time: 0 hr 2 min 25 sec) 
Heartbeat CPU  0 instructions:  100000000 cycles:   82203564 heartbeat IPC: 1.35861 cumulative IPC: 1.21649 (Simulation time: 0 hr 2 min 26 sec) 

Warmup complete CPU  0 instructions:  100000001 cycles:   82203565 (Simulation time: 0 hr 2 min 26 sec) 

Heartbeat CPU  0 instructions:  101000003 cycles:  103362454 heartbeat IPC: 0.04726 cumulative IPC: 0.04726 (Simulation time: 0 hr 2 min 34 sec) 
Heartbeat CPU  0 instructions:  102000002 cycles:  111574422 heartbeat IPC: 0.12177 cumulative IPC: 0.06809 (Simulation time: 0 hr 2 min 38 sec) 
Heartbeat CPU  0 instructions:  103000002 cycles:  118593595 heartbeat IPC: 0.14247 cumulative IPC: 0.08244 (Simulation time: 0 hr 2 min 41 sec) 
Heartbeat CPU  0 instructions:  104000000 cycles:  137195372 heartbeat IPC: 0.05376 cumulative IPC: 0.07274 (Simulation time: 0 hr 2 min 48 sec) 
Heartbeat CPU  0 instructions:  105000001 cycles:  148097714 heartbeat IPC: 0.09172 cumulative IPC: 0.07588 (Simulation time: 0 hr 2 min 53 sec) 
Heartbeat CPU  0 instructions:  106000002 cycles:  155994954 heartbeat IPC: 0.12663 cumulative IPC: 0.08131 (Simulation time: 0 hr 2 min 57 sec) 
Heartbeat CPU  0 instructions:  107000000 cycles:  162911892 heartbeat IPC: 0.14457 cumulative IPC: 0.08673 (Simulation time: 0 hr 3 min 0 sec) 
Heartbeat CPU  0 instructions:  108000000 cycles:  178176225 heartbeat IPC: 0.06551 cumulative IPC: 0.08336 (Simulation time: 0 hr 3 min 6 sec) 
Heartbeat CPU  0 instructions:  109000000 cycles:  192298509 heartbeat IPC: 0.07081 cumulative IPC: 0.08175 (Simulation time: 0 hr 3 min 12 sec) 
Heartbeat CPU  0 instructions:  110000000 cycles:  199460326 heartbeat IPC: 0.13963 cumulative IPC: 0.08528 (Simulation time: 0 hr 3 min 15 sec) 
Heartbeat CPU  0 instructions:  111000002 cycles:  206548864 heartbeat IPC: 0.14107 cumulative IPC: 0.08846 (Simulation time: 0 hr 3 min 19 sec) 
Heartbeat CPU  0 instructions:  112000000 cycles:  218926465 heartbeat IPC: 0.08079 cumulative IPC: 0.08777 (Simulation time: 0 hr 3 min 24 sec) 
Heartbeat CPU  0 instructions:  113000000 cycles:  236170416 heartbeat IPC: 0.05799 cumulative IPC: 0.08443 (Simulation time: 0 hr 3 min 31 sec) 
Heartbeat CPU  0 instructions:  114000003 cycles:  244342334 heartbeat IPC: 0.12237 cumulative IPC: 0.08635 (Simulation time: 0 hr 3 min 35 sec) 
Heartbeat CPU  0 instructions:  115000003 cycles:  251445658 heartbeat IPC: 0.14078 cumulative IPC: 0.08863 (Simulation time: 0 hr 3 min 38 sec) 
Heartbeat CPU  0 instructions:  116000000 cycles:  260409927 heartbeat IPC: 0.11155 cumulative IPC: 0.08978 (Simulation time: 0 hr 3 min 42 sec) 
Heartbeat CPU  0 instructions:  117000002 cycles:  279709165 heartbeat IPC: 0.05182 cumulative IPC: 0.08607 (Simulation time: 0 hr 3 min 50 sec) 
Heartbeat CPU  0 instructions:  118000001 cycles:  287222552 heartbeat IPC: 0.13310 cumulative IPC: 0.08780 (Simulation time: 0 hr 3 min 54 sec) 
Heartbeat CPU  0 instructions:  119000000 cycles:  301513308 heartbeat IPC: 0.06998 cumulative IPC: 0.08664 (Simulation time: 0 hr 3 min 59 sec) 
Heartbeat CPU  0 instructions:  120000000 cycles:  308911524 heartbeat IPC: 0.13517 cumulative IPC: 0.08822 (Simulation time: 0 hr 4 min 3 sec) 
Heartbeat CPU  0 instructions:  121000002 cycles:  325029347 heartbeat IPC: 0.06204 cumulative IPC: 0.08648 (Simulation time: 0 hr 4 min 10 sec) 
Heartbeat CPU  0 instructions:  122000000 cycles:  342501002 heartbeat IPC: 0.05724 cumulative IPC: 0.08452 (Simulation time: 0 hr 4 min 16 sec) 
Heartbeat CPU  0 instructions:  123000000 cycles:  350145489 heartbeat IPC: 0.13081 cumulative IPC: 0.08584 (Simulation time: 0 hr 4 min 20 sec) 
Heartbeat CPU  0 instructions:  124000000 cycles:  357162200 heartbeat IPC: 0.14252 cumulative IPC: 0.08729 (Simulation time: 0 hr 4 min 23 sec) 
Heartbeat CPU  0 instructions:  125000000 cycles:  367702800 heartbeat IPC: 0.09487 cumulative IPC: 0.08757 (Simulation time: 0 hr 4 min 27 sec) 
Heartbeat CPU  0 instructions:  126000000 cycles:  385228429 heartbeat IPC: 0.05706 cumulative IPC: 0.08580 (Simulation time: 0 hr 4 min 34 sec) 
Heartbeat CPU  0 instructions:  127000001 cycles:  392320753 heartbeat IPC: 0.14100 cumulative IPC: 0.08706 (Simulation time: 0 hr 4 min 38 sec) 
Heartbeat CPU  0 instructions:  128000000 cycles:  399457632 heartbeat IPC: 0.14012 cumulative IPC: 0.08826 (Simulation time: 0 hr 4 min 41 sec) 
Heartbeat CPU  0 instructions:  129000001 cycles:  408935203 heartbeat IPC: 0.10551 cumulative IPC: 0.08876 (Simulation time: 0 hr 4 min 45 sec) 
Heartbeat CPU  0 instructions:  130000003 cycles:  427698944 heartbeat IPC: 0.05329 cumulative IPC: 0.08683 (Simulation time: 0 hr 4 min 52 sec) 
Heartbeat CPU  0 instructions:  131000002 cycles:  436711317 heartbeat IPC: 0.11096 cumulative IPC: 0.08745 (Simulation time: 0 hr 4 min 56 sec) 
Heartbeat CPU  0 instructions:  132000000 cycles:  444055950 heartbeat IPC: 0.13615 cumulative IPC: 0.08843 (Simulation time: 0 hr 5 min 0 sec) 
Heartbeat CPU  0 instructions:  133000000 cycles:  451064259 heartbeat IPC: 0.14269 cumulative IPC: 0.08946 (Simulation time: 0 hr 5 min 3 sec) 
Heartbeat CPU  0 instructions:  134000001 cycles:  468022397 heartbeat IPC: 0.05897 cumulative IPC: 0.08812 (Simulation time: 0 hr 5 min 10 sec) 
Heartbeat CPU  0 instructions:  135000000 cycles:  480315332 heartbeat IPC: 0.08135 cumulative IPC: 0.08792 (Simulation time: 0 hr 5 min 15 sec) 
Heartbeat CPU  0 instructions:  136000000 cycles:  487165605 heartbeat IPC: 0.14598 cumulative IPC: 0.08890 (Simulation time: 0 hr 5 min 19 sec) 
Heartbeat CPU  0 instructions:  137000002 cycles:  493826409 heartbeat IPC: 0.15013 cumulative IPC: 0.08989 (Simulation time: 0 hr 5 min 22 sec) 
Heartbeat CPU  0 instructions:  138000001 cycles:  508657227 heartbeat IPC: 0.06743 cumulative IPC: 0.08911 (Simulation time: 0 hr 5 min 28 sec) 
Heartbeat CPU  0 instructions:  139000000 cycles:  522866748 heartbeat IPC: 0.07038 cumulative IPC: 0.08850 (Simulation time: 0 hr 5 min 34 sec) 
Heartbeat CPU  0 instructions:  140000000 cycles:  529783629 heartbeat IPC: 0.14457 cumulative IPC: 0.08937 (Simulation time: 0 hr 5 min 38 sec) 
Heartbeat CPU  0 instructions:  141000000 cycles:  536441823 heartbeat IPC: 0.15019 cumulative IPC: 0.09026 (Simulation time: 0 hr 5 min 41 sec) 
Heartbeat CPU  0 instructions:  142000001 cycles:  549741838 heartbeat IPC: 0.07519 cumulative IPC: 0.08983 (Simulation time: 0 hr 5 min 47 sec) 
Heartbeat CPU  0 instructions:  143000001 cycles:  565186658 heartbeat IPC: 0.06475 cumulative IPC: 0.08903 (Simulation time: 0 hr 5 min 53 sec) 
Heartbeat CPU  0 instructions:  144000000 cycles:  572194757 heartbeat IPC: 0.14269 cumulative IPC: 0.08980 (Simulation time: 0 hr 5 min 57 sec) 
Heartbeat CPU  0 instructions:  145000002 cycles:  578872321 heartbeat IPC: 0.14976 cumulative IPC: 0.09060 (Simulation time: 0 hr 6 min 0 sec) 
Heartbeat CPU  0 instructions:  146000000 cycles:  590816117 heartbeat IPC: 0.08373 cumulative IPC: 0.09044 (Simulation time: 0 hr 6 min 5 sec) 
Heartbeat CPU  0 instructions:  147000003 cycles:  607367387 heartbeat IPC: 0.06042 cumulative IPC: 0.08950 (Simulation time: 0 hr 6 min 12 sec) 
Heartbeat CPU  0 instructions:  148000000 cycles:  614448028 heartbeat IPC: 0.14123 cumulative IPC: 0.09018 (Simulation time: 0 hr 6 min 16 sec) 
Heartbeat CPU  0 instructions:  149000003 cycles:  621125606 heartbeat IPC: 0.14976 cumulative IPC: 0.09092 (Simulation time: 0 hr 6 min 19 sec) 
Heartbeat CPU  0 instructions:  150000002 cycles:  632075876 heartbeat IPC: 0.09132 cumulative IPC: 0.09093 (Simulation time: 0 hr 6 min 24 sec) 
Heartbeat CPU  0 instructions:  151000001 cycles:  649316992 heartbeat IPC: 0.05800 cumulative IPC: 0.08993 (Simulation time: 0 hr 6 min 31 sec) 
Heartbeat CPU  0 instructions:  152000000 cycles:  656683743 heartbeat IPC: 0.13574 cumulative IPC: 0.09052 (Simulation time: 0 hr 6 min 34 sec) 
Heartbeat CPU  0 instructions:  153000000 cycles:  663494498 heartbeat IPC: 0.14683 cumulative IPC: 0.09118 (Simulation time: 0 hr 6 min 38 sec) 
Heartbeat CPU  0 instructions:  154000000 cycles:  672075604 heartbeat IPC: 0.11654 cumulative IPC: 0.09155 (Simulation time: 0 hr 6 min 42 sec) 
Heartbeat CPU  0 instructions:  155000000 cycles:  691616150 heartbeat IPC: 0.05118 cumulative IPC: 0.09025 (Simulation time: 0 hr 6 min 49 sec) 
Heartbeat CPU  0 instructions:  156000000 cycles:  699149953 heartbeat IPC: 0.13274 cumulative IPC: 0.09077 (Simulation time: 0 hr 6 min 53 sec) 
Heartbeat CPU  0 instructions:  157000000 cycles:  708804728 heartbeat IPC: 0.10358 cumulative IPC: 0.09097 (Simulation time: 0 hr 6 min 57 sec) 
Heartbeat CPU  0 instructions:  158000001 cycles:  716339994 heartbeat IPC: 0.13271 cumulative IPC: 0.09146 (Simulation time: 0 hr 7 min 0 sec) 
Heartbeat CPU  0 instructions:  159000000 cycles:  732154613 heartbeat IPC: 0.06323 cumulative IPC: 0.09078 (Simulation time: 0 hr 7 min 7 sec) 
Heartbeat CPU  0 instructions:  160000000 cycles:  745813113 heartbeat IPC: 0.07321 cumulative IPC: 0.09041 (Simulation time: 0 hr 7 min 12 sec) 
Heartbeat CPU  0 instructions:  161000003 cycles:  753591089 heartbeat IPC: 0.12857 cumulative IPC: 0.09086 (Simulation time: 0 hr 7 min 15 sec) 
Heartbeat CPU  0 instructions:  162000000 cycles:  763561087 heartbeat IPC: 0.10030 cumulative IPC: 0.09099 (Simulation time: 0 hr 7 min 19 sec) 
Heartbeat CPU  0 instructions:  163000000 cycles:  775868302 heartbeat IPC: 0.08125 cumulative IPC: 0.09082 (Simulation time: 0 hr 7 min 25 sec) 
Heartbeat CPU  0 instructions:  164000000 cycles:  792207985 heartbeat IPC: 0.06120 cumulative IPC: 0.09014 (Simulation time: 0 hr 7 min 31 sec) 
Heartbeat CPU  0 instructions:  165000002 cycles:  804463160 heartbeat IPC: 0.08160 cumulative IPC: 0.09000 (Simulation time: 0 hr 7 min 37 sec) 
Heartbeat CPU  0 instructions:  166000003 cycles:  812781277 heartbeat IPC: 0.12022 cumulative IPC: 0.09034 (Simulation time: 0 hr 7 min 40 sec) 
Heartbeat CPU  0 instructions:  167000000 cycles:  823115510 heartbeat IPC: 0.09677 cumulative IPC: 0.09043 (Simulation time: 0 hr 7 min 45 sec) 
Heartbeat CPU  0 instructions:  168000000 cycles:  841138205 heartbeat IPC: 0.05549 cumulative IPC: 0.08960 (Simulation time: 0 hr 7 min 52 sec) 
Heartbeat CPU  0 instructions:  169000000 cycles:  848542903 heartbeat IPC: 0.13505 cumulative IPC: 0.09004 (Simulation time: 0 hr 7 min 56 sec) 
Heartbeat CPU  0 instructions:  170000000 cycles:  855381990 heartbeat IPC: 0.14622 cumulative IPC: 0.09054 (Simulation time: 0 hr 7 min 59 sec) 
Heartbeat CPU  0 instructions:  171000000 cycles:  867372955 heartbeat IPC: 0.08340 cumulative IPC: 0.09043 (Simulation time: 0 hr 8 min 4 sec) 
Heartbeat CPU  0 instructions:  172000000 cycles:  883884494 heartbeat IPC: 0.06056 cumulative IPC: 0.08981 (Simulation time: 0 hr 8 min 11 sec) 
Heartbeat CPU  0 instructions:  173000000 cycles:  891992598 heartbeat IPC: 0.12333 cumulative IPC: 0.09015 (Simulation time: 0 hr 8 min 14 sec) 
Heartbeat CPU  0 instructions:  174000002 cycles:  900035733 heartbeat IPC: 0.12433 cumulative IPC: 0.09048 (Simulation time: 0 hr 8 min 18 sec) 
Heartbeat CPU  0 instructions:  175000003 cycles:  910990359 heartbeat IPC: 0.09129 cumulative IPC: 0.09049 (Simulation time: 0 hr 8 min 23 sec) 
Heartbeat CPU  0 instructions:  176000000 cycles:  928754375 heartbeat IPC: 0.05629 cumulative IPC: 0.08978 (Simulation time: 0 hr 8 min 30 sec) 
Heartbeat CPU  0 instructions:  177000002 cycles:  936157052 heartbeat IPC: 0.13509 cumulative IPC: 0.09017 (Simulation time: 0 hr 8 min 34 sec) 
Heartbeat CPU  0 instructions:  178000001 cycles:  942964995 heartbeat IPC: 0.14689 cumulative IPC: 0.09062 (Simulation time: 0 hr 8 min 37 sec) 
Heartbeat CPU  0 instructions:  179000000 cycles:  954838168 heartbeat IPC: 0.08422 cumulative IPC: 0.09053 (Simulation time: 0 hr 8 min 42 sec) 
Heartbeat CPU  0 instructions:  180000000 cycles:  971349921 heartbeat IPC: 0.06056 cumulative IPC: 0.08997 (Simulation time: 0 hr 8 min 49 sec) 
Heartbeat CPU  0 instructions:  181000002 cycles:  978376622 heartbeat IPC: 0.14231 cumulative IPC: 0.09038 (Simulation time: 0 hr 8 min 52 sec) 
Heartbeat CPU  0 instructions:  182000000 cycles:  985429520 heartbeat IPC: 0.14179 cumulative IPC: 0.09079 (Simulation time: 0 hr 8 min 55 sec) 
Heartbeat CPU  0 instructions:  183000002 cycles:  996278761 heartbeat IPC: 0.09217 cumulative IPC: 0.09080 (Simulation time: 0 hr 9 min 0 sec) 
Heartbeat CPU  0 instructions:  184000000 cycles: 1013721770 heartbeat IPC: 0.05733 cumulative IPC: 0.09018 (Simulation time: 0 hr 9 min 7 sec) 
Heartbeat CPU  0 instructions:  185000001 cycles: 1021099622 heartbeat IPC: 0.13554 cumulative IPC: 0.09053 (Simulation time: 0 hr 9 min 11 sec) 
Heartbeat CPU  0 instructions:  186000000 cycles: 1028091496 heartbeat IPC: 0.14302 cumulative IPC: 0.09092 (Simulation time: 0 hr 9 min 14 sec) 
Heartbeat CPU  0 instructions:  187000001 cycles: 1037216343 heartbeat IPC: 0.10959 cumulative IPC: 0.09110 (Simulation time: 0 hr 9 min 18 sec) 
Heartbeat CPU  0 instructions:  188000000 cycles: 1056366887 heartbeat IPC: 0.05222 cumulative IPC: 0.09033 (Simulation time: 0 hr 9 min 25 sec) 
Heartbeat CPU  0 instructions:  189000001 cycles: 1064058200 heartbeat IPC: 0.13002 cumulative IPC: 0.09064 (Simulation time: 0 hr 9 min 29 sec) 
Heartbeat CPU  0 instructions:  190000001 cycles: 1072654920 heartbeat IPC: 0.11632 cumulative IPC: 0.09087 (Simulation time: 0 hr 9 min 33 sec) 
Heartbeat CPU  0 instructions:  191000000 cycles: 1081721698 heartbeat IPC: 0.11029 cumulative IPC: 0.09104 (Simulation time: 0 hr 9 min 37 sec) 
Heartbeat CPU  0 instructions:  192000000 cycles: 1098377117 heartbeat IPC: 0.06004 cumulative IPC: 0.09054 (Simulation time: 0 hr 9 min 43 sec) 
Heartbeat CPU  0 instructions:  193000001 cycles: 1110890822 heartbeat IPC: 0.07991 cumulative IPC: 0.09041 (Simulation time: 0 hr 9 min 49 sec) 
Heartbeat CPU  0 instructions:  194000000 cycles: 1117975034 heartbeat IPC: 0.14116 cumulative IPC: 0.09075 (Simulation time: 0 hr 9 min 52 sec) 
Heartbeat CPU  0 instructions:  195000000 cycles: 1125303820 heartbeat IPC: 0.13645 cumulative IPC: 0.09107 (Simulation time: 0 hr 9 min 55 sec) 
Heartbeat CPU  0 instructions:  196000000 cycles: 1141072184 heartbeat IPC: 0.06342 cumulative IPC: 0.09066 (Simulation time: 0 hr 10 min 2 sec) 
Heartbeat CPU  0 instructions:  197000000 cycles: 1154119634 heartbeat IPC: 0.07664 cumulative IPC: 0.09049 (Simulation time: 0 hr 10 min 7 sec) 
Heartbeat CPU  0 instructions:  198000000 cycles: 1161023654 heartbeat IPC: 0.14484 cumulative IPC: 0.09084 (Simulation time: 0 hr 10 min 11 sec) 
Heartbeat CPU  0 instructions:  199000000 cycles: 1167747830 heartbeat IPC: 0.14872 cumulative IPC: 0.09120 (Simulation time: 0 hr 10 min 14 sec) 
Heartbeat CPU  0 instructions:  200000000 cycles: 1186991916 heartbeat IPC: 0.05196 cumulative IPC: 0.09052 (Simulation time: 0 hr 10 min 22 sec) 
Heartbeat CPU  0 instructions:  201000001 cycles: 1196509454 heartbeat IPC: 0.10507 cumulative IPC: 0.09064 (Simulation time: 0 hr 10 min 26 sec) 
Heartbeat CPU  0 instructions:  202000003 cycles: 1203424234 heartbeat IPC: 0.14462 cumulative IPC: 0.09097 (Simulation time: 0 hr 10 min 30 sec) 
Heartbeat CPU  0 instructions:  203000003 cycles: 1212197741 heartbeat IPC: 0.11398 cumulative IPC: 0.09115 (Simulation time: 0 hr 10 min 34 sec) 
Heartbeat CPU  0 instructions:  204000000 cycles: 1231152447 heartbeat IPC: 0.05276 cumulative IPC: 0.09052 (Simulation time: 0 hr 10 min 41 sec) 
Heartbeat CPU  0 instructions:  205000000 cycles: 1239508829 heartbeat IPC: 0.11967 cumulative IPC: 0.09073 (Simulation time: 0 hr 10 min 45 sec) 
Heartbeat CPU  0 instructions:  206000002 cycles: 1247241930 heartbeat IPC: 0.12931 cumulative IPC: 0.09098 (Simulation time: 0 hr 10 min 49 sec) 
Heartbeat CPU  0 instructions:  207000002 cycles: 1257057167 heartbeat IPC: 0.10188 cumulative IPC: 0.09108 (Simulation time: 0 hr 10 min 53 sec) 
Heartbeat CPU  0 instructions:  208000000 cycles: 1275590052 heartbeat IPC: 0.05396 cumulative IPC: 0.09050 (Simulation time: 0 hr 11 min 1 sec) 
Heartbeat CPU  0 instructions:  209000002 cycles: 1283414854 heartbeat IPC: 0.12780 cumulative IPC: 0.09074 (Simulation time: 0 hr 11 min 5 sec) 
Heartbeat CPU  0 instructions:  210000002 cycles: 1291532654 heartbeat IPC: 0.12319 cumulative IPC: 0.09096 (Simulation time: 0 hr 11 min 8 sec) 
Heartbeat CPU  0 instructions:  211000000 cycles: 1304197557 heartbeat IPC: 0.07896 cumulative IPC: 0.09084 (Simulation time: 0 hr 11 min 14 sec) 
Heartbeat CPU  0 instructions:  212000000 cycles: 1320728660 heartbeat IPC: 0.06049 cumulative IPC: 0.09043 (Simulation time: 0 hr 11 min 20 sec) 
Heartbeat CPU  0 instructions:  213000002 cycles: 1328194727 heartbeat IPC: 0.13394 cumulative IPC: 0.09069 (Simulation time: 0 hr 11 min 24 sec) 
Heartbeat CPU  0 instructions:  214000001 cycles: 1335995186 heartbeat IPC: 0.12820 cumulative IPC: 0.09092 (Simulation time: 0 hr 11 min 27 sec) 
Heartbeat CPU  0 instructions:  215000000 cycles: 1351208742 heartbeat IPC: 0.06573 cumulative IPC: 0.09062 (Simulation time: 0 hr 11 min 34 sec) 
Heartbeat CPU  0 instructions:  216000000 cycles: 1366074418 heartbeat IPC: 0.06727 cumulative IPC: 0.09035 (Simulation time: 0 hr 11 min 40 sec) 
Heartbeat CPU  0 instructions:  217000000 cycles: 1375182654 heartbeat IPC: 0.10979 cumulative IPC: 0.09049 (Simulation time: 0 hr 11 min 44 sec) 
Heartbeat CPU  0 instructions:  218000001 cycles: 1382425709 heartbeat IPC: 0.13806 cumulative IPC: 0.09075 (Simulation time: 0 hr 11 min 47 sec) 
Heartbeat CPU  0 instructions:  219000003 cycles: 1397368657 heartbeat IPC: 0.06692 cumulative IPC: 0.09048 (Simulation time: 0 hr 11 min 53 sec) 
Heartbeat CPU  0 instructions:  220000000 cycles: 1412161316 heartbeat IPC: 0.06760 cumulative IPC: 0.09023 (Simulation time: 0 hr 12 min 0 sec) 
Heartbeat CPU  0 instructions:  221000003 cycles: 1419699301 heartbeat IPC: 0.13266 cumulative IPC: 0.09047 (Simulation time: 0 hr 12 min 3 sec) 
Heartbeat CPU  0 instructions:  222000000 cycles: 1426749872 heartbeat IPC: 0.14183 cumulative IPC: 0.09074 (Simulation time: 0 hr 12 min 7 sec) 
Heartbeat CPU  0 instructions:  223000001 cycles: 1447118385 heartbeat IPC: 0.04910 cumulative IPC: 0.09012 (Simulation time: 0 hr 12 min 15 sec) 
Heartbeat CPU  0 instructions:  224000000 cycles: 1455639352 heartbeat IPC: 0.11736 cumulative IPC: 0.09028 (Simulation time: 0 hr 12 min 19 sec) 
Heartbeat CPU  0 instructions:  225000000 cycles: 1462456965 heartbeat IPC: 0.14668 cumulative IPC: 0.09056 (Simulation time: 0 hr 12 min 23 sec) 
Heartbeat CPU  0 instructions:  226000003 cycles: 1473353666 heartbeat IPC: 0.09177 cumulative IPC: 0.09057 (Simulation time: 0 hr 12 min 28 sec) 
Heartbeat CPU  0 instructions:  227000001 cycles: 1490855810 heartbeat IPC: 0.05714 cumulative IPC: 0.09016 (Simulation time: 0 hr 12 min 35 sec) 
Heartbeat CPU  0 instructions:  228000000 cycles: 1498224996 heartbeat IPC: 0.13570 cumulative IPC: 0.09039 (Simulation time: 0 hr 12 min 38 sec) 
Heartbeat CPU  0 instructions:  229000000 cycles: 1505152533 heartbeat IPC: 0.14435 cumulative IPC: 0.09066 (Simulation time: 0 hr 12 min 42 sec) 
Heartbeat CPU  0 instructions:  230000002 cycles: 1520411047 heartbeat IPC: 0.06554 cumulative IPC: 0.09039 (Simulation time: 0 hr 12 min 48 sec) 
Heartbeat CPU  0 instructions:  231000003 cycles: 1533966823 heartbeat IPC: 0.07377 cumulative IPC: 0.09024 (Simulation time: 0 hr 12 min 54 sec) 
Heartbeat CPU  0 instructions:  232000000 cycles: 1540948198 heartbeat IPC: 0.14324 cumulative IPC: 0.09049 (Simulation time: 0 hr 12 min 58 sec) 
Heartbeat CPU  0 instructions:  233000002 cycles: 1548356824 heartbeat IPC: 0.13498 cumulative IPC: 0.09071 (Simulation time: 0 hr 13 min 2 sec) 
Heartbeat CPU  0 instructions:  234000000 cycles: 1568840506 heartbeat IPC: 0.04882 cumulative IPC: 0.09014 (Simulation time: 0 hr 13 min 10 sec) 
Heartbeat CPU  0 instructions:  235000000 cycles: 1577324760 heartbeat IPC: 0.11787 cumulative IPC: 0.09029 (Simulation time: 0 hr 13 min 14 sec) 
Heartbeat CPU  0 instructions:  236000000 cycles: 1585093894 heartbeat IPC: 0.12871 cumulative IPC: 0.09049 (Simulation time: 0 hr 13 min 17 sec) 
Heartbeat CPU  0 instructions:  237000003 cycles: 1595617230 heartbeat IPC: 0.09503 cumulative IPC: 0.09052 (Simulation time: 0 hr 13 min 22 sec) 
Heartbeat CPU  0 instructions:  238000003 cycles: 1613262443 heartbeat IPC: 0.05667 cumulative IPC: 0.09013 (Simulation time: 0 hr 13 min 29 sec) 
Heartbeat CPU  0 instructions:  239000000 cycles: 1620532328 heartbeat IPC: 0.13755 cumulative IPC: 0.09036 (Simulation time: 0 hr 13 min 33 sec) 
Heartbeat CPU  0 instructions:  240000000 cycles: 1627186464 heartbeat IPC: 0.15028 cumulative IPC: 0.09062 (Simulation time: 0 hr 13 min 37 sec) 
Heartbeat CPU  0 instructions:  241000000 cycles: 1641915132 heartbeat IPC: 0.06789 cumulative IPC: 0.09040 (Simulation time: 0 hr 13 min 43 sec) 
Heartbeat CPU  0 instructions:  242000000 cycles: 1656799024 heartbeat IPC: 0.06719 cumulative IPC: 0.09018 (Simulation time: 0 hr 13 min 49 sec) 
Heartbeat CPU  0 instructions:  243000003 cycles: 1674161206 heartbeat IPC: 0.05760 cumulative IPC: 0.08983 (Simulation time: 0 hr 13 min 56 sec) 
Heartbeat CPU  0 instructions:  244000000 cycles: 1681729626 heartbeat IPC: 0.13213 cumulative IPC: 0.09003 (Simulation time: 0 hr 13 min 59 sec) 
Heartbeat CPU  0 instructions:  245000003 cycles: 1693330272 heartbeat IPC: 0.08620 cumulative IPC: 0.09000 (Simulation time: 0 hr 14 min 4 sec) 
Heartbeat CPU  0 instructions:  246000001 cycles: 1710396525 heartbeat IPC: 0.05860 cumulative IPC: 0.08967 (Simulation time: 0 hr 14 min 11 sec) 
Heartbeat CPU  0 instructions:  247000000 cycles: 1717740971 heartbeat IPC: 0.13616 cumulative IPC: 0.08988 (Simulation time: 0 hr 14 min 15 sec) 
Heartbeat CPU  0 instructions:  248000000 cycles: 1724549248 heartbeat IPC: 0.14688 cumulative IPC: 0.09012 (Simulation time: 0 hr 14 min 18 sec) 
Heartbeat CPU  0 instructions:  249000000 cycles: 1739550659 heartbeat IPC: 0.06666 cumulative IPC: 0.08990 (Simulation time: 0 hr 14 min 24 sec) 
Heartbeat CPU  0 instructions:  250000003 cycles: 1753529504 heartbeat IPC: 0.07154 cumulative IPC: 0.08975 (Simulation time: 0 hr 14 min 30 sec) 
Heartbeat CPU  0 instructions:  251000002 cycles: 1760472094 heartbeat IPC: 0.14404 cumulative IPC: 0.08997 (Simulation time: 0 hr 14 min 34 sec) 
Heartbeat CPU  0 instructions:  252000000 cycles: 1767285341 heartbeat IPC: 0.14677 cumulative IPC: 0.09020 (Simulation time: 0 hr 14 min 37 sec) 
Heartbeat CPU  0 instructions:  253000002 cycles: 1786717494 heartbeat IPC: 0.05146 cumulative IPC: 0.08976 (Simulation time: 0 hr 14 min 45 sec) 
Heartbeat CPU  0 instructions:  254000000 cycles: 1796218240 heartbeat IPC: 0.10525 cumulative IPC: 0.08985 (Simulation time: 0 hr 14 min 49 sec) 
Heartbeat CPU  0 instructions:  255000000 cycles: 1808630068 heartbeat IPC: 0.08057 cumulative IPC: 0.08978 (Simulation time: 0 hr 14 min 54 sec) 
Heartbeat CPU  0 instructions:  256000000 cycles: 1828323932 heartbeat IPC: 0.05078 cumulative IPC: 0.08934 (Simulation time: 0 hr 15 min 2 sec) 
Heartbeat CPU  0 instructions:  257000000 cycles: 1842948585 heartbeat IPC: 0.06838 cumulative IPC: 0.08917 (Simulation time: 0 hr 15 min 8 sec) 
Heartbeat CPU  0 instructions:  258000002 cycles: 1861589965 heartbeat IPC: 0.05364 cumulative IPC: 0.08879 (Simulation time: 0 hr 15 min 15 sec) 
Heartbeat CPU  0 instructions:  259000002 cycles: 1870198609 heartbeat IPC: 0.11616 cumulative IPC: 0.08893 (Simulation time: 0 hr 15 min 19 sec) 
Heartbeat CPU  0 instructions:  260000000 cycles: 1878265076 heartbeat IPC: 0.12397 cumulative IPC: 0.08908 (Simulation time: 0 hr 15 min 23 sec) 
Heartbeat CPU  0 instructions:  261000002 cycles: 1890504461 heartbeat IPC: 0.08170 cumulative IPC: 0.08903 (Simulation time: 0 hr 15 min 29 sec) 
Heartbeat CPU  0 instructions:  262000002 cycles: 1907730684 heartbeat IPC: 0.05805 cumulative IPC: 0.08874 (Simulation time: 0 hr 15 min 36 sec) 
Heartbeat CPU  0 instructions:  263000002 cycles: 1914722765 heartbeat IPC: 0.14302 cumulative IPC: 0.08895 (Simulation time: 0 hr 15 min 39 sec) 
Heartbeat CPU  0 instructions:  264000000 cycles: 1921505045 heartbeat IPC: 0.14744 cumulative IPC: 0.08916 (Simulation time: 0 hr 15 min 43 sec) 
Heartbeat CPU  0 instructions:  265000002 cycles: 1937380112 heartbeat IPC: 0.06299 cumulative IPC: 0.08894 (Simulation time: 0 hr 15 min 49 sec) 
Heartbeat CPU  0 instructions:  266000000 cycles: 1954551401 heartbeat IPC: 0.05824 cumulative IPC: 0.08866 (Simulation time: 0 hr 15 min 56 sec) 
Heartbeat CPU  0 instructions:  267000001 cycles: 1968473561 heartbeat IPC: 0.07183 cumulative IPC: 0.08853 (Simulation time: 0 hr 16 min 2 sec) 
Heartbeat CPU  0 instructions:  268000000 cycles: 1975453540 heartbeat IPC: 0.14327 cumulative IPC: 0.08874 (Simulation time: 0 hr 16 min 5 sec) 
Heartbeat CPU  0 instructions:  269000002 cycles: 1987611304 heartbeat IPC: 0.08225 cumulative IPC: 0.08869 (Simulation time: 0 hr 16 min 11 sec) 
Heartbeat CPU  0 instructions:  270000001 cycles: 2004709422 heartbeat IPC: 0.05849 cumulative IPC: 0.08843 (Simulation time: 0 hr 16 min 17 sec) 
Heartbeat CPU  0 instructions:  271000001 cycles: 2015937334 heartbeat IPC: 0.08906 cumulative IPC: 0.08843 (Simulation time: 0 hr 16 min 22 sec) 
Heartbeat CPU  0 instructions:  272000000 cycles: 2028380571 heartbeat IPC: 0.08036 cumulative IPC: 0.08838 (Simulation time: 0 hr 16 min 28 sec) 
Heartbeat CPU  0 instructions:  273000003 cycles: 2037579545 heartbeat IPC: 0.10871 cumulative IPC: 0.08847 (Simulation time: 0 hr 16 min 32 sec) 
Heartbeat CPU  0 instructions:  274000000 cycles: 2057025214 heartbeat IPC: 0.05143 cumulative IPC: 0.08811 (Simulation time: 0 hr 16 min 39 sec) 
Heartbeat CPU  0 instructions:  275000002 cycles: 2065048462 heartbeat IPC: 0.12464 cumulative IPC: 0.08826 (Simulation time: 0 hr 16 min 44 sec) 
Heartbeat CPU  0 instructions:  276000000 cycles: 2072287151 heartbeat IPC: 0.13815 cumulative IPC: 0.08844 (Simulation time: 0 hr 16 min 47 sec) 
Heartbeat CPU  0 instructions:  277000002 cycles: 2083077427 heartbeat IPC: 0.09268 cumulative IPC: 0.08846 (Simulation time: 0 hr 16 min 52 sec) 
Heartbeat CPU  0 instructions:  278000001 cycles: 2100590868 heartbeat IPC: 0.05710 cumulative IPC: 0.08819 (Simulation time: 0 hr 16 min 59 sec) 
Heartbeat CPU  0 instructions:  279000000 cycles: 2107872822 heartbeat IPC: 0.13733 cumulative IPC: 0.08837 (Simulation time: 0 hr 17 min 3 sec) 
Heartbeat CPU  0 instructions:  280000000 cycles: 2114647105 heartbeat IPC: 0.14762 cumulative IPC: 0.08856 (Simulation time: 0 hr 17 min 7 sec) 
Heartbeat CPU  0 instructions:  281000002 cycles: 2128532662 heartbeat IPC: 0.07202 cumulative IPC: 0.08845 (Simulation time: 0 hr 17 min 13 sec) 
Heartbeat CPU  0 instructions:  282000000 cycles: 2143406944 heartbeat IPC: 0.06723 cumulative IPC: 0.08830 (Simulation time: 0 hr 17 min 19 sec) 
Heartbeat CPU  0 instructions:  283000001 cycles: 2150354288 heartbeat IPC: 0.14394 cumulative IPC: 0.08848 (Simulation time: 0 hr 17 min 23 sec) 
Heartbeat CPU  0 instructions:  284000000 cycles: 2157319339 heartbeat IPC: 0.14357 cumulative IPC: 0.08867 (Simulation time: 0 hr 17 min 26 sec) 
Heartbeat CPU  0 instructions:  285000003 cycles: 2174823877 heartbeat IPC: 0.05713 cumulative IPC: 0.08841 (Simulation time: 0 hr 17 min 33 sec) 
Heartbeat CPU  0 instructions:  286000001 cycles: 2186444256 heartbeat IPC: 0.08606 cumulative IPC: 0.08839 (Simulation time: 0 hr 17 min 39 sec) 
Heartbeat CPU  0 instructions:  287000001 cycles: 2193603712 heartbeat IPC: 0.13968 cumulative IPC: 0.08857 (Simulation time: 0 hr 17 min 42 sec) 
Heartbeat CPU  0 instructions:  288000000 cycles: 2200422867 heartbeat IPC: 0.14665 cumulative IPC: 0.08875 (Simulation time: 0 hr 17 min 46 sec) 
Heartbeat CPU  0 instructions:  289000002 cycles: 2221542609 heartbeat IPC: 0.04735 cumulative IPC: 0.08835 (Simulation time: 0 hr 17 min 54 sec) 
Heartbeat CPU  0 instructions:  290000002 cycles: 2229783738 heartbeat IPC: 0.12134 cumulative IPC: 0.08847 (Simulation time: 0 hr 17 min 58 sec) 
Heartbeat CPU  0 instructions:  291000000 cycles: 2236674568 heartbeat IPC: 0.14512 cumulative IPC: 0.08865 (Simulation time: 0 hr 18 min 2 sec) 
Heartbeat CPU  0 instructions:  292000000 cycles: 2246615842 heartbeat IPC: 0.10059 cumulative IPC: 0.08871 (Simulation time: 0 hr 18 min 6 sec) 
Heartbeat CPU  0 instructions:  293000000 cycles: 2264998748 heartbeat IPC: 0.05440 cumulative IPC: 0.08842 (Simulation time: 0 hr 18 min 14 sec) 
Heartbeat CPU  0 instructions:  294000000 cycles: 2272625544 heartbeat IPC: 0.13112 cumulative IPC: 0.08857 (Simulation time: 0 hr 18 min 18 sec) 
Heartbeat CPU  0 instructions:  295000001 cycles: 2279445767 heartbeat IPC: 0.14662 cumulative IPC: 0.08875 (Simulation time: 0 hr 18 min 21 sec) 
Heartbeat CPU  0 instructions:  296000000 cycles: 2291794750 heartbeat IPC: 0.08098 cumulative IPC: 0.08870 (Simulation time: 0 hr 18 min 26 sec) 
Heartbeat CPU  0 instructions:  297000000 cycles: 2308177901 heartbeat IPC: 0.06104 cumulative IPC: 0.08850 (Simulation time: 0 hr 18 min 33 sec) 
Heartbeat CPU  0 instructions:  298000001 cycles: 2315365908 heartbeat IPC: 0.13912 cumulative IPC: 0.08866 (Simulation time: 0 hr 18 min 37 sec) 
Heartbeat CPU  0 instructions:  299000002 cycles: 2322367654 heartbeat IPC: 0.14282 cumulative IPC: 0.08883 (Simulation time: 0 hr 18 min 40 sec) 
Heartbeat CPU  0 instructions:  300000000 cycles: 2336892218 heartbeat IPC: 0.06885 cumulative IPC: 0.08870 (Simulation time: 0 hr 18 min 46 sec) 
Heartbeat CPU  0 instructions:  301000001 cycles: 2351141910 heartbeat IPC: 0.07018 cumulative IPC: 0.08859 (Simulation time: 0 hr 18 min 52 sec) 
Heartbeat CPU  0 instructions:  302000001 cycles: 2358118787 heartbeat IPC: 0.14333 cumulative IPC: 0.08876 (Simulation time: 0 hr 18 min 56 sec) 
Heartbeat CPU  0 instructions:  303000000 cycles: 2365015865 heartbeat IPC: 0.14499 cumulative IPC: 0.08893 (Simulation time: 0 hr 18 min 59 sec) 
Heartbeat CPU  0 instructions:  304000000 cycles: 2380578662 heartbeat IPC: 0.06426 cumulative IPC: 0.08876 (Simulation time: 0 hr 19 min 6 sec) 
Heartbeat CPU  0 instructions:  305000002 cycles: 2394256168 heartbeat IPC: 0.07311 cumulative IPC: 0.08867 (Simulation time: 0 hr 19 min 12 sec) 
Heartbeat CPU  0 instructions:  306000000 cycles: 2401220750 heartbeat IPC: 0.14358 cumulative IPC: 0.08883 (Simulation time: 0 hr 19 min 15 sec) 
Heartbeat CPU  0 instructions:  307000001 cycles: 2408415626 heartbeat IPC: 0.13899 cumulative IPC: 0.08899 (Simulation time: 0 hr 19 min 19 sec) 
Heartbeat CPU  0 instructions:  308000000 cycles: 2424182980 heartbeat IPC: 0.06342 cumulative IPC: 0.08881 (Simulation time: 0 hr 19 min 25 sec) 
Heartbeat CPU  0 instructions:  309000000 cycles: 2447063479 heartbeat IPC: 0.04371 cumulative IPC: 0.08838 (Simulation time: 0 hr 19 min 34 sec) 
Heartbeat CPU  0 instructions:  310000000 cycles: 2457305172 heartbeat IPC: 0.09764 cumulative IPC: 0.08842 (Simulation time: 0 hr 19 min 39 sec) 
Heartbeat CPU  0 instructions:  311000000 cycles: 2464256484 heartbeat IPC: 0.14386 cumulative IPC: 0.08858 (Simulation time: 0 hr 19 min 42 sec) 
Heartbeat CPU  0 instructions:  312000000 cycles: 2474578505 heartbeat IPC: 0.09688 cumulative IPC: 0.08861 (Simulation time: 0 hr 19 min 47 sec) 
Heartbeat CPU  0 instructions:  313000002 cycles: 2493806192 heartbeat IPC: 0.05201 cumulative IPC: 0.08832 (Simulation time: 0 hr 19 min 55 sec) 
Heartbeat CPU  0 instructions:  314000001 cycles: 2501422365 heartbeat IPC: 0.13130 cumulative IPC: 0.08846 (Simulation time: 0 hr 19 min 59 sec) 
Heartbeat CPU  0 instructions:  315000001 cycles: 2508228491 heartbeat IPC: 0.14693 cumulative IPC: 0.08862 (Simulation time: 0 hr 20 min 2 sec) 
Heartbeat CPU  0 instructions:  316000000 cycles: 2519444046 heartbeat IPC: 0.08916 cumulative IPC: 0.08862 (Simulation time: 0 hr 20 min 7 sec) 
Heartbeat CPU  0 instructions:  317000002 cycles: 2539842282 heartbeat IPC: 0.04902 cumulative IPC: 0.08830 (Simulation time: 0 hr 20 min 15 sec) 
Heartbeat CPU  0 instructions:  318000003 cycles: 2549183295 heartbeat IPC: 0.10705 cumulative IPC: 0.08837 (Simulation time: 0 hr 20 min 19 sec) 
Heartbeat CPU  0 instructions:  319000000 cycles: 2556365219 heartbeat IPC: 0.13924 cumulative IPC: 0.08851 (Simulation time: 0 hr 20 min 23 sec) 
Heartbeat CPU  0 instructions:  320000000 cycles: 2570743091 heartbeat IPC: 0.06955 cumulative IPC: 0.08841 (Simulation time: 0 hr 20 min 28 sec) 
Heartbeat CPU  0 instructions:  321000001 cycles: 2589474998 heartbeat IPC: 0.05338 cumulative IPC: 0.08814 (Simulation time: 0 hr 20 min 35 sec) 
Heartbeat CPU  0 instructions:  322000000 cycles: 2611767209 heartbeat IPC: 0.04486 cumulative IPC: 0.08776 (Simulation time: 0 hr 20 min 44 sec) 
Heartbeat CPU  0 instructions:  323000000 cycles: 2620064828 heartbeat IPC: 0.12052 cumulative IPC: 0.08787 (Simulation time: 0 hr 20 min 48 sec) 
Heartbeat CPU  0 instructions:  324000000 cycles: 2627482753 heartbeat IPC: 0.13481 cumulative IPC: 0.08801 (Simulation time: 0 hr 20 min 51 sec) 
Heartbeat CPU  0 instructions:  325000002 cycles: 2634318840 heartbeat IPC: 0.14628 cumulative IPC: 0.08816 (Simulation time: 0 hr 20 min 54 sec) 
Heartbeat CPU  0 instructions:  326000002 cycles: 2651240940 heartbeat IPC: 0.05909 cumulative IPC: 0.08797 (Simulation time: 0 hr 21 min 1 sec) 
Heartbeat CPU  0 instructions:  327000000 cycles: 2663260806 heartbeat IPC: 0.08320 cumulative IPC: 0.08795 (Simulation time: 0 hr 21 min 6 sec) 
Heartbeat CPU  0 instructions:  328000000 cycles: 2670254956 heartbeat IPC: 0.14298 cumulative IPC: 0.08810 (Simulation time: 0 hr 21 min 9 sec) 
Heartbeat CPU  0 instructions:  329000000 cycles: 2677102660 heartbeat IPC: 0.14603 cumulative IPC: 0.08825 (Simulation time: 0 hr 21 min 12 sec) 
Heartbeat CPU  0 instructions:  330000001 cycles: 2690320935 heartbeat IPC: 0.07565 cumulative IPC: 0.08819 (Simulation time: 0 hr 21 min 18 sec) 
Heartbeat CPU  0 instructions:  331000001 cycles: 2705872707 heartbeat IPC: 0.06430 cumulative IPC: 0.08804 (Simulation time: 0 hr 21 min 24 sec) 
Heartbeat CPU  0 instructions:  332000000 cycles: 2713321456 heartbeat IPC: 0.13425 cumulative IPC: 0.08818 (Simulation time: 0 hr 21 min 28 sec) 
Heartbeat CPU  0 instructions:  333000000 cycles: 2720318524 heartbeat IPC: 0.14292 cumulative IPC: 0.08832 (Simulation time: 0 hr 21 min 31 sec) 
Heartbeat CPU  0 instructions:  334000001 cycles: 2732601639 heartbeat IPC: 0.08141 cumulative IPC: 0.08829 (Simulation time: 0 hr 21 min 36 sec) 
Heartbeat CPU  0 instructions:  335000000 cycles: 2749083593 heartbeat IPC: 0.06067 cumulative IPC: 0.08812 (Simulation time: 0 hr 21 min 43 sec) 
Heartbeat CPU  0 instructions:  336000000 cycles: 2760311570 heartbeat IPC: 0.08906 cumulative IPC: 0.08812 (Simulation time: 0 hr 21 min 47 sec) 
Heartbeat CPU  0 instructions:  337000000 cycles: 2767350953 heartbeat IPC: 0.14206 cumulative IPC: 0.08826 (Simulation time: 0 hr 21 min 51 sec) 
Heartbeat CPU  0 instructions:  338000003 cycles: 2777236973 heartbeat IPC: 0.10115 cumulative IPC: 0.08831 (Simulation time: 0 hr 21 min 55 sec) 
Heartbeat CPU  0 instructions:  339000002 cycles: 2795848686 heartbeat IPC: 0.05373 cumulative IPC: 0.08807 (Simulation time: 0 hr 22 min 3 sec) 
Heartbeat CPU  0 instructions:  340000000 cycles: 2803676646 heartbeat IPC: 0.12775 cumulative IPC: 0.08819 (Simulation time: 0 hr 22 min 7 sec) 
Heartbeat CPU  0 instructions:  341000001 cycles: 2810747929 heartbeat IPC: 0.14142 cumulative IPC: 0.08833 (Simulation time: 0 hr 22 min 10 sec) 
Heartbeat CPU  0 instructions:  342000000 cycles: 2821701560 heartbeat IPC: 0.09129 cumulative IPC: 0.08834 (Simulation time: 0 hr 22 min 15 sec) 
Heartbeat CPU  0 instructions:  343000001 cycles: 2839391569 heartbeat IPC: 0.05653 cumulative IPC: 0.08813 (Simulation time: 0 hr 22 min 22 sec) 
Heartbeat CPU  0 instructions:  344000000 cycles: 2846929774 heartbeat IPC: 0.13266 cumulative IPC: 0.08825 (Simulation time: 0 hr 22 min 26 sec) 
Heartbeat CPU  0 instructions:  345000000 cycles: 2853679058 heartbeat IPC: 0.14816 cumulative IPC: 0.08840 (Simulation time: 0 hr 22 min 29 sec) 
Heartbeat CPU  0 instructions:  346000003 cycles: 2865474829 heartbeat IPC: 0.08478 cumulative IPC: 0.08839 (Simulation time: 0 hr 22 min 34 sec) 
Heartbeat CPU  0 instructions:  347000001 cycles: 2881990747 heartbeat IPC: 0.06055 cumulative IPC: 0.08822 (Simulation time: 0 hr 22 min 41 sec) 
Heartbeat CPU  0 instructions:  348000000 cycles: 2889611171 heartbeat IPC: 0.13123 cumulative IPC: 0.08834 (Simulation time: 0 hr 22 min 45 sec) 
Heartbeat CPU  0 instructions:  349000001 cycles: 2896567501 heartbeat IPC: 0.14375 cumulative IPC: 0.08847 (Simulation time: 0 hr 22 min 48 sec) 
Heartbeat CPU  0 instructions:  350000000 cycles: 2909956239 heartbeat IPC: 0.07469 cumulative IPC: 0.08841 (Simulation time: 0 hr 22 min 54 sec) 
Heartbeat CPU  0 instructions:  351000003 cycles: 2925437408 heartbeat IPC: 0.06459 cumulative IPC: 0.08828 (Simulation time: 0 hr 23 min 0 sec) 
Heartbeat CPU  0 instructions:  352000000 cycles: 2932399208 heartbeat IPC: 0.14364 cumulative IPC: 0.08841 (Simulation time: 0 hr 23 min 4 sec) 
Heartbeat CPU  0 instructions:  353000001 cycles: 2939121843 heartbeat IPC: 0.14875 cumulative IPC: 0.08856 (Simulation time: 0 hr 23 min 8 sec) 
Heartbeat CPU  0 instructions:  354000003 cycles: 2954071961 heartbeat IPC: 0.06689 cumulative IPC: 0.08844 (Simulation time: 0 hr 23 min 14 sec) 
Heartbeat CPU  0 instructions:  355000001 cycles: 2968022634 heartbeat IPC: 0.07168 cumulative IPC: 0.08836 (Simulation time: 0 hr 23 min 20 sec) 
Heartbeat CPU  0 instructions:  356000000 cycles: 2975413341 heartbeat IPC: 0.13530 cumulative IPC: 0.08848 (Simulation time: 0 hr 23 min 24 sec) 
Heartbeat CPU  0 instructions:  357000001 cycles: 2982114490 heartbeat IPC: 0.14923 cumulative IPC: 0.08862 (Simulation time: 0 hr 23 min 27 sec) 
Heartbeat CPU  0 instructions:  358000002 cycles: 2999193486 heartbeat IPC: 0.05855 cumulative IPC: 0.08845 (Simulation time: 0 hr 23 min 34 sec) 
Heartbeat CPU  0 instructions:  359000002 cycles: 3010980764 heartbeat IPC: 0.08484 cumulative IPC: 0.08843 (Simulation time: 0 hr 23 min 39 sec) 
Heartbeat CPU  0 instructions:  360000000 cycles: 3017790311 heartbeat IPC: 0.14685 cumulative IPC: 0.08857 (Simulation time: 0 hr 23 min 43 sec) 
Heartbeat CPU  0 instructions:  361000003 cycles: 3024428443 heartbeat IPC: 0.15065 cumulative IPC: 0.08871 (Simulation time: 0 hr 23 min 47 sec) 
Heartbeat CPU  0 instructions:  362000001 cycles: 3044724043 heartbeat IPC: 0.04927 cumulative IPC: 0.08844 (Simulation time: 0 hr 23 min 55 sec) 
Heartbeat CPU  0 instructions:  363000000 cycles: 3053015281 heartbeat IPC: 0.12061 cumulative IPC: 0.08853 (Simulation time: 0 hr 23 min 59 sec) 
Heartbeat CPU  0 instructions:  364000000 cycles: 3060265944 heartbeat IPC: 0.13792 cumulative IPC: 0.08865 (Simulation time: 0 hr 24 min 3 sec) 
Heartbeat CPU  0 instructions:  365000000 cycles: 3069380649 heartbeat IPC: 0.10971 cumulative IPC: 0.08871 (Simulation time: 0 hr 24 min 7 sec) 
Heartbeat CPU  0 instructions:  366000000 cycles: 3088300547 heartbeat IPC: 0.05285 cumulative IPC: 0.08849 (Simulation time: 0 hr 24 min 15 sec) 
Heartbeat CPU  0 instructions:  367000002 cycles: 3095912413 heartbeat IPC: 0.13137 cumulative IPC: 0.08860 (Simulation time: 0 hr 24 min 19 sec) 
Heartbeat CPU  0 instructions:  368000000 cycles: 3103391502 heartbeat IPC: 0.13371 cumulative IPC: 0.08871 (Simulation time: 0 hr 24 min 22 sec) 
Heartbeat CPU  0 instructions:  369000003 cycles: 3115731061 heartbeat IPC: 0.08104 cumulative IPC: 0.08868 (Simulation time: 0 hr 24 min 28 sec) 
Heartbeat CPU  0 instructions:  370000001 cycles: 3132312483 heartbeat IPC: 0.06031 cumulative IPC: 0.08852 (Simulation time: 0 hr 24 min 35 sec) 
Heartbeat CPU  0 instructions:  371000003 cycles: 3139362105 heartbeat IPC: 0.14185 cumulative IPC: 0.08864 (Simulation time: 0 hr 24 min 39 sec) 
Heartbeat CPU  0 instructions:  372000000 cycles: 3146051037 heartbeat IPC: 0.14950 cumulative IPC: 0.08878 (Simulation time: 0 hr 24 min 42 sec) 
Heartbeat CPU  0 instructions:  373000002 cycles: 3162166302 heartbeat IPC: 0.06205 cumulative IPC: 0.08864 (Simulation time: 0 hr 24 min 49 sec) 
Heartbeat CPU  0 instructions:  374000001 cycles: 3174598336 heartbeat IPC: 0.08044 cumulative IPC: 0.08860 (Simulation time: 0 hr 24 min 54 sec) 
Heartbeat CPU  0 instructions:  375000002 cycles: 3181490885 heartbeat IPC: 0.14508 cumulative IPC: 0.08873 (Simulation time: 0 hr 24 min 58 sec) 
Heartbeat CPU  0 instructions:  376000000 cycles: 3189712265 heartbeat IPC: 0.12163 cumulative IPC: 0.08882 (Simulation time: 0 hr 25 min 2 sec) 
Heartbeat CPU  0 instructions:  377000000 cycles: 3209103763 heartbeat IPC: 0.05157 cumulative IPC: 0.08859 (Simulation time: 0 hr 25 min 10 sec) 
Heartbeat CPU  0 instructions:  378000003 cycles: 3216970342 heartbeat IPC: 0.12712 cumulative IPC: 0.08868 (Simulation time: 0 hr 25 min 14 sec) 
Heartbeat CPU  0 instructions:  379000002 cycles: 3223785333 heartbeat IPC: 0.14674 cumulative IPC: 0.08881 (Simulation time: 0 hr 25 min 18 sec) 
Heartbeat CPU  0 instructions:  380000000 cycles: 3236890842 heartbeat IPC: 0.07630 cumulative IPC: 0.08876 (Simulation time: 0 hr 25 min 24 sec) 
Heartbeat CPU  0 instructions:  381000000 cycles: 3252330043 heartbeat IPC: 0.06477 cumulative IPC: 0.08864 (Simulation time: 0 hr 25 min 30 sec) 
Heartbeat CPU  0 instructions:  382000002 cycles: 3259432583 heartbeat IPC: 0.14079 cumulative IPC: 0.08876 (Simulation time: 0 hr 25 min 34 sec) 
Heartbeat CPU  0 instructions:  383000000 cycles: 3266355421 heartbeat IPC: 0.14445 cumulative IPC: 0.08888 (Simulation time: 0 hr 25 min 38 sec) 
Heartbeat CPU  0 instructions:  384000000 cycles: 3284371826 heartbeat IPC: 0.05550 cumulative IPC: 0.08869 (Simulation time: 0 hr 25 min 45 sec) 
Heartbeat CPU  0 instructions:  385000001 cycles: 3295567943 heartbeat IPC: 0.08932 cumulative IPC: 0.08869 (Simulation time: 0 hr 25 min 50 sec) 
Heartbeat CPU  0 instructions:  386000002 cycles: 3302477210 heartbeat IPC: 0.14473 cumulative IPC: 0.08881 (Simulation time: 0 hr 25 min 54 sec) 
Heartbeat CPU  0 instructions:  387000003 cycles: 3311878973 heartbeat IPC: 0.10636 cumulative IPC: 0.08886 (Simulation time: 0 hr 25 min 58 sec) 
Heartbeat CPU  0 instructions:  388000000 cycles: 3330648028 heartbeat IPC: 0.05328 cumulative IPC: 0.08866 (Simulation time: 0 hr 26 min 6 sec) 
Heartbeat CPU  0 instructions:  389000001 cycles: 3338318570 heartbeat IPC: 0.13037 cumulative IPC: 0.08876 (Simulation time: 0 hr 26 min 10 sec) 
Heartbeat CPU  0 instructions:  390000000 cycles: 3345003818 heartbeat IPC: 0.14958 cumulative IPC: 0.08888 (Simulation time: 0 hr 26 min 13 sec) 
Heartbeat CPU  0 instructions:  391000002 cycles: 3358045747 heartbeat IPC: 0.07668 cumulative IPC: 0.08883 (Simulation time: 0 hr 26 min 19 sec) 
Heartbeat CPU  0 instructions:  392000000 cycles: 3373414253 heartbeat IPC: 0.06507 cumulative IPC: 0.08872 (Simulation time: 0 hr 26 min 25 sec) 
Heartbeat CPU  0 instructions:  393000000 cycles: 3380420117 heartbeat IPC: 0.14274 cumulative IPC: 0.08884 (Simulation time: 0 hr 26 min 29 sec) 
Heartbeat CPU  0 instructions:  394000001 cycles: 3387476454 heartbeat IPC: 0.14172 cumulative IPC: 0.08895 (Simulation time: 0 hr 26 min 33 sec) 
Heartbeat CPU  0 instructions:  395000000 cycles: 3404472893 heartbeat IPC: 0.05884 cumulative IPC: 0.08879 (Simulation time: 0 hr 26 min 40 sec) 
Heartbeat CPU  0 instructions:  396000000 cycles: 3415958343 heartbeat IPC: 0.08707 cumulative IPC: 0.08879 (Simulation time: 0 hr 26 min 45 sec) 
Heartbeat CPU  0 instructions:  397000000 cycles: 3423258079 heartbeat IPC: 0.13699 cumulative IPC: 0.08889 (Simulation time: 0 hr 26 min 49 sec) 
Heartbeat CPU  0 instructions:  398000001 cycles: 3431193424 heartbeat IPC: 0.12602 cumulative IPC: 0.08898 (Simulation time: 0 hr 26 min 53 sec) 
Heartbeat CPU  0 instructions:  399000001 cycles: 3450958035 heartbeat IPC: 0.05060 cumulative IPC: 0.08876 (Simulation time: 0 hr 27 min 0 sec) 
Heartbeat CPU  0 instructions:  400000000 cycles: 3458944751 heartbeat IPC: 0.12521 cumulative IPC: 0.08884 (Simulation time: 0 hr 27 min 5 sec) 
Heartbeat CPU  0 instructions:  401000002 cycles: 3465909056 heartbeat IPC: 0.14359 cumulative IPC: 0.08896 (Simulation time: 0 hr 27 min 8 sec) 
Heartbeat CPU  0 instructions:  402000003 cycles: 3478645055 heartbeat IPC: 0.07852 cumulative IPC: 0.08892 (Simulation time: 0 hr 27 min 14 sec) 
Heartbeat CPU  0 instructions:  403000000 cycles: 3494626877 heartbeat IPC: 0.06257 cumulative IPC: 0.08879 (Simulation time: 0 hr 27 min 21 sec) 
Heartbeat CPU  0 instructions:  404000000 cycles: 3502856129 heartbeat IPC: 0.12152 cumulative IPC: 0.08887 (Simulation time: 0 hr 27 min 25 sec) 
Heartbeat CPU  0 instructions:  405000001 cycles: 3512889947 heartbeat IPC: 0.09966 cumulative IPC: 0.08890 (Simulation time: 0 hr 27 min 30 sec) 
Heartbeat CPU  0 instructions:  406000003 cycles: 3527568810 heartbeat IPC: 0.06813 cumulative IPC: 0.08881 (Simulation time: 0 hr 27 min 36 sec) 
Heartbeat CPU  0 instructions:  407000001 cycles: 3542308011 heartbeat IPC: 0.06785 cumulative IPC: 0.08873 (Simulation time: 0 hr 27 min 43 sec) 
Heartbeat CPU  0 instructions:  408000000 cycles: 3549551633 heartbeat IPC: 0.13805 cumulative IPC: 0.08883 (Simulation time: 0 hr 27 min 46 sec) 
Heartbeat CPU  0 instructions:  409000000 cycles: 3559247701 heartbeat IPC: 0.10313 cumulative IPC: 0.08887 (Simulation time: 0 hr 27 min 51 sec) 
Heartbeat CPU  0 instructions:  410000003 cycles: 3577034491 heartbeat IPC: 0.05622 cumulative IPC: 0.08870 (Simulation time: 0 hr 27 min 58 sec) 
Heartbeat CPU  0 instructions:  411000000 cycles: 3588625001 heartbeat IPC: 0.08628 cumulative IPC: 0.08869 (Simulation time: 0 hr 28 min 4 sec) 
Heartbeat CPU  0 instructions:  412000000 cycles: 3595671690 heartbeat IPC: 0.14191 cumulative IPC: 0.08880 (Simulation time: 0 hr 28 min 7 sec) 
Heartbeat CPU  0 instructions:  413000003 cycles: 3605819883 heartbeat IPC: 0.09854 cumulative IPC: 0.08883 (Simulation time: 0 hr 28 min 12 sec) 
Heartbeat CPU  0 instructions:  414000003 cycles: 3624087754 heartbeat IPC: 0.05474 cumulative IPC: 0.08865 (Simulation time: 0 hr 28 min 20 sec) 
Heartbeat CPU  0 instructions:  415000000 cycles: 3631797658 heartbeat IPC: 0.12970 cumulative IPC: 0.08874 (Simulation time: 0 hr 28 min 24 sec) 
Heartbeat CPU  0 instructions:  416000000 cycles: 3638675312 heartbeat IPC: 0.14540 cumulative IPC: 0.08885 (Simulation time: 0 hr 28 min 27 sec) 
Heartbeat CPU  0 instructions:  417000000 cycles: 3653962192 heartbeat IPC: 0.06542 cumulative IPC: 0.08875 (Simulation time: 0 hr 28 min 34 sec) 
Heartbeat CPU  0 instructions:  418000001 cycles: 3667763506 heartbeat IPC: 0.07246 cumulative IPC: 0.08869 (Simulation time: 0 hr 28 min 40 sec) 
Heartbeat CPU  0 instructions:  419000000 cycles: 3678316708 heartbeat IPC: 0.09476 cumulative IPC: 0.08871 (Simulation time: 0 hr 28 min 45 sec) 
Heartbeat CPU  0 instructions:  420000000 cycles: 3692829315 heartbeat IPC: 0.06891 cumulative IPC: 0.08863 (Simulation time: 0 hr 28 min 51 sec) 
Heartbeat CPU  0 instructions:  421000003 cycles: 3706748433 heartbeat IPC: 0.07184 cumulative IPC: 0.08856 (Simulation time: 0 hr 28 min 57 sec) 
Heartbeat CPU  0 instructions:  422000002 cycles: 3726241947 heartbeat IPC: 0.05130 cumulative IPC: 0.08836 (Simulation time: 0 hr 29 min 4 sec) 
Heartbeat CPU  0 instructions:  423000002 cycles: 3734018640 heartbeat IPC: 0.12859 cumulative IPC: 0.08845 (Simulation time: 0 hr 29 min 9 sec) 
Heartbeat CPU  0 instructions:  424000000 cycles: 3751404580 heartbeat IPC: 0.05752 cumulative IPC: 0.08830 (Simulation time: 0 hr 29 min 15 sec) 
Heartbeat CPU  0 instructions:  425000002 cycles: 3758781945 heartbeat IPC: 0.13555 cumulative IPC: 0.08840 (Simulation time: 0 hr 29 min 20 sec) 
Heartbeat CPU  0 instructions:  426000000 cycles: 3777858454 heartbeat IPC: 0.05242 cumulative IPC: 0.08821 (Simulation time: 0 hr 29 min 27 sec) 
Heartbeat CPU  0 instructions:  427000002 cycles: 3787658481 heartbeat IPC: 0.10204 cumulative IPC: 0.08825 (Simulation time: 0 hr 29 min 32 sec) 
Heartbeat CPU  0 instructions:  428000000 cycles: 3794602136 heartbeat IPC: 0.14402 cumulative IPC: 0.08835 (Simulation time: 0 hr 29 min 36 sec) 
Heartbeat CPU  0 instructions:  429000001 cycles: 3806286618 heartbeat IPC: 0.08558 cumulative IPC: 0.08834 (Simulation time: 0 hr 29 min 40 sec) 
Heartbeat CPU  0 instructions:  430000002 cycles: 3822422610 heartbeat IPC: 0.06197 cumulative IPC: 0.08823 (Simulation time: 0 hr 29 min 47 sec) 
Heartbeat CPU  0 instructions:  431000003 cycles: 3837155945 heartbeat IPC: 0.06787 cumulative IPC: 0.08815 (Simulation time: 0 hr 29 min 53 sec) 
Heartbeat CPU  0 instructions:  432000000 cycles: 3843937855 heartbeat IPC: 0.14745 cumulative IPC: 0.08826 (Simulation time: 0 hr 29 min 57 sec) 
Heartbeat CPU  0 instructions:  433000001 cycles: 3850681203 heartbeat IPC: 0.14829 cumulative IPC: 0.08836 (Simulation time: 0 hr 30 min 0 sec) 
Heartbeat CPU  0 instructions:  434000000 cycles: 3863805676 heartbeat IPC: 0.07619 cumulative IPC: 0.08832 (Simulation time: 0 hr 30 min 6 sec) 
Heartbeat CPU  0 instructions:  435000003 cycles: 3879046236 heartbeat IPC: 0.06561 cumulative IPC: 0.08823 (Simulation time: 0 hr 30 min 12 sec) 
Heartbeat CPU  0 instructions:  436000000 cycles: 3885948237 heartbeat IPC: 0.14489 cumulative IPC: 0.08833 (Simulation time: 0 hr 30 min 16 sec) 
Heartbeat CPU  0 instructions:  437000001 cycles: 3892547147 heartbeat IPC: 0.15154 cumulative IPC: 0.08844 (Simulation time: 0 hr 30 min 19 sec) 
Heartbeat CPU  0 instructions:  438000002 cycles: 3904678348 heartbeat IPC: 0.08243 cumulative IPC: 0.08842 (Simulation time: 0 hr 30 min 24 sec) 
Heartbeat CPU  0 instructions:  439000000 cycles: 3920509245 heartbeat IPC: 0.06317 cumulative IPC: 0.08832 (Simulation time: 0 hr 30 min 31 sec) 
Heartbeat CPU  0 instructions:  440000000 cycles: 3927999836 heartbeat IPC: 0.13350 cumulative IPC: 0.08841 (Simulation time: 0 hr 30 min 34 sec) 
Heartbeat CPU  0 instructions:  441000000 cycles: 3934661148 heartbeat IPC: 0.15012 cumulative IPC: 0.08851 (Simulation time: 0 hr 30 min 38 sec) 
Heartbeat CPU  0 instructions:  442000000 cycles: 3945753178 heartbeat IPC: 0.09015 cumulative IPC: 0.08852 (Simulation time: 0 hr 30 min 43 sec) 
Heartbeat CPU  0 instructions:  443000001 cycles: 3962717780 heartbeat IPC: 0.05895 cumulative IPC: 0.08839 (Simulation time: 0 hr 30 min 50 sec) 
Heartbeat CPU  0 instructions:  444000000 cycles: 3969933501 heartbeat IPC: 0.13859 cumulative IPC: 0.08848 (Simulation time: 0 hr 30 min 53 sec) 
Heartbeat CPU  0 instructions:  445000003 cycles: 3976577080 heartbeat IPC: 0.15052 cumulative IPC: 0.08859 (Simulation time: 0 hr 30 min 57 sec) 
Heartbeat CPU  0 instructions:  446000001 cycles: 3987234898 heartbeat IPC: 0.09383 cumulative IPC: 0.08860 (Simulation time: 0 hr 31 min 1 sec) 
Heartbeat CPU  0 instructions:  447000000 cycles: 4004985411 heartbeat IPC: 0.05634 cumulative IPC: 0.08846 (Simulation time: 0 hr 31 min 8 sec) 
Heartbeat CPU  0 instructions:  448000000 cycles: 4012352045 heartbeat IPC: 0.13575 cumulative IPC: 0.08855 (Simulation time: 0 hr 31 min 12 sec) 
Heartbeat CPU  0 instructions:  449000001 cycles: 4018984638 heartbeat IPC: 0.15077 cumulative IPC: 0.08865 (Simulation time: 0 hr 31 min 16 sec) 
Heartbeat CPU  0 instructions:  450000000 cycles: 4029579328 heartbeat IPC: 0.09439 cumulative IPC: 0.08867 (Simulation time: 0 hr 31 min 21 sec) 
Heartbeat CPU  0 instructions:  451000001 cycles: 4046984714 heartbeat IPC: 0.05745 cumulative IPC: 0.08853 (Simulation time: 0 hr 31 min 28 sec) 
Heartbeat CPU  0 instructions:  452000000 cycles: 4054235075 heartbeat IPC: 0.13792 cumulative IPC: 0.08862 (Simulation time: 0 hr 31 min 31 sec) 
Heartbeat CPU  0 instructions:  453000000 cycles: 4060910958 heartbeat IPC: 0.14979 cumulative IPC: 0.08872 (Simulation time: 0 hr 31 min 35 sec) 
Heartbeat CPU  0 instructions:  454000000 cycles: 4072378614 heartbeat IPC: 0.08720 cumulative IPC: 0.08872 (Simulation time: 0 hr 31 min 40 sec) 
Heartbeat CPU  0 instructions:  455000003 cycles: 4089201705 heartbeat IPC: 0.05944 cumulative IPC: 0.08860 (Simulation time: 0 hr 31 min 47 sec) 
Heartbeat CPU  0 instructions:  456000000 cycles: 4096320887 heartbeat IPC: 0.14047 cumulative IPC: 0.08869 (Simulation time: 0 hr 31 min 51 sec) 
Heartbeat CPU  0 instructions:  457000000 cycles: 4102908529 heartbeat IPC: 0.15180 cumulative IPC: 0.08879 (Simulation time: 0 hr 31 min 54 sec) 
Heartbeat CPU  0 instructions:  458000001 cycles: 4115273685 heartbeat IPC: 0.08087 cumulative IPC: 0.08877 (Simulation time: 0 hr 32 min 0 sec) 
Heartbeat CPU  0 instructions:  459000002 cycles: 4131274120 heartbeat IPC: 0.06250 cumulative IPC: 0.08866 (Simulation time: 0 hr 32 min 6 sec) 
Heartbeat CPU  0 instructions:  460000000 cycles: 4138309565 heartbeat IPC: 0.14214 cumulative IPC: 0.08876 (Simulation time: 0 hr 32 min 10 sec) 
Heartbeat CPU  0 instructions:  461000001 cycles: 4145302034 heartbeat IPC: 0.14301 cumulative IPC: 0.08885 (Simulation time: 0 hr 32 min 14 sec) 
Heartbeat CPU  0 instructions:  462000001 cycles: 4158902589 heartbeat IPC: 0.07353 cumulative IPC: 0.08880 (Simulation time: 0 hr 32 min 20 sec) 
Heartbeat CPU  0 instructions:  463000002 cycles: 4174208367 heartbeat IPC: 0.06533 cumulative IPC: 0.08871 (Simulation time: 0 hr 32 min 26 sec) 
Heartbeat CPU  0 instructions:  464000000 cycles: 4181365679 heartbeat IPC: 0.13972 cumulative IPC: 0.08880 (Simulation time: 0 hr 32 min 30 sec) 
Heartbeat CPU  0 instructions:  465000000 cycles: 4198690932 heartbeat IPC: 0.05772 cumulative IPC: 0.08867 (Simulation time: 0 hr 32 min 37 sec) 
Heartbeat CPU  0 instructions:  466000000 cycles: 4211569959 heartbeat IPC: 0.07765 cumulative IPC: 0.08863 (Simulation time: 0 hr 32 min 42 sec) 
Heartbeat CPU  0 instructions:  467000002 cycles: 4229734484 heartbeat IPC: 0.05505 cumulative IPC: 0.08849 (Simulation time: 0 hr 32 min 50 sec) 
Heartbeat CPU  0 instructions:  468000000 cycles: 4238295079 heartbeat IPC: 0.11681 cumulative IPC: 0.08854 (Simulation time: 0 hr 32 min 54 sec) 
Heartbeat CPU  0 instructions:  469000000 cycles: 4255124719 heartbeat IPC: 0.05942 cumulative IPC: 0.08843 (Simulation time: 0 hr 33 min 0 sec) 
Heartbeat CPU  0 instructions:  470000000 cycles: 4264004116 heartbeat IPC: 0.11262 cumulative IPC: 0.08848 (Simulation time: 0 hr 33 min 5 sec) 
Heartbeat CPU  0 instructions:  471000000 cycles: 4284743826 heartbeat IPC: 0.04822 cumulative IPC: 0.08828 (Simulation time: 0 hr 33 min 13 sec) 
Heartbeat CPU  0 instructions:  472000000 cycles: 4296497879 heartbeat IPC: 0.08508 cumulative IPC: 0.08827 (Simulation time: 0 hr 33 min 18 sec) 
Heartbeat CPU  0 instructions:  473000001 cycles: 4311344462 heartbeat IPC: 0.06736 cumulative IPC: 0.08820 (Simulation time: 0 hr 33 min 24 sec) 
Heartbeat CPU  0 instructions:  474000001 cycles: 4318554800 heartbeat IPC: 0.13869 cumulative IPC: 0.08828 (Simulation time: 0 hr 33 min 28 sec) 
Heartbeat CPU  0 instructions:  475000003 cycles: 4335120285 heartbeat IPC: 0.06037 cumulative IPC: 0.08817 (Simulation time: 0 hr 33 min 35 sec) 
Heartbeat CPU  0 instructions:  476000000 cycles: 4358146574 heartbeat IPC: 0.04343 cumulative IPC: 0.08793 (Simulation time: 0 hr 33 min 43 sec) 
Heartbeat CPU  0 instructions:  477000000 cycles: 4374718997 heartbeat IPC: 0.06034 cumulative IPC: 0.08783 (Simulation time: 0 hr 33 min 50 sec) 
Heartbeat CPU  0 instructions:  478000000 cycles: 4386468225 heartbeat IPC: 0.08511 cumulative IPC: 0.08782 (Simulation time: 0 hr 33 min 55 sec) 
Heartbeat CPU  0 instructions:  479000000 cycles: 4394060487 heartbeat IPC: 0.13171 cumulative IPC: 0.08790 (Simulation time: 0 hr 33 min 58 sec) 
Heartbeat CPU  0 instructions:  480000000 cycles: 4413844071 heartbeat IPC: 0.05055 cumulative IPC: 0.08773 (Simulation time: 0 hr 34 min 6 sec) 
Heartbeat CPU  0 instructions:  481000000 cycles: 4425036435 heartbeat IPC: 0.08935 cumulative IPC: 0.08773 (Simulation time: 0 hr 34 min 11 sec) 
Heartbeat CPU  0 instructions:  482000000 cycles: 4432950161 heartbeat IPC: 0.12636 cumulative IPC: 0.08780 (Simulation time: 0 hr 34 min 15 sec) 
Heartbeat CPU  0 instructions:  483000002 cycles: 4440233567 heartbeat IPC: 0.13730 cumulative IPC: 0.08788 (Simulation time: 0 hr 34 min 18 sec) 
Heartbeat CPU  0 instructions:  484000000 cycles: 4460846250 heartbeat IPC: 0.04851 cumulative IPC: 0.08770 (Simulation time: 0 hr 34 min 26 sec) 
Heartbeat CPU  0 instructions:  485000000 cycles: 4469780241 heartbeat IPC: 0.11193 cumulative IPC: 0.08775 (Simulation time: 0 hr 34 min 30 sec) 
Heartbeat CPU  0 instructions:  486000000 cycles: 4478753393 heartbeat IPC: 0.11144 cumulative IPC: 0.08780 (Simulation time: 0 hr 34 min 35 sec) 
Heartbeat CPU  0 instructions:  487000002 cycles: 4485973588 heartbeat IPC: 0.13850 cumulative IPC: 0.08788 (Simulation time: 0 hr 34 min 38 sec) 
Heartbeat CPU  0 instructions:  488000000 cycles: 4506729430 heartbeat IPC: 0.04818 cumulative IPC: 0.08769 (Simulation time: 0 hr 34 min 46 sec) 
Heartbeat CPU  0 instructions:  489000000 cycles: 4514509117 heartbeat IPC: 0.12854 cumulative IPC: 0.08776 (Simulation time: 0 hr 34 min 50 sec) 
Heartbeat CPU  0 instructions:  490000000 cycles: 4521259091 heartbeat IPC: 0.14815 cumulative IPC: 0.08786 (Simulation time: 0 hr 34 min 54 sec) 
Heartbeat CPU  0 instructions:  491000003 cycles: 4530607731 heartbeat IPC: 0.10697 cumulative IPC: 0.08790 (Simulation time: 0 hr 34 min 58 sec) 
Heartbeat CPU  0 instructions:  492000000 cycles: 4549020480 heartbeat IPC: 0.05431 cumulative IPC: 0.08776 (Simulation time: 0 hr 35 min 5 sec) 
Heartbeat CPU  0 instructions:  493000001 cycles: 4555949064 heartbeat IPC: 0.14433 cumulative IPC: 0.08785 (Simulation time: 0 hr 35 min 9 sec) 
Heartbeat CPU  0 instructions:  494000002 cycles: 4565940810 heartbeat IPC: 0.10008 cumulative IPC: 0.08787 (Simulation time: 0 hr 35 min 13 sec) 
Heartbeat CPU  0 instructions:  495000002 cycles: 4574925680 heartbeat IPC: 0.11130 cumulative IPC: 0.08792 (Simulation time: 0 hr 35 min 17 sec) 
Heartbeat CPU  0 instructions:  496000000 cycles: 4594270311 heartbeat IPC: 0.05169 cumulative IPC: 0.08776 (Simulation time: 0 hr 35 min 25 sec) 
Heartbeat CPU  0 instructions:  497000002 cycles: 4601755403 heartbeat IPC: 0.13360 cumulative IPC: 0.08784 (Simulation time: 0 hr 35 min 29 sec) 
Heartbeat CPU  0 instructions:  498000000 cycles: 4608616750 heartbeat IPC: 0.14574 cumulative IPC: 0.08793 (Simulation time: 0 hr 35 min 32 sec) 
Heartbeat CPU  0 instructions:  499000003 cycles: 4619336247 heartbeat IPC: 0.09329 cumulative IPC: 0.08794 (Simulation time: 0 hr 35 min 37 sec) 
Heartbeat CPU  0 instructions:  500000000 cycles: 4637025393 heartbeat IPC: 0.05653 cumulative IPC: 0.08782 (Simulation time: 0 hr 35 min 44 sec) 
Heartbeat CPU  0 instructions:  501000002 cycles: 4644363328 heartbeat IPC: 0.13628 cumulative IPC: 0.08790 (Simulation time: 0 hr 35 min 48 sec) 
Heartbeat CPU  0 instructions:  502000000 cycles: 4651723864 heartbeat IPC: 0.13586 cumulative IPC: 0.08797 (Simulation time: 0 hr 35 min 51 sec) 
Heartbeat CPU  0 instructions:  503000002 cycles: 4664794351 heartbeat IPC: 0.07651 cumulative IPC: 0.08794 (Simulation time: 0 hr 35 min 56 sec) 
Heartbeat CPU  0 instructions:  504000000 cycles: 4680697574 heartbeat IPC: 0.06288 cumulative IPC: 0.08785 (Simulation time: 0 hr 36 min 3 sec) 
Heartbeat CPU  0 instructions:  505000002 cycles: 4688131973 heartbeat IPC: 0.13451 cumulative IPC: 0.08793 (Simulation time: 0 hr 36 min 6 sec) 
Heartbeat CPU  0 instructions:  506000001 cycles: 4695508642 heartbeat IPC: 0.13556 cumulative IPC: 0.08801 (Simulation time: 0 hr 36 min 10 sec) 
Heartbeat CPU  0 instructions:  507000001 cycles: 4710695929 heartbeat IPC: 0.06584 cumulative IPC: 0.08793 (Simulation time: 0 hr 36 min 16 sec) 
Heartbeat CPU  0 instructions:  508000000 cycles: 4726106740 heartbeat IPC: 0.06489 cumulative IPC: 0.08786 (Simulation time: 0 hr 36 min 22 sec) 
Heartbeat CPU  0 instructions:  509000000 cycles: 4733324611 heartbeat IPC: 0.13855 cumulative IPC: 0.08794 (Simulation time: 0 hr 36 min 26 sec) 
Heartbeat CPU  0 instructions:  510000000 cycles: 4740328563 heartbeat IPC: 0.14278 cumulative IPC: 0.08802 (Simulation time: 0 hr 36 min 29 sec) 
Heartbeat CPU  0 instructions:  511000001 cycles: 4756745473 heartbeat IPC: 0.06091 cumulative IPC: 0.08792 (Simulation time: 0 hr 36 min 36 sec) 
Heartbeat CPU  0 instructions:  512000000 cycles: 4769631353 heartbeat IPC: 0.07760 cumulative IPC: 0.08789 (Simulation time: 0 hr 36 min 41 sec) 
Heartbeat CPU  0 instructions:  513000000 cycles: 4777086951 heartbeat IPC: 0.13413 cumulative IPC: 0.08797 (Simulation time: 0 hr 36 min 45 sec) 
Heartbeat CPU  0 instructions:  514000000 cycles: 4783995208 heartbeat IPC: 0.14475 cumulative IPC: 0.08805 (Simulation time: 0 hr 36 min 48 sec) 
Heartbeat CPU  0 instructions:  515000000 cycles: 4802252109 heartbeat IPC: 0.05477 cumulative IPC: 0.08792 (Simulation time: 0 hr 36 min 56 sec) 
Heartbeat CPU  0 instructions:  516000000 cycles: 4813403626 heartbeat IPC: 0.08967 cumulative IPC: 0.08793 (Simulation time: 0 hr 37 min 1 sec) 
Heartbeat CPU  0 instructions:  517000000 cycles: 4820470248 heartbeat IPC: 0.14151 cumulative IPC: 0.08801 (Simulation time: 0 hr 37 min 4 sec) 
Heartbeat CPU  0 instructions:  518000001 cycles: 4827544966 heartbeat IPC: 0.14135 cumulative IPC: 0.08809 (Simulation time: 0 hr 37 min 8 sec) 
Heartbeat CPU  0 instructions:  519000000 cycles: 4848529539 heartbeat IPC: 0.04765 cumulative IPC: 0.08791 (Simulation time: 0 hr 37 min 16 sec) 
Heartbeat CPU  0 instructions:  520000000 cycles: 4856568382 heartbeat IPC: 0.12440 cumulative IPC: 0.08797 (Simulation time: 0 hr 37 min 20 sec) 
Heartbeat CPU  0 instructions:  521000002 cycles: 4863809143 heartbeat IPC: 0.13811 cumulative IPC: 0.08805 (Simulation time: 0 hr 37 min 24 sec) 
Heartbeat CPU  0 instructions:  522000002 cycles: 4872077214 heartbeat IPC: 0.12095 cumulative IPC: 0.08810 (Simulation time: 0 hr 37 min 28 sec) 
Heartbeat CPU  0 instructions:  523000002 cycles: 4892545035 heartbeat IPC: 0.04886 cumulative IPC: 0.08794 (Simulation time: 0 hr 37 min 35 sec) 
Heartbeat CPU  0 instructions:  524000000 cycles: 4900419941 heartbeat IPC: 0.12699 cumulative IPC: 0.08800 (Simulation time: 0 hr 37 min 39 sec) 
Heartbeat CPU  0 instructions:  525000002 cycles: 4907196862 heartbeat IPC: 0.14756 cumulative IPC: 0.08808 (Simulation time: 0 hr 37 min 43 sec) 
Heartbeat CPU  0 instructions:  526000000 cycles: 4915383408 heartbeat IPC: 0.12215 cumulative IPC: 0.08814 (Simulation time: 0 hr 37 min 47 sec) 
Heartbeat CPU  0 instructions:  527000000 cycles: 4934951078 heartbeat IPC: 0.05110 cumulative IPC: 0.08799 (Simulation time: 0 hr 37 min 54 sec) 
Heartbeat CPU  0 instructions:  528000000 cycles: 4942453383 heartbeat IPC: 0.13329 cumulative IPC: 0.08806 (Simulation time: 0 hr 37 min 58 sec) 
[...]
Heartbeat CPU  0 instructions:  549000000 cycles: 5170069490 heartbeat IPC: 0.13763 cumulative IPC: 0.08825 (Simulation time: 0 hr 39 min 38 sec) 
Heartbeat CPU  0 instructions:  550000000 cycles: 5177398027 heartbeat IPC: 0.13645 cumulative IPC: 0.08832 (Simulation time: 0 hr 39 min 42 sec) 
Heartbeat CPU  0 instructions:  551000002 cycles: 5189095989 heartbeat IPC: 0.08549 cumulative IPC: 0.08831 (Simulation time: 0 hr 39 min 47 sec) 
Heartbeat CPU  0 instructions:  552000000 cycles: 5207264831 heartbeat IPC: 0.05504 cumulative IPC: 0.08819 (Simulation time: 0 hr 39 min 54 sec) 
Heartbeat CPU  0 instructions:  553000001 cycles: 5215412500 heartbeat IPC: 0.12273 cumulative IPC: 0.08825 (Simulation time: 0 hr 39 min 59 sec) 
Heartbeat CPU  0 instructions:  554000000 cycles: 5222882429 heartbeat IPC: 0.13387 cumulative IPC: 0.08832 (Simulation time: 0 hr 40 min 2 sec) 
Heartbeat CPU  0 instructions:  555000003 cycles: 5232018348 heartbeat IPC: 0.10946 cumulative IPC: 0.08835 (Simulation time: 0 hr 40 min 6 sec) 
Heartbeat CPU  0 instructions:  556000000 cycles: 5251032800 heartbeat IPC: 0.05259 cumulative IPC: 0.08822 (Simulation time: 0 hr 40 min 14 sec) 
Heartbeat CPU  0 instructions:  557000002 cycles: 5258887798 heartbeat IPC: 0.12731 cumulative IPC: 0.08828 (Simulation time: 0 hr 40 min 18 sec) 
Heartbeat CPU  0 instructions:  558000000 cycles: 5265554247 heartbeat IPC: 0.15000 cumulative IPC: 0.08836 (Simulation time: 0 hr 40 min 21 sec) 
Heartbeat CPU  0 instructions:  559000000 cycles: 5271994451 heartbeat IPC: 0.15527 cumulative IPC: 0.08844 (Simulation time: 0 hr 40 min 24 sec) 
Heartbeat CPU  0 instructions:  560000000 cycles: 5291116025 heartbeat IPC: 0.05230 cumulative IPC: 0.08831 (Simulation time: 0 hr 40 min 32 sec) 
Heartbeat CPU  0 instructions:  561000002 cycles: 5300660228 heartbeat IPC: 0.10478 cumulative IPC: 0.08834 (Simulation time: 0 hr 40 min 36 sec) 
Heartbeat CPU  0 instructions:  562000002 cycles: 5307030152 heartbeat IPC: 0.15699 cumulative IPC: 0.08842 (Simulation time: 0 hr 40 min 40 sec) 
Heartbeat CPU  0 instructions:  563000002 cycles: 5313262499 heartbeat IPC: 0.16045 cumulative IPC: 0.08851 (Simulation time: 0 hr 40 min 43 sec) 
Heartbeat CPU  0 instructions:  564000000 cycles: 5327225720 heartbeat IPC: 0.07162 cumulative IPC: 0.08846 (Simulation time: 0 hr 40 min 49 sec) 
Heartbeat CPU  0 instructions:  565000000 cycles: 5341538038 heartbeat IPC: 0.06987 cumulative IPC: 0.08841 (Simulation time: 0 hr 40 min 55 sec) 
Heartbeat CPU  0 instructions:  566000001 cycles: 5348117081 heartbeat IPC: 0.15200 cumulative IPC: 0.08849 (Simulation time: 0 hr 40 min 58 sec) 
Heartbeat CPU  0 instructions:  567000001 cycles: 5354542202 heartbeat IPC: 0.15564 cumulative IPC: 0.08858 (Simulation time: 0 hr 41 min 1 sec) 
Heartbeat CPU  0 instructions:  568000000 cycles: 5364986592 heartbeat IPC: 0.09575 cumulative IPC: 0.08859 (Simulation time: 0 hr 41 min 6 sec) 
Heartbeat CPU  0 instructions:  569000000 cycles: 5383411726 heartbeat IPC: 0.05427 cumulative IPC: 0.08847 (Simulation time: 0 hr 41 min 13 sec) 
Heartbeat CPU  0 instructions:  570000000 cycles: 5391209923 heartbeat IPC: 0.12823 cumulative IPC: 0.08853 (Simulation time: 0 hr 41 min 17 sec) 
Heartbeat CPU  0 instructions:  571000000 cycles: 5397836231 heartbeat IPC: 0.15091 cumulative IPC: 0.08861 (Simulation time: 0 hr 41 min 20 sec) 
Heartbeat CPU  0 instructions:  572000000 cycles: 5404701780 heartbeat IPC: 0.14565 cumulative IPC: 0.08868 (Simulation time: 0 hr 41 min 24 sec) 
Heartbeat CPU  0 instructions:  573000003 cycles: 5425612957 heartbeat IPC: 0.04782 cumulative IPC: 0.08852 (Simulation time: 0 hr 41 min 32 sec) 
Heartbeat CPU  0 instructions:  574000001 cycles: 5432895687 heartbeat IPC: 0.13731 cumulative IPC: 0.08859 (Simulation time: 0 hr 41 min 36 sec) 
Heartbeat CPU  0 instructions:  575000002 cycles: 5439244308 heartbeat IPC: 0.15751 cumulative IPC: 0.08867 (Simulation time: 0 hr 41 min 39 sec) 
Heartbeat CPU  0 instructions:  576000000 cycles: 5447002755 heartbeat IPC: 0.12889 cumulative IPC: 0.08873 (Simulation time: 0 hr 41 min 43 sec) 
Heartbeat CPU  0 instructions:  577000003 cycles: 5462718395 heartbeat IPC: 0.06363 cumulative IPC: 0.08865 (Simulation time: 0 hr 41 min 49 sec) 
Heartbeat CPU  0 instructions:  578000000 cycles: 5475750207 heartbeat IPC: 0.07674 cumulative IPC: 0.08862 (Simulation time: 0 hr 41 min 55 sec) 
Heartbeat CPU  0 instructions:  579000000 cycles: 5482449698 heartbeat IPC: 0.14927 cumulative IPC: 0.08870 (Simulation time: 0 hr 41 min 58 sec) 
Heartbeat CPU  0 instructions:  580000000 cycles: 5489557395 heartbeat IPC: 0.14069 cumulative IPC: 0.08877 (Simulation time: 0 hr 42 min 2 sec) 
Heartbeat CPU  0 instructions:  581000001 cycles: 5500644944 heartbeat IPC: 0.09019 cumulative IPC: 0.08877 (Simulation time: 0 hr 42 min 6 sec) 
Heartbeat CPU  0 instructions:  582000003 cycles: 5517723090 heartbeat IPC: 0.05855 cumulative IPC: 0.08868 (Simulation time: 0 hr 42 min 13 sec) 
Heartbeat CPU  0 instructions:  583000000 cycles: 5524823306 heartbeat IPC: 0.14084 cumulative IPC: 0.08874 (Simulation time: 0 hr 42 min 17 sec) 
Heartbeat CPU  0 instructions:  584000000 cycles: 5531263167 heartbeat IPC: 0.15528 cumulative IPC: 0.08882 (Simulation time: 0 hr 42 min 20 sec) 
Heartbeat CPU  0 instructions:  585000002 cycles: 5537934868 heartbeat IPC: 0.14989 cumulative IPC: 0.08890 (Simulation time: 0 hr 42 min 24 sec) 
Heartbeat CPU  0 instructions:  586000001 cycles: 5558670963 heartbeat IPC: 0.04823 cumulative IPC: 0.08874 (Simulation time: 0 hr 42 min 32 sec) 
Heartbeat CPU  0 instructions:  587000001 cycles: 5566646549 heartbeat IPC: 0.12538 cumulative IPC: 0.08880 (Simulation time: 0 hr 42 min 36 sec) 
Heartbeat CPU  0 instructions:  588000000 cycles: 5573418805 heartbeat IPC: 0.14766 cumulative IPC: 0.08887 (Simulation time: 0 hr 42 min 39 sec) 
Heartbeat CPU  0 instructions:  589000002 cycles: 5587973155 heartbeat IPC: 0.06871 cumulative IPC: 0.08882 (Simulation time: 0 hr 42 min 45 sec) 
Heartbeat CPU  0 instructions:  590000000 cycles: 5601213735 heartbeat IPC: 0.07553 cumulative IPC: 0.08878 (Simulation time: 0 hr 42 min 50 sec) 
Heartbeat CPU  0 instructions:  591000001 cycles: 5621184867 heartbeat IPC: 0.05007 cumulative IPC: 0.08864 (Simulation time: 0 hr 42 min 58 sec) 
Heartbeat CPU  0 instructions:  592000000 cycles: 5628860865 heartbeat IPC: 0.13028 cumulative IPC: 0.08870 (Simulation time: 0 hr 43 min 2 sec) 
Heartbeat CPU  0 instructions:  593000001 cycles: 5635430634 heartbeat IPC: 0.15221 cumulative IPC: 0.08878 (Simulation time: 0 hr 43 min 5 sec) 
Heartbeat CPU  0 instructions:  594000000 cycles: 5641961241 heartbeat IPC: 0.15312 cumulative IPC: 0.08885 (Simulation time: 0 hr 43 min 9 sec) 
Heartbeat CPU  0 instructions:  595000001 cycles: 5660074031 heartbeat IPC: 0.05521 cumulative IPC: 0.08874 (Simulation time: 0 hr 43 min 16 sec) 
Heartbeat CPU  0 instructions:  596000000 cycles: 5670753383 heartbeat IPC: 0.09364 cumulative IPC: 0.08875 (Simulation time: 0 hr 43 min 21 sec) 
Heartbeat CPU  0 instructions:  597000001 cycles: 5677722320 heartbeat IPC: 0.14349 cumulative IPC: 0.08882 (Simulation time: 0 hr 43 min 24 sec) 
Heartbeat CPU  0 instructions:  598000001 cycles: 5684453235 heartbeat IPC: 0.14857 cumulative IPC: 0.08889 (Simulation time: 0 hr 43 min 27 sec) 
Heartbeat CPU  0 instructions:  599000002 cycles: 5701374167 heartbeat IPC: 0.05910 cumulative IPC: 0.08880 (Simulation time: 0 hr 43 min 34 sec) 
Heartbeat CPU  0 instructions:  600000000 cycles: 5713138867 heartbeat IPC: 0.08500 cumulative IPC: 0.08880 (Simulation time: 0 hr 43 min 39 sec) 
Finished CPU 0 instructions: 500000000 cycles: 5630935310 cumulative IPC: 0.08880 (Simulation time: 0 hr 43 min 39 sec) 

ChampSim completed all CPUs

[ROI Statistics]
Core_0_instructions 500000000
Core_0_cycles 5630935310
Core_0_IPC 0.08880

Core_0_branch_prediction_accuracy 93.75037
Core_0_branch_MPKI 14.79093
Core_0_average_ROB_occupancy_at_mispredict 57.35816

Core_0_L1D_total_access 126376899
Core_0_L1D_total_hit 74157033
Core_0_L1D_total_miss 52219866
Core_0_L1D_loads 103754386
Core_0_L1D_load_hit 53427634
Core_0_L1D_load_miss 50326752
Core_0_L1D_RFOs 22622513
Core_0_L1D_RFO_hit 20729399
Core_0_L1D_RFO_miss 1893114
Core_0_L1D_prefetches 0
Core_0_L1D_prefetch_hit 0
Core_0_L1D_prefetch_miss 0
Core_0_L1D_writebacks 0
Core_0_L1D_writeback_hit 0
Core_0_L1D_writeback_miss 0
Core_0_L1D_prefetch_requested 0
Core_0_L1D_prefetch_dropped 0
Core_0_L1D_prefetch_issued 0
Core_0_L1D_prefetch_filled 0
Core_0_L1D_prefetch_useful 0
Core_0_L1D_prefetch_useless 0
Core_0_L1D_prefetch_late 0
Core_0_L1D_average_miss_latency 225.69136

Core_0_L1D_rq_access 158687086
Core_0_L1D_rq_forward 0
Core_0_L1D_rq_merged 54385948
Core_0_L1D_rq_to_cache 104301136
Core_0_L1D_rq_full 0

Core_0_L1D_wq_access 26393734
Core_0_L1D_wq_forward 2
Core_0_L1D_wq_merged 2415006
Core_0_L1D_wq_to_cache 23978728
Core_0_L1D_wq_full 0

Core_0_L1D_pq_access 0
Core_0_L1D_pq_forward 0
Core_0_L1D_pq_merged 0
Core_0_L1D_pq_to_cache 0
Core_0_L1D_pq_full 0

Core_0_L1D_acc_epochs 5050594
Core_0_L1D_acc_level_0 5050594
Core_0_L1D_acc_level_1 0
Core_0_L1D_acc_level_2 0
Core_0_L1D_acc_level_3 0
Core_0_L1D_acc_level_4 0
Core_0_L1D_acc_level_5 0
Core_0_L1D_acc_level_6 0
Core_0_L1D_acc_level_7 0
Core_0_L1D_acc_level_8 0
Core_0_L1D_acc_level_9 0

Core_0_L1I_total_access 108722803
Core_0_L1I_total_hit 108722803
Core_0_L1I_total_miss 0
Core_0_L1I_loads 108722803
Core_0_L1I_load_hit 108722803
Core_0_L1I_load_miss 0
Core_0_L1I_RFOs 0
Core_0_L1I_RFO_hit 0
Core_0_L1I_RFO_miss 0
Core_0_L1I_prefetches 0
Core_0_L1I_prefetch_hit 0
Core_0_L1I_prefetch_miss 0
Core_0_L1I_writebacks 0
Core_0_L1I_writeback_hit 0
Core_0_L1I_writeback_miss 0
Core_0_L1I_prefetch_requested 0
Core_0_L1I_prefetch_dropped 0
Core_0_L1I_prefetch_issued 0
Core_0_L1I_prefetch_filled 0
Core_0_L1I_prefetch_useful 0
Core_0_L1I_prefetch_useless 0
Core_0_L1I_prefetch_late 0
Core_0_L1I_average_miss_latency -nan

Core_0_L1I_rq_access 499999764
Core_0_L1I_rq_forward 0
Core_0_L1I_rq_merged 391276961
Core_0_L1I_rq_to_cache 108722803
Core_0_L1I_rq_full 0

Core_0_L1I_wq_access 0
Core_0_L1I_wq_forward 0
Core_0_L1I_wq_merged 0
Core_0_L1I_wq_to_cache 0
Core_0_L1I_wq_full 0

Core_0_L1I_pq_access 0
Core_0_L1I_pq_forward 0
Core_0_L1I_pq_merged 0
Core_0_L1I_pq_to_cache 0
Core_0_L1I_pq_full 0

Core_0_L1I_acc_epochs 5050594
Core_0_L1I_acc_level_0 5050594
Core_0_L1I_acc_level_1 0
Core_0_L1I_acc_level_2 0
Core_0_L1I_acc_level_3 0
Core_0_L1I_acc_level_4 0
Core_0_L1I_acc_level_5 0
Core_0_L1I_acc_level_6 0
Core_0_L1I_acc_level_7 0
Core_0_L1I_acc_level_8 0
Core_0_L1I_acc_level_9 0

Core_0_L2C_total_access 65418886
Core_0_L2C_total_hit 27027943
Core_0_L2C_total_miss 38390943
Core_0_L2C_loads 50325770
Core_0_L2C_load_hit 12780308
Core_0_L2C_load_miss 37545462
Core_0_L2C_RFOs 1893075
Core_0_L2C_RFO_hit 1062938
Core_0_L2C_RFO_miss 830137
Core_0_L2C_prefetches 817378
Core_0_L2C_prefetch_hit 805551
Core_0_L2C_prefetch_miss 11827
Core_0_L2C_writebacks 12382663
Core_0_L2C_writeback_hit 12379146
Core_0_L2C_writeback_miss 3517
Core_0_L2C_prefetch_requested 6771031
Core_0_L2C_prefetch_dropped 0
Core_0_L2C_prefetch_issued 6771031
Core_0_L2C_prefetch_filled 14659
Core_0_L2C_prefetch_useful 891
Core_0_L2C_prefetch_useless 13768
Core_0_L2C_prefetch_late 171
Core_0_L2C_average_miss_latency 282.96900

Core_0_L2C_rq_access 52219866
Core_0_L2C_rq_forward 0
Core_0_L2C_rq_merged 0
Core_0_L2C_rq_to_cache 52218845
Core_0_L2C_rq_full 0

Core_0_L2C_wq_access 12382663
Core_0_L2C_wq_forward 1046
Core_0_L2C_wq_merged 0
Core_0_L2C_wq_to_cache 12382663
Core_0_L2C_wq_full 0

Core_0_L2C_pq_access 6771031
Core_0_L2C_pq_forward 0
Core_0_L2C_pq_merged 29651
Core_0_L2C_pq_to_cache 6741355
Core_0_L2C_pq_full 0

Core_0_L2C_acc_epochs 5050594
Core_0_L2C_acc_level_0 5049682
Core_0_L2C_acc_level_1 306
Core_0_L2C_acc_level_2 305
Core_0_L2C_acc_level_3 4
Core_0_L2C_acc_level_4 0
Core_0_L2C_acc_level_5 295
Core_0_L2C_acc_level_6 2
Core_0_L2C_acc_level_7 0
Core_0_L2C_acc_level_8 0
Core_0_L2C_acc_level_9 0

Core_0_LLC_total_access 50359153
Core_0_LLC_total_hit 19931814
Core_0_LLC_total_miss 30427339
Core_0_LLC_loads 37545187
Core_0_LLC_load_hit 12901548
Core_0_LLC_load_miss 24643639
Core_0_LLC_RFOs 830136
Core_0_LLC_RFO_hit 362111
Core_0_LLC_RFO_miss 468025
Core_0_LLC_prefetches 3409161
Core_0_LLC_prefetch_hit 1345322
Core_0_LLC_prefetch_miss 2063839
Core_0_LLC_writebacks 8574669
Core_0_LLC_writeback_hit 5322833
Core_0_LLC_writeback_miss 3251836
Core_0_LLC_prefetch_requested 0
Core_0_LLC_prefetch_dropped 0
Core_0_LLC_prefetch_issued 0
Core_0_LLC_prefetch_filled 2529410
Core_0_LLC_prefetch_useful 415924
Core_0_LLC_prefetch_useless 2112903
Core_0_LLC_prefetch_late 36379
Core_0_LLC_average_miss_latency 342.14216

Core_0_LLC_rq_access 38375481
Core_0_LLC_rq_forward 0
Core_0_LLC_rq_merged 0
Core_0_LLC_rq_to_cache 38375323
Core_0_LLC_rq_full 0

Core_0_LLC_wq_access 8574669
Core_0_LLC_wq_forward 161
Core_0_LLC_wq_merged 0
Core_0_LLC_wq_to_cache 8574669
Core_0_LLC_wq_full 0

Core_0_LLC_pq_access 4216217
Core_0_LLC_pq_forward 0
Core_0_LLC_pq_merged 7
Core_0_LLC_pq_to_cache 4216207
Core_0_LLC_pq_full 0

Core_0_LLC_acc_epochs 5579238
Core_0_LLC_acc_level_0 5194136
Core_0_LLC_acc_level_1 130839
Core_0_LLC_acc_level_2 114796
Core_0_LLC_acc_level_3 18063
Core_0_LLC_acc_level_4 3680
Core_0_LLC_acc_level_5 90685
Core_0_LLC_acc_level_6 8115
Core_0_LLC_acc_level_7 5881
Core_0_LLC_acc_level_8 1718
Core_0_LLC_acc_level_9 11325

Core_0_major_page_fault 0
Core_0_minor_page_fault 158560

spp.pref.total 6771031
spp.pref.at_L2 30375
spp.pref.at_LLC 6740656

spp.depth.max 4
spp.depth.min 0
spp.depth.avg 0

spp.breadth.max 2
spp.breadth.min 0
spp.breadth.avg 0

delta_1 5843639
delta_-2 722268
delta_-1 499323
delta_-19 94593
delta_33 25344
delta_31 15133
delta_2 14984
delta_-8 11169
delta_-4 7810
delta_5 5421
delta_-3 3693
delta_-16 3017
delta_9 2948
delta_-30 2905
delta_-7 2501
delta_-9 2437
delta_3 2230
delta_6 2169
delta_-15 2146
delta_-10 2078
delta_-28 2065
delta_4 2020
delta_11 1913
delta_13 1870
delta_-5 1376
delta_-12 1247
delta_14 1227
delta_20 1200
delta_19 1190
delta_-18 1128
delta_15 1087
delta_-13 1080
delta_26 1071
delta_23 1034
delta_-6 980
delta_10 962
delta_36 924
delta_-23 901
delta_16 899
delta_7 897
delta_24 890
delta_-26 886
delta_-21 844
delta_35 793
delta_-35 775
delta_12 770
delta_-33 765
delta_8 763
delta_-25 725
delta_-14 719
delta_21 714
delta_-11 703
delta_-29 695
delta_29 686
delta_-17 647
delta_28 629
delta_-31 624
delta_-22 604
delta_27 600
delta_-20 532
delta_-27 527
delta_25 519
delta_-24 511
delta_-34 503
delta_18 498
delta_-32 489
delta_50 434
delta_-37 416
delta_32 411
delta_39 408
delta_17 402
delta_30 394
delta_42 374
delta_34 371
delta_22 366
delta_53 345
delta_38 319
delta_-49 309
delta_-42 292
delta_-38 241
delta_-50 238
delta_-44 236
delta_49 229
delta_-55 228
delta_48 211
delta_40 210
delta_-39 207
delta_-47 194
delta_57 178
delta_-36 169
delta_-53 168
delta_41 162
delta_52 159
delta_45 159
delta_46 150
delta_-41 140
delta_-40 140
delta_37 138
delta_-46 137
delta_47 128
delta_-48 124
delta_-54 122
delta_-45 110
delta_-43 107
delta_-58 77
delta_-57 74
delta_44 68
delta_51 55
delta_54 53
delta_43 51
delta_-61 39
delta_-60 35
delta_58 35
delta_55 31
delta_62 26
delta_-56 25
delta_-51 24
delta_60 22
delta_-52 19
delta_56 16
delta_-59 14
delta_59 1

depth_1_delta_1 5753633
depth_1_delta_-2 717020
depth_1_delta_-1 492910
depth_1_delta_-19 94579
depth_1_delta_33 25342
depth_1_delta_31 15133
depth_1_delta_2 14203
depth_1_delta_-8 11122
depth_1_delta_-4 7561
depth_1_delta_5 5312
depth_1_delta_-3 3658
depth_1_delta_-16 2580
depth_1_delta_9 2437
depth_1_delta_-7 2263
depth_1_delta_-30 2242
depth_1_delta_3 2155
depth_1_delta_6 2095
depth_1_delta_-9 2086
depth_1_delta_-28 2028
depth_1_delta_4 2008
depth_1_delta_-10 1989
depth_1_delta_-15 1902
depth_1_delta_11 1846
depth_1_delta_13 1810
depth_1_delta_-5 1375
depth_1_delta_-12 1234
depth_1_delta_14 1215
depth_1_delta_19 1186
depth_1_delta_20 1132
depth_1_delta_-13 1078
depth_1_delta_26 1051
depth_1_delta_15 1038
depth_1_delta_-18 1011
depth_1_delta_23 998
depth_1_delta_-6 975
depth_1_delta_10 962
depth_1_delta_-23 901
depth_1_delta_16 898
depth_1_delta_24 890
depth_1_delta_7 888
depth_1_delta_-26 885
depth_1_delta_36 832
depth_1_delta_35 793
depth_1_delta_12 770
depth_1_delta_8 753
depth_1_delta_-33 750
depth_1_delta_-21 745
depth_1_delta_-25 718
depth_1_delta_21 714
depth_1_delta_-14 700
depth_1_delta_-11 699
depth_1_delta_-29 695
depth_1_delta_-35 682
depth_1_delta_29 681
depth_1_delta_-17 647
depth_1_delta_-31 624
depth_1_delta_-22 569
depth_1_delta_28 541
depth_1_delta_27 528
depth_1_delta_-20 523
depth_1_delta_25 516
depth_1_delta_-24 511
depth_1_delta_-34 503
depth_1_delta_-27 502
depth_1_delta_18 498
depth_1_delta_-32 485
depth_1_delta_50 434
depth_1_delta_-37 414
depth_1_delta_39 402
depth_1_delta_17 402
depth_1_delta_32 395
depth_1_delta_30 394
depth_1_delta_34 368
depth_1_delta_22 366
depth_1_delta_53 343
depth_1_delta_42 325
depth_1_delta_38 319
depth_1_delta_-49 309
depth_1_delta_-42 292
depth_1_delta_-38 240
depth_1_delta_-44 233
depth_1_delta_-55 228
depth_1_delta_49 223
depth_1_delta_-50 219
depth_1_delta_40 210
depth_1_delta_48 208
depth_1_delta_-39 207
depth_1_delta_-47 194
depth_1_delta_57 178
depth_1_delta_-36 169
depth_1_delta_-53 168
depth_1_delta_41 162
depth_1_delta_52 159
depth_1_delta_45 159
depth_1_delta_46 148
depth_1_delta_-41 140
depth_1_delta_-40 140
depth_1_delta_37 133
depth_1_delta_47 128
depth_1_delta_-46 114
depth_1_delta_-54 111
depth_1_delta_-45 110
depth_1_delta_-43 107
depth_1_delta_-48 104
depth_1_delta_-58 77
depth_1_delta_-57 74
depth_1_delta_44 68
depth_1_delta_51 55
depth_1_delta_54 53
depth_1_delta_43 51
depth_1_delta_-61 39
depth_1_delta_-60 35
depth_1_delta_55 31
depth_1_delta_58 30
depth_1_delta_62 26
depth_1_delta_-56 25
depth_1_delta_-51 24
depth_1_delta_60 22
depth_1_delta_-52 19
depth_1_delta_56 15
depth_1_delta_-59 14
depth_1_delta_59 1
depth_2_delta_1 89225
depth_2_delta_-1 6294
depth_2_delta_-2 5224
depth_2_delta_2 775
depth_2_delta_-30 632
depth_2_delta_9 511
depth_2_delta_-16 437
depth_2_delta_-9 351
depth_2_delta_-4 249
depth_2_delta_-15 244
depth_2_delta_-7 238
depth_2_delta_-18 117
depth_2_delta_5 109
depth_2_delta_-21 99
depth_2_delta_-35 93
depth_2_delta_36 92
depth_2_delta_-10 89
depth_2_delta_28 88
depth_2_delta_3 75
depth_2_delta_27 72
depth_2_delta_6 69
depth_2_delta_20 68
depth_2_delta_11 67
depth_2_delta_13 59
depth_2_delta_42 49
depth_2_delta_15 49
depth_2_delta_-8 47
depth_2_delta_-28 37
depth_2_delta_23 36
depth_2_delta_-3 35
depth_2_delta_-22 35
depth_2_delta_-27 25
depth_2_delta_-46 23
depth_2_delta_-48 20
depth_2_delta_26 20
depth_2_delta_-50 19
depth_2_delta_-14 19
depth_2_delta_32 16
depth_2_delta_-33 15
depth_2_delta_-19 14
depth_2_delta_-12 13
depth_2_delta_4 12
depth_2_delta_14 12
depth_2_delta_-54 11
depth_2_delta_8 10
depth_2_delta_-20 9
depth_2_delta_7 9
depth_2_delta_-25 7
depth_2_delta_39 6
depth_2_delta_49 6
depth_2_delta_58 5
depth_2_delta_-6 5
depth_2_delta_29 5
depth_2_delta_37 5
depth_2_delta_19 4
depth_2_delta_-32 4
depth_2_delta_-11 4
depth_2_delta_34 3
depth_2_delta_-44 3
depth_2_delta_48 3
depth_2_delta_25 3
depth_2_delta_46 2
depth_2_delta_-37 2
depth_2_delta_53 2
depth_2_delta_33 2
depth_2_delta_-13 2
depth_2_delta_-5 1
depth_2_delta_56 1
depth_2_delta_16 1
depth_2_delta_-26 1
depth_2_delta_-38 1
depth_3_delta_1 754
depth_3_delta_-1 119
depth_3_delta_-30 31
depth_3_delta_-2 24
depth_3_delta_2 6
depth_3_delta_6 5
depth_3_delta_13 1
depth_4_delta_1 27

Channel_0_RQ_row_buffer_hit 303553
Channel_0_RQ_row_buffer_miss 26866921
Channel_0_WQ_row_buffer_hit 3131736
Channel_0_WQ_row_buffer_miss 3083639
Channel_0_WQ_full 0
Channel_0_dbus_congested 19376665

avg_congested_cycle 85

DRAM_bw_pochs 22316949
DRAM_bw_level_0 4522184
DRAM_bw_level_1 5395097
DRAM_bw_level_2 0
DRAM_bw_level_3 12399668
