*************************************************
   ChampSim Multicore Out-of-Order Simulator
   Last compiled: Dec 11 2024 17:59:53
*************************************************
parsing config file: /home/functionmain/桌面/Pythia/config/mlop.ini

trace_0 /home/functionmain/桌面/Pythia/traces/433.milc-127B.champsimtrace.xz
adding L2C_PREFETCHER: MLOP
Initialize SHIP state
warmup_instructions 100000000
simulation_instructions 500000000
champsim_seed 220
measure_ipc 0
measure_ipc_epoch 1000
measure_dram_bw 1
measure_dram_bw_epoch 256
measure_cache_acc 1
measure_cache_acc_epoch 1024
l1d_perfect 0
l2c_perfect 0
llc_perfect 0
l1d_semi_perfect 0
l2c_semi_perfect 0
llc_semi_perfect 0
semi_perfect_cache_page_buffer_size 64

num_cpus 1
cpu_freq 4000
dram_io_freq 2400
page_size 4096
block_size 64
max_read_per_cycle 8
max_fill_per_cycle 1
dram_channels 1
log2_dram_channels 0
dram_ranks 1
dram_banks 8
dram_rows 65536
dram_columns 128
dram_row_size 8
dram_size 4096
dram_pages 1048576

fetch_width 6
decode_width 6
exec_width 4
lq_width 2
sq_width 2
retire_width 4
scheduler_size 128
branch_mispredict_penalty 20
rob_size 256
lq_size 72
sq_size 56
num_instr_destinations_sparc 4
num_instr_destinations 2
num_instr_sources 4

itlb_set 16
itlb_way 8
itlb_rq_size 16
itlb_wq_size 16
itlb_pq_size 0
itlb_mshr_size 8
itlb_latency 1

dtlb_set 16
dtlb_way 4
dtlb_rq_size 16
dtlb_wq_size 16
dtlb_pq_size 0
dtlb_mshr_size 8
dtlb_latency 1

stlb_set 128
stlb_way 12
stlb_rq_size 32
stlb_wq_size 32
stlb_pq_size 0
stlb_mshr_size 16
stlb_latency 8

l1i_size 32
l1i_set 64
l1i_way 8
l1i_rq_size 64
l1i_wq_size 64
l1i_pq_size 8
l1i_mshr_size 8
l1i_latency 1

l1d_size 32
l1d_set 64
l1d_way 8
l1d_rq_size 64
l1d_wq_size 64
l1d_pq_size 8
l1d_mshr_size 16
l1d_latency 4

l2c_size 256
l2c_set 512
l2c_way 8
l2c_rq_size 32
l2c_wq_size 32
l2c_pq_size 32
l2c_mshr_size 32
l2c_latency 10

llc_size 2048
llc_set 2048
llc_way 16
llc_rq_size 32
llc_wq_size 32
llc_pq_size 32
llc_mshr_size 64
llc_latency 20

dram_channel_width 8
dram_wq_size 64
dram_rq_size 64
tRP 15
tRCD 15
tCAS 12.5
dram_dbus_turn_around_time 30
dram_write_high_wm 56
dram_write_low_wm 48
min_dram_writes_per_switch 16
dram_mtps 2400
dram_dbus_return_time 13

mlop_pref_degree 16
mlop_num_updates 500
mlop_l1d_thresh 2
mlop_l2c_thresh 0.75
mlop_llc_thresh 0.3
mlop_debug_level 0
mlop_blocks_in_cache 4096
mlop_blocks_in_zone 64
mlop_amt_size 2048
mlop_PF_DEGREE 16
mlop_NUM_UPDATES 500
mlop_L1D_THRESH 1000
mlop_L2C_THRESH 375
mlop_LLC_THRESH 150
mlop_ORIGIN 63
mlop_MAX_OFFSET 63
mlop_MIN_OFFSET -63
mlop_ORIGIN 63
mlop_NUM_OFFSETS 127


Heartbeat CPU  0 instructions:    1000001 cycles:     384784 heartbeat IPC: 2.59886 cumulative IPC: 2.59886 (Simulation time: 0 hr 0 min 2 sec) 
Heartbeat CPU  0 instructions:    2000000 cycles:     769511 heartbeat IPC: 2.59924 cumulative IPC: 2.59905 (Simulation time: 0 hr 0 min 4 sec) 
Heartbeat CPU  0 instructions:    3000000 cycles:    1154219 heartbeat IPC: 2.59937 cumulative IPC: 2.59916 (Simulation time: 0 hr 0 min 6 sec) 
Heartbeat CPU  0 instructions:    4000000 cycles:    1538944 heartbeat IPC: 2.59926 cumulative IPC: 2.59918 (Simulation time: 0 hr 0 min 8 sec) 
Heartbeat CPU  0 instructions:    5000001 cycles:    1923686 heartbeat IPC: 2.59915 cumulative IPC: 2.59918 (Simulation time: 0 hr 0 min 10 sec) 
Heartbeat CPU  0 instructions:    6000000 cycles:    2308409 heartbeat IPC: 2.59927 cumulative IPC: 2.59919 (Simulation time: 0 hr 0 min 12 sec) 
Heartbeat CPU  0 instructions:    7000002 cycles:    2693111 heartbeat IPC: 2.59942 cumulative IPC: 2.59923 (Simulation time: 0 hr 0 min 14 sec) 
Heartbeat CPU  0 instructions:    8000000 cycles:    3077839 heartbeat IPC: 2.59923 cumulative IPC: 2.59923 (Simulation time: 0 hr 0 min 15 sec) 
Heartbeat CPU  0 instructions:    9000003 cycles:    3462578 heartbeat IPC: 2.59917 cumulative IPC: 2.59922 (Simulation time: 0 hr 0 min 17 sec) 
Heartbeat CPU  0 instructions:   10000000 cycles:    3847311 heartbeat IPC: 2.59920 cumulative IPC: 2.59922 (Simulation time: 0 hr 0 min 19 sec) 
Heartbeat CPU  0 instructions:   11000002 cycles:    4232012 heartbeat IPC: 2.59943 cumulative IPC: 2.59924 (Simulation time: 0 hr 0 min 21 sec) 
Heartbeat CPU  0 instructions:   12000000 cycles:    4616729 heartbeat IPC: 2.59931 cumulative IPC: 2.59924 (Simulation time: 0 hr 0 min 23 sec) 
Heartbeat CPU  0 instructions:   13000003 cycles:    5001479 heartbeat IPC: 2.59910 cumulative IPC: 2.59923 (Simulation time: 0 hr 0 min 25 sec) 
Heartbeat CPU  0 instructions:   14000000 cycles:    5386195 heartbeat IPC: 2.59931 cumulative IPC: 2.59924 (Simulation time: 0 hr 0 min 27 sec) 
Heartbeat CPU  0 instructions:   15000003 cycles:    5770912 heartbeat IPC: 2.59932 cumulative IPC: 2.59924 (Simulation time: 0 hr 0 min 29 sec) 
Heartbeat CPU  0 instructions:   16000000 cycles:    6155633 heartbeat IPC: 2.59928 cumulative IPC: 2.59925 (Simulation time: 0 hr 0 min 31 sec) 
Heartbeat CPU  0 instructions:   17000001 cycles:    6540374 heartbeat IPC: 2.59915 cumulative IPC: 2.59924 (Simulation time: 0 hr 0 min 33 sec) 
Heartbeat CPU  0 instructions:   18000000 cycles:    6925108 heartbeat IPC: 2.59920 cumulative IPC: 2.59924 (Simulation time: 0 hr 0 min 35 sec) 
Heartbeat CPU  0 instructions:   19000003 cycles:    7309806 heartbeat IPC: 2.59945 cumulative IPC: 2.59925 (Simulation time: 0 hr 0 min 37 sec) 
Heartbeat CPU  0 instructions:   20000000 cycles:    7796743 heartbeat IPC: 2.05365 cumulative IPC: 2.56517 (Simulation time: 0 hr 0 min 39 sec) 
Heartbeat CPU  0 instructions:   21000001 cycles:    8304293 heartbeat IPC: 1.97025 cumulative IPC: 2.52881 (Simulation time: 0 hr 0 min 41 sec) 
Heartbeat CPU  0 instructions:   22000001 cycles:    8861447 heartbeat IPC: 1.79484 cumulative IPC: 2.48266 (Simulation time: 0 hr 0 min 43 sec) 
Heartbeat CPU  0 instructions:   23000001 cycles:    9418543 heartbeat IPC: 1.79502 cumulative IPC: 2.44199 (Simulation time: 0 hr 0 min 46 sec) 
Heartbeat CPU  0 instructions:   24000000 cycles:    9967436 heartbeat IPC: 1.82185 cumulative IPC: 2.40784 (Simulation time: 0 hr 0 min 48 sec) 
Heartbeat CPU  0 instructions:   25000002 cycles:   10410850 heartbeat IPC: 2.25523 cumulative IPC: 2.40134 (Simulation time: 0 hr 0 min 50 sec) 
Heartbeat CPU  0 instructions:   26000000 cycles:   10854272 heartbeat IPC: 2.25518 cumulative IPC: 2.39537 (Simulation time: 0 hr 0 min 52 sec) 
Heartbeat CPU  0 instructions:   27000000 cycles:   11297661 heartbeat IPC: 2.25536 cumulative IPC: 2.38988 (Simulation time: 0 hr 0 min 55 sec) 
Heartbeat CPU  0 instructions:   28000000 cycles:   11741071 heartbeat IPC: 2.25525 cumulative IPC: 2.38479 (Simulation time: 0 hr 0 min 57 sec) 
Heartbeat CPU  0 instructions:   29000000 cycles:   12184502 heartbeat IPC: 2.25514 cumulative IPC: 2.38007 (Simulation time: 0 hr 0 min 59 sec) 
Heartbeat CPU  0 instructions:   30000000 cycles:   12627949 heartbeat IPC: 2.25506 cumulative IPC: 2.37568 (Simulation time: 0 hr 1 min 1 sec) 
Heartbeat CPU  0 instructions:   31000000 cycles:   13071314 heartbeat IPC: 2.25548 cumulative IPC: 2.37161 (Simulation time: 0 hr 1 min 3 sec) 
Heartbeat CPU  0 instructions:   32000000 cycles:   13514670 heartbeat IPC: 2.25552 cumulative IPC: 2.36780 (Simulation time: 0 hr 1 min 5 sec) 
Heartbeat CPU  0 instructions:   33000000 cycles:   13958090 heartbeat IPC: 2.25520 cumulative IPC: 2.36422 (Simulation time: 0 hr 1 min 7 sec) 
Heartbeat CPU  0 instructions:   34000000 cycles:   14401523 heartbeat IPC: 2.25513 cumulative IPC: 2.36086 (Simulation time: 0 hr 1 min 10 sec) 
Heartbeat CPU  0 instructions:   35000000 cycles:   14844910 heartbeat IPC: 2.25537 cumulative IPC: 2.35771 (Simulation time: 0 hr 1 min 12 sec) 
Heartbeat CPU  0 instructions:   36000000 cycles:   15288393 heartbeat IPC: 2.25488 cumulative IPC: 2.35473 (Simulation time: 0 hr 1 min 14 sec) 
Heartbeat CPU  0 instructions:   37000001 cycles:   15732008 heartbeat IPC: 2.25421 cumulative IPC: 2.35189 (Simulation time: 0 hr 1 min 16 sec) 
Heartbeat CPU  0 instructions:   38000001 cycles:   16175635 heartbeat IPC: 2.25415 cumulative IPC: 2.34921 (Simulation time: 0 hr 1 min 18 sec) 
Heartbeat CPU  0 instructions:   39000002 cycles:   16619256 heartbeat IPC: 2.25418 cumulative IPC: 2.34668 (Simulation time: 0 hr 1 min 20 sec) 
Heartbeat CPU  0 instructions:   40000000 cycles:   17062816 heartbeat IPC: 2.25448 cumulative IPC: 2.34428 (Simulation time: 0 hr 1 min 23 sec) 
Heartbeat CPU  0 instructions:   41000000 cycles:   17506467 heartbeat IPC: 2.25402 cumulative IPC: 2.34199 (Simulation time: 0 hr 1 min 25 sec) 
Heartbeat CPU  0 instructions:   42000000 cycles:   17950112 heartbeat IPC: 2.25405 cumulative IPC: 2.33982 (Simulation time: 0 hr 1 min 27 sec) 
Heartbeat CPU  0 instructions:   43000000 cycles:   18393696 heartbeat IPC: 2.25436 cumulative IPC: 2.33776 (Simulation time: 0 hr 1 min 29 sec) 
Heartbeat CPU  0 instructions:   44000000 cycles:   18837251 heartbeat IPC: 2.25451 cumulative IPC: 2.33580 (Simulation time: 0 hr 1 min 31 sec) 
Heartbeat CPU  0 instructions:   45000001 cycles:   19280831 heartbeat IPC: 2.25439 cumulative IPC: 2.33392 (Simulation time: 0 hr 1 min 33 sec) 
Heartbeat CPU  0 instructions:   46000001 cycles:   19724399 heartbeat IPC: 2.25445 cumulative IPC: 2.33214 (Simulation time: 0 hr 1 min 35 sec) 
Heartbeat CPU  0 instructions:   47000001 cycles:   20167953 heartbeat IPC: 2.25452 cumulative IPC: 2.33043 (Simulation time: 0 hr 1 min 38 sec) 
Heartbeat CPU  0 instructions:   48000000 cycles:   20611550 heartbeat IPC: 2.25430 cumulative IPC: 2.32879 (Simulation time: 0 hr 1 min 40 sec) 
Heartbeat CPU  0 instructions:   49000002 cycles:   21055158 heartbeat IPC: 2.25425 cumulative IPC: 2.32722 (Simulation time: 0 hr 1 min 42 sec) 
Heartbeat CPU  0 instructions:   50000001 cycles:   21498778 heartbeat IPC: 2.25418 cumulative IPC: 2.32571 (Simulation time: 0 hr 1 min 44 sec) 
Heartbeat CPU  0 instructions:   51000001 cycles:   21942376 heartbeat IPC: 2.25429 cumulative IPC: 2.32427 (Simulation time: 0 hr 1 min 46 sec) 
Heartbeat CPU  0 instructions:   52000000 cycles:   22385966 heartbeat IPC: 2.25433 cumulative IPC: 2.32288 (Simulation time: 0 hr 1 min 48 sec) 
Heartbeat CPU  0 instructions:   53000002 cycles:   22829639 heartbeat IPC: 2.25392 cumulative IPC: 2.32154 (Simulation time: 0 hr 1 min 50 sec) 
Heartbeat CPU  0 instructions:   54000002 cycles:   23273140 heartbeat IPC: 2.25479 cumulative IPC: 2.32027 (Simulation time: 0 hr 1 min 53 sec) 
Heartbeat CPU  0 instructions:   55000002 cycles:   23716715 heartbeat IPC: 2.25441 cumulative IPC: 2.31904 (Simulation time: 0 hr 1 min 55 sec) 
Heartbeat CPU  0 instructions:   56000000 cycles:   24160280 heartbeat IPC: 2.25446 cumulative IPC: 2.31785 (Simulation time: 0 hr 1 min 57 sec) 
Heartbeat CPU  0 instructions:   57000000 cycles:   24603828 heartbeat IPC: 2.25455 cumulative IPC: 2.31671 (Simulation time: 0 hr 1 min 59 sec) 
Heartbeat CPU  0 instructions:   58000000 cycles:   25047388 heartbeat IPC: 2.25449 cumulative IPC: 2.31561 (Simulation time: 0 hr 2 min 1 sec) 
Heartbeat CPU  0 instructions:   59000003 cycles:   25491259 heartbeat IPC: 2.25291 cumulative IPC: 2.31452 (Simulation time: 0 hr 2 min 3 sec) 
Heartbeat CPU  0 instructions:   60000000 cycles:   25935447 heartbeat IPC: 2.25129 cumulative IPC: 2.31344 (Simulation time: 0 hr 2 min 5 sec) 
Heartbeat CPU  0 instructions:   61000000 cycles:   26379690 heartbeat IPC: 2.25102 cumulative IPC: 2.31239 (Simulation time: 0 hr 2 min 8 sec) 
Heartbeat CPU  0 instructions:   62000002 cycles:   26823858 heartbeat IPC: 2.25140 cumulative IPC: 2.31138 (Simulation time: 0 hr 2 min 10 sec) 
Heartbeat CPU  0 instructions:   63000003 cycles:   27268015 heartbeat IPC: 2.25146 cumulative IPC: 2.31040 (Simulation time: 0 hr 2 min 12 sec) 
Heartbeat CPU  0 instructions:   64000000 cycles:   27712282 heartbeat IPC: 2.25089 cumulative IPC: 2.30945 (Simulation time: 0 hr 2 min 14 sec) 
Heartbeat CPU  0 instructions:   65000003 cycles:   28156447 heartbeat IPC: 2.25142 cumulative IPC: 2.30853 (Simulation time: 0 hr 2 min 16 sec) 
Heartbeat CPU  0 instructions:   66000000 cycles:   28600516 heartbeat IPC: 2.25190 cumulative IPC: 2.30765 (Simulation time: 0 hr 2 min 18 sec) 
Heartbeat CPU  0 instructions:   67000002 cycles:   29044677 heartbeat IPC: 2.25144 cumulative IPC: 2.30679 (Simulation time: 0 hr 2 min 20 sec) 
Heartbeat CPU  0 instructions:   68000000 cycles:   29488846 heartbeat IPC: 2.25139 cumulative IPC: 2.30596 (Simulation time: 0 hr 2 min 23 sec) 
Heartbeat CPU  0 instructions:   69000003 cycles:   29933045 heartbeat IPC: 2.25125 cumulative IPC: 2.30514 (Simulation time: 0 hr 2 min 25 sec) 
Heartbeat CPU  0 instructions:   70000003 cycles:   30377172 heartbeat IPC: 2.25161 cumulative IPC: 2.30436 (Simulation time: 0 hr 2 min 27 sec) 
Heartbeat CPU  0 instructions:   71000003 cycles:   30821436 heartbeat IPC: 2.25091 cumulative IPC: 2.30359 (Simulation time: 0 hr 2 min 29 sec) 
Heartbeat CPU  0 instructions:   72000000 cycles:   31265642 heartbeat IPC: 2.25120 cumulative IPC: 2.30285 (Simulation time: 0 hr 2 min 31 sec) 
Heartbeat CPU  0 instructions:   73000001 cycles:   31709813 heartbeat IPC: 2.25139 cumulative IPC: 2.30213 (Simulation time: 0 hr 2 min 33 sec) 
Heartbeat CPU  0 instructions:   74000002 cycles:   32153995 heartbeat IPC: 2.25133 cumulative IPC: 2.30142 (Simulation time: 0 hr 2 min 35 sec) 
Heartbeat CPU  0 instructions:   75000003 cycles:   32598126 heartbeat IPC: 2.25159 cumulative IPC: 2.30075 (Simulation time: 0 hr 2 min 38 sec) 
Heartbeat CPU  0 instructions:   76000000 cycles:   33042338 heartbeat IPC: 2.25117 cumulative IPC: 2.30008 (Simulation time: 0 hr 2 min 40 sec) 
Heartbeat CPU  0 instructions:   77000003 cycles:   33486549 heartbeat IPC: 2.25119 cumulative IPC: 2.29943 (Simulation time: 0 hr 2 min 42 sec) 
Heartbeat CPU  0 instructions:   78000000 cycles:   33930696 heartbeat IPC: 2.25150 cumulative IPC: 2.29880 (Simulation time: 0 hr 2 min 44 sec) 
Heartbeat CPU  0 instructions:   79000002 cycles:   34374895 heartbeat IPC: 2.25125 cumulative IPC: 2.29819 (Simulation time: 0 hr 2 min 46 sec) 
Heartbeat CPU  0 instructions:   80000000 cycles:   34819046 heartbeat IPC: 2.25148 cumulative IPC: 2.29759 (Simulation time: 0 hr 2 min 48 sec) 
Heartbeat CPU  0 instructions:   81000001 cycles:   35263260 heartbeat IPC: 2.25117 cumulative IPC: 2.29701 (Simulation time: 0 hr 2 min 51 sec) 
Heartbeat CPU  0 instructions:   82000003 cycles:   35707450 heartbeat IPC: 2.25129 cumulative IPC: 2.29644 (Simulation time: 0 hr 2 min 53 sec) 
Heartbeat CPU  0 instructions:   83000003 cycles:   36151633 heartbeat IPC: 2.25132 cumulative IPC: 2.29589 (Simulation time: 0 hr 2 min 55 sec) 
Heartbeat CPU  0 instructions:   84000000 cycles:   36595765 heartbeat IPC: 2.25158 cumulative IPC: 2.29535 (Simulation time: 0 hr 2 min 57 sec) 
Heartbeat CPU  0 instructions:   85000003 cycles:   37039969 heartbeat IPC: 2.25122 cumulative IPC: 2.29482 (Simulation time: 0 hr 2 min 59 sec) 
Heartbeat CPU  0 instructions:   86000002 cycles:   37484125 heartbeat IPC: 2.25146 cumulative IPC: 2.29430 (Simulation time: 0 hr 3 min 1 sec) 
Heartbeat CPU  0 instructions:   87000003 cycles:   37928287 heartbeat IPC: 2.25143 cumulative IPC: 2.29380 (Simulation time: 0 hr 3 min 3 sec) 
Heartbeat CPU  0 instructions:   88000000 cycles:   38372507 heartbeat IPC: 2.25113 cumulative IPC: 2.29331 (Simulation time: 0 hr 3 min 6 sec) 
Heartbeat CPU  0 instructions:   89000001 cycles:   38816832 heartbeat IPC: 2.25061 cumulative IPC: 2.29282 (Simulation time: 0 hr 3 min 8 sec) 
Heartbeat CPU  0 instructions:   90000000 cycles:   39260959 heartbeat IPC: 2.25161 cumulative IPC: 2.29235 (Simulation time: 0 hr 3 min 10 sec) 
Heartbeat CPU  0 instructions:   91000002 cycles:   39705215 heartbeat IPC: 2.25096 cumulative IPC: 2.29189 (Simulation time: 0 hr 3 min 12 sec) 
Heartbeat CPU  0 instructions:   92000000 cycles:   40149350 heartbeat IPC: 2.25156 cumulative IPC: 2.29144 (Simulation time: 0 hr 3 min 14 sec) 
Heartbeat CPU  0 instructions:   93000001 cycles:   40593572 heartbeat IPC: 2.25113 cumulative IPC: 2.29100 (Simulation time: 0 hr 3 min 16 sec) 
Heartbeat CPU  0 instructions:   94000003 cycles:   41032255 heartbeat IPC: 2.27955 cumulative IPC: 2.29088 (Simulation time: 0 hr 3 min 19 sec) 
Heartbeat CPU  0 instructions:   95000002 cycles:   41462110 heartbeat IPC: 2.32636 cumulative IPC: 2.29125 (Simulation time: 0 hr 3 min 21 sec) 
Heartbeat CPU  0 instructions:   96000000 cycles:   41891948 heartbeat IPC: 2.32645 cumulative IPC: 2.29161 (Simulation time: 0 hr 3 min 23 sec) 
Heartbeat CPU  0 instructions:   97000001 cycles:   42321813 heartbeat IPC: 2.32631 cumulative IPC: 2.29196 (Simulation time: 0 hr 3 min 25 sec) 
Heartbeat CPU  0 instructions:   98000000 cycles:   42751654 heartbeat IPC: 2.32644 cumulative IPC: 2.29231 (Simulation time: 0 hr 3 min 28 sec) 
Heartbeat CPU  0 instructions:   99000000 cycles:   43181517 heartbeat IPC: 2.32632 cumulative IPC: 2.29265 (Simulation time: 0 hr 3 min 30 sec) 
Heartbeat CPU  0 instructions:  100000000 cycles:   43611359 heartbeat IPC: 2.32644 cumulative IPC: 2.29298 (Simulation time: 0 hr 3 min 32 sec) 

Warmup complete CPU  0 instructions:  100000001 cycles:   43611360 (Simulation time: 0 hr 3 min 32 sec) 

Heartbeat CPU  0 instructions:  101000002 cycles:   44941648 heartbeat IPC: 0.75172 cumulative IPC: 0.75172 (Simulation time: 0 hr 3 min 35 sec) 
Heartbeat CPU  0 instructions:  102000001 cycles:   46581178 heartbeat IPC: 0.60993 cumulative IPC: 0.67344 (Simulation time: 0 hr 3 min 39 sec) 
Heartbeat CPU  0 instructions:  103000002 cycles:   48475093 heartbeat IPC: 0.52801 cumulative IPC: 0.61681 (Simulation time: 0 hr 3 min 42 sec) 
Heartbeat CPU  0 instructions:  104000000 cycles:   50523064 heartbeat IPC: 0.48829 cumulative IPC: 0.57873 (Simulation time: 0 hr 3 min 45 sec) 
Heartbeat CPU  0 instructions:  105000002 cycles:   52555920 heartbeat IPC: 0.49192 cumulative IPC: 0.55900 (Simulation time: 0 hr 3 min 48 sec) 
Heartbeat CPU  0 instructions:  106000000 cycles:   54588013 heartbeat IPC: 0.49210 cumulative IPC: 0.54661 (Simulation time: 0 hr 3 min 51 sec) 
Heartbeat CPU  0 instructions:  107000002 cycles:   56587181 heartbeat IPC: 0.50021 cumulative IPC: 0.53946 (Simulation time: 0 hr 3 min 54 sec) 
Heartbeat CPU  0 instructions:  108000000 cycles:   58571316 heartbeat IPC: 0.50400 cumulative IPC: 0.53476 (Simulation time: 0 hr 3 min 57 sec) 
Heartbeat CPU  0 instructions:  109000000 cycles:   60512256 heartbeat IPC: 0.51521 cumulative IPC: 0.53252 (Simulation time: 0 hr 4 min 0 sec) 
Heartbeat CPU  0 instructions:  110000001 cycles:   62440706 heartbeat IPC: 0.51855 cumulative IPC: 0.53109 (Simulation time: 0 hr 4 min 3 sec) 
Heartbeat CPU  0 instructions:  111000000 cycles:   64379503 heartbeat IPC: 0.51578 cumulative IPC: 0.52966 (Simulation time: 0 hr 4 min 6 sec) 
Heartbeat CPU  0 instructions:  112000000 cycles:   66336849 heartbeat IPC: 0.51090 cumulative IPC: 0.52804 (Simulation time: 0 hr 4 min 9 sec) 
Heartbeat CPU  0 instructions:  113000000 cycles:   68279703 heartbeat IPC: 0.51471 cumulative IPC: 0.52699 (Simulation time: 0 hr 4 min 12 sec) 
Heartbeat CPU  0 instructions:  114000000 cycles:   70222141 heartbeat IPC: 0.51482 cumulative IPC: 0.52610 (Simulation time: 0 hr 4 min 15 sec) 
Heartbeat CPU  0 instructions:  115000001 cycles:   72158004 heartbeat IPC: 0.51657 cumulative IPC: 0.52546 (Simulation time: 0 hr 4 min 18 sec) 
Heartbeat CPU  0 instructions:  116000000 cycles:   74107771 heartbeat IPC: 0.51288 cumulative IPC: 0.52465 (Simulation time: 0 hr 4 min 21 sec) 
Heartbeat CPU  0 instructions:  117000003 cycles:   76039649 heartbeat IPC: 0.51763 cumulative IPC: 0.52423 (Simulation time: 0 hr 4 min 24 sec) 
Heartbeat CPU  0 instructions:  118000001 cycles:   77999173 heartbeat IPC: 0.51033 cumulative IPC: 0.52344 (Simulation time: 0 hr 4 min 27 sec) 
Heartbeat CPU  0 instructions:  119000000 cycles:   79937182 heartbeat IPC: 0.51599 cumulative IPC: 0.52304 (Simulation time: 0 hr 4 min 30 sec) 
Heartbeat CPU  0 instructions:  120000000 cycles:   81889054 heartbeat IPC: 0.51233 cumulative IPC: 0.52250 (Simulation time: 0 hr 4 min 33 sec) 
Heartbeat CPU  0 instructions:  121000003 cycles:   83835653 heartbeat IPC: 0.51372 cumulative IPC: 0.52207 (Simulation time: 0 hr 4 min 36 sec) 
Heartbeat CPU  0 instructions:  122000001 cycles:   85777491 heartbeat IPC: 0.51498 cumulative IPC: 0.52175 (Simulation time: 0 hr 4 min 39 sec) 
Heartbeat CPU  0 instructions:  123000001 cycles:   87706869 heartbeat IPC: 0.51830 cumulative IPC: 0.52160 (Simulation time: 0 hr 4 min 42 sec) 
Heartbeat CPU  0 instructions:  124000000 cycles:   89651886 heartbeat IPC: 0.51413 cumulative IPC: 0.52128 (Simulation time: 0 hr 4 min 45 sec) 
Heartbeat CPU  0 instructions:  125000003 cycles:   91600424 heartbeat IPC: 0.51321 cumulative IPC: 0.52095 (Simulation time: 0 hr 4 min 48 sec) 
Heartbeat CPU  0 instructions:  126000001 cycles:   93555770 heartbeat IPC: 0.51142 cumulative IPC: 0.52058 (Simulation time: 0 hr 4 min 50 sec) 
Heartbeat CPU  0 instructions:  127000003 cycles:   95387217 heartbeat IPC: 0.54602 cumulative IPC: 0.52148 (Simulation time: 0 hr 4 min 54 sec) 
Heartbeat CPU  0 instructions:  128000000 cycles:   97071768 heartbeat IPC: 0.59363 cumulative IPC: 0.52375 (Simulation time: 0 hr 4 min 57 sec) 
Heartbeat CPU  0 instructions:  129000001 cycles:   99114789 heartbeat IPC: 0.48947 cumulative IPC: 0.52249 (Simulation time: 0 hr 5 min 0 sec) 
Heartbeat CPU  0 instructions:  130000001 cycles:  101181353 heartbeat IPC: 0.48390 cumulative IPC: 0.52110 (Simulation time: 0 hr 5 min 3 sec) 
Heartbeat CPU  0 instructions:  131000000 cycles:  103230116 heartbeat IPC: 0.48810 cumulative IPC: 0.51997 (Simulation time: 0 hr 5 min 6 sec) 
Heartbeat CPU  0 instructions:  132000000 cycles:  105274778 heartbeat IPC: 0.48908 cumulative IPC: 0.51895 (Simulation time: 0 hr 5 min 9 sec) 
Heartbeat CPU  0 instructions:  133000001 cycles:  107323110 heartbeat IPC: 0.48820 cumulative IPC: 0.51796 (Simulation time: 0 hr 5 min 12 sec) 
Heartbeat CPU  0 instructions:  134000002 cycles:  109343597 heartbeat IPC: 0.49493 cumulative IPC: 0.51725 (Simulation time: 0 hr 5 min 15 sec) 
Heartbeat CPU  0 instructions:  135000000 cycles:  111345249 heartbeat IPC: 0.49959 cumulative IPC: 0.51673 (Simulation time: 0 hr 5 min 19 sec) 
Heartbeat CPU  0 instructions:  136000000 cycles:  113366768 heartbeat IPC: 0.49468 cumulative IPC: 0.51609 (Simulation time: 0 hr 5 min 22 sec) 
Heartbeat CPU  0 instructions:  137000003 cycles:  115388760 heartbeat IPC: 0.49456 cumulative IPC: 0.51548 (Simulation time: 0 hr 5 min 25 sec) 
Heartbeat CPU  0 instructions:  138000002 cycles:  117408191 heartbeat IPC: 0.49519 cumulative IPC: 0.51493 (Simulation time: 0 hr 5 min 28 sec) 
Heartbeat CPU  0 instructions:  139000003 cycles:  119416785 heartbeat IPC: 0.49786 cumulative IPC: 0.51448 (Simulation time: 0 hr 5 min 31 sec) 
Heartbeat CPU  0 instructions:  140000000 cycles:  121433074 heartbeat IPC: 0.49596 cumulative IPC: 0.51400 (Simulation time: 0 hr 5 min 34 sec) 
Heartbeat CPU  0 instructions:  141000003 cycles:  123445455 heartbeat IPC: 0.49693 cumulative IPC: 0.51357 (Simulation time: 0 hr 5 min 37 sec) 
Heartbeat CPU  0 instructions:  142000002 cycles:  125456911 heartbeat IPC: 0.49715 cumulative IPC: 0.51316 (Simulation time: 0 hr 5 min 40 sec) 
Heartbeat CPU  0 instructions:  143000002 cycles:  127480410 heartbeat IPC: 0.49419 cumulative IPC: 0.51270 (Simulation time: 0 hr 5 min 43 sec) 
Heartbeat CPU  0 instructions:  144000000 cycles:  129496104 heartbeat IPC: 0.49611 cumulative IPC: 0.51231 (Simulation time: 0 hr 5 min 46 sec) 
Heartbeat CPU  0 instructions:  145000003 cycles:  131521562 heartbeat IPC: 0.49372 cumulative IPC: 0.51189 (Simulation time: 0 hr 5 min 49 sec) 
Heartbeat CPU  0 instructions:  146000001 cycles:  133532828 heartbeat IPC: 0.49720 cumulative IPC: 0.51156 (Simulation time: 0 hr 5 min 52 sec) 
Heartbeat CPU  0 instructions:  147000002 cycles:  135551774 heartbeat IPC: 0.49531 cumulative IPC: 0.51120 (Simulation time: 0 hr 5 min 55 sec) 
Heartbeat CPU  0 instructions:  148000000 cycles:  137562692 heartbeat IPC: 0.49728 cumulative IPC: 0.51090 (Simulation time: 0 hr 5 min 58 sec) 
Heartbeat CPU  0 instructions:  149000003 cycles:  139577292 heartbeat IPC: 0.49638 cumulative IPC: 0.51060 (Simulation time: 0 hr 6 min 1 sec) 
Heartbeat CPU  0 instructions:  150000002 cycles:  141598851 heartbeat IPC: 0.49467 cumulative IPC: 0.51027 (Simulation time: 0 hr 6 min 4 sec) 
Heartbeat CPU  0 instructions:  151000000 cycles:  143622130 heartbeat IPC: 0.49425 cumulative IPC: 0.50995 (Simulation time: 0 hr 6 min 7 sec) 
Heartbeat CPU  0 instructions:  152000000 cycles:  145622286 heartbeat IPC: 0.49996 cumulative IPC: 0.50975 (Simulation time: 0 hr 6 min 10 sec) 
Heartbeat CPU  0 instructions:  153000003 cycles:  147091189 heartbeat IPC: 0.68078 cumulative IPC: 0.51218 (Simulation time: 0 hr 6 min 13 sec) 
Heartbeat CPU  0 instructions:  154000003 cycles:  148466076 heartbeat IPC: 0.72733 cumulative IPC: 0.51500 (Simulation time: 0 hr 6 min 16 sec) 
Heartbeat CPU  0 instructions:  155000001 cycles:  149817851 heartbeat IPC: 0.73977 cumulative IPC: 0.51786 (Simulation time: 0 hr 6 min 19 sec) 
Heartbeat CPU  0 instructions:  156000000 cycles:  151165290 heartbeat IPC: 0.74215 cumulative IPC: 0.52067 (Simulation time: 0 hr 6 min 22 sec) 
Heartbeat CPU  0 instructions:  157000000 cycles:  152515817 heartbeat IPC: 0.74045 cumulative IPC: 0.52339 (Simulation time: 0 hr 6 min 25 sec) 
Heartbeat CPU  0 instructions:  158000003 cycles:  153851946 heartbeat IPC: 0.74843 cumulative IPC: 0.52612 (Simulation time: 0 hr 6 min 27 sec) 
Heartbeat CPU  0 instructions:  159000001 cycles:  155190445 heartbeat IPC: 0.74710 cumulative IPC: 0.52877 (Simulation time: 0 hr 6 min 30 sec) 
Heartbeat CPU  0 instructions:  160000000 cycles:  156523970 heartbeat IPC: 0.74989 cumulative IPC: 0.53138 (Simulation time: 0 hr 6 min 33 sec) 
Heartbeat CPU  0 instructions:  161000001 cycles:  157867786 heartbeat IPC: 0.74415 cumulative IPC: 0.53389 (Simulation time: 0 hr 6 min 36 sec) 
Heartbeat CPU  0 instructions:  162000000 cycles:  159215575 heartbeat IPC: 0.74196 cumulative IPC: 0.53631 (Simulation time: 0 hr 6 min 39 sec) 
Heartbeat CPU  0 instructions:  163000001 cycles:  160566851 heartbeat IPC: 0.74004 cumulative IPC: 0.53867 (Simulation time: 0 hr 6 min 42 sec) 
Heartbeat CPU  0 instructions:  164000000 cycles:  161936725 heartbeat IPC: 0.72999 cumulative IPC: 0.54088 (Simulation time: 0 hr 6 min 45 sec) 
Heartbeat CPU  0 instructions:  165000001 cycles:  163354622 heartbeat IPC: 0.70527 cumulative IPC: 0.54283 (Simulation time: 0 hr 6 min 48 sec) 
Heartbeat CPU  0 instructions:  166000003 cycles:  164772242 heartbeat IPC: 0.70541 cumulative IPC: 0.54473 (Simulation time: 0 hr 6 min 51 sec) 
Heartbeat CPU  0 instructions:  167000001 cycles:  166190037 heartbeat IPC: 0.70532 cumulative IPC: 0.54659 (Simulation time: 0 hr 6 min 54 sec) 
Heartbeat CPU  0 instructions:  168000000 cycles:  167600712 heartbeat IPC: 0.70888 cumulative IPC: 0.54843 (Simulation time: 0 hr 6 min 56 sec) 
Heartbeat CPU  0 instructions:  169000001 cycles:  169007977 heartbeat IPC: 0.71060 cumulative IPC: 0.55025 (Simulation time: 0 hr 6 min 59 sec) 
Heartbeat CPU  0 instructions:  170000001 cycles:  170435806 heartbeat IPC: 0.70036 cumulative IPC: 0.55194 (Simulation time: 0 hr 7 min 2 sec) 
Heartbeat CPU  0 instructions:  171000001 cycles:  171826352 heartbeat IPC: 0.71914 cumulative IPC: 0.55376 (Simulation time: 0 hr 7 min 5 sec) 
Heartbeat CPU  0 instructions:  172000000 cycles:  173236082 heartbeat IPC: 0.70935 cumulative IPC: 0.55545 (Simulation time: 0 hr 7 min 8 sec) 
Heartbeat CPU  0 instructions:  173000001 cycles:  174628337 heartbeat IPC: 0.71826 cumulative IPC: 0.55718 (Simulation time: 0 hr 7 min 11 sec) 
Heartbeat CPU  0 instructions:  174000001 cycles:  176023992 heartbeat IPC: 0.71651 cumulative IPC: 0.55886 (Simulation time: 0 hr 7 min 14 sec) 
Heartbeat CPU  0 instructions:  175000000 cycles:  177438636 heartbeat IPC: 0.70689 cumulative IPC: 0.56042 (Simulation time: 0 hr 7 min 17 sec) 
Heartbeat CPU  0 instructions:  176000000 cycles:  178851882 heartbeat IPC: 0.70759 cumulative IPC: 0.56196 (Simulation time: 0 hr 7 min 20 sec) 
Heartbeat CPU  0 instructions:  177000003 cycles:  180259091 heartbeat IPC: 0.71063 cumulative IPC: 0.56349 (Simulation time: 0 hr 7 min 23 sec) 
Heartbeat CPU  0 instructions:  178000000 cycles:  181668542 heartbeat IPC: 0.70949 cumulative IPC: 0.56498 (Simulation time: 0 hr 7 min 25 sec) 
Heartbeat CPU  0 instructions:  179000003 cycles:  183080075 heartbeat IPC: 0.70845 cumulative IPC: 0.56644 (Simulation time: 0 hr 7 min 28 sec) 
Heartbeat CPU  0 instructions:  180000000 cycles:  184485242 heartbeat IPC: 0.71166 cumulative IPC: 0.56788 (Simulation time: 0 hr 7 min 31 sec) 
Heartbeat CPU  0 instructions:  181000003 cycles:  185921021 heartbeat IPC: 0.69649 cumulative IPC: 0.56918 (Simulation time: 0 hr 7 min 34 sec) 
Heartbeat CPU  0 instructions:  182000002 cycles:  187323772 heartbeat IPC: 0.71288 cumulative IPC: 0.57058 (Simulation time: 0 hr 7 min 37 sec) 
Heartbeat CPU  0 instructions:  183000001 cycles:  188739498 heartbeat IPC: 0.70635 cumulative IPC: 0.57191 (Simulation time: 0 hr 7 min 40 sec) 
Heartbeat CPU  0 instructions:  184000000 cycles:  190144897 heartbeat IPC: 0.71154 cumulative IPC: 0.57325 (Simulation time: 0 hr 7 min 43 sec) 
Heartbeat CPU  0 instructions:  185000003 cycles:  191545343 heartbeat IPC: 0.71406 cumulative IPC: 0.57458 (Simulation time: 0 hr 7 min 46 sec) 
Heartbeat CPU  0 instructions:  186000003 cycles:  192951025 heartbeat IPC: 0.71140 cumulative IPC: 0.57587 (Simulation time: 0 hr 7 min 49 sec) 
Heartbeat CPU  0 instructions:  187000003 cycles:  194356925 heartbeat IPC: 0.71129 cumulative IPC: 0.57713 (Simulation time: 0 hr 7 min 52 sec) 
Heartbeat CPU  0 instructions:  188000000 cycles:  195758497 heartbeat IPC: 0.71348 cumulative IPC: 0.57839 (Simulation time: 0 hr 7 min 55 sec) 
Heartbeat CPU  0 instructions:  189000001 cycles:  197167192 heartbeat IPC: 0.70988 cumulative IPC: 0.57959 (Simulation time: 0 hr 7 min 57 sec) 
Heartbeat CPU  0 instructions:  190000000 cycles:  198556574 heartbeat IPC: 0.71974 cumulative IPC: 0.58085 (Simulation time: 0 hr 8 min 0 sec) 
Heartbeat CPU  0 instructions:  191000002 cycles:  199976339 heartbeat IPC: 0.70434 cumulative IPC: 0.58197 (Simulation time: 0 hr 8 min 3 sec) 
Heartbeat CPU  0 instructions:  192000000 cycles:  201384658 heartbeat IPC: 0.71007 cumulative IPC: 0.58312 (Simulation time: 0 hr 8 min 6 sec) 
Heartbeat CPU  0 instructions:  193000001 cycles:  202781447 heartbeat IPC: 0.71593 cumulative IPC: 0.58428 (Simulation time: 0 hr 8 min 9 sec) 
Heartbeat CPU  0 instructions:  194000001 cycles:  204170251 heartbeat IPC: 0.72004 cumulative IPC: 0.58545 (Simulation time: 0 hr 8 min 12 sec) 
Heartbeat CPU  0 instructions:  195000003 cycles:  205555989 heartbeat IPC: 0.72164 cumulative IPC: 0.58662 (Simulation time: 0 hr 8 min 15 sec) 
Heartbeat CPU  0 instructions:  196000000 cycles:  206976880 heartbeat IPC: 0.70378 cumulative IPC: 0.58764 (Simulation time: 0 hr 8 min 18 sec) 
Heartbeat CPU  0 instructions:  197000002 cycles:  208394836 heartbeat IPC: 0.70524 cumulative IPC: 0.58865 (Simulation time: 0 hr 8 min 21 sec) 
Heartbeat CPU  0 instructions:  198000000 cycles:  209799857 heartbeat IPC: 0.71173 cumulative IPC: 0.58969 (Simulation time: 0 hr 8 min 24 sec) 
Heartbeat CPU  0 instructions:  199000003 cycles:  211228371 heartbeat IPC: 0.70003 cumulative IPC: 0.59063 (Simulation time: 0 hr 8 min 27 sec) 
Heartbeat CPU  0 instructions:  200000000 cycles:  212643146 heartbeat IPC: 0.70682 cumulative IPC: 0.59160 (Simulation time: 0 hr 8 min 30 sec) 
Heartbeat CPU  0 instructions:  201000001 cycles:  214041837 heartbeat IPC: 0.71495 cumulative IPC: 0.59262 (Simulation time: 0 hr 8 min 33 sec) 
Heartbeat CPU  0 instructions:  202000000 cycles:  215447314 heartbeat IPC: 0.71150 cumulative IPC: 0.59359 (Simulation time: 0 hr 8 min 36 sec) 
Heartbeat CPU  0 instructions:  203000000 cycles:  216868169 heartbeat IPC: 0.70380 cumulative IPC: 0.59449 (Simulation time: 0 hr 8 min 38 sec) 
Heartbeat CPU  0 instructions:  204000000 cycles:  218284547 heartbeat IPC: 0.70603 cumulative IPC: 0.59540 (Simulation time: 0 hr 8 min 41 sec) 
Heartbeat CPU  0 instructions:  205000001 cycles:  219696059 heartbeat IPC: 0.70846 cumulative IPC: 0.59630 (Simulation time: 0 hr 8 min 44 sec) 
Heartbeat CPU  0 instructions:  206000001 cycles:  221096652 heartbeat IPC: 0.71398 cumulative IPC: 0.59723 (Simulation time: 0 hr 8 min 47 sec) 
Heartbeat CPU  0 instructions:  207000003 cycles:  222487771 heartbeat IPC: 0.71885 cumulative IPC: 0.59818 (Simulation time: 0 hr 8 min 50 sec) 
Heartbeat CPU  0 instructions:  208000000 cycles:  223876385 heartbeat IPC: 0.72014 cumulative IPC: 0.59912 (Simulation time: 0 hr 8 min 53 sec) 
Heartbeat CPU  0 instructions:  209000000 cycles:  225280378 heartbeat IPC: 0.71225 cumulative IPC: 0.59999 (Simulation time: 0 hr 8 min 56 sec) 
Heartbeat CPU  0 instructions:  210000002 cycles:  226692333 heartbeat IPC: 0.70824 cumulative IPC: 0.60083 (Simulation time: 0 hr 8 min 59 sec) 
Heartbeat CPU  0 instructions:  211000003 cycles:  228095951 heartbeat IPC: 0.71245 cumulative IPC: 0.60168 (Simulation time: 0 hr 9 min 2 sec) 
Heartbeat CPU  0 instructions:  212000000 cycles:  229487658 heartbeat IPC: 0.71854 cumulative IPC: 0.60255 (Simulation time: 0 hr 9 min 5 sec) 
Heartbeat CPU  0 instructions:  213000003 cycles:  230876456 heartbeat IPC: 0.72005 cumulative IPC: 0.60342 (Simulation time: 0 hr 9 min 8 sec) 
Heartbeat CPU  0 instructions:  214000000 cycles:  232276263 heartbeat IPC: 0.71438 cumulative IPC: 0.60425 (Simulation time: 0 hr 9 min 10 sec) 
Heartbeat CPU  0 instructions:  215000001 cycles:  233673038 heartbeat IPC: 0.71594 cumulative IPC: 0.60507 (Simulation time: 0 hr 9 min 13 sec) 
Heartbeat CPU  0 instructions:  216000000 cycles:  235088722 heartbeat IPC: 0.70637 cumulative IPC: 0.60582 (Simulation time: 0 hr 9 min 16 sec) 
Heartbeat CPU  0 instructions:  217000001 cycles:  236510684 heartbeat IPC: 0.70325 cumulative IPC: 0.60653 (Simulation time: 0 hr 9 min 19 sec) 
Heartbeat CPU  0 instructions:  218000002 cycles:  237914418 heartbeat IPC: 0.71239 cumulative IPC: 0.60730 (Simulation time: 0 hr 9 min 22 sec) 
Heartbeat CPU  0 instructions:  219000001 cycles:  239327365 heartbeat IPC: 0.70774 cumulative IPC: 0.60802 (Simulation time: 0 hr 9 min 25 sec) 
Heartbeat CPU  0 instructions:  220000000 cycles:  240732565 heartbeat IPC: 0.71164 cumulative IPC: 0.60876 (Simulation time: 0 hr 9 min 28 sec) 
Heartbeat CPU  0 instructions:  221000000 cycles:  242133931 heartbeat IPC: 0.71359 cumulative IPC: 0.60950 (Simulation time: 0 hr 9 min 31 sec) 
Heartbeat CPU  0 instructions:  222000000 cycles:  243874736 heartbeat IPC: 0.57445 cumulative IPC: 0.60920 (Simulation time: 0 hr 9 min 34 sec) 
Heartbeat CPU  0 instructions:  223000000 cycles:  248374307 heartbeat IPC: 0.22224 cumulative IPC: 0.60069 (Simulation time: 0 hr 9 min 41 sec) 
Heartbeat CPU  0 instructions:  224000000 cycles:  250700998 heartbeat IPC: 0.42979 cumulative IPC: 0.59877 (Simulation time: 0 hr 9 min 44 sec) 
Heartbeat CPU  0 instructions:  225000002 cycles:  252804630 heartbeat IPC: 0.47537 cumulative IPC: 0.59753 (Simulation time: 0 hr 9 min 47 sec) 
Heartbeat CPU  0 instructions:  226000001 cycles:  254905616 heartbeat IPC: 0.47597 cumulative IPC: 0.59632 (Simulation time: 0 hr 9 min 50 sec) 
Heartbeat CPU  0 instructions:  227000000 cycles:  256970711 heartbeat IPC: 0.48424 cumulative IPC: 0.59524 (Simulation time: 0 hr 9 min 53 sec) 
Heartbeat CPU  0 instructions:  228000000 cycles:  259033634 heartbeat IPC: 0.48475 cumulative IPC: 0.59418 (Simulation time: 0 hr 9 min 56 sec) 
Heartbeat CPU  0 instructions:  229000002 cycles:  261080545 heartbeat IPC: 0.48854 cumulative IPC: 0.59319 (Simulation time: 0 hr 9 min 59 sec) 
Heartbeat CPU  0 instructions:  230000000 cycles:  263111506 heartbeat IPC: 0.49238 cumulative IPC: 0.59225 (Simulation time: 0 hr 10 min 2 sec) 
Heartbeat CPU  0 instructions:  231000003 cycles:  265147698 heartbeat IPC: 0.49111 cumulative IPC: 0.59133 (Simulation time: 0 hr 10 min 5 sec) 
Heartbeat CPU  0 instructions:  232000000 cycles:  267192023 heartbeat IPC: 0.48916 cumulative IPC: 0.59039 (Simulation time: 0 hr 10 min 8 sec) 
Heartbeat CPU  0 instructions:  233000002 cycles:  269248818 heartbeat IPC: 0.48619 cumulative IPC: 0.58944 (Simulation time: 0 hr 10 min 11 sec) 
Heartbeat CPU  0 instructions:  234000001 cycles:  271292864 heartbeat IPC: 0.48923 cumulative IPC: 0.58854 (Simulation time: 0 hr 10 min 14 sec) 
Heartbeat CPU  0 instructions:  235000000 cycles:  273329345 heartbeat IPC: 0.49104 cumulative IPC: 0.58768 (Simulation time: 0 hr 10 min 17 sec) 
Heartbeat CPU  0 instructions:  236000000 cycles:  275367268 heartbeat IPC: 0.49070 cumulative IPC: 0.58682 (Simulation time: 0 hr 10 min 20 sec) 
Heartbeat CPU  0 instructions:  237000002 cycles:  277407962 heartbeat IPC: 0.49003 cumulative IPC: 0.58598 (Simulation time: 0 hr 10 min 23 sec) 
Heartbeat CPU  0 instructions:  238000001 cycles:  279457135 heartbeat IPC: 0.48800 cumulative IPC: 0.58513 (Simulation time: 0 hr 10 min 26 sec) 
Heartbeat CPU  0 instructions:  239000000 cycles:  281505312 heartbeat IPC: 0.48824 cumulative IPC: 0.58429 (Simulation time: 0 hr 10 min 29 sec) 
Heartbeat CPU  0 instructions:  240000000 cycles:  283546990 heartbeat IPC: 0.48979 cumulative IPC: 0.58349 (Simulation time: 0 hr 10 min 32 sec) 
Heartbeat CPU  0 instructions:  241000001 cycles:  285592625 heartbeat IPC: 0.48885 cumulative IPC: 0.58269 (Simulation time: 0 hr 10 min 35 sec) 
Heartbeat CPU  0 instructions:  242000001 cycles:  287635521 heartbeat IPC: 0.48950 cumulative IPC: 0.58191 (Simulation time: 0 hr 10 min 38 sec) 
Heartbeat CPU  0 instructions:  243000003 cycles:  289682035 heartbeat IPC: 0.48864 cumulative IPC: 0.58113 (Simulation time: 0 hr 10 min 41 sec) 
Heartbeat CPU  0 instructions:  244000000 cycles:  291728821 heartbeat IPC: 0.48857 cumulative IPC: 0.58037 (Simulation time: 0 hr 10 min 44 sec) 
Heartbeat CPU  0 instructions:  245000002 cycles:  293768264 heartbeat IPC: 0.49033 cumulative IPC: 0.57964 (Simulation time: 0 hr 10 min 47 sec) 
Heartbeat CPU  0 instructions:  246000000 cycles:  295764099 heartbeat IPC: 0.50104 cumulative IPC: 0.57901 (Simulation time: 0 hr 10 min 50 sec) 
Heartbeat CPU  0 instructions:  247000000 cycles:  297450749 heartbeat IPC: 0.59289 cumulative IPC: 0.57911 (Simulation time: 0 hr 10 min 53 sec) 
Heartbeat CPU  0 instructions:  248000000 cycles:  299470628 heartbeat IPC: 0.49508 cumulative IPC: 0.57844 (Simulation time: 0 hr 10 min 57 sec) 
Heartbeat CPU  0 instructions:  249000003 cycles:  302452635 heartbeat IPC: 0.33535 cumulative IPC: 0.57564 (Simulation time: 0 hr 11 min 2 sec) 
Heartbeat CPU  0 instructions:  250000001 cycles:  305673597 heartbeat IPC: 0.31047 cumulative IPC: 0.57238 (Simulation time: 0 hr 11 min 7 sec) 
Heartbeat CPU  0 instructions:  251000000 cycles:  308381130 heartbeat IPC: 0.36934 cumulative IPC: 0.57031 (Simulation time: 0 hr 11 min 11 sec) 
Heartbeat CPU  0 instructions:  252000000 cycles:  310063667 heartbeat IPC: 0.59434 cumulative IPC: 0.57046 (Simulation time: 0 hr 11 min 14 sec) 
Heartbeat CPU  0 instructions:  253000001 cycles:  312165322 heartbeat IPC: 0.47582 cumulative IPC: 0.56972 (Simulation time: 0 hr 11 min 18 sec) 
Heartbeat CPU  0 instructions:  254000000 cycles:  314250480 heartbeat IPC: 0.47958 cumulative IPC: 0.56902 (Simulation time: 0 hr 11 min 21 sec) 
Heartbeat CPU  0 instructions:  255000001 cycles:  316316844 heartbeat IPC: 0.48394 cumulative IPC: 0.56838 (Simulation time: 0 hr 11 min 24 sec) 
Heartbeat CPU  0 instructions:  256000000 cycles:  318370354 heartbeat IPC: 0.48697 cumulative IPC: 0.56777 (Simulation time: 0 hr 11 min 27 sec) 
Heartbeat CPU  0 instructions:  257000000 cycles:  320421919 heartbeat IPC: 0.48743 cumulative IPC: 0.56717 (Simulation time: 0 hr 11 min 30 sec) 
Heartbeat CPU  0 instructions:  258000003 cycles:  322410098 heartbeat IPC: 0.50297 cumulative IPC: 0.56672 (Simulation time: 0 hr 11 min 33 sec) 
Heartbeat CPU  0 instructions:  259000000 cycles:  324361397 heartbeat IPC: 0.51248 cumulative IPC: 0.56634 (Simulation time: 0 hr 11 min 36 sec) 
Heartbeat CPU  0 instructions:  260000000 cycles:  326336097 heartbeat IPC: 0.50641 cumulative IPC: 0.56592 (Simulation time: 0 hr 11 min 39 sec) 
Heartbeat CPU  0 instructions:  261000002 cycles:  328323886 heartbeat IPC: 0.50307 cumulative IPC: 0.56548 (Simulation time: 0 hr 11 min 42 sec) 
Heartbeat CPU  0 instructions:  262000001 cycles:  330326047 heartbeat IPC: 0.49946 cumulative IPC: 0.56502 (Simulation time: 0 hr 11 min 45 sec) 
Heartbeat CPU  0 instructions:  263000000 cycles:  332296899 heartbeat IPC: 0.50739 cumulative IPC: 0.56463 (Simulation time: 0 hr 11 min 48 sec) 
Heartbeat CPU  0 instructions:  264000000 cycles:  334275794 heartbeat IPC: 0.50533 cumulative IPC: 0.56422 (Simulation time: 0 hr 11 min 51 sec) 
Heartbeat CPU  0 instructions:  265000002 cycles:  336239275 heartbeat IPC: 0.50930 cumulative IPC: 0.56386 (Simulation time: 0 hr 11 min 54 sec) 
Heartbeat CPU  0 instructions:  266000003 cycles:  338228400 heartbeat IPC: 0.50273 cumulative IPC: 0.56344 (Simulation time: 0 hr 11 min 57 sec) 
Heartbeat CPU  0 instructions:  267000000 cycles:  340211795 heartbeat IPC: 0.50418 cumulative IPC: 0.56305 (Simulation time: 0 hr 12 min 0 sec) 
Heartbeat CPU  0 instructions:  268000000 cycles:  342190459 heartbeat IPC: 0.50539 cumulative IPC: 0.56266 (Simulation time: 0 hr 12 min 3 sec) 
Heartbeat CPU  0 instructions:  269000002 cycles:  344171047 heartbeat IPC: 0.50490 cumulative IPC: 0.56228 (Simulation time: 0 hr 12 min 6 sec) 
Heartbeat CPU  0 instructions:  270000000 cycles:  346154718 heartbeat IPC: 0.50411 cumulative IPC: 0.56190 (Simulation time: 0 hr 12 min 9 sec) 
Heartbeat CPU  0 instructions:  271000001 cycles:  348134265 heartbeat IPC: 0.50517 cumulative IPC: 0.56153 (Simulation time: 0 hr 12 min 12 sec) 
Heartbeat CPU  0 instructions:  272000000 cycles:  350118037 heartbeat IPC: 0.50409 cumulative IPC: 0.56116 (Simulation time: 0 hr 12 min 15 sec) 
Heartbeat CPU  0 instructions:  273000003 cycles:  352095204 heartbeat IPC: 0.50578 cumulative IPC: 0.56081 (Simulation time: 0 hr 12 min 18 sec) 
Heartbeat CPU  0 instructions:  274000003 cycles:  354057665 heartbeat IPC: 0.50956 cumulative IPC: 0.56048 (Simulation time: 0 hr 12 min 21 sec) 
Heartbeat CPU  0 instructions:  275000000 cycles:  356035602 heartbeat IPC: 0.50558 cumulative IPC: 0.56014 (Simulation time: 0 hr 12 min 24 sec) 
Heartbeat CPU  0 instructions:  276000000 cycles:  358018207 heartbeat IPC: 0.50439 cumulative IPC: 0.55978 (Simulation time: 0 hr 12 min 27 sec) 
Heartbeat CPU  0 instructions:  277000002 cycles:  359651580 heartbeat IPC: 0.61223 cumulative IPC: 0.56006 (Simulation time: 0 hr 12 min 30 sec) 
Heartbeat CPU  0 instructions:  278000000 cycles:  361190601 heartbeat IPC: 0.64976 cumulative IPC: 0.56049 (Simulation time: 0 hr 12 min 33 sec) 
Heartbeat CPU  0 instructions:  279000003 cycles:  362707824 heartbeat IPC: 0.65910 cumulative IPC: 0.56096 (Simulation time: 0 hr 12 min 36 sec) 
Heartbeat CPU  0 instructions:  280000000 cycles:  364327620 heartbeat IPC: 0.61736 cumulative IPC: 0.56124 (Simulation time: 0 hr 12 min 39 sec) 
Heartbeat CPU  0 instructions:  281000001 cycles:  365834634 heartbeat IPC: 0.66356 cumulative IPC: 0.56172 (Simulation time: 0 hr 12 min 42 sec) 
Heartbeat CPU  0 instructions:  282000003 cycles:  367338449 heartbeat IPC: 0.66498 cumulative IPC: 0.56220 (Simulation time: 0 hr 12 min 45 sec) 
Heartbeat CPU  0 instructions:  283000001 cycles:  368831527 heartbeat IPC: 0.66976 cumulative IPC: 0.56270 (Simulation time: 0 hr 12 min 48 sec) 
Heartbeat CPU  0 instructions:  284000000 cycles:  370329869 heartbeat IPC: 0.66740 cumulative IPC: 0.56318 (Simulation time: 0 hr 12 min 51 sec) 
Heartbeat CPU  0 instructions:  285000001 cycles:  371831854 heartbeat IPC: 0.66579 cumulative IPC: 0.56365 (Simulation time: 0 hr 12 min 54 sec) 
Heartbeat CPU  0 instructions:  286000001 cycles:  373330428 heartbeat IPC: 0.66730 cumulative IPC: 0.56412 (Simulation time: 0 hr 12 min 57 sec) 
Heartbeat CPU  0 instructions:  287000001 cycles:  374830927 heartbeat IPC: 0.66644 cumulative IPC: 0.56458 (Simulation time: 0 hr 12 min 59 sec) 
Heartbeat CPU  0 instructions:  288000000 cycles:  376313368 heartbeat IPC: 0.67456 cumulative IPC: 0.56507 (Simulation time: 0 hr 13 min 2 sec) 
Heartbeat CPU  0 instructions:  289000001 cycles:  377891068 heartbeat IPC: 0.63383 cumulative IPC: 0.56539 (Simulation time: 0 hr 13 min 5 sec) 
Heartbeat CPU  0 instructions:  290000001 cycles:  379770309 heartbeat IPC: 0.53213 cumulative IPC: 0.56521 (Simulation time: 0 hr 13 min 8 sec) 
Heartbeat CPU  0 instructions:  291000003 cycles:  381653762 heartbeat IPC: 0.53094 cumulative IPC: 0.56502 (Simulation time: 0 hr 13 min 12 sec) 
Heartbeat CPU  0 instructions:  292000000 cycles:  383545127 heartbeat IPC: 0.52872 cumulative IPC: 0.56482 (Simulation time: 0 hr 13 min 15 sec) 
Heartbeat CPU  0 instructions:  293000001 cycles:  385176831 heartbeat IPC: 0.61286 cumulative IPC: 0.56505 (Simulation time: 0 hr 13 min 18 sec) 
Heartbeat CPU  0 instructions:  294000000 cycles:  386666261 heartbeat IPC: 0.67140 cumulative IPC: 0.56551 (Simulation time: 0 hr 13 min 21 sec) 
Heartbeat CPU  0 instructions:  295000003 cycles:  388153291 heartbeat IPC: 0.67248 cumulative IPC: 0.56597 (Simulation time: 0 hr 13 min 24 sec) 
Heartbeat CPU  0 instructions:  296000000 cycles:  389651602 heartbeat IPC: 0.66742 cumulative IPC: 0.56641 (Simulation time: 0 hr 13 min 27 sec) 
Heartbeat CPU  0 instructions:  297000003 cycles:  391128464 heartbeat IPC: 0.67711 cumulative IPC: 0.56688 (Simulation time: 0 hr 13 min 30 sec) 
Heartbeat CPU  0 instructions:  298000000 cycles:  392625464 heartbeat IPC: 0.66800 cumulative IPC: 0.56731 (Simulation time: 0 hr 13 min 33 sec) 
Heartbeat CPU  0 instructions:  299000001 cycles:  394118148 heartbeat IPC: 0.66993 cumulative IPC: 0.56775 (Simulation time: 0 hr 13 min 35 sec) 
Heartbeat CPU  0 instructions:  300000000 cycles:  395600899 heartbeat IPC: 0.67442 cumulative IPC: 0.56820 (Simulation time: 0 hr 13 min 38 sec) 
Heartbeat CPU  0 instructions:  301000003 cycles:  397098186 heartbeat IPC: 0.66788 cumulative IPC: 0.56862 (Simulation time: 0 hr 13 min 41 sec) 
Heartbeat CPU  0 instructions:  302000003 cycles:  398590107 heartbeat IPC: 0.67028 cumulative IPC: 0.56905 (Simulation time: 0 hr 13 min 44 sec) 
Heartbeat CPU  0 instructions:  303000001 cycles:  400081820 heartbeat IPC: 0.67037 cumulative IPC: 0.56947 (Simulation time: 0 hr 13 min 47 sec) 
Heartbeat CPU  0 instructions:  304000000 cycles:  401572565 heartbeat IPC: 0.67080 cumulative IPC: 0.56989 (Simulation time: 0 hr 13 min 50 sec) 
Heartbeat CPU  0 instructions:  305000000 cycles:  403070878 heartbeat IPC: 0.66742 cumulative IPC: 0.57030 (Simulation time: 0 hr 13 min 53 sec) 
Heartbeat CPU  0 instructions:  306000001 cycles:  404572240 heartbeat IPC: 0.66606 cumulative IPC: 0.57070 (Simulation time: 0 hr 13 min 56 sec) 
Heartbeat CPU  0 instructions:  307000003 cycles:  406069007 heartbeat IPC: 0.66811 cumulative IPC: 0.57110 (Simulation time: 0 hr 13 min 59 sec) 
Heartbeat CPU  0 instructions:  308000000 cycles:  407567139 heartbeat IPC: 0.66750 cumulative IPC: 0.57150 (Simulation time: 0 hr 14 min 2 sec) 
Heartbeat CPU  0 instructions:  309000003 cycles:  409064729 heartbeat IPC: 0.66774 cumulative IPC: 0.57189 (Simulation time: 0 hr 14 min 5 sec) 
Heartbeat CPU  0 instructions:  310000003 cycles:  410540508 heartbeat IPC: 0.67761 cumulative IPC: 0.57232 (Simulation time: 0 hr 14 min 8 sec) 
Heartbeat CPU  0 instructions:  311000001 cycles:  412028223 heartbeat IPC: 0.67217 cumulative IPC: 0.57272 (Simulation time: 0 hr 14 min 11 sec) 
Heartbeat CPU  0 instructions:  312000000 cycles:  413526828 heartbeat IPC: 0.66729 cumulative IPC: 0.57310 (Simulation time: 0 hr 14 min 14 sec) 
Heartbeat CPU  0 instructions:  313000000 cycles:  415007395 heartbeat IPC: 0.67542 cumulative IPC: 0.57351 (Simulation time: 0 hr 14 min 17 sec) 
Heartbeat CPU  0 instructions:  314000002 cycles:  416517975 heartbeat IPC: 0.66200 cumulative IPC: 0.57387 (Simulation time: 0 hr 14 min 20 sec) 
Heartbeat CPU  0 instructions:  315000002 cycles:  418023068 heartbeat IPC: 0.66441 cumulative IPC: 0.57423 (Simulation time: 0 hr 14 min 23 sec) 
Heartbeat CPU  0 instructions:  316000000 cycles:  419517802 heartbeat IPC: 0.66901 cumulative IPC: 0.57461 (Simulation time: 0 hr 14 min 26 sec) 
Heartbeat CPU  0 instructions:  317000002 cycles:  420998925 heartbeat IPC: 0.67516 cumulative IPC: 0.57501 (Simulation time: 0 hr 14 min 29 sec) 
Heartbeat CPU  0 instructions:  318000003 cycles:  422488901 heartbeat IPC: 0.67115 cumulative IPC: 0.57538 (Simulation time: 0 hr 14 min 32 sec) 
Heartbeat CPU  0 instructions:  319000002 cycles:  423996617 heartbeat IPC: 0.66325 cumulative IPC: 0.57573 (Simulation time: 0 hr 14 min 35 sec) 
Heartbeat CPU  0 instructions:  320000000 cycles:  425519092 heartbeat IPC: 0.65682 cumulative IPC: 0.57606 (Simulation time: 0 hr 14 min 38 sec) 
Heartbeat CPU  0 instructions:  321000000 cycles:  427009792 heartbeat IPC: 0.67083 cumulative IPC: 0.57642 (Simulation time: 0 hr 14 min 41 sec) 
Heartbeat CPU  0 instructions:  322000002 cycles:  428556238 heartbeat IPC: 0.64665 cumulative IPC: 0.57671 (Simulation time: 0 hr 14 min 44 sec) 
Heartbeat CPU  0 instructions:  323000001 cycles:  430068121 heartbeat IPC: 0.66143 cumulative IPC: 0.57704 (Simulation time: 0 hr 14 min 47 sec) 
Heartbeat CPU  0 instructions:  324000000 cycles:  431596952 heartbeat IPC: 0.65409 cumulative IPC: 0.57734 (Simulation time: 0 hr 14 min 50 sec) 
Heartbeat CPU  0 instructions:  325000002 cycles:  433091100 heartbeat IPC: 0.66928 cumulative IPC: 0.57769 (Simulation time: 0 hr 14 min 53 sec) 
Heartbeat CPU  0 instructions:  326000002 cycles:  434566161 heartbeat IPC: 0.67794 cumulative IPC: 0.57807 (Simulation time: 0 hr 14 min 56 sec) 
Heartbeat CPU  0 instructions:  327000002 cycles:  436064638 heartbeat IPC: 0.66734 cumulative IPC: 0.57841 (Simulation time: 0 hr 14 min 59 sec) 
Heartbeat CPU  0 instructions:  328000000 cycles:  437546766 heartbeat IPC: 0.67470 cumulative IPC: 0.57878 (Simulation time: 0 hr 15 min 2 sec) 
Heartbeat CPU  0 instructions:  329000002 cycles:  439033368 heartbeat IPC: 0.67268 cumulative IPC: 0.57913 (Simulation time: 0 hr 15 min 5 sec) 
Heartbeat CPU  0 instructions:  330000003 cycles:  440523090 heartbeat IPC: 0.67127 cumulative IPC: 0.57947 (Simulation time: 0 hr 15 min 8 sec) 
Heartbeat CPU  0 instructions:  331000001 cycles:  442011383 heartbeat IPC: 0.67191 cumulative IPC: 0.57982 (Simulation time: 0 hr 15 min 10 sec) 
Heartbeat CPU  0 instructions:  332000000 cycles:  443506829 heartbeat IPC: 0.66870 cumulative IPC: 0.58015 (Simulation time: 0 hr 15 min 13 sec) 
Heartbeat CPU  0 instructions:  333000000 cycles:  444996616 heartbeat IPC: 0.67124 cumulative IPC: 0.58049 (Simulation time: 0 hr 15 min 16 sec) 
Heartbeat CPU  0 instructions:  334000002 cycles:  446477509 heartbeat IPC: 0.67527 cumulative IPC: 0.58084 (Simulation time: 0 hr 15 min 19 sec) 
Heartbeat CPU  0 instructions:  335000002 cycles:  447975964 heartbeat IPC: 0.66735 cumulative IPC: 0.58116 (Simulation time: 0 hr 15 min 22 sec) 
Heartbeat CPU  0 instructions:  336000000 cycles:  449473385 heartbeat IPC: 0.66781 cumulative IPC: 0.58148 (Simulation time: 0 hr 15 min 25 sec) 
Heartbeat CPU  0 instructions:  337000003 cycles:  450982654 heartbeat IPC: 0.66257 cumulative IPC: 0.58178 (Simulation time: 0 hr 15 min 28 sec) 
Heartbeat CPU  0 instructions:  338000000 cycles:  452484892 heartbeat IPC: 0.66567 cumulative IPC: 0.58209 (Simulation time: 0 hr 15 min 31 sec) 
Heartbeat CPU  0 instructions:  339000002 cycles:  453974629 heartbeat IPC: 0.67126 cumulative IPC: 0.58241 (Simulation time: 0 hr 15 min 34 sec) 
Heartbeat CPU  0 instructions:  340000000 cycles:  455461211 heartbeat IPC: 0.67268 cumulative IPC: 0.58274 (Simulation time: 0 hr 15 min 37 sec) 
Heartbeat CPU  0 instructions:  341000003 cycles:  456926913 heartbeat IPC: 0.68227 cumulative IPC: 0.58309 (Simulation time: 0 hr 15 min 40 sec) 
Heartbeat CPU  0 instructions:  342000003 cycles:  458426603 heartbeat IPC: 0.66680 cumulative IPC: 0.58339 (Simulation time: 0 hr 15 min 43 sec) 
Heartbeat CPU  0 instructions:  343000001 cycles:  459930567 heartbeat IPC: 0.66491 cumulative IPC: 0.58369 (Simulation time: 0 hr 15 min 46 sec) 
Heartbeat CPU  0 instructions:  344000000 cycles:  461401982 heartbeat IPC: 0.67962 cumulative IPC: 0.58402 (Simulation time: 0 hr 15 min 49 sec) 
Heartbeat CPU  0 instructions:  345000002 cycles:  462892488 heartbeat IPC: 0.67091 cumulative IPC: 0.58433 (Simulation time: 0 hr 15 min 52 sec) 
Heartbeat CPU  0 instructions:  346000001 cycles:  464417866 heartbeat IPC: 0.65557 cumulative IPC: 0.58459 (Simulation time: 0 hr 15 min 55 sec) 
Heartbeat CPU  0 instructions:  347000000 cycles:  466088176 heartbeat IPC: 0.59869 cumulative IPC: 0.58465 (Simulation time: 0 hr 15 min 58 sec) 
Heartbeat CPU  0 instructions:  348000000 cycles:  467989712 heartbeat IPC: 0.52589 cumulative IPC: 0.58438 (Simulation time: 0 hr 16 min 1 sec) 
Heartbeat CPU  0 instructions:  349000002 cycles:  469962635 heartbeat IPC: 0.50686 cumulative IPC: 0.58403 (Simulation time: 0 hr 16 min 4 sec) 
Heartbeat CPU  0 instructions:  350000000 cycles:  471904875 heartbeat IPC: 0.51487 cumulative IPC: 0.58371 (Simulation time: 0 hr 16 min 7 sec) 
Heartbeat CPU  0 instructions:  351000000 cycles:  473841394 heartbeat IPC: 0.51639 cumulative IPC: 0.58341 (Simulation time: 0 hr 16 min 10 sec) 
Heartbeat CPU  0 instructions:  352000000 cycles:  475777157 heartbeat IPC: 0.51659 cumulative IPC: 0.58311 (Simulation time: 0 hr 16 min 13 sec) 
Heartbeat CPU  0 instructions:  353000000 cycles:  477684334 heartbeat IPC: 0.52434 cumulative IPC: 0.58285 (Simulation time: 0 hr 16 min 16 sec) 
Heartbeat CPU  0 instructions:  354000001 cycles:  479571869 heartbeat IPC: 0.52979 cumulative IPC: 0.58262 (Simulation time: 0 hr 16 min 19 sec) 
Heartbeat CPU  0 instructions:  355000000 cycles:  481478224 heartbeat IPC: 0.52456 cumulative IPC: 0.58237 (Simulation time: 0 hr 16 min 22 sec) 
Heartbeat CPU  0 instructions:  356000000 cycles:  483398923 heartbeat IPC: 0.52064 cumulative IPC: 0.58210 (Simulation time: 0 hr 16 min 25 sec) 
Heartbeat CPU  0 instructions:  357000002 cycles:  485329645 heartbeat IPC: 0.51794 cumulative IPC: 0.58182 (Simulation time: 0 hr 16 min 28 sec) 
Heartbeat CPU  0 instructions:  358000001 cycles:  487234568 heartbeat IPC: 0.52496 cumulative IPC: 0.58157 (Simulation time: 0 hr 16 min 31 sec) 
Heartbeat CPU  0 instructions:  359000001 cycles:  489136852 heartbeat IPC: 0.52568 cumulative IPC: 0.58134 (Simulation time: 0 hr 16 min 34 sec) 
Heartbeat CPU  0 instructions:  360000000 cycles:  491050183 heartbeat IPC: 0.52265 cumulative IPC: 0.58109 (Simulation time: 0 hr 16 min 37 sec) 
Heartbeat CPU  0 instructions:  361000000 cycles:  492964533 heartbeat IPC: 0.52237 cumulative IPC: 0.58083 (Simulation time: 0 hr 16 min 40 sec) 
Heartbeat CPU  0 instructions:  362000001 cycles:  494870375 heartbeat IPC: 0.52470 cumulative IPC: 0.58060 (Simulation time: 0 hr 16 min 42 sec) 
Heartbeat CPU  0 instructions:  363000000 cycles:  496783271 heartbeat IPC: 0.52277 cumulative IPC: 0.58035 (Simulation time: 0 hr 16 min 45 sec) 
Heartbeat CPU  0 instructions:  364000000 cycles:  498690204 heartbeat IPC: 0.52440 cumulative IPC: 0.58012 (Simulation time: 0 hr 16 min 48 sec) 
Heartbeat CPU  0 instructions:  365000002 cycles:  500611651 heartbeat IPC: 0.52044 cumulative IPC: 0.57987 (Simulation time: 0 hr 16 min 51 sec) 
Heartbeat CPU  0 instructions:  366000001 cycles:  502516647 heartbeat IPC: 0.52493 cumulative IPC: 0.57964 (Simulation time: 0 hr 16 min 54 sec) 
Heartbeat CPU  0 instructions:  367000000 cycles:  504436834 heartbeat IPC: 0.52078 cumulative IPC: 0.57940 (Simulation time: 0 hr 16 min 57 sec) 
Heartbeat CPU  0 instructions:  368000000 cycles:  506343230 heartbeat IPC: 0.52455 cumulative IPC: 0.57917 (Simulation time: 0 hr 17 min 0 sec) 
Heartbeat CPU  0 instructions:  369000000 cycles:  508251648 heartbeat IPC: 0.52399 cumulative IPC: 0.57894 (Simulation time: 0 hr 17 min 3 sec) 
Heartbeat CPU  0 instructions:  370000001 cycles:  510159717 heartbeat IPC: 0.52409 cumulative IPC: 0.57872 (Simulation time: 0 hr 17 min 6 sec) 
Heartbeat CPU  0 instructions:  371000003 cycles:  512078131 heartbeat IPC: 0.52126 cumulative IPC: 0.57848 (Simulation time: 0 hr 17 min 9 sec) 
Heartbeat CPU  0 instructions:  372000000 cycles:  513713377 heartbeat IPC: 0.61153 cumulative IPC: 0.57860 (Simulation time: 0 hr 17 min 12 sec) 
Heartbeat CPU  0 instructions:  373000001 cycles:  515201198 heartbeat IPC: 0.67212 cumulative IPC: 0.57889 (Simulation time: 0 hr 17 min 15 sec) 
Heartbeat CPU  0 instructions:  374000001 cycles:  516664049 heartbeat IPC: 0.68360 cumulative IPC: 0.57922 (Simulation time: 0 hr 17 min 18 sec) 
Heartbeat CPU  0 instructions:  375000001 cycles:  518146109 heartbeat IPC: 0.67474 cumulative IPC: 0.57951 (Simulation time: 0 hr 17 min 21 sec) 
Heartbeat CPU  0 instructions:  376000000 cycles:  519593238 heartbeat IPC: 0.69102 cumulative IPC: 0.57985 (Simulation time: 0 hr 17 min 24 sec) 
Heartbeat CPU  0 instructions:  377000000 cycles:  521034772 heartbeat IPC: 0.69371 cumulative IPC: 0.58020 (Simulation time: 0 hr 17 min 27 sec) 
Heartbeat CPU  0 instructions:  378000003 cycles:  522492097 heartbeat IPC: 0.68619 cumulative IPC: 0.58052 (Simulation time: 0 hr 17 min 29 sec) 
Heartbeat CPU  0 instructions:  379000001 cycles:  523965068 heartbeat IPC: 0.67890 cumulative IPC: 0.58082 (Simulation time: 0 hr 17 min 32 sec) 
Heartbeat CPU  0 instructions:  380000000 cycles:  525401155 heartbeat IPC: 0.69634 cumulative IPC: 0.58117 (Simulation time: 0 hr 17 min 35 sec) 
Heartbeat CPU  0 instructions:  381000000 cycles:  526856516 heartbeat IPC: 0.68711 cumulative IPC: 0.58149 (Simulation time: 0 hr 17 min 38 sec) 
Heartbeat CPU  0 instructions:  382000000 cycles:  528327905 heartbeat IPC: 0.67963 cumulative IPC: 0.58178 (Simulation time: 0 hr 17 min 41 sec) 
Heartbeat CPU  0 instructions:  383000002 cycles:  529790744 heartbeat IPC: 0.68360 cumulative IPC: 0.58209 (Simulation time: 0 hr 17 min 44 sec) 
Heartbeat CPU  0 instructions:  384000000 cycles:  531278012 heartbeat IPC: 0.67237 cumulative IPC: 0.58237 (Simulation time: 0 hr 17 min 47 sec) 
Heartbeat CPU  0 instructions:  385000002 cycles:  532780212 heartbeat IPC: 0.66569 cumulative IPC: 0.58262 (Simulation time: 0 hr 17 min 50 sec) 
Heartbeat CPU  0 instructions:  386000002 cycles:  534282478 heartbeat IPC: 0.66566 cumulative IPC: 0.58288 (Simulation time: 0 hr 17 min 53 sec) 
Heartbeat CPU  0 instructions:  387000000 cycles:  535778161 heartbeat IPC: 0.66859 cumulative IPC: 0.58314 (Simulation time: 0 hr 17 min 56 sec) 
Heartbeat CPU  0 instructions:  388000000 cycles:  537283233 heartbeat IPC: 0.66442 cumulative IPC: 0.58338 (Simulation time: 0 hr 17 min 59 sec) 
Heartbeat CPU  0 instructions:  389000000 cycles:  538778332 heartbeat IPC: 0.66885 cumulative IPC: 0.58364 (Simulation time: 0 hr 18 min 2 sec) 
Heartbeat CPU  0 instructions:  390000000 cycles:  540286767 heartbeat IPC: 0.66294 cumulative IPC: 0.58388 (Simulation time: 0 hr 18 min 5 sec) 
Heartbeat CPU  0 instructions:  391000002 cycles:  541775835 heartbeat IPC: 0.67156 cumulative IPC: 0.58414 (Simulation time: 0 hr 18 min 8 sec) 
Heartbeat CPU  0 instructions:  392000000 cycles:  543277323 heartbeat IPC: 0.66600 cumulative IPC: 0.58439 (Simulation time: 0 hr 18 min 11 sec) 
Heartbeat CPU  0 instructions:  393000002 cycles:  544754607 heartbeat IPC: 0.67692 cumulative IPC: 0.58466 (Simulation time: 0 hr 18 min 14 sec) 
Heartbeat CPU  0 instructions:  394000002 cycles:  546258597 heartbeat IPC: 0.66490 cumulative IPC: 0.58490 (Simulation time: 0 hr 18 min 17 sec) 
Heartbeat CPU  0 instructions:  395000003 cycles:  547768410 heartbeat IPC: 0.66233 cumulative IPC: 0.58514 (Simulation time: 0 hr 18 min 20 sec) 
Heartbeat CPU  0 instructions:  396000000 cycles:  549252338 heartbeat IPC: 0.67389 cumulative IPC: 0.58540 (Simulation time: 0 hr 18 min 23 sec) 
Heartbeat CPU  0 instructions:  397000002 cycles:  550755046 heartbeat IPC: 0.66547 cumulative IPC: 0.58563 (Simulation time: 0 hr 18 min 26 sec) 
Heartbeat CPU  0 instructions:  398000001 cycles:  552265677 heartbeat IPC: 0.66197 cumulative IPC: 0.58586 (Simulation time: 0 hr 18 min 29 sec) 
Heartbeat CPU  0 instructions:  399000000 cycles:  553767938 heartbeat IPC: 0.66566 cumulative IPC: 0.58609 (Simulation time: 0 hr 18 min 32 sec) 
Heartbeat CPU  0 instructions:  400000000 cycles:  555281161 heartbeat IPC: 0.66084 cumulative IPC: 0.58632 (Simulation time: 0 hr 18 min 35 sec) 
Heartbeat CPU  0 instructions:  401000001 cycles:  556778847 heartbeat IPC: 0.66770 cumulative IPC: 0.58655 (Simulation time: 0 hr 18 min 37 sec) 
Heartbeat CPU  0 instructions:  402000000 cycles:  558263559 heartbeat IPC: 0.67353 cumulative IPC: 0.58680 (Simulation time: 0 hr 18 min 40 sec) 
Heartbeat CPU  0 instructions:  403000002 cycles:  559761648 heartbeat IPC: 0.66752 cumulative IPC: 0.58704 (Simulation time: 0 hr 18 min 43 sec) 
Heartbeat CPU  0 instructions:  404000000 cycles:  561234030 heartbeat IPC: 0.67917 cumulative IPC: 0.58730 (Simulation time: 0 hr 18 min 46 sec) 
Heartbeat CPU  0 instructions:  405000003 cycles:  562739585 heartbeat IPC: 0.66421 cumulative IPC: 0.58752 (Simulation time: 0 hr 18 min 49 sec) 
Heartbeat CPU  0 instructions:  406000002 cycles:  564233937 heartbeat IPC: 0.66919 cumulative IPC: 0.58776 (Simulation time: 0 hr 18 min 52 sec) 
Heartbeat CPU  0 instructions:  407000001 cycles:  565715501 heartbeat IPC: 0.67496 cumulative IPC: 0.58801 (Simulation time: 0 hr 18 min 55 sec) 
Heartbeat CPU  0 instructions:  408000000 cycles:  567202700 heartbeat IPC: 0.67240 cumulative IPC: 0.58825 (Simulation time: 0 hr 18 min 58 sec) 
Heartbeat CPU  0 instructions:  409000000 cycles:  568683627 heartbeat IPC: 0.67525 cumulative IPC: 0.58849 (Simulation time: 0 hr 19 min 1 sec) 
Heartbeat CPU  0 instructions:  410000002 cycles:  570181278 heartbeat IPC: 0.66771 cumulative IPC: 0.58872 (Simulation time: 0 hr 19 min 4 sec) 
Heartbeat CPU  0 instructions:  411000003 cycles:  571671022 heartbeat IPC: 0.67126 cumulative IPC: 0.58895 (Simulation time: 0 hr 19 min 7 sec) 
Heartbeat CPU  0 instructions:  412000000 cycles:  573172587 heartbeat IPC: 0.66597 cumulative IPC: 0.58917 (Simulation time: 0 hr 19 min 10 sec) 
Heartbeat CPU  0 instructions:  413000003 cycles:  574661404 heartbeat IPC: 0.67168 cumulative IPC: 0.58940 (Simulation time: 0 hr 19 min 13 sec) 
Heartbeat CPU  0 instructions:  414000000 cycles:  576140555 heartbeat IPC: 0.67606 cumulative IPC: 0.58964 (Simulation time: 0 hr 19 min 16 sec) 
Heartbeat CPU  0 instructions:  415000001 cycles:  577628853 heartbeat IPC: 0.67191 cumulative IPC: 0.58987 (Simulation time: 0 hr 19 min 19 sec) 
Heartbeat CPU  0 instructions:  416000000 cycles:  579099272 heartbeat IPC: 0.68008 cumulative IPC: 0.59012 (Simulation time: 0 hr 19 min 22 sec) 
Heartbeat CPU  0 instructions:  417000003 cycles:  580599586 heartbeat IPC: 0.66653 cumulative IPC: 0.59033 (Simulation time: 0 hr 19 min 25 sec) 
Heartbeat CPU  0 instructions:  418000002 cycles:  582088079 heartbeat IPC: 0.67182 cumulative IPC: 0.59055 (Simulation time: 0 hr 19 min 29 sec) 
Heartbeat CPU  0 instructions:  419000001 cycles:  583569782 heartbeat IPC: 0.67490 cumulative IPC: 0.59079 (Simulation time: 0 hr 19 min 32 sec) 
Heartbeat CPU  0 instructions:  420000000 cycles:  585067208 heartbeat IPC: 0.66781 cumulative IPC: 0.59100 (Simulation time: 0 hr 19 min 35 sec) 
Heartbeat CPU  0 instructions:  421000000 cycles:  586538399 heartbeat IPC: 0.67972 cumulative IPC: 0.59124 (Simulation time: 0 hr 19 min 38 sec) 
Heartbeat CPU  0 instructions:  422000002 cycles:  588033244 heartbeat IPC: 0.66897 cumulative IPC: 0.59145 (Simulation time: 0 hr 19 min 41 sec) 
Heartbeat CPU  0 instructions:  423000003 cycles:  589522954 heartbeat IPC: 0.67127 cumulative IPC: 0.59167 (Simulation time: 0 hr 19 min 44 sec) 
Heartbeat CPU  0 instructions:  424000000 cycles:  591020191 heartbeat IPC: 0.66789 cumulative IPC: 0.59188 (Simulation time: 0 hr 19 min 47 sec) 
Heartbeat CPU  0 instructions:  425000001 cycles:  592500735 heartbeat IPC: 0.67543 cumulative IPC: 0.59210 (Simulation time: 0 hr 19 min 50 sec) 
Heartbeat CPU  0 instructions:  426000000 cycles:  593967211 heartbeat IPC: 0.68191 cumulative IPC: 0.59234 (Simulation time: 0 hr 19 min 53 sec) 
Heartbeat CPU  0 instructions:  427000000 cycles:  595467027 heartbeat IPC: 0.66675 cumulative IPC: 0.59255 (Simulation time: 0 hr 19 min 56 sec) 
Heartbeat CPU  0 instructions:  428000000 cycles:  596976305 heartbeat IPC: 0.66257 cumulative IPC: 0.59274 (Simulation time: 0 hr 19 min 59 sec) 
Heartbeat CPU  0 instructions:  429000001 cycles:  598452451 heartbeat IPC: 0.67744 cumulative IPC: 0.59296 (Simulation time: 0 hr 20 min 2 sec) 
Heartbeat CPU  0 instructions:  430000002 cycles:  599949162 heartbeat IPC: 0.66813 cumulative IPC: 0.59316 (Simulation time: 0 hr 20 min 5 sec) 
Heartbeat CPU  0 instructions:  431000001 cycles:  601428416 heartbeat IPC: 0.67602 cumulative IPC: 0.59338 (Simulation time: 0 hr 20 min 8 sec) 
Heartbeat CPU  0 instructions:  432000000 cycles:  602898764 heartbeat IPC: 0.68011 cumulative IPC: 0.59361 (Simulation time: 0 hr 20 min 11 sec) 
Heartbeat CPU  0 instructions:  433000000 cycles:  604367098 heartbeat IPC: 0.68104 cumulative IPC: 0.59384 (Simulation time: 0 hr 20 min 14 sec) 
Heartbeat CPU  0 instructions:  434000002 cycles:  605849172 heartbeat IPC: 0.67473 cumulative IPC: 0.59405 (Simulation time: 0 hr 20 min 17 sec) 
Heartbeat CPU  0 instructions:  435000001 cycles:  607373011 heartbeat IPC: 0.65624 cumulative IPC: 0.59422 (Simulation time: 0 hr 20 min 20 sec) 
Heartbeat CPU  0 instructions:  436000000 cycles:  608852608 heartbeat IPC: 0.67586 cumulative IPC: 0.59444 (Simulation time: 0 hr 20 min 23 sec) 
Heartbeat CPU  0 instructions:  437000003 cycles:  610315159 heartbeat IPC: 0.68374 cumulative IPC: 0.59467 (Simulation time: 0 hr 20 min 26 sec) 
Heartbeat CPU  0 instructions:  438000000 cycles:  611782823 heartbeat IPC: 0.68135 cumulative IPC: 0.59489 (Simulation time: 0 hr 20 min 29 sec) 
Heartbeat CPU  0 instructions:  439000000 cycles:  613260306 heartbeat IPC: 0.67683 cumulative IPC: 0.59510 (Simulation time: 0 hr 20 min 32 sec) 
Heartbeat CPU  0 instructions:  440000000 cycles:  614742655 heartbeat IPC: 0.67460 cumulative IPC: 0.59531 (Simulation time: 0 hr 20 min 35 sec) 
Heartbeat CPU  0 instructions:  441000001 cycles:  616218097 heartbeat IPC: 0.67776 cumulative IPC: 0.59552 (Simulation time: 0 hr 20 min 38 sec) 
Heartbeat CPU  0 instructions:  442000002 cycles:  617412222 heartbeat IPC: 0.83743 cumulative IPC: 0.59603 (Simulation time: 0 hr 20 min 41 sec) 
Heartbeat CPU  0 instructions:  443000002 cycles:  618648126 heartbeat IPC: 0.80912 cumulative IPC: 0.59648 (Simulation time: 0 hr 20 min 44 sec) 
Heartbeat CPU  0 instructions:  444000000 cycles:  619952652 heartbeat IPC: 0.76656 cumulative IPC: 0.59687 (Simulation time: 0 hr 20 min 48 sec) 
Heartbeat CPU  0 instructions:  445000000 cycles:  621261515 heartbeat IPC: 0.76402 cumulative IPC: 0.59725 (Simulation time: 0 hr 20 min 51 sec) 
Heartbeat CPU  0 instructions:  446000000 cycles:  622600455 heartbeat IPC: 0.74686 cumulative IPC: 0.59759 (Simulation time: 0 hr 20 min 54 sec) 
Heartbeat CPU  0 instructions:  447000000 cycles:  623949269 heartbeat IPC: 0.74139 cumulative IPC: 0.59793 (Simulation time: 0 hr 20 min 57 sec) 
Heartbeat CPU  0 instructions:  448000000 cycles:  625317962 heartbeat IPC: 0.73062 cumulative IPC: 0.59824 (Simulation time: 0 hr 21 min 1 sec) 
Heartbeat CPU  0 instructions:  449000001 cycles:  626858091 heartbeat IPC: 0.64930 cumulative IPC: 0.59837 (Simulation time: 0 hr 21 min 4 sec) 
Heartbeat CPU  0 instructions:  450000000 cycles:  628543565 heartbeat IPC: 0.59330 cumulative IPC: 0.59836 (Simulation time: 0 hr 21 min 7 sec) 
Heartbeat CPU  0 instructions:  451000001 cycles:  630679285 heartbeat IPC: 0.46823 cumulative IPC: 0.59789 (Simulation time: 0 hr 21 min 11 sec) 
Heartbeat CPU  0 instructions:  452000000 cycles:  632706414 heartbeat IPC: 0.49331 cumulative IPC: 0.59753 (Simulation time: 0 hr 21 min 14 sec) 
Heartbeat CPU  0 instructions:  453000001 cycles:  634733089 heartbeat IPC: 0.49342 cumulative IPC: 0.59717 (Simulation time: 0 hr 21 min 17 sec) 
Heartbeat CPU  0 instructions:  454000001 cycles:  636723433 heartbeat IPC: 0.50243 cumulative IPC: 0.59685 (Simulation time: 0 hr 21 min 20 sec) 
Heartbeat CPU  0 instructions:  455000002 cycles:  638697543 heartbeat IPC: 0.50656 cumulative IPC: 0.59655 (Simulation time: 0 hr 21 min 23 sec) 
Heartbeat CPU  0 instructions:  456000000 cycles:  640622727 heartbeat IPC: 0.51943 cumulative IPC: 0.59630 (Simulation time: 0 hr 21 min 26 sec) 
Heartbeat CPU  0 instructions:  457000002 cycles:  642544509 heartbeat IPC: 0.52035 cumulative IPC: 0.59606 (Simulation time: 0 hr 21 min 29 sec) 
Heartbeat CPU  0 instructions:  458000001 cycles:  644481239 heartbeat IPC: 0.51633 cumulative IPC: 0.59580 (Simulation time: 0 hr 21 min 32 sec) 
Heartbeat CPU  0 instructions:  459000001 cycles:  646431790 heartbeat IPC: 0.51268 cumulative IPC: 0.59553 (Simulation time: 0 hr 21 min 35 sec) 
Heartbeat CPU  0 instructions:  460000000 cycles:  648373702 heartbeat IPC: 0.51496 cumulative IPC: 0.59528 (Simulation time: 0 hr 21 min 38 sec) 
Heartbeat CPU  0 instructions:  461000001 cycles:  650306023 heartbeat IPC: 0.51751 cumulative IPC: 0.59503 (Simulation time: 0 hr 21 min 41 sec) 
Heartbeat CPU  0 instructions:  462000002 cycles:  652242882 heartbeat IPC: 0.51630 cumulative IPC: 0.59478 (Simulation time: 0 hr 21 min 44 sec) 
Heartbeat CPU  0 instructions:  463000002 cycles:  654177992 heartbeat IPC: 0.51677 cumulative IPC: 0.59453 (Simulation time: 0 hr 21 min 47 sec) 
Heartbeat CPU  0 instructions:  464000000 cycles:  656120656 heartbeat IPC: 0.51476 cumulative IPC: 0.59428 (Simulation time: 0 hr 21 min 49 sec) 
Heartbeat CPU  0 instructions:  465000002 cycles:  658060250 heartbeat IPC: 0.51557 cumulative IPC: 0.59403 (Simulation time: 0 hr 21 min 52 sec) 
Heartbeat CPU  0 instructions:  466000000 cycles:  659991745 heartbeat IPC: 0.51773 cumulative IPC: 0.59379 (Simulation time: 0 hr 21 min 55 sec) 
Heartbeat CPU  0 instructions:  467000001 cycles:  661925634 heartbeat IPC: 0.51709 cumulative IPC: 0.59355 (Simulation time: 0 hr 21 min 58 sec) 
Heartbeat CPU  0 instructions:  468000000 cycles:  663859012 heartbeat IPC: 0.51723 cumulative IPC: 0.59331 (Simulation time: 0 hr 22 min 1 sec) 
Heartbeat CPU  0 instructions:  469000002 cycles:  665793840 heartbeat IPC: 0.51684 cumulative IPC: 0.59307 (Simulation time: 0 hr 22 min 4 sec) 
Heartbeat CPU  0 instructions:  470000002 cycles:  667733012 heartbeat IPC: 0.51568 cumulative IPC: 0.59283 (Simulation time: 0 hr 22 min 7 sec) 
Heartbeat CPU  0 instructions:  471000002 cycles:  669666331 heartbeat IPC: 0.51725 cumulative IPC: 0.59260 (Simulation time: 0 hr 22 min 10 sec) 
Heartbeat CPU  0 instructions:  472000000 cycles:  671606499 heartbeat IPC: 0.51542 cumulative IPC: 0.59236 (Simulation time: 0 hr 22 min 13 sec) 
Heartbeat CPU  0 instructions:  473000002 cycles:  673535600 heartbeat IPC: 0.51838 cumulative IPC: 0.59213 (Simulation time: 0 hr 22 min 16 sec) 
Heartbeat CPU  0 instructions:  474000003 cycles:  675452894 heartbeat IPC: 0.52157 cumulative IPC: 0.59192 (Simulation time: 0 hr 22 min 19 sec) 
Heartbeat CPU  0 instructions:  475000002 cycles:  677134826 heartbeat IPC: 0.59455 cumulative IPC: 0.59193 (Simulation time: 0 hr 22 min 23 sec) 
Heartbeat CPU  0 instructions:  476000000 cycles:  679068127 heartbeat IPC: 0.51725 cumulative IPC: 0.59170 (Simulation time: 0 hr 22 min 26 sec) 
Heartbeat CPU  0 instructions:  477000001 cycles:  681106649 heartbeat IPC: 0.49055 cumulative IPC: 0.59138 (Simulation time: 0 hr 22 min 29 sec) 
Heartbeat CPU  0 instructions:  478000000 cycles:  683168152 heartbeat IPC: 0.48508 cumulative IPC: 0.59103 (Simulation time: 0 hr 22 min 32 sec) 
Heartbeat CPU  0 instructions:  479000003 cycles:  685194580 heartbeat IPC: 0.49348 cumulative IPC: 0.59073 (Simulation time: 0 hr 22 min 35 sec) 
Heartbeat CPU  0 instructions:  480000000 cycles:  687255890 heartbeat IPC: 0.48513 cumulative IPC: 0.59039 (Simulation time: 0 hr 22 min 38 sec) 
Heartbeat CPU  0 instructions:  481000003 cycles:  689274472 heartbeat IPC: 0.49540 cumulative IPC: 0.59009 (Simulation time: 0 hr 22 min 41 sec) 
Heartbeat CPU  0 instructions:  482000000 cycles:  691256246 heartbeat IPC: 0.50460 cumulative IPC: 0.58983 (Simulation time: 0 hr 22 min 44 sec) 
Heartbeat CPU  0 instructions:  483000002 cycles:  693255614 heartbeat IPC: 0.50016 cumulative IPC: 0.58955 (Simulation time: 0 hr 22 min 47 sec) 
Heartbeat CPU  0 instructions:  484000000 cycles:  695269141 heartbeat IPC: 0.49664 cumulative IPC: 0.58927 (Simulation time: 0 hr 22 min 51 sec) 
Heartbeat CPU  0 instructions:  485000001 cycles:  697290206 heartbeat IPC: 0.49479 cumulative IPC: 0.58897 (Simulation time: 0 hr 22 min 54 sec) 
Heartbeat CPU  0 instructions:  486000001 cycles:  699297790 heartbeat IPC: 0.49811 cumulative IPC: 0.58870 (Simulation time: 0 hr 22 min 57 sec) 
Heartbeat CPU  0 instructions:  487000000 cycles:  701303373 heartbeat IPC: 0.49861 cumulative IPC: 0.58842 (Simulation time: 0 hr 23 min 0 sec) 
Heartbeat CPU  0 instructions:  488000000 cycles:  703300129 heartbeat IPC: 0.50081 cumulative IPC: 0.58816 (Simulation time: 0 hr 23 min 3 sec) 
Heartbeat CPU  0 instructions:  489000001 cycles:  705306706 heartbeat IPC: 0.49836 cumulative IPC: 0.58788 (Simulation time: 0 hr 23 min 6 sec) 
Heartbeat CPU  0 instructions:  490000000 cycles:  707303193 heartbeat IPC: 0.50088 cumulative IPC: 0.58762 (Simulation time: 0 hr 23 min 9 sec) 
Heartbeat CPU  0 instructions:  491000003 cycles:  709310872 heartbeat IPC: 0.49809 cumulative IPC: 0.58735 (Simulation time: 0 hr 23 min 12 sec) 
Heartbeat CPU  0 instructions:  492000000 cycles:  711323954 heartbeat IPC: 0.49675 cumulative IPC: 0.58708 (Simulation time: 0 hr 23 min 15 sec) 
Heartbeat CPU  0 instructions:  493000002 cycles:  713329194 heartbeat IPC: 0.49869 cumulative IPC: 0.58681 (Simulation time: 0 hr 23 min 18 sec) 
Heartbeat CPU  0 instructions:  494000001 cycles:  715327121 heartbeat IPC: 0.50052 cumulative IPC: 0.58656 (Simulation time: 0 hr 23 min 21 sec) 
Heartbeat CPU  0 instructions:  495000003 cycles:  717330432 heartbeat IPC: 0.49917 cumulative IPC: 0.58630 (Simulation time: 0 hr 23 min 25 sec) 
Heartbeat CPU  0 instructions:  496000000 cycles:  719332213 heartbeat IPC: 0.49955 cumulative IPC: 0.58604 (Simulation time: 0 hr 23 min 28 sec) 
Heartbeat CPU  0 instructions:  497000003 cycles:  721325432 heartbeat IPC: 0.50170 cumulative IPC: 0.58579 (Simulation time: 0 hr 23 min 31 sec) 
Heartbeat CPU  0 instructions:  498000000 cycles:  723321656 heartbeat IPC: 0.50094 cumulative IPC: 0.58554 (Simulation time: 0 hr 23 min 34 sec) 
Heartbeat CPU  0 instructions:  499000002 cycles:  725328137 heartbeat IPC: 0.49839 cumulative IPC: 0.58529 (Simulation time: 0 hr 23 min 37 sec) 
Heartbeat CPU  0 instructions:  500000000 cycles:  727039696 heartbeat IPC: 0.58426 cumulative IPC: 0.58528 (Simulation time: 0 hr 23 min 40 sec) 
Heartbeat CPU  0 instructions:  501000000 cycles:  728577717 heartbeat IPC: 0.65019 cumulative IPC: 0.58543 (Simulation time: 0 hr 23 min 43 sec) 
Heartbeat CPU  0 instructions:  502000002 cycles:  730100207 heartbeat IPC: 0.65682 cumulative IPC: 0.58559 (Simulation time: 0 hr 23 min 46 sec) 
Heartbeat CPU  0 instructions:  503000002 cycles:  731740180 heartbeat IPC: 0.60977 cumulative IPC: 0.58565 (Simulation time: 0 hr 23 min 49 sec) 
Heartbeat CPU  0 instructions:  504000000 cycles:  733228105 heartbeat IPC: 0.67208 cumulative IPC: 0.58583 (Simulation time: 0 hr 23 min 52 sec) 
Heartbeat CPU  0 instructions:  505000002 cycles:  734719810 heartbeat IPC: 0.67038 cumulative IPC: 0.58602 (Simulation time: 0 hr 23 min 55 sec) 
Heartbeat CPU  0 instructions:  506000002 cycles:  736215710 heartbeat IPC: 0.66849 cumulative IPC: 0.58619 (Simulation time: 0 hr 23 min 58 sec) 
Heartbeat CPU  0 instructions:  507000001 cycles:  737706722 heartbeat IPC: 0.67068 cumulative IPC: 0.58637 (Simulation time: 0 hr 24 min 1 sec) 
Heartbeat CPU  0 instructions:  508000000 cycles:  739192680 heartbeat IPC: 0.67297 cumulative IPC: 0.58656 (Simulation time: 0 hr 24 min 4 sec) 
Heartbeat CPU  0 instructions:  509000000 cycles:  740700878 heartbeat IPC: 0.66304 cumulative IPC: 0.58673 (Simulation time: 0 hr 24 min 7 sec) 
Heartbeat CPU  0 instructions:  510000000 cycles:  742199155 heartbeat IPC: 0.66743 cumulative IPC: 0.58690 (Simulation time: 0 hr 24 min 10 sec) 
Heartbeat CPU  0 instructions:  511000002 cycles:  743683044 heartbeat IPC: 0.67391 cumulative IPC: 0.58708 (Simulation time: 0 hr 24 min 13 sec) 
Heartbeat CPU  0 instructions:  512000000 cycles:  745179590 heartbeat IPC: 0.66820 cumulative IPC: 0.58726 (Simulation time: 0 hr 24 min 16 sec) 
Heartbeat CPU  0 instructions:  513000001 cycles:  747066175 heartbeat IPC: 0.53006 cumulative IPC: 0.58710 (Simulation time: 0 hr 24 min 19 sec) 
Heartbeat CPU  0 instructions:  514000001 cycles:  748952903 heartbeat IPC: 0.53002 cumulative IPC: 0.58695 (Simulation time: 0 hr 24 min 22 sec) 
Heartbeat CPU  0 instructions:  515000002 cycles:  750845325 heartbeat IPC: 0.52842 cumulative IPC: 0.58679 (Simulation time: 0 hr 24 min 26 sec) 
Heartbeat CPU  0 instructions:  516000000 cycles:  752544108 heartbeat IPC: 0.58866 cumulative IPC: 0.58680 (Simulation time: 0 hr 24 min 29 sec) 
Heartbeat CPU  0 instructions:  517000002 cycles:  754032518 heartbeat IPC: 0.67186 cumulative IPC: 0.58698 (Simulation time: 0 hr 24 min 32 sec) 
Heartbeat CPU  0 instructions:  518000002 cycles:  755529660 heartbeat IPC: 0.66794 cumulative IPC: 0.58715 (Simulation time: 0 hr 24 min 35 sec) 
Heartbeat CPU  0 instructions:  519000002 cycles:  757022034 heartbeat IPC: 0.67007 cumulative IPC: 0.58732 (Simulation time: 0 hr 24 min 38 sec) 
Heartbeat CPU  0 instructions:  520000000 cycles:  758503016 heartbeat IPC: 0.67523 cumulative IPC: 0.58750 (Simulation time: 0 hr 24 min 41 sec) 
Heartbeat CPU  0 instructions:  521000001 cycles:  760007462 heartbeat IPC: 0.66470 cumulative IPC: 0.58766 (Simulation time: 0 hr 24 min 44 sec) 
Heartbeat CPU  0 instructions:  522000000 cycles:  761496847 heartbeat IPC: 0.67142 cumulative IPC: 0.58784 (Simulation time: 0 hr 24 min 47 sec) 
Heartbeat CPU  0 instructions:  523000000 cycles:  762990216 heartbeat IPC: 0.66963 cumulative IPC: 0.58801 (Simulation time: 0 hr 24 min 50 sec) 
Heartbeat CPU  0 instructions:  524000000 cycles:  764477727 heartbeat IPC: 0.67226 cumulative IPC: 0.58818 (Simulation time: 0 hr 24 min 53 sec) 
Heartbeat CPU  0 instructions:  525000000 cycles:  765975004 heartbeat IPC: 0.66788 cumulative IPC: 0.58835 (Simulation time: 0 hr 24 min 56 sec) 
Heartbeat CPU  0 instructions:  526000002 cycles:  767481320 heartbeat IPC: 0.66387 cumulative IPC: 0.58850 (Simulation time: 0 hr 24 min 59 sec) 
Heartbeat CPU  0 instructions:  527000002 cycles:  768974155 heartbeat IPC: 0.66987 cumulative IPC: 0.58867 (Simulation time: 0 hr 25 min 2 sec) 
Heartbeat CPU  0 instructions:  528000000 cycles:  770456485 heartbeat IPC: 0.67461 cumulative IPC: 0.58885 (Simulation time: 0 hr 25 min 5 sec) 
[...]
Heartbeat CPU  0 instructions:  558000003 cycles:  815311899 heartbeat IPC: 0.67027 cumulative IPC: 0.59349 (Simulation time: 0 hr 26 min 34 sec) 
Heartbeat CPU  0 instructions:  559000002 cycles:  816793241 heartbeat IPC: 0.67506 cumulative IPC: 0.59365 (Simulation time: 0 hr 26 min 37 sec) 
Heartbeat CPU  0 instructions:  560000000 cycles:  818287821 heartbeat IPC: 0.66908 cumulative IPC: 0.59380 (Simulation time: 0 hr 26 min 40 sec) 
Heartbeat CPU  0 instructions:  561000000 cycles:  819767440 heartbeat IPC: 0.67585 cumulative IPC: 0.59395 (Simulation time: 0 hr 26 min 43 sec) 
Heartbeat CPU  0 instructions:  562000003 cycles:  821244909 heartbeat IPC: 0.67684 cumulative IPC: 0.59411 (Simulation time: 0 hr 26 min 46 sec) 
Heartbeat CPU  0 instructions:  563000003 cycles:  822717119 heartbeat IPC: 0.67925 cumulative IPC: 0.59427 (Simulation time: 0 hr 26 min 49 sec) 
Heartbeat CPU  0 instructions:  564000000 cycles:  824195819 heartbeat IPC: 0.67627 cumulative IPC: 0.59443 (Simulation time: 0 hr 26 min 52 sec) 
Heartbeat CPU  0 instructions:  565000000 cycles:  825677567 heartbeat IPC: 0.67488 cumulative IPC: 0.59458 (Simulation time: 0 hr 26 min 55 sec) 
Heartbeat CPU  0 instructions:  566000000 cycles:  827170745 heartbeat IPC: 0.66971 cumulative IPC: 0.59472 (Simulation time: 0 hr 26 min 58 sec) 
Heartbeat CPU  0 instructions:  567000002 cycles:  828646183 heartbeat IPC: 0.67777 cumulative IPC: 0.59488 (Simulation time: 0 hr 27 min 1 sec) 
Heartbeat CPU  0 instructions:  568000000 cycles:  830128535 heartbeat IPC: 0.67460 cumulative IPC: 0.59503 (Simulation time: 0 hr 27 min 4 sec) 
Heartbeat CPU  0 instructions:  569000000 cycles:  831618456 heartbeat IPC: 0.67118 cumulative IPC: 0.59517 (Simulation time: 0 hr 27 min 7 sec) 
Heartbeat CPU  0 instructions:  570000003 cycles:  835322826 heartbeat IPC: 0.26995 cumulative IPC: 0.59365 (Simulation time: 0 hr 27 min 13 sec) 
Heartbeat CPU  0 instructions:  571000000 cycles:  838580597 heartbeat IPC: 0.30696 cumulative IPC: 0.59248 (Simulation time: 0 hr 27 min 17 sec) 
Heartbeat CPU  0 instructions:  572000000 cycles:  840730990 heartbeat IPC: 0.46503 cumulative IPC: 0.59213 (Simulation time: 0 hr 27 min 21 sec) 
Heartbeat CPU  0 instructions:  573000002 cycles:  842882453 heartbeat IPC: 0.46480 cumulative IPC: 0.59179 (Simulation time: 0 hr 27 min 24 sec) 
Heartbeat CPU  0 instructions:  574000001 cycles:  844972659 heartbeat IPC: 0.47842 cumulative IPC: 0.59149 (Simulation time: 0 hr 27 min 27 sec) 
Heartbeat CPU  0 instructions:  575000003 cycles:  847053059 heartbeat IPC: 0.48068 cumulative IPC: 0.59121 (Simulation time: 0 hr 27 min 30 sec) 
Heartbeat CPU  0 instructions:  576000000 cycles:  849107882 heartbeat IPC: 0.48666 cumulative IPC: 0.59094 (Simulation time: 0 hr 27 min 33 sec) 
Heartbeat CPU  0 instructions:  577000002 cycles:  851122482 heartbeat IPC: 0.49638 cumulative IPC: 0.59070 (Simulation time: 0 hr 27 min 36 sec) 
Heartbeat CPU  0 instructions:  578000001 cycles:  853144062 heartbeat IPC: 0.49466 cumulative IPC: 0.59046 (Simulation time: 0 hr 27 min 39 sec) 
Heartbeat CPU  0 instructions:  579000000 cycles:  855170289 heartbeat IPC: 0.49353 cumulative IPC: 0.59022 (Simulation time: 0 hr 27 min 42 sec) 
Heartbeat CPU  0 instructions:  580000000 cycles:  857223479 heartbeat IPC: 0.48705 cumulative IPC: 0.58996 (Simulation time: 0 hr 27 min 45 sec) 
Heartbeat CPU  0 instructions:  581000002 cycles:  859271122 heartbeat IPC: 0.48837 cumulative IPC: 0.58971 (Simulation time: 0 hr 27 min 48 sec) 
Heartbeat CPU  0 instructions:  582000001 cycles:  861298033 heartbeat IPC: 0.49336 cumulative IPC: 0.58947 (Simulation time: 0 hr 27 min 51 sec) 
Heartbeat CPU  0 instructions:  583000000 cycles:  863327679 heartbeat IPC: 0.49270 cumulative IPC: 0.58923 (Simulation time: 0 hr 27 min 54 sec) 
Heartbeat CPU  0 instructions:  584000000 cycles:  865370464 heartbeat IPC: 0.48953 cumulative IPC: 0.58898 (Simulation time: 0 hr 27 min 57 sec) 
Heartbeat CPU  0 instructions:  585000001 cycles:  867404859 heartbeat IPC: 0.49155 cumulative IPC: 0.58874 (Simulation time: 0 hr 28 min 0 sec) 
Heartbeat CPU  0 instructions:  586000000 cycles:  869465880 heartbeat IPC: 0.48520 cumulative IPC: 0.58848 (Simulation time: 0 hr 28 min 3 sec) 
Heartbeat CPU  0 instructions:  587000002 cycles:  871503281 heartbeat IPC: 0.49082 cumulative IPC: 0.58824 (Simulation time: 0 hr 28 min 6 sec) 
Heartbeat CPU  0 instructions:  588000000 cycles:  873530952 heartbeat IPC: 0.49318 cumulative IPC: 0.58801 (Simulation time: 0 hr 28 min 9 sec) 
Heartbeat CPU  0 instructions:  589000000 cycles:  875569957 heartbeat IPC: 0.49044 cumulative IPC: 0.58777 (Simulation time: 0 hr 28 min 12 sec) 
Heartbeat CPU  0 instructions:  590000003 cycles:  877612797 heartbeat IPC: 0.48952 cumulative IPC: 0.58753 (Simulation time: 0 hr 28 min 15 sec) 
Heartbeat CPU  0 instructions:  591000002 cycles:  879647085 heartbeat IPC: 0.49157 cumulative IPC: 0.58730 (Simulation time: 0 hr 28 min 18 sec) 
Heartbeat CPU  0 instructions:  592000000 cycles:  881688974 heartbeat IPC: 0.48974 cumulative IPC: 0.58706 (Simulation time: 0 hr 28 min 21 sec) 
Heartbeat CPU  0 instructions:  593000000 cycles:  883725421 heartbeat IPC: 0.49105 cumulative IPC: 0.58683 (Simulation time: 0 hr 28 min 24 sec) 
Heartbeat CPU  0 instructions:  594000002 cycles:  885478361 heartbeat IPC: 0.57047 cumulative IPC: 0.58679 (Simulation time: 0 hr 28 min 27 sec) 
Heartbeat CPU  0 instructions:  595000000 cycles:  887200619 heartbeat IPC: 0.58063 cumulative IPC: 0.58678 (Simulation time: 0 hr 28 min 31 sec) 
Heartbeat CPU  0 instructions:  596000000 cycles:  890066028 heartbeat IPC: 0.34899 cumulative IPC: 0.58597 (Simulation time: 0 hr 28 min 36 sec) 
Heartbeat CPU  0 instructions:  597000002 cycles:  893194604 heartbeat IPC: 0.31963 cumulative IPC: 0.58499 (Simulation time: 0 hr 28 min 41 sec) 
Heartbeat CPU  0 instructions:  598000002 cycles:  896388233 heartbeat IPC: 0.31312 cumulative IPC: 0.58397 (Simulation time: 0 hr 28 min 46 sec) 
Heartbeat CPU  0 instructions:  599000000 cycles:  898264569 heartbeat IPC: 0.53295 cumulative IPC: 0.58386 (Simulation time: 0 hr 28 min 49 sec) 
Heartbeat CPU  0 instructions:  600000000 cycles:  899969581 heartbeat IPC: 0.58651 cumulative IPC: 0.58387 (Simulation time: 0 hr 28 min 53 sec) 
Finished CPU 0 instructions: 500000002 cycles: 856358230 cumulative IPC: 0.58387 (Simulation time: 0 hr 28 min 53 sec) 

ChampSim completed all CPUs

[ROI Statistics]
Core_0_instructions 500000002
Core_0_cycles 856358230
Core_0_IPC 0.58387

Core_0_branch_prediction_accuracy 99.99934
Core_0_branch_MPKI 0.00033
Core_0_average_ROB_occupancy_at_mispredict 124.37423

Core_0_L1D_total_access 99172134
Core_0_L1D_total_hit 89115354
Core_0_L1D_total_miss 10056780
Core_0_L1D_loads 49403548
Core_0_L1D_load_hit 40946816
Core_0_L1D_load_miss 8456732
Core_0_L1D_RFOs 49768586
Core_0_L1D_RFO_hit 48168538
Core_0_L1D_RFO_miss 1600048
Core_0_L1D_prefetches 0
Core_0_L1D_prefetch_hit 0
Core_0_L1D_prefetch_miss 0
Core_0_L1D_writebacks 0
Core_0_L1D_writeback_hit 0
Core_0_L1D_writeback_miss 0
Core_0_L1D_prefetch_requested 0
Core_0_L1D_prefetch_dropped 0
Core_0_L1D_prefetch_issued 0
Core_0_L1D_prefetch_filled 0
Core_0_L1D_prefetch_useful 0
Core_0_L1D_prefetch_useless 0
Core_0_L1D_prefetch_late 0
Core_0_L1D_average_miss_latency 165.68020

Core_0_L1D_rq_access 153803522
Core_0_L1D_rq_forward 0
Core_0_L1D_rq_merged 97930085
Core_0_L1D_rq_to_cache 55873437
Core_0_L1D_rq_full 0

Core_0_L1D_wq_access 59520168
Core_0_L1D_wq_forward 0
Core_0_L1D_wq_merged 104177
Core_0_L1D_wq_to_cache 59415991
Core_0_L1D_wq_full 9126319

Core_0_L1D_pq_access 0
Core_0_L1D_pq_forward 0
Core_0_L1D_pq_merged 0
Core_0_L1D_pq_to_cache 0
Core_0_L1D_pq_full 0

Core_0_L1D_acc_epochs 779390
Core_0_L1D_acc_level_0 779390
Core_0_L1D_acc_level_1 0
Core_0_L1D_acc_level_2 0
Core_0_L1D_acc_level_3 0
Core_0_L1D_acc_level_4 0
Core_0_L1D_acc_level_5 0
Core_0_L1D_acc_level_6 0
Core_0_L1D_acc_level_7 0
Core_0_L1D_acc_level_8 0
Core_0_L1D_acc_level_9 0

Core_0_L1I_total_access 124201193
Core_0_L1I_total_hit 124201146
Core_0_L1I_total_miss 47
Core_0_L1I_loads 124201193
Core_0_L1I_load_hit 124201146
Core_0_L1I_load_miss 47
Core_0_L1I_RFOs 0
Core_0_L1I_RFO_hit 0
Core_0_L1I_RFO_miss 0
Core_0_L1I_prefetches 0
Core_0_L1I_prefetch_hit 0
Core_0_L1I_prefetch_miss 0
Core_0_L1I_writebacks 0
Core_0_L1I_writeback_hit 0
Core_0_L1I_writeback_miss 0
Core_0_L1I_prefetch_requested 0
Core_0_L1I_prefetch_dropped 0
Core_0_L1I_prefetch_issued 0
Core_0_L1I_prefetch_filled 0
Core_0_L1I_prefetch_useful 0
Core_0_L1I_prefetch_useless 0
Core_0_L1I_prefetch_late 0
Core_0_L1I_average_miss_latency 276.74468

Core_0_L1I_rq_access 500000004
Core_0_L1I_rq_forward 0
Core_0_L1I_rq_merged 375798766
Core_0_L1I_rq_to_cache 124201238
Core_0_L1I_rq_full 0

Core_0_L1I_wq_access 0
Core_0_L1I_wq_forward 0
Core_0_L1I_wq_merged 0
Core_0_L1I_wq_to_cache 0
Core_0_L1I_wq_full 0

Core_0_L1I_pq_access 0
Core_0_L1I_pq_forward 0
Core_0_L1I_pq_merged 0
Core_0_L1I_pq_to_cache 0
Core_0_L1I_pq_full 0

Core_0_L1I_acc_epochs 779390
Core_0_L1I_acc_level_0 779390
Core_0_L1I_acc_level_1 0
Core_0_L1I_acc_level_2 0
Core_0_L1I_acc_level_3 0
Core_0_L1I_acc_level_4 0
Core_0_L1I_acc_level_5 0
Core_0_L1I_acc_level_6 0
Core_0_L1I_acc_level_7 0
Core_0_L1I_acc_level_8 0
Core_0_L1I_acc_level_9 0

Core_0_L2C_total_access 16359737
Core_0_L2C_total_hit 4979258
Core_0_L2C_total_miss 11380479
Core_0_L2C_loads 8456779
Core_0_L2C_load_hit 1981600
Core_0_L2C_load_miss 6475179
Core_0_L2C_RFOs 1600048
Core_0_L2C_RFO_hit 0
Core_0_L2C_RFO_miss 1600048
Core_0_L2C_prefetches 3275527
Core_0_L2C_prefetch_hit 761
Core_0_L2C_prefetch_miss 3274766
Core_0_L2C_writebacks 3027383
Core_0_L2C_writeback_hit 2996897
Core_0_L2C_writeback_miss 30486
Core_0_L2C_prefetch_requested 28912759
Core_0_L2C_prefetch_dropped 0
Core_0_L2C_prefetch_issued 28912759
Core_0_L2C_prefetch_filled 3973674
Core_0_L2C_prefetch_useful 2544340
Core_0_L2C_prefetch_useless 1429334
Core_0_L2C_prefetch_late 986357
Core_0_L2C_average_miss_latency 193.01318

Core_0_L2C_rq_access 10056827
Core_0_L2C_rq_forward 0
Core_0_L2C_rq_merged 0
Core_0_L2C_rq_to_cache 10056827
Core_0_L2C_rq_full 0

Core_0_L2C_wq_access 3027383
Core_0_L2C_wq_forward 0
Core_0_L2C_wq_merged 0
Core_0_L2C_wq_to_cache 3027383
Core_0_L2C_wq_full 0

Core_0_L2C_pq_access 28912759
Core_0_L2C_pq_forward 0
Core_0_L2C_pq_merged 48429
Core_0_L2C_pq_to_cache 28864330
Core_0_L2C_pq_full 0

Core_0_L2C_acc_epochs 779390
Core_0_L2C_acc_level_0 415804
Core_0_L2C_acc_level_1 1925
Core_0_L2C_acc_level_2 4388
Core_0_L2C_acc_level_3 25131
Core_0_L2C_acc_level_4 90704
Core_0_L2C_acc_level_5 158743
Core_0_L2C_acc_level_6 34579
Core_0_L2C_acc_level_7 3007
Core_0_L2C_acc_level_8 4121
Core_0_L2C_acc_level_9 40988

Core_0_LLC_total_access 32005759
Core_0_LLC_total_hit 5173568
Core_0_LLC_total_miss 26832191
Core_0_LLC_loads 5512826
Core_0_LLC_load_hit 2803815
Core_0_LLC_load_miss 2709011
Core_0_LLC_RFOs 1600048
Core_0_LLC_RFO_hit 3282
Core_0_LLC_RFO_miss 1596766
Core_0_LLC_prefetches 21863939
Core_0_LLC_prefetch_hit 1679827
Core_0_LLC_prefetch_miss 20184112
Core_0_LLC_writebacks 3028946
Core_0_LLC_writeback_hit 686644
Core_0_LLC_writeback_miss 2342302
Core_0_LLC_prefetch_requested 0
Core_0_LLC_prefetch_dropped 0
Core_0_LLC_prefetch_issued 0
Core_0_LLC_prefetch_filled 24619527
Core_0_LLC_prefetch_useful 3342333
Core_0_LLC_prefetch_useless 21265891
Core_0_LLC_prefetch_late 61357
Core_0_LLC_average_miss_latency 243.92739

Core_0_LLC_rq_access 7112874
Core_0_LLC_rq_forward 0
Core_0_LLC_rq_merged 0
Core_0_LLC_rq_to_cache 7112874
Core_0_LLC_rq_full 0

Core_0_LLC_wq_access 3028946
Core_0_LLC_wq_forward 0
Core_0_LLC_wq_merged 0
Core_0_LLC_wq_to_cache 3028946
Core_0_LLC_wq_full 0

Core_0_LLC_pq_access 26927221
Core_0_LLC_pq_forward 0
Core_0_LLC_pq_merged 19365
Core_0_LLC_pq_to_cache 26907856
Core_0_LLC_pq_full 0

Core_0_LLC_acc_epochs 878877
Core_0_LLC_acc_level_0 254003
Core_0_LLC_acc_level_1 371486
Core_0_LLC_acc_level_2 148788
Core_0_LLC_acc_level_3 70825
Core_0_LLC_acc_level_4 24472
Core_0_LLC_acc_level_5 6559
Core_0_LLC_acc_level_6 1720
Core_0_LLC_acc_level_7 503
Core_0_LLC_acc_level_8 95
Core_0_LLC_acc_level_9 426

Core_0_major_page_fault 0
Core_0_minor_page_fault 95964

[MLOP] History of tracked zone:
IIIIIIIIIIIIIIIIIIIIIIIIIIIIIIIIIIIIIIIIIIIIIIIIIIIIIIIIIIIIIIII
IIIIIIIIA24IIIIIIIIIIIIIIIIIIIIIIIIIIIII44IIIIIIIIIIIIIIIIIIIIII
IIIIIIIIAA24IIIIIIIIIIIIIIIIIIIIIIIIIIII444IIIIIIIIIIIIIIIIIIIII
IIIIIIIIAAA24IIIIIIIIIIIIIIIIIIIIIIIIIII4444IIIIIIIIIIIIIIIIIIII
IIIIIIIIAAA24IIIIIIIIIIIIIIIIIIIIIIIIIIIA244IIIIIIIIIIIIIIIIIIII
IIIIIIIIAAA24IIIIIIIIIIIIIIIIIIIIIIIIIIIAA24IIIIIIIIIIIIIIIIIIII
IIIIIIIIAAA24IIIIIIIIIIIIIIIIIIIIIIIIIIIAAA24IIIIIIIIIIIIIIIIIII
IIIIIIIIAAI24IIIIIIIIIIIIIIIIIIIIIIIIIIIAAA24IIIIIIIIIIIIIIIIIII
IIIIIIIIAAII4IIIIIIIIIIIIIIIIIIIIIIIIIIIAAA24IIIIIIIIIIIIIIIIIII
IIIIIIIIAAII4IIIIIIIIIIIIIIIIIIIIIIIIIIIAAAI4IIIIIIIIIIIIIIIIIII
AIII444444IIIIIIIIIIIIIIIIIIIIII4IIIIIIIIIIIIIIIIIIIIIIIIIIIIIII
AIII444444IIIIIAIII444444IIIIIII4IIIIIIIIIIIIII4IIIIIIIIIIIIIIII
AIII444444IIIIAAII4444444IIIIIII4IIIIIIIIIIIII44IIIIIIIIIIIIIIII
AIII444444IIIIAAII4444444IIIIIIIAIII444444IIII44IIIIIIIIIIIIIIII
AIII444444IIIIAAII4444444IIIIIIIAIII444444IIII4AIII444444IIIIIII
AIII444444IIIIAAII4444444IIIIIIIAIII444444IIIIAAII4444444IIIIIII
IIIIIIA2IIIIIIIIIIIIIIIIIIIIIIIIIIIIII44IIIIIIIIIIIIIIIIIIIIIIII
IIIIIIAA2IIIIIIIIIIIIIIIIIIIIIIIIIIIII444IIIIIIIIIIIIIIIIIIIIIII
IIIIIIAAA2IIIIIIIIIIIIIIIIIIIIIIIIIIII4444IIIIIIIIIIIIIIIIIIIIII
IIIIIIAAA2IIIIIIIIIIIIIIIIIIIIIIIIIIIIA244IIIIIIIIIIIIIIIIIIIIII
IIIIIIAAA2IIIIIIIIIIIIIIIIIIIIIIIIIIIIAA24IIIIIIIIIIIIIIIIIIIIII
IIIIIIAAA2IIIIIIIIIIIIIIIIIIIIIIIIIIIIAAA2IIIIIIIIIIIIIIIIIIIIII
IIIIIIAIA2IIIIIIIIIIIIIIIIIIIIIIIIIIIIAAA2IIIIIIIIIIIIIIIIIIIIII
IIIIIIAIAIIIIIIIIIIIIIIIIIIIIIIIIIIIIIAAA2IIIIIIIIIIIIIIIIIIIIII
IIIIIIAIAIIIIIIIIIIIIIIIIIIIIIIIIIIIIIAAAIIIIIIIIIIIIIIIIIIIIIII
IIA2IIIIIIIIIIIIIIIIIIIIIIIIIIIIII44IIIIIIIIIIIIIIIIIIIIIIIIIIII
IIAA2IIIIIIIIIIIIIIIIIIIIIIIIIIIII444IIIIIIIIIIIIIIIIIIIIIIIIIII
IIAAA2IIIIIIIIIIIIIIIIIIIIIIIIIIII4444IIIIIIIIIIIIIIIIIIIIIIIIII
IIAAA2IIIIIIIIIIIIIIIIIIIIIIIIIIIIA244IIIIIIIIIIIIIIIIIIIIIIIIII
IIAAA2IIIIIIIIIIIIIIIIIIIIIIIIIIIIAA24IIIIIIIIIIIIIIIIIIIIIIIIII
IIAAA2IIIIIIIIIIIIIIIIIIIIIIIIIIIIAAA2IIIIIIIIIIIIIIIIIIIIIIIIII
IIAAA2IIIIIIIIIIIIIIIIIIIIIIIIIIIIAAI2IIIIIIIIIIIIIIIIIIIIIIIIII
IIAAAIIIIIIIIIIIIIIIIIIIIIIIIIIIIIAAI2IIIIIIIIIIIIIIIIIIIIIIIIII
IIAAAIIIIIIIIIIIIIIIIIIIIIIIIIIIIIAAIIIIIIIIIIIIIIIIIIIIIIIIIIII
A4II4444444444444IIIIIIIIIIIIIII4IIIIIIIIIIIIIIIIIIIIIIIIIIIIIII
A4II4444444A4444444444444444IIII4IIIIIIIIII4IIIIIIIIIIIIIIIIIIII
A4II4444444AA444444444444444IIII4IIIIIIIIII44IIIIIIIIIIIIIIIIIII
A4II4444444AA444444444444444IIIIA4II4444444444444IIIIIIIIIIIIIII
A4II4444444AA444444444444444IIIIA4II4444444A4444444444444444IIII
A4II4444444AA444444444444444IIIIA4II4444444AA4444444444444444III
IIIIIIIIA2IIIIIIIIIIIIIIIIIIIIIIIIIIIIII44IIIIIIIIIIIIIIIIIIIIII
IIIIIIIIAA2IIIIIIIIIIIIIIIIIIIIIIIIIIIII444IIIIIIIIIIIIIIIIIIIII
IIIIIIIIAAA2IIIIIIIIIIIIIIIIIIIIIIIIIIII4444IIIIIIIIIIIIIIIIIIII
IIIIIIIIAAA2IIIIIIIIIIIIIIIIIIIIIIIIIIIIA244IIIIIIIIIIIIIIIIIIII
IIIIIIIIAAA2IIIIIIIIIIIIIIIIIIIIIIIIIIIIAA24IIIIIIIIIIIIIIIIIIII
IIIIIIIIAAA2IIIIIIIIIIIIIIIIIIIIIIIIIIIIAAA2IIIIIIIIIIIIIIIIIIII
IIIIIIIIAAAIIIIIIIIIIIIIIIIIIIIIIIIIIIIIAAA2IIIIIIIIIIIIIIIIIIII
IIIIIIIIAAAIIIIIIIIIIIIIIIIIIIIIIIIIIIIIAAAIIIIIIIIIIIIIIIIIIIII
IIA24IIIIIIIIIIIIIIIIIIIIIIIIIIIII44IIIIIIIIIIIIIIIIIIIIIIIIIIII
IIAA24IIIIIIIIIIIIIIIIIIIIIIIIIIII444IIIIIIIIIIIIIIIIIIIIIIIIIII
IIAAA24IIIIIIIIIIIIIIIIIIIIIIIIIII4444IIIIIIIIIIIIIIIIIIIIIIIIII
IIAAA24IIIIIIIIIIIIIIIIIIIIIIIIIIIA244IIIIIIIIIIIIIIIIIIIIIIIIII
IIAAA24IIIIIIIIIIIIIIIIIIIIIIIIIIIAA24IIIIIIIIIIIIIIIIIIIIIIIIII
IIAAA24IIIIIIIIIIIIIIIIIIIIIIIIIIIAAA24IIIIIIIIIIIIIIIIIIIIIIIII
IIAAAI4IIIIIIIIIIIIIIIIIIIIIIIIIIIAAA24IIIIIIIIIIIIIIIIIIIIIIIII
IIAAAI4IIIIIIIIIIIIIIIIIIIIIIIIIIIAAI24IIIIIIIIIIIIIIIIIIIIIIIII
IIAAAI4IIIIIIIIIIIIIIIIIIIIIIIIIIIAAII4IIIIIIIIIIIIIIIIIIIIIIIII
A4II444444444IIIIIIIIIIIIIIIIIII4IIIIIIIIIIIIIIIIIIIIIIIIIIIIIII
A4II4444444A4II444444444IIIIIIII4IIIIIIIIII4IIIIIIIIIIIIIIIIIIII
A4II4444444AA4I4444444444IIIIIII4IIIIIIIIII44IIIIIIIIIIIIIIIIIII
A4II4444444AA4I4444444444IIIIIIIA4II444444444IIIIIIIIIIIIIIIIIII
A4II4444444AA4I4444444444IIIIIIIA4II4444444A4II444444444IIIIIIII
A4II4444444AA4I4444444444IIIIIIIA4II4444444AA4I4444444444IIIIIII
IIIIIIIIA2IIIIIIIIIIIIIIIIIIIIIIIIIIIIII44IIIIIIIIIIIIIIIIIIIIII
IIIIIIIIAA2IIIIIIIIIIIIIIIIIIIIIIIIIIIII444IIIIIIIIIIIIIIIIIIIII
IIIIIIIIAAA2IIIIIIIIIIIIIIIIIIIIIIIIIIII4444IIIIIIIIIIIIIIIIIIII
IIIIIIIIAAA2IIIIIIIIIIIIIIIIIIIIIIIIIIIIA244IIIIIIIIIIIIIIIIIIII
IIIIIIIIAAA2IIIIIIIIIIIIIIIIIIIIIIIIIIIIAA24IIIIIIIIIIIIIIIIIIII
IIIIIIIIAAA2IIIIIIIIIIIIIIIIIIIIIIIIIIIIAAA2IIIIIIIIIIIIIIIIIIII
IIIIIIIIAAAIIIIIIIIIIIIIIIIIIIIIIIIIIIIIAAA2IIIIIIIIIIIIIIIIIIII
IIIIIIIIAAAIIIIIIIIIIIIIIIIIIIIIIIIIIIIIAAAIIIIIIIIIIIIIIIIIIIII
AIII444444IIIIIIIIIIIIIIIIIIIIII4IIIIIIIIIIIIIIIIIIIIIIIIIIIIIII
AIII444444IIIIIAIII444444IIIIIII4IIIIIIIIIIIIII4IIIIIIIIIIIIIIII
AIII444444IIIIAAII4444444IIIIIII4IIIIIIIIIIIII44IIIIIIIIIIIIIIII
AIII444444IIIIAAII4444444IIIIIIIAIII444444IIII44IIIIIIIIIIIIIIII
AIII444444IIIIAAII4444444IIIIIIIAIII444444IIII4AIII444444IIIIIII
AIII444444IIIIAAII4444444IIIIIIIAIII444444IIIIAAII4444444IIIIIII
IIIIIIIIA2IIIIIIIIIIIIIIIIIIIIIIIIIIIIII44IIIIIIIIIIIIIIIIIIIIII
IIIIIIIIAA2IIIIIIIIIIIIIIIIIIIIIIIIIIIII444IIIIIIIIIIIIIIIIIIIII
IIIIIIIIAAA2IIIIIIIIIIIIIIIIIIIIIIIIIIII4444IIIIIIIIIIIIIIIIIIII
IIIIIIIIAAA2IIIIIIIIIIIIIIIIIIIIIIIIIIIIA244IIIIIIIIIIIIIIIIIIII
IIIIIIIIAAA2IIIIIIIIIIIIIIIIIIIIIIIIIIIIAA24IIIIIIIIIIIIIIIIIIII
IIIIIIIIAAA2IIIIIIIIIIIIIIIIIIIIIIIIIIIIAAA2IIIIIIIIIIIIIIIIIIII
IIIIIIIIAAAIIIIIIIIIIIIIIIIIIIIIIIIIIIIIAAA2IIIIIIIIIIIIIIIIIIII
IIIIIIIIAAAIIIIIIIIIIIIIIIIIIIIIIIIIIIIIAAI2IIIIIIIIIIIIIIIIIIII
IIIIIIIIAAAIIIIIIIIIIIIIIIIIIIIIIIIIIIIIAAIIIIIIIIIIIIIIIIIIIIII
IIA2IIIIIIIIIIIIIIIIIIIIIIIIIIIIII44IIIIIIIIIIIIIIIIIIIIIIIIIIII
IIAA2IIIIIIIIIIIIIIIIIIIIIIIIIIIII444IIIIIIIIIIIIIIIIIIIIIIIIIII
IIAAA2IIIIIIIIIIIIIIIIIIIIIIIIIIII4444IIIIIIIIIIIIIIIIIIIIIIIIII
IIAAA2IIIIIIIIIIIIIIIIIIIIIIIIIIIIA244IIIIIIIIIIIIIIIIIIIIIIIIII
IIAAA2IIIIIIIIIIIIIIIIIIIIIIIIIIIIAA24IIIIIIIIIIIIIIIIIIIIIIIIII
IIAAA2IIIIIIIIIIIIIIIIIIIIIIIIIIIIAAA2IIIIIIIIIIIIIIIIIIIIIIIIII
IIAAA2IIIIIIIIIIIIIIIIIIIIIIIIIIIIAIA2IIIIIIIIIIIIIIIIIIIIIIIIII
IIAAAIIIIIIIIIIIIIIIIIIIIIIIIIIIIIAIA2IIIIIIIIIIIIIIIIIIIIIIIIII
IIAAAIIIIIIIIIIIIIIIIIIIIIIIIIIIIIAIAIIIIIIIIIIIIIIIIIIIIIIIIIII
A4II4444444444444IIIIIIIIIIIIIII4IIIIIIIIIIIIIIIIIIIIIIIIIIIIIII
A4II4444444A4444444444444444IIII4IIIIIIIIII4IIIIIIIIIIIIIIIIIIII
A4II4444444AA4444444444444444III4IIIIIIIIII44IIIIIIIIIIIIIIIIIII
A4II4444444AA4444444444444444IIIA4II4444444444444IIIIIIIIIIIIIII
A4II4444444AA4444444444444444IIIA4II4444444A4444444444444444IIII
A4II4444444AA4444444444444444IIIA4II4444444AA4444444444444444III
IIIIIIIIA2IIIIIIIIIIIIIIIIIIIIIIIIIIIIII44IIIIIIIIIIIIIIIIIIIIII
IIIIIIIIAA2IIIIIIIIIIIIIIIIIIIIIIIIIIIII444IIIIIIIIIIIIIIIIIIIII
IIIIIIIIAAA2IIIIIIIIIIIIIIIIIIIIIIIIIIII4444IIIIIIIIIIIIIIIIIIII
IIIIIIIIAAA2IIIIIIIIIIIIIIIIIIIIIIIIIIIIA244IIIIIIIIIIIIIIIIIIII
IIIIIIIIAAA2IIIIIIIIIIIIIIIIIIIIIIIIIIIIAA24IIIIIIIIIIIIIIIIIIII
IIIIIIIIAAA2IIIIIIIIIIIIIIIIIIIIIIIIIIIIAAA2IIIIIIIIIIIIIIIIIIII
IIIIIIIIAAAIIIIIIIIIIIIIIIIIIIIIIIIIIIIIAAA2IIIIIIIIIIIIIIIIIIII
IIIIIIIIAAAIIIIIIIIIIIIIIIIIIIIIIIIIIIIIAAAIIIIIIIIIIIIIIIIIIIII
[MLOP] Prefetch Degree Mean: 7.56832
[MLOP] Prefetch Degree SD: 5.20114
[MLOP] Max Score Left Mean (%): 28.48424
[MLOP] Max Score Left SD (%): 17.42467
[MLOP] Max Score Right Mean (%): 77.40430
[MLOP] Max Score Right SD (%): 13.90989

Channel_0_RQ_row_buffer_hit 17281963
Channel_0_RQ_row_buffer_miss 7207899
Channel_0_WQ_row_buffer_hit 1215911
Channel_0_WQ_row_buffer_miss 1828644
Channel_0_WQ_full 13143
Channel_0_dbus_congested 19042507

avg_congested_cycle 10

DRAM_bw_pochs 3515507
DRAM_bw_level_0 380646
DRAM_bw_level_1 1031442
DRAM_bw_level_2 883757
DRAM_bw_level_3 1219662
