*************************************************
   ChampSim Multicore Out-of-Order Simulator
   Last compiled: Dec 11 2024 17:59:53
*************************************************
parsing config file: /home/functionmain/桌面/Pythia/config/nopref.ini

trace_0 /home/functionmain/桌面/Pythia/traces/433.milc-127B.champsimtrace.xz
adding L2C_PREFETCHER: NONE
Initialize SHIP state
warmup_instructions 100000000
simulation_instructions 500000000
champsim_seed 220
measure_ipc 0
measure_ipc_epoch 1000
measure_dram_bw 1
measure_dram_bw_epoch 256
measure_cache_acc 1
measure_cache_acc_epoch 1024
l1d_perfect 0
l2c_perfect 0
llc_perfect 0
l1d_semi_perfect 0
l2c_semi_perfect 0
llc_semi_perfect 0
semi_perfect_cache_page_buffer_size 64

num_cpus 1
cpu_freq 4000
dram_io_freq 1200
page_size 4096
block_size 64
max_read_per_cycle 8
max_fill_per_cycle 1
dram_channels 1
log2_dram_channels 0
dram_ranks 1
dram_banks 8
dram_rows 65536
dram_columns 128
dram_row_size 8
dram_size 4096
dram_pages 1048576

fetch_width 6
decode_width 6
exec_width 4
lq_width 2
sq_width 2
retire_width 4
scheduler_size 128
branch_mispredict_penalty 20
rob_size 256
lq_size 72
sq_size 56
num_instr_destinations_sparc 4
num_instr_destinations 2
num_instr_sources 4

itlb_set 16
itlb_way 8
itlb_rq_size 16
itlb_wq_size 16
itlb_pq_size 0
itlb_mshr_size 8
itlb_latency 1

dtlb_set 16
dtlb_way 4
dtlb_rq_size 16
dtlb_wq_size 16
dtlb_pq_size 0
dtlb_mshr_size 8
dtlb_latency 1

stlb_set 128
stlb_way 12
stlb_rq_size 32
stlb_wq_size 32
stlb_pq_size 0
stlb_mshr_size 16
stlb_latency 8

l1i_size 32
l1i_set 64
l1i_way 8
l1i_rq_size 64
l1i_wq_size 64
l1i_pq_size 8
l1i_mshr_size 8
l1i_latency 1

l1d_size 32
l1d_set 64
l1d_way 8
l1d_rq_size 64
l1d_wq_size 64
l1d_pq_size 8
l1d_mshr_size 16
l1d_latency 4

l2c_size 256
l2c_set 512
l2c_way 8
l2c_rq_size 32
l2c_wq_size 32
l2c_pq_size 32
l2c_mshr_size 32
l2c_latency 10

llc_size 2048
llc_set 2048
llc_way 16
llc_rq_size 32
llc_wq_size 32
llc_pq_size 32
llc_mshr_size 64
llc_latency 20

dram_channel_width 8
dram_wq_size 64
dram_rq_size 64
tRP 15
tRCD 15
tCAS 12.5
dram_dbus_turn_around_time 30
dram_write_high_wm 56
dram_write_low_wm 48
min_dram_writes_per_switch 16
dram_mtps 1200
dram_dbus_return_time 26


Heartbeat CPU  0 instructions:    1000001 cycles:     384113 heartbeat IPC: 2.60340 cumulative IPC: 2.60340 (Simulation time: 0 hr 0 min 1 sec) 
Heartbeat CPU  0 instructions:    2000000 cycles:     768159 heartbeat IPC: 2.60385 cumulative IPC: 2.60363 (Simulation time: 0 hr 0 min 3 sec) 
Heartbeat CPU  0 instructions:    3000000 cycles:    1152178 heartbeat IPC: 2.60404 cumulative IPC: 2.60376 (Simulation time: 0 hr 0 min 4 sec) 
Heartbeat CPU  0 instructions:    4000000 cycles:    1536226 heartbeat IPC: 2.60384 cumulative IPC: 2.60378 (Simulation time: 0 hr 0 min 6 sec) 
Heartbeat CPU  0 instructions:    5000001 cycles:    1920290 heartbeat IPC: 2.60374 cumulative IPC: 2.60377 (Simulation time: 0 hr 0 min 7 sec) 
Heartbeat CPU  0 instructions:    6000000 cycles:    2304320 heartbeat IPC: 2.60396 cumulative IPC: 2.60381 (Simulation time: 0 hr 0 min 9 sec) 
Heartbeat CPU  0 instructions:    7000002 cycles:    2688342 heartbeat IPC: 2.60402 cumulative IPC: 2.60384 (Simulation time: 0 hr 0 min 10 sec) 
Heartbeat CPU  0 instructions:    8000000 cycles:    3072394 heartbeat IPC: 2.60381 cumulative IPC: 2.60383 (Simulation time: 0 hr 0 min 12 sec) 
Heartbeat CPU  0 instructions:    9000003 cycles:    3456443 heartbeat IPC: 2.60384 cumulative IPC: 2.60383 (Simulation time: 0 hr 0 min 13 sec) 
Heartbeat CPU  0 instructions:   10000000 cycles:    3840492 heartbeat IPC: 2.60383 cumulative IPC: 2.60383 (Simulation time: 0 hr 0 min 15 sec) 
Heartbeat CPU  0 instructions:   11000002 cycles:    4224516 heartbeat IPC: 2.60401 cumulative IPC: 2.60385 (Simulation time: 0 hr 0 min 17 sec) 
Heartbeat CPU  0 instructions:   12000000 cycles:    4608535 heartbeat IPC: 2.60403 cumulative IPC: 2.60386 (Simulation time: 0 hr 0 min 18 sec) 
Heartbeat CPU  0 instructions:   13000003 cycles:    4992611 heartbeat IPC: 2.60366 cumulative IPC: 2.60385 (Simulation time: 0 hr 0 min 20 sec) 
Heartbeat CPU  0 instructions:   14000000 cycles:    5376647 heartbeat IPC: 2.60391 cumulative IPC: 2.60385 (Simulation time: 0 hr 0 min 21 sec) 
Heartbeat CPU  0 instructions:   15000002 cycles:    5760675 heartbeat IPC: 2.60398 cumulative IPC: 2.60386 (Simulation time: 0 hr 0 min 23 sec) 
Heartbeat CPU  0 instructions:   16000000 cycles:    6144707 heartbeat IPC: 2.60394 cumulative IPC: 2.60387 (Simulation time: 0 hr 0 min 24 sec) 
Heartbeat CPU  0 instructions:   17000001 cycles:    6528775 heartbeat IPC: 2.60371 cumulative IPC: 2.60386 (Simulation time: 0 hr 0 min 26 sec) 
Heartbeat CPU  0 instructions:   18000000 cycles:    6912830 heartbeat IPC: 2.60379 cumulative IPC: 2.60385 (Simulation time: 0 hr 0 min 27 sec) 
Heartbeat CPU  0 instructions:   19000002 cycles:    7296836 heartbeat IPC: 2.60413 cumulative IPC: 2.60387 (Simulation time: 0 hr 0 min 29 sec) 
Heartbeat CPU  0 instructions:   20000000 cycles:    7785195 heartbeat IPC: 2.04767 cumulative IPC: 2.56898 (Simulation time: 0 hr 0 min 31 sec) 
Heartbeat CPU  0 instructions:   21000000 cycles:    8292994 heartbeat IPC: 1.96928 cumulative IPC: 2.53226 (Simulation time: 0 hr 0 min 32 sec) 
Heartbeat CPU  0 instructions:   22000002 cycles:    8840267 heartbeat IPC: 1.82725 cumulative IPC: 2.48861 (Simulation time: 0 hr 0 min 34 sec) 
Heartbeat CPU  0 instructions:   23000003 cycles:    9387607 heartbeat IPC: 1.82702 cumulative IPC: 2.45004 (Simulation time: 0 hr 0 min 36 sec) 
Heartbeat CPU  0 instructions:   24000000 cycles:    9927584 heartbeat IPC: 1.85193 cumulative IPC: 2.41751 (Simulation time: 0 hr 0 min 38 sec) 
Heartbeat CPU  0 instructions:   25000002 cycles:   10372730 heartbeat IPC: 2.24646 cumulative IPC: 2.41017 (Simulation time: 0 hr 0 min 40 sec) 
Heartbeat CPU  0 instructions:   26000000 cycles:   10817853 heartbeat IPC: 2.24657 cumulative IPC: 2.40343 (Simulation time: 0 hr 0 min 41 sec) 
Heartbeat CPU  0 instructions:   27000000 cycles:   11262973 heartbeat IPC: 2.24659 cumulative IPC: 2.39724 (Simulation time: 0 hr 0 min 43 sec) 
Heartbeat CPU  0 instructions:   28000000 cycles:   11708093 heartbeat IPC: 2.24659 cumulative IPC: 2.39151 (Simulation time: 0 hr 0 min 45 sec) 
Heartbeat CPU  0 instructions:   29000000 cycles:   12153249 heartbeat IPC: 2.24640 cumulative IPC: 2.38619 (Simulation time: 0 hr 0 min 47 sec) 
Heartbeat CPU  0 instructions:   30000000 cycles:   12598405 heartbeat IPC: 2.24640 cumulative IPC: 2.38125 (Simulation time: 0 hr 0 min 48 sec) 
Heartbeat CPU  0 instructions:   31000000 cycles:   13043525 heartbeat IPC: 2.24659 cumulative IPC: 2.37666 (Simulation time: 0 hr 0 min 50 sec) 
Heartbeat CPU  0 instructions:   32000000 cycles:   13488645 heartbeat IPC: 2.24659 cumulative IPC: 2.37237 (Simulation time: 0 hr 0 min 52 sec) 
Heartbeat CPU  0 instructions:   33000000 cycles:   13933793 heartbeat IPC: 2.24644 cumulative IPC: 2.36834 (Simulation time: 0 hr 0 min 54 sec) 
Heartbeat CPU  0 instructions:   34000000 cycles:   14378913 heartbeat IPC: 2.24659 cumulative IPC: 2.36457 (Simulation time: 0 hr 0 min 55 sec) 
Heartbeat CPU  0 instructions:   35000000 cycles:   14824033 heartbeat IPC: 2.24659 cumulative IPC: 2.36103 (Simulation time: 0 hr 0 min 57 sec) 
Heartbeat CPU  0 instructions:   36000000 cycles:   15269160 heartbeat IPC: 2.24655 cumulative IPC: 2.35769 (Simulation time: 0 hr 0 min 59 sec) 
Heartbeat CPU  0 instructions:   37000002 cycles:   15714325 heartbeat IPC: 2.24636 cumulative IPC: 2.35454 (Simulation time: 0 hr 1 min 1 sec) 
Heartbeat CPU  0 instructions:   38000002 cycles:   16159445 heartbeat IPC: 2.24659 cumulative IPC: 2.35157 (Simulation time: 0 hr 1 min 2 sec) 
Heartbeat CPU  0 instructions:   39000002 cycles:   16604565 heartbeat IPC: 2.24659 cumulative IPC: 2.34875 (Simulation time: 0 hr 1 min 4 sec) 
Heartbeat CPU  0 instructions:   40000000 cycles:   17049687 heartbeat IPC: 2.24657 cumulative IPC: 2.34608 (Simulation time: 0 hr 1 min 6 sec) 
Heartbeat CPU  0 instructions:   41000000 cycles:   17494844 heartbeat IPC: 2.24640 cumulative IPC: 2.34355 (Simulation time: 0 hr 1 min 8 sec) 
Heartbeat CPU  0 instructions:   42000000 cycles:   17939969 heartbeat IPC: 2.24656 cumulative IPC: 2.34114 (Simulation time: 0 hr 1 min 9 sec) 
Heartbeat CPU  0 instructions:   43000000 cycles:   18385100 heartbeat IPC: 2.24653 cumulative IPC: 2.33885 (Simulation time: 0 hr 1 min 11 sec) 
Heartbeat CPU  0 instructions:   44000000 cycles:   18830223 heartbeat IPC: 2.24657 cumulative IPC: 2.33667 (Simulation time: 0 hr 1 min 13 sec) 
Heartbeat CPU  0 instructions:   45000001 cycles:   19275376 heartbeat IPC: 2.24642 cumulative IPC: 2.33458 (Simulation time: 0 hr 1 min 15 sec) 
Heartbeat CPU  0 instructions:   46000001 cycles:   19720496 heartbeat IPC: 2.24659 cumulative IPC: 2.33260 (Simulation time: 0 hr 1 min 16 sec) 
Heartbeat CPU  0 instructions:   47000001 cycles:   20165616 heartbeat IPC: 2.24659 cumulative IPC: 2.33070 (Simulation time: 0 hr 1 min 18 sec) 
Heartbeat CPU  0 instructions:   48000000 cycles:   20610736 heartbeat IPC: 2.24658 cumulative IPC: 2.32888 (Simulation time: 0 hr 1 min 20 sec) 
Heartbeat CPU  0 instructions:   49000002 cycles:   21055906 heartbeat IPC: 2.24634 cumulative IPC: 2.32714 (Simulation time: 0 hr 1 min 21 sec) 
Heartbeat CPU  0 instructions:   50000001 cycles:   21501058 heartbeat IPC: 2.24642 cumulative IPC: 2.32547 (Simulation time: 0 hr 1 min 23 sec) 
Heartbeat CPU  0 instructions:   51000001 cycles:   21946178 heartbeat IPC: 2.24659 cumulative IPC: 2.32387 (Simulation time: 0 hr 1 min 25 sec) 
Heartbeat CPU  0 instructions:   52000000 cycles:   22391298 heartbeat IPC: 2.24658 cumulative IPC: 2.32233 (Simulation time: 0 hr 1 min 27 sec) 
Heartbeat CPU  0 instructions:   53000002 cycles:   22836446 heartbeat IPC: 2.24645 cumulative IPC: 2.32085 (Simulation time: 0 hr 1 min 28 sec) 
Heartbeat CPU  0 instructions:   54000002 cycles:   23281566 heartbeat IPC: 2.24659 cumulative IPC: 2.31943 (Simulation time: 0 hr 1 min 30 sec) 
Heartbeat CPU  0 instructions:   55000002 cycles:   23726686 heartbeat IPC: 2.24659 cumulative IPC: 2.31807 (Simulation time: 0 hr 1 min 32 sec) 
Heartbeat CPU  0 instructions:   56000000 cycles:   24171808 heartbeat IPC: 2.24657 cumulative IPC: 2.31675 (Simulation time: 0 hr 1 min 34 sec) 
Heartbeat CPU  0 instructions:   57000000 cycles:   24616981 heartbeat IPC: 2.24632 cumulative IPC: 2.31547 (Simulation time: 0 hr 1 min 35 sec) 
Heartbeat CPU  0 instructions:   58000000 cycles:   25062101 heartbeat IPC: 2.24659 cumulative IPC: 2.31425 (Simulation time: 0 hr 1 min 37 sec) 
Heartbeat CPU  0 instructions:   59000003 cycles:   25507513 heartbeat IPC: 2.24512 cumulative IPC: 2.31304 (Simulation time: 0 hr 1 min 39 sec) 
Heartbeat CPU  0 instructions:   60000000 cycles:   25953280 heartbeat IPC: 2.24332 cumulative IPC: 2.31185 (Simulation time: 0 hr 1 min 41 sec) 
Heartbeat CPU  0 instructions:   61000000 cycles:   26399087 heartbeat IPC: 2.24312 cumulative IPC: 2.31069 (Simulation time: 0 hr 1 min 42 sec) 
Heartbeat CPU  0 instructions:   62000002 cycles:   26844873 heartbeat IPC: 2.24323 cumulative IPC: 2.30957 (Simulation time: 0 hr 1 min 44 sec) 
Heartbeat CPU  0 instructions:   63000003 cycles:   27290623 heartbeat IPC: 2.24341 cumulative IPC: 2.30849 (Simulation time: 0 hr 1 min 46 sec) 
Heartbeat CPU  0 instructions:   64000000 cycles:   27736424 heartbeat IPC: 2.24315 cumulative IPC: 2.30744 (Simulation time: 0 hr 1 min 47 sec) 
Heartbeat CPU  0 instructions:   65000003 cycles:   28182225 heartbeat IPC: 2.24316 cumulative IPC: 2.30642 (Simulation time: 0 hr 1 min 49 sec) 
Heartbeat CPU  0 instructions:   66000000 cycles:   28627988 heartbeat IPC: 2.24334 cumulative IPC: 2.30544 (Simulation time: 0 hr 1 min 51 sec) 
Heartbeat CPU  0 instructions:   67000002 cycles:   29073778 heartbeat IPC: 2.24321 cumulative IPC: 2.30448 (Simulation time: 0 hr 1 min 53 sec) 
Heartbeat CPU  0 instructions:   68000000 cycles:   29519519 heartbeat IPC: 2.24345 cumulative IPC: 2.30356 (Simulation time: 0 hr 1 min 54 sec) 
Heartbeat CPU  0 instructions:   69000003 cycles:   29965321 heartbeat IPC: 2.24316 cumulative IPC: 2.30266 (Simulation time: 0 hr 1 min 56 sec) 
Heartbeat CPU  0 instructions:   70000003 cycles:   30411083 heartbeat IPC: 2.24335 cumulative IPC: 2.30179 (Simulation time: 0 hr 1 min 58 sec) 
Heartbeat CPU  0 instructions:   71000003 cycles:   30856857 heartbeat IPC: 2.24329 cumulative IPC: 2.30095 (Simulation time: 0 hr 2 min 0 sec) 
Heartbeat CPU  0 instructions:   72000000 cycles:   31302634 heartbeat IPC: 2.24327 cumulative IPC: 2.30013 (Simulation time: 0 hr 2 min 1 sec) 
Heartbeat CPU  0 instructions:   73000001 cycles:   31748436 heartbeat IPC: 2.24315 cumulative IPC: 2.29933 (Simulation time: 0 hr 2 min 3 sec) 
Heartbeat CPU  0 instructions:   74000002 cycles:   32194209 heartbeat IPC: 2.24330 cumulative IPC: 2.29855 (Simulation time: 0 hr 2 min 5 sec) 
Heartbeat CPU  0 instructions:   75000003 cycles:   32639957 heartbeat IPC: 2.24342 cumulative IPC: 2.29780 (Simulation time: 0 hr 2 min 7 sec) 
Heartbeat CPU  0 instructions:   76000000 cycles:   33085742 heartbeat IPC: 2.24323 cumulative IPC: 2.29706 (Simulation time: 0 hr 2 min 8 sec) 
Heartbeat CPU  0 instructions:   77000003 cycles:   33531533 heartbeat IPC: 2.24321 cumulative IPC: 2.29635 (Simulation time: 0 hr 2 min 10 sec) 
Heartbeat CPU  0 instructions:   78000000 cycles:   33977285 heartbeat IPC: 2.24339 cumulative IPC: 2.29565 (Simulation time: 0 hr 2 min 12 sec) 
Heartbeat CPU  0 instructions:   79000002 cycles:   34423089 heartbeat IPC: 2.24314 cumulative IPC: 2.29497 (Simulation time: 0 hr 2 min 14 sec) 
Heartbeat CPU  0 instructions:   80000000 cycles:   34868829 heartbeat IPC: 2.24346 cumulative IPC: 2.29431 (Simulation time: 0 hr 2 min 15 sec) 
Heartbeat CPU  0 instructions:   81000001 cycles:   35314657 heartbeat IPC: 2.24302 cumulative IPC: 2.29367 (Simulation time: 0 hr 2 min 17 sec) 
Heartbeat CPU  0 instructions:   82000003 cycles:   35760439 heartbeat IPC: 2.24325 cumulative IPC: 2.29304 (Simulation time: 0 hr 2 min 19 sec) 
Heartbeat CPU  0 instructions:   83000003 cycles:   36206196 heartbeat IPC: 2.24337 cumulative IPC: 2.29243 (Simulation time: 0 hr 2 min 20 sec) 
Heartbeat CPU  0 instructions:   84000000 cycles:   36651956 heartbeat IPC: 2.24335 cumulative IPC: 2.29183 (Simulation time: 0 hr 2 min 22 sec) 
Heartbeat CPU  0 instructions:   85000003 cycles:   37097779 heartbeat IPC: 2.24305 cumulative IPC: 2.29124 (Simulation time: 0 hr 2 min 24 sec) 
Heartbeat CPU  0 instructions:   86000002 cycles:   37543537 heartbeat IPC: 2.24337 cumulative IPC: 2.29067 (Simulation time: 0 hr 2 min 26 sec) 
Heartbeat CPU  0 instructions:   87000003 cycles:   37989297 heartbeat IPC: 2.24336 cumulative IPC: 2.29012 (Simulation time: 0 hr 2 min 27 sec) 
Heartbeat CPU  0 instructions:   88000000 cycles:   38435078 heartbeat IPC: 2.24325 cumulative IPC: 2.28958 (Simulation time: 0 hr 2 min 29 sec) 
Heartbeat CPU  0 instructions:   89000001 cycles:   38880881 heartbeat IPC: 2.24315 cumulative IPC: 2.28904 (Simulation time: 0 hr 2 min 31 sec) 
Heartbeat CPU  0 instructions:   90000000 cycles:   39326639 heartbeat IPC: 2.24337 cumulative IPC: 2.28853 (Simulation time: 0 hr 2 min 33 sec) 
Heartbeat CPU  0 instructions:   91000002 cycles:   39772436 heartbeat IPC: 2.24318 cumulative IPC: 2.28802 (Simulation time: 0 hr 2 min 34 sec) 
Heartbeat CPU  0 instructions:   92000000 cycles:   40218156 heartbeat IPC: 2.24356 cumulative IPC: 2.28752 (Simulation time: 0 hr 2 min 36 sec) 
Heartbeat CPU  0 instructions:   93000001 cycles:   40663963 heartbeat IPC: 2.24313 cumulative IPC: 2.28704 (Simulation time: 0 hr 2 min 38 sec) 
Heartbeat CPU  0 instructions:   94000003 cycles:   41108353 heartbeat IPC: 2.25028 cumulative IPC: 2.28664 (Simulation time: 0 hr 2 min 40 sec) 
Heartbeat CPU  0 instructions:   95000000 cycles:   41549988 heartbeat IPC: 2.26431 cumulative IPC: 2.28640 (Simulation time: 0 hr 2 min 41 sec) 
Heartbeat CPU  0 instructions:   96000000 cycles:   41991646 heartbeat IPC: 2.26420 cumulative IPC: 2.28617 (Simulation time: 0 hr 2 min 43 sec) 
Heartbeat CPU  0 instructions:   97000002 cycles:   42433311 heartbeat IPC: 2.26416 cumulative IPC: 2.28594 (Simulation time: 0 hr 2 min 45 sec) 
Heartbeat CPU  0 instructions:   98000000 cycles:   42874954 heartbeat IPC: 2.26427 cumulative IPC: 2.28572 (Simulation time: 0 hr 2 min 47 sec) 
Heartbeat CPU  0 instructions:   99000000 cycles:   43316616 heartbeat IPC: 2.26417 cumulative IPC: 2.28550 (Simulation time: 0 hr 2 min 49 sec) 
Heartbeat CPU  0 instructions:  100000000 cycles:   43758262 heartbeat IPC: 2.26426 cumulative IPC: 2.28528 (Simulation time: 0 hr 2 min 50 sec) 

Warmup complete CPU  0 instructions:  100000001 cycles:   43758263 (Simulation time: 0 hr 2 min 50 sec) 

Heartbeat CPU  0 instructions:  101000002 cycles:   49578226 heartbeat IPC: 0.17182 cumulative IPC: 0.17182 (Simulation time: 0 hr 2 min 55 sec) 
Heartbeat CPU  0 instructions:  102000002 cycles:   52534549 heartbeat IPC: 0.33826 cumulative IPC: 0.22789 (Simulation time: 0 hr 2 min 58 sec) 
Heartbeat CPU  0 instructions:  103000003 cycles:   55274669 heartbeat IPC: 0.36495 cumulative IPC: 0.26050 (Simulation time: 0 hr 3 min 1 sec) 
Heartbeat CPU  0 instructions:  104000000 cycles:   58190715 heartbeat IPC: 0.34293 cumulative IPC: 0.27715 (Simulation time: 0 hr 3 min 3 sec) 
Heartbeat CPU  0 instructions:  105000002 cycles:   61012014 heartbeat IPC: 0.35445 cumulative IPC: 0.28979 (Simulation time: 0 hr 3 min 6 sec) 
Heartbeat CPU  0 instructions:  106000000 cycles:   63945906 heartbeat IPC: 0.34084 cumulative IPC: 0.29721 (Simulation time: 0 hr 3 min 9 sec) 
Heartbeat CPU  0 instructions:  107000002 cycles:   66942697 heartbeat IPC: 0.33369 cumulative IPC: 0.30193 (Simulation time: 0 hr 3 min 11 sec) 
Heartbeat CPU  0 instructions:  108000000 cycles:   69912292 heartbeat IPC: 0.33675 cumulative IPC: 0.30588 (Simulation time: 0 hr 3 min 14 sec) 
Heartbeat CPU  0 instructions:  109000000 cycles:   72879670 heartbeat IPC: 0.33700 cumulative IPC: 0.30905 (Simulation time: 0 hr 3 min 16 sec) 
Heartbeat CPU  0 instructions:  110000000 cycles:   75914611 heartbeat IPC: 0.32950 cumulative IPC: 0.31098 (Simulation time: 0 hr 3 min 19 sec) 
Heartbeat CPU  0 instructions:  111000002 cycles:   78977073 heartbeat IPC: 0.32654 cumulative IPC: 0.31233 (Simulation time: 0 hr 3 min 22 sec) 
Heartbeat CPU  0 instructions:  112000000 cycles:   82043452 heartbeat IPC: 0.32612 cumulative IPC: 0.31344 (Simulation time: 0 hr 3 min 24 sec) 
Heartbeat CPU  0 instructions:  113000000 cycles:   85103679 heartbeat IPC: 0.32677 cumulative IPC: 0.31442 (Simulation time: 0 hr 3 min 27 sec) 
Heartbeat CPU  0 instructions:  114000000 cycles:   88129332 heartbeat IPC: 0.33051 cumulative IPC: 0.31552 (Simulation time: 0 hr 3 min 30 sec) 
Heartbeat CPU  0 instructions:  115000002 cycles:   91201004 heartbeat IPC: 0.32556 cumulative IPC: 0.31617 (Simulation time: 0 hr 3 min 32 sec) 
Heartbeat CPU  0 instructions:  116000000 cycles:   94268219 heartbeat IPC: 0.32603 cumulative IPC: 0.31677 (Simulation time: 0 hr 3 min 35 sec) 
Heartbeat CPU  0 instructions:  117000003 cycles:   97348597 heartbeat IPC: 0.32464 cumulative IPC: 0.31722 (Simulation time: 0 hr 3 min 38 sec) 
Heartbeat CPU  0 instructions:  118000001 cycles:  100407027 heartbeat IPC: 0.32696 cumulative IPC: 0.31775 (Simulation time: 0 hr 3 min 40 sec) 
Heartbeat CPU  0 instructions:  119000000 cycles:  103439324 heartbeat IPC: 0.32978 cumulative IPC: 0.31836 (Simulation time: 0 hr 3 min 43 sec) 
Heartbeat CPU  0 instructions:  120000000 cycles:  106491859 heartbeat IPC: 0.32760 cumulative IPC: 0.31881 (Simulation time: 0 hr 3 min 46 sec) 
Heartbeat CPU  0 instructions:  121000003 cycles:  109559683 heartbeat IPC: 0.32596 cumulative IPC: 0.31914 (Simulation time: 0 hr 3 min 48 sec) 
Heartbeat CPU  0 instructions:  122000001 cycles:  112622851 heartbeat IPC: 0.32646 cumulative IPC: 0.31947 (Simulation time: 0 hr 3 min 51 sec) 
Heartbeat CPU  0 instructions:  123000001 cycles:  115701583 heartbeat IPC: 0.32481 cumulative IPC: 0.31970 (Simulation time: 0 hr 3 min 53 sec) 
Heartbeat CPU  0 instructions:  124000000 cycles:  118757193 heartbeat IPC: 0.32727 cumulative IPC: 0.32000 (Simulation time: 0 hr 3 min 56 sec) 
Heartbeat CPU  0 instructions:  125000003 cycles:  121828317 heartbeat IPC: 0.32561 cumulative IPC: 0.32023 (Simulation time: 0 hr 3 min 59 sec) 
Heartbeat CPU  0 instructions:  126000001 cycles:  124877552 heartbeat IPC: 0.32795 cumulative IPC: 0.32052 (Simulation time: 0 hr 4 min 1 sec) 
Heartbeat CPU  0 instructions:  127000003 cycles:  127714591 heartbeat IPC: 0.35248 cumulative IPC: 0.32160 (Simulation time: 0 hr 4 min 4 sec) 
Heartbeat CPU  0 instructions:  128000000 cycles:  130285487 heartbeat IPC: 0.38897 cumulative IPC: 0.32360 (Simulation time: 0 hr 4 min 7 sec) 
Heartbeat CPU  0 instructions:  129000003 cycles:  133259424 heartbeat IPC: 0.33626 cumulative IPC: 0.32402 (Simulation time: 0 hr 4 min 10 sec) 
Heartbeat CPU  0 instructions:  130000001 cycles:  136289517 heartbeat IPC: 0.33002 cumulative IPC: 0.32421 (Simulation time: 0 hr 4 min 13 sec) 
Heartbeat CPU  0 instructions:  131000003 cycles:  139353468 heartbeat IPC: 0.32638 cumulative IPC: 0.32428 (Simulation time: 0 hr 4 min 16 sec) 
Heartbeat CPU  0 instructions:  132000000 cycles:  142497837 heartbeat IPC: 0.31803 cumulative IPC: 0.32408 (Simulation time: 0 hr 4 min 18 sec) 
Heartbeat CPU  0 instructions:  133000001 cycles:  145647660 heartbeat IPC: 0.31748 cumulative IPC: 0.32388 (Simulation time: 0 hr 4 min 21 sec) 
Heartbeat CPU  0 instructions:  134000001 cycles:  148837259 heartbeat IPC: 0.31352 cumulative IPC: 0.32357 (Simulation time: 0 hr 4 min 24 sec) 
Heartbeat CPU  0 instructions:  135000000 cycles:  152056049 heartbeat IPC: 0.31068 cumulative IPC: 0.32318 (Simulation time: 0 hr 4 min 27 sec) 
Heartbeat CPU  0 instructions:  136000000 cycles:  155268310 heartbeat IPC: 0.31131 cumulative IPC: 0.32284 (Simulation time: 0 hr 4 min 29 sec) 
Heartbeat CPU  0 instructions:  137000003 cycles:  158484007 heartbeat IPC: 0.31098 cumulative IPC: 0.32251 (Simulation time: 0 hr 4 min 32 sec) 
Heartbeat CPU  0 instructions:  138000001 cycles:  161694658 heartbeat IPC: 0.31146 cumulative IPC: 0.32221 (Simulation time: 0 hr 4 min 35 sec) 
Heartbeat CPU  0 instructions:  139000003 cycles:  164914740 heartbeat IPC: 0.31055 cumulative IPC: 0.32190 (Simulation time: 0 hr 4 min 38 sec) 
Heartbeat CPU  0 instructions:  140000000 cycles:  168142653 heartbeat IPC: 0.30980 cumulative IPC: 0.32158 (Simulation time: 0 hr 4 min 41 sec) 
Heartbeat CPU  0 instructions:  141000003 cycles:  171360657 heartbeat IPC: 0.31075 cumulative IPC: 0.32131 (Simulation time: 0 hr 4 min 43 sec) 
Heartbeat CPU  0 instructions:  142000001 cycles:  174584905 heartbeat IPC: 0.31015 cumulative IPC: 0.32104 (Simulation time: 0 hr 4 min 46 sec) 
Heartbeat CPU  0 instructions:  143000001 cycles:  177809690 heartbeat IPC: 0.31010 cumulative IPC: 0.32077 (Simulation time: 0 hr 4 min 49 sec) 
Heartbeat CPU  0 instructions:  144000000 cycles:  181027592 heartbeat IPC: 0.31076 cumulative IPC: 0.32054 (Simulation time: 0 hr 4 min 52 sec) 
Heartbeat CPU  0 instructions:  145000003 cycles:  184241491 heartbeat IPC: 0.31115 cumulative IPC: 0.32032 (Simulation time: 0 hr 4 min 55 sec) 
Heartbeat CPU  0 instructions:  146000001 cycles:  187472807 heartbeat IPC: 0.30947 cumulative IPC: 0.32008 (Simulation time: 0 hr 4 min 57 sec) 
Heartbeat CPU  0 instructions:  147000000 cycles:  190682893 heartbeat IPC: 0.31152 cumulative IPC: 0.31989 (Simulation time: 0 hr 5 min 0 sec) 
Heartbeat CPU  0 instructions:  148000000 cycles:  193907028 heartbeat IPC: 0.31016 cumulative IPC: 0.31968 (Simulation time: 0 hr 5 min 3 sec) 
Heartbeat CPU  0 instructions:  149000003 cycles:  197127480 heartbeat IPC: 0.31052 cumulative IPC: 0.31949 (Simulation time: 0 hr 5 min 6 sec) 
Heartbeat CPU  0 instructions:  150000002 cycles:  200352885 heartbeat IPC: 0.31004 cumulative IPC: 0.31930 (Simulation time: 0 hr 5 min 9 sec) 
Heartbeat CPU  0 instructions:  151000000 cycles:  203573965 heartbeat IPC: 0.31045 cumulative IPC: 0.31912 (Simulation time: 0 hr 5 min 11 sec) 
Heartbeat CPU  0 instructions:  152000000 cycles:  206794945 heartbeat IPC: 0.31046 cumulative IPC: 0.31895 (Simulation time: 0 hr 5 min 14 sec) 
Heartbeat CPU  0 instructions:  153000003 cycles:  208542362 heartbeat IPC: 0.57227 cumulative IPC: 0.32163 (Simulation time: 0 hr 5 min 17 sec) 
Heartbeat CPU  0 instructions:  154000003 cycles:  210257507 heartbeat IPC: 0.58304 cumulative IPC: 0.32433 (Simulation time: 0 hr 5 min 19 sec) 
Heartbeat CPU  0 instructions:  155000003 cycles:  211939246 heartbeat IPC: 0.59462 cumulative IPC: 0.32703 (Simulation time: 0 hr 5 min 21 sec) 
Heartbeat CPU  0 instructions:  156000000 cycles:  213599695 heartbeat IPC: 0.60224 cumulative IPC: 0.32972 (Simulation time: 0 hr 5 min 23 sec) 
Heartbeat CPU  0 instructions:  157000000 cycles:  215269741 heartbeat IPC: 0.59879 cumulative IPC: 0.33234 (Simulation time: 0 hr 5 min 26 sec) 
Heartbeat CPU  0 instructions:  158000003 cycles:  216928135 heartbeat IPC: 0.60299 cumulative IPC: 0.33493 (Simulation time: 0 hr 5 min 28 sec) 
Heartbeat CPU  0 instructions:  159000003 cycles:  218611808 heartbeat IPC: 0.59394 cumulative IPC: 0.33743 (Simulation time: 0 hr 5 min 30 sec) 
Heartbeat CPU  0 instructions:  160000000 cycles:  220269302 heartbeat IPC: 0.60332 cumulative IPC: 0.33992 (Simulation time: 0 hr 5 min 32 sec) 
Heartbeat CPU  0 instructions:  161000001 cycles:  221937547 heartbeat IPC: 0.59943 cumulative IPC: 0.34235 (Simulation time: 0 hr 5 min 35 sec) 
Heartbeat CPU  0 instructions:  162000003 cycles:  223585838 heartbeat IPC: 0.60669 cumulative IPC: 0.34477 (Simulation time: 0 hr 5 min 37 sec) 
Heartbeat CPU  0 instructions:  163000003 cycles:  225240678 heartbeat IPC: 0.60429 cumulative IPC: 0.34714 (Simulation time: 0 hr 5 min 39 sec) 
Heartbeat CPU  0 instructions:  164000000 cycles:  227009051 heartbeat IPC: 0.56549 cumulative IPC: 0.34925 (Simulation time: 0 hr 5 min 42 sec) 
Heartbeat CPU  0 instructions:  165000001 cycles:  228849692 heartbeat IPC: 0.54329 cumulative IPC: 0.35118 (Simulation time: 0 hr 5 min 44 sec) 
Heartbeat CPU  0 instructions:  166000003 cycles:  230691640 heartbeat IPC: 0.54290 cumulative IPC: 0.35307 (Simulation time: 0 hr 5 min 46 sec) 
Heartbeat CPU  0 instructions:  167000001 cycles:  232536650 heartbeat IPC: 0.54200 cumulative IPC: 0.35491 (Simulation time: 0 hr 5 min 49 sec) 
Heartbeat CPU  0 instructions:  168000000 cycles:  234379854 heartbeat IPC: 0.54253 cumulative IPC: 0.35673 (Simulation time: 0 hr 5 min 51 sec) 
Heartbeat CPU  0 instructions:  169000001 cycles:  236225165 heartbeat IPC: 0.54191 cumulative IPC: 0.35850 (Simulation time: 0 hr 5 min 53 sec) 
Heartbeat CPU  0 instructions:  170000001 cycles:  238070668 heartbeat IPC: 0.54186 cumulative IPC: 0.36024 (Simulation time: 0 hr 5 min 56 sec) 
Heartbeat CPU  0 instructions:  171000001 cycles:  239912911 heartbeat IPC: 0.54282 cumulative IPC: 0.36196 (Simulation time: 0 hr 5 min 58 sec) 
Heartbeat CPU  0 instructions:  172000000 cycles:  241758210 heartbeat IPC: 0.54192 cumulative IPC: 0.36364 (Simulation time: 0 hr 6 min 0 sec) 
Heartbeat CPU  0 instructions:  173000001 cycles:  243601956 heartbeat IPC: 0.54237 cumulative IPC: 0.36529 (Simulation time: 0 hr 6 min 3 sec) 
Heartbeat CPU  0 instructions:  174000001 cycles:  245445416 heartbeat IPC: 0.54246 cumulative IPC: 0.36690 (Simulation time: 0 hr 6 min 5 sec) 
Heartbeat CPU  0 instructions:  175000000 cycles:  247291767 heartbeat IPC: 0.54161 cumulative IPC: 0.36849 (Simulation time: 0 hr 6 min 7 sec) 
Heartbeat CPU  0 instructions:  176000000 cycles:  249134729 heartbeat IPC: 0.54260 cumulative IPC: 0.37005 (Simulation time: 0 hr 6 min 10 sec) 
Heartbeat CPU  0 instructions:  177000003 cycles:  250977584 heartbeat IPC: 0.54264 cumulative IPC: 0.37159 (Simulation time: 0 hr 6 min 12 sec) 
Heartbeat CPU  0 instructions:  178000003 cycles:  252821846 heartbeat IPC: 0.54222 cumulative IPC: 0.37309 (Simulation time: 0 hr 6 min 14 sec) 
Heartbeat CPU  0 instructions:  179000003 cycles:  254668023 heartbeat IPC: 0.54166 cumulative IPC: 0.37457 (Simulation time: 0 hr 6 min 17 sec) 
Heartbeat CPU  0 instructions:  180000000 cycles:  256512309 heartbeat IPC: 0.54221 cumulative IPC: 0.37602 (Simulation time: 0 hr 6 min 19 sec) 
Heartbeat CPU  0 instructions:  181000003 cycles:  258355460 heartbeat IPC: 0.54255 cumulative IPC: 0.37745 (Simulation time: 0 hr 6 min 21 sec) 
Heartbeat CPU  0 instructions:  182000000 cycles:  260198485 heartbeat IPC: 0.54258 cumulative IPC: 0.37886 (Simulation time: 0 hr 6 min 24 sec) 
Heartbeat CPU  0 instructions:  183000001 cycles:  262041397 heartbeat IPC: 0.54262 cumulative IPC: 0.38024 (Simulation time: 0 hr 6 min 26 sec) 
Heartbeat CPU  0 instructions:  184000000 cycles:  263884518 heartbeat IPC: 0.54256 cumulative IPC: 0.38160 (Simulation time: 0 hr 6 min 28 sec) 
Heartbeat CPU  0 instructions:  185000003 cycles:  265731272 heartbeat IPC: 0.54149 cumulative IPC: 0.38293 (Simulation time: 0 hr 6 min 31 sec) 
Heartbeat CPU  0 instructions:  186000003 cycles:  267575400 heartbeat IPC: 0.54226 cumulative IPC: 0.38424 (Simulation time: 0 hr 6 min 33 sec) 
Heartbeat CPU  0 instructions:  187000003 cycles:  269418885 heartbeat IPC: 0.54245 cumulative IPC: 0.38553 (Simulation time: 0 hr 6 min 35 sec) 
Heartbeat CPU  0 instructions:  188000000 cycles:  271244104 heartbeat IPC: 0.54788 cumulative IPC: 0.38684 (Simulation time: 0 hr 6 min 38 sec) 
Heartbeat CPU  0 instructions:  189000001 cycles:  273082930 heartbeat IPC: 0.54383 cumulative IPC: 0.38810 (Simulation time: 0 hr 6 min 40 sec) 
Heartbeat CPU  0 instructions:  190000000 cycles:  274918570 heartbeat IPC: 0.54477 cumulative IPC: 0.38934 (Simulation time: 0 hr 6 min 42 sec) 
Heartbeat CPU  0 instructions:  191000002 cycles:  276732150 heartbeat IPC: 0.55140 cumulative IPC: 0.39060 (Simulation time: 0 hr 6 min 45 sec) 
Heartbeat CPU  0 instructions:  192000000 cycles:  278571340 heartbeat IPC: 0.54372 cumulative IPC: 0.39180 (Simulation time: 0 hr 6 min 47 sec) 
Heartbeat CPU  0 instructions:  193000001 cycles:  280383229 heartbeat IPC: 0.55191 cumulative IPC: 0.39303 (Simulation time: 0 hr 6 min 49 sec) 
Heartbeat CPU  0 instructions:  194000001 cycles:  282211190 heartbeat IPC: 0.54706 cumulative IPC: 0.39421 (Simulation time: 0 hr 6 min 52 sec) 
Heartbeat CPU  0 instructions:  195000003 cycles:  284037077 heartbeat IPC: 0.54768 cumulative IPC: 0.39537 (Simulation time: 0 hr 6 min 54 sec) 
Heartbeat CPU  0 instructions:  196000000 cycles:  285875997 heartbeat IPC: 0.54380 cumulative IPC: 0.39650 (Simulation time: 0 hr 6 min 56 sec) 
Heartbeat CPU  0 instructions:  197000002 cycles:  287702318 heartbeat IPC: 0.54755 cumulative IPC: 0.39763 (Simulation time: 0 hr 6 min 59 sec) 
Heartbeat CPU  0 instructions:  198000000 cycles:  289487424 heartbeat IPC: 0.56019 cumulative IPC: 0.39881 (Simulation time: 0 hr 7 min 1 sec) 
Heartbeat CPU  0 instructions:  199000001 cycles:  291217041 heartbeat IPC: 0.57816 cumulative IPC: 0.40007 (Simulation time: 0 hr 7 min 3 sec) 
Heartbeat CPU  0 instructions:  200000000 cycles:  293044753 heartbeat IPC: 0.54713 cumulative IPC: 0.40114 (Simulation time: 0 hr 7 min 6 sec) 
Heartbeat CPU  0 instructions:  201000001 cycles:  294775587 heartbeat IPC: 0.57776 cumulative IPC: 0.40236 (Simulation time: 0 hr 7 min 8 sec) 
Heartbeat CPU  0 instructions:  202000000 cycles:  296505698 heartbeat IPC: 0.57800 cumulative IPC: 0.40356 (Simulation time: 0 hr 7 min 10 sec) 
Heartbeat CPU  0 instructions:  203000000 cycles:  298206198 heartbeat IPC: 0.58806 cumulative IPC: 0.40480 (Simulation time: 0 hr 7 min 12 sec) 
Heartbeat CPU  0 instructions:  204000000 cycles:  299893246 heartbeat IPC: 0.59275 cumulative IPC: 0.40604 (Simulation time: 0 hr 7 min 15 sec) 
Heartbeat CPU  0 instructions:  205000001 cycles:  301618894 heartbeat IPC: 0.57949 cumulative IPC: 0.40720 (Simulation time: 0 hr 7 min 17 sec) 
Heartbeat CPU  0 instructions:  206000001 cycles:  303217629 heartbeat IPC: 0.62549 cumulative IPC: 0.40854 (Simulation time: 0 hr 7 min 19 sec) 
Heartbeat CPU  0 instructions:  207000003 cycles:  304840533 heartbeat IPC: 0.61618 cumulative IPC: 0.40983 (Simulation time: 0 hr 7 min 22 sec) 
Heartbeat CPU  0 instructions:  208000000 cycles:  306447957 heartbeat IPC: 0.62211 cumulative IPC: 0.41113 (Simulation time: 0 hr 7 min 24 sec) 
Heartbeat CPU  0 instructions:  209000000 cycles:  307997010 heartbeat IPC: 0.64556 cumulative IPC: 0.41251 (Simulation time: 0 hr 7 min 26 sec) 
Heartbeat CPU  0 instructions:  210000002 cycles:  309520837 heartbeat IPC: 0.65624 cumulative IPC: 0.41390 (Simulation time: 0 hr 7 min 28 sec) 
Heartbeat CPU  0 instructions:  211000003 cycles:  311039343 heartbeat IPC: 0.65854 cumulative IPC: 0.41529 (Simulation time: 0 hr 7 min 30 sec) 
Heartbeat CPU  0 instructions:  212000000 cycles:  312534181 heartbeat IPC: 0.66897 cumulative IPC: 0.41670 (Simulation time: 0 hr 7 min 33 sec) 
Heartbeat CPU  0 instructions:  213000003 cycles:  314040721 heartbeat IPC: 0.66377 cumulative IPC: 0.41808 (Simulation time: 0 hr 7 min 35 sec) 
Heartbeat CPU  0 instructions:  214000000 cycles:  315542047 heartbeat IPC: 0.66608 cumulative IPC: 0.41945 (Simulation time: 0 hr 7 min 37 sec) 
Heartbeat CPU  0 instructions:  215000001 cycles:  317055920 heartbeat IPC: 0.66056 cumulative IPC: 0.42079 (Simulation time: 0 hr 7 min 39 sec) 
Heartbeat CPU  0 instructions:  216000000 cycles:  318563873 heartbeat IPC: 0.66315 cumulative IPC: 0.42212 (Simulation time: 0 hr 7 min 42 sec) 
Heartbeat CPU  0 instructions:  217000001 cycles:  320069653 heartbeat IPC: 0.66411 cumulative IPC: 0.42344 (Simulation time: 0 hr 7 min 44 sec) 
Heartbeat CPU  0 instructions:  218000002 cycles:  321563669 heartbeat IPC: 0.66934 cumulative IPC: 0.42476 (Simulation time: 0 hr 7 min 46 sec) 
Heartbeat CPU  0 instructions:  219000001 cycles:  323060583 heartbeat IPC: 0.66804 cumulative IPC: 0.42606 (Simulation time: 0 hr 7 min 48 sec) 
Heartbeat CPU  0 instructions:  220000000 cycles:  324557302 heartbeat IPC: 0.66813 cumulative IPC: 0.42735 (Simulation time: 0 hr 7 min 50 sec) 
Heartbeat CPU  0 instructions:  221000000 cycles:  326048563 heartbeat IPC: 0.67057 cumulative IPC: 0.42864 (Simulation time: 0 hr 7 min 53 sec) 
Heartbeat CPU  0 instructions:  222000000 cycles:  329398388 heartbeat IPC: 0.29852 cumulative IPC: 0.42711 (Simulation time: 0 hr 7 min 56 sec) 
Heartbeat CPU  0 instructions:  223000000 cycles:  336880329 heartbeat IPC: 0.13366 cumulative IPC: 0.41962 (Simulation time: 0 hr 8 min 4 sec) 
Heartbeat CPU  0 instructions:  224000000 cycles:  339969992 heartbeat IPC: 0.32366 cumulative IPC: 0.41862 (Simulation time: 0 hr 8 min 6 sec) 
Heartbeat CPU  0 instructions:  225000002 cycles:  342986035 heartbeat IPC: 0.33156 cumulative IPC: 0.41774 (Simulation time: 0 hr 8 min 9 sec) 
Heartbeat CPU  0 instructions:  226000001 cycles:  346054008 heartbeat IPC: 0.32595 cumulative IPC: 0.41681 (Simulation time: 0 hr 8 min 12 sec) 
Heartbeat CPU  0 instructions:  227000000 cycles:  349028855 heartbeat IPC: 0.33615 cumulative IPC: 0.41602 (Simulation time: 0 hr 8 min 15 sec) 
Heartbeat CPU  0 instructions:  228000000 cycles:  352039251 heartbeat IPC: 0.33218 cumulative IPC: 0.41521 (Simulation time: 0 hr 8 min 18 sec) 
Heartbeat CPU  0 instructions:  229000002 cycles:  355067662 heartbeat IPC: 0.33021 cumulative IPC: 0.41438 (Simulation time: 0 hr 8 min 20 sec) 
Heartbeat CPU  0 instructions:  230000000 cycles:  358093584 heartbeat IPC: 0.33048 cumulative IPC: 0.41357 (Simulation time: 0 hr 8 min 23 sec) 
Heartbeat CPU  0 instructions:  231000000 cycles:  361115426 heartbeat IPC: 0.33092 cumulative IPC: 0.41278 (Simulation time: 0 hr 8 min 26 sec) 
Heartbeat CPU  0 instructions:  232000000 cycles:  364148902 heartbeat IPC: 0.32965 cumulative IPC: 0.41200 (Simulation time: 0 hr 8 min 28 sec) 
Heartbeat CPU  0 instructions:  233000002 cycles:  367174404 heartbeat IPC: 0.33052 cumulative IPC: 0.41123 (Simulation time: 0 hr 8 min 31 sec) 
Heartbeat CPU  0 instructions:  234000001 cycles:  370194149 heartbeat IPC: 0.33115 cumulative IPC: 0.41049 (Simulation time: 0 hr 8 min 34 sec) 
Heartbeat CPU  0 instructions:  235000000 cycles:  373209188 heartbeat IPC: 0.33167 cumulative IPC: 0.40977 (Simulation time: 0 hr 8 min 37 sec) 
Heartbeat CPU  0 instructions:  236000000 cycles:  376222575 heartbeat IPC: 0.33185 cumulative IPC: 0.40907 (Simulation time: 0 hr 8 min 39 sec) 
Heartbeat CPU  0 instructions:  237000002 cycles:  379223284 heartbeat IPC: 0.33326 cumulative IPC: 0.40839 (Simulation time: 0 hr 8 min 42 sec) 
Heartbeat CPU  0 instructions:  238000001 cycles:  382228558 heartbeat IPC: 0.33275 cumulative IPC: 0.40772 (Simulation time: 0 hr 8 min 45 sec) 
Heartbeat CPU  0 instructions:  239000000 cycles:  385258618 heartbeat IPC: 0.33003 cumulative IPC: 0.40703 (Simulation time: 0 hr 8 min 47 sec) 
Heartbeat CPU  0 instructions:  240000000 cycles:  388286709 heartbeat IPC: 0.33024 cumulative IPC: 0.40635 (Simulation time: 0 hr 8 min 50 sec) 
Heartbeat CPU  0 instructions:  241000002 cycles:  391315276 heartbeat IPC: 0.33019 cumulative IPC: 0.40569 (Simulation time: 0 hr 8 min 53 sec) 
Heartbeat CPU  0 instructions:  242000000 cycles:  394322811 heartbeat IPC: 0.33250 cumulative IPC: 0.40506 (Simulation time: 0 hr 8 min 56 sec) 
Heartbeat CPU  0 instructions:  243000000 cycles:  397368154 heartbeat IPC: 0.32837 cumulative IPC: 0.40440 (Simulation time: 0 hr 8 min 58 sec) 
Heartbeat CPU  0 instructions:  244000000 cycles:  400381111 heartbeat IPC: 0.33190 cumulative IPC: 0.40379 (Simulation time: 0 hr 9 min 1 sec) 
Heartbeat CPU  0 instructions:  245000002 cycles:  403390600 heartbeat IPC: 0.33228 cumulative IPC: 0.40319 (Simulation time: 0 hr 9 min 4 sec) 
Heartbeat CPU  0 instructions:  246000000 cycles:  406329895 heartbeat IPC: 0.34022 cumulative IPC: 0.40268 (Simulation time: 0 hr 9 min 6 sec) 
Heartbeat CPU  0 instructions:  247000000 cycles:  408712500 heartbeat IPC: 0.41971 cumulative IPC: 0.40279 (Simulation time: 0 hr 9 min 9 sec) 
Heartbeat CPU  0 instructions:  248000000 cycles:  412137822 heartbeat IPC: 0.29194 cumulative IPC: 0.40176 (Simulation time: 0 hr 9 min 13 sec) 
Heartbeat CPU  0 instructions:  249000003 cycles:  418374299 heartbeat IPC: 0.16035 cumulative IPC: 0.39774 (Simulation time: 0 hr 9 min 18 sec) 
Heartbeat CPU  0 instructions:  250000003 cycles:  424632812 heartbeat IPC: 0.15978 cumulative IPC: 0.39383 (Simulation time: 0 hr 9 min 23 sec) 
Heartbeat CPU  0 instructions:  251000000 cycles:  429690994 heartbeat IPC: 0.19770 cumulative IPC: 0.39126 (Simulation time: 0 hr 9 min 27 sec) 
Heartbeat CPU  0 instructions:  252000000 cycles:  432263405 heartbeat IPC: 0.38874 cumulative IPC: 0.39124 (Simulation time: 0 hr 9 min 30 sec) 
Heartbeat CPU  0 instructions:  253000002 cycles:  435119243 heartbeat IPC: 0.35016 cumulative IPC: 0.39094 (Simulation time: 0 hr 9 min 33 sec) 
Heartbeat CPU  0 instructions:  254000003 cycles:  438123482 heartbeat IPC: 0.33286 cumulative IPC: 0.39050 (Simulation time: 0 hr 9 min 35 sec) 
Heartbeat CPU  0 instructions:  255000003 cycles:  441173133 heartbeat IPC: 0.32791 cumulative IPC: 0.39002 (Simulation time: 0 hr 9 min 38 sec) 
Heartbeat CPU  0 instructions:  256000000 cycles:  444255921 heartbeat IPC: 0.32438 cumulative IPC: 0.38952 (Simulation time: 0 hr 9 min 41 sec) 
Heartbeat CPU  0 instructions:  257000000 cycles:  447337864 heartbeat IPC: 0.32447 cumulative IPC: 0.38902 (Simulation time: 0 hr 9 min 44 sec) 
Heartbeat CPU  0 instructions:  258000003 cycles:  450447180 heartbeat IPC: 0.32162 cumulative IPC: 0.38850 (Simulation time: 0 hr 9 min 47 sec) 
Heartbeat CPU  0 instructions:  259000000 cycles:  453543049 heartbeat IPC: 0.32301 cumulative IPC: 0.38801 (Simulation time: 0 hr 9 min 49 sec) 
Heartbeat CPU  0 instructions:  260000000 cycles:  456657592 heartbeat IPC: 0.32107 cumulative IPC: 0.38750 (Simulation time: 0 hr 9 min 52 sec) 
Heartbeat CPU  0 instructions:  261000002 cycles:  459763966 heartbeat IPC: 0.32192 cumulative IPC: 0.38701 (Simulation time: 0 hr 9 min 55 sec) 
Heartbeat CPU  0 instructions:  262000000 cycles:  462868663 heartbeat IPC: 0.32209 cumulative IPC: 0.38653 (Simulation time: 0 hr 9 min 57 sec) 
Heartbeat CPU  0 instructions:  263000001 cycles:  465974179 heartbeat IPC: 0.32201 cumulative IPC: 0.38606 (Simulation time: 0 hr 10 min 0 sec) 
Heartbeat CPU  0 instructions:  264000000 cycles:  469072094 heartbeat IPC: 0.32280 cumulative IPC: 0.38560 (Simulation time: 0 hr 10 min 3 sec) 
Heartbeat CPU  0 instructions:  265000002 cycles:  472179951 heartbeat IPC: 0.32177 cumulative IPC: 0.38513 (Simulation time: 0 hr 10 min 6 sec) 
Heartbeat CPU  0 instructions:  266000003 cycles:  475259709 heartbeat IPC: 0.32470 cumulative IPC: 0.38470 (Simulation time: 0 hr 10 min 8 sec) 
Heartbeat CPU  0 instructions:  267000001 cycles:  478367246 heartbeat IPC: 0.32180 cumulative IPC: 0.38425 (Simulation time: 0 hr 10 min 11 sec) 
Heartbeat CPU  0 instructions:  268000000 cycles:  481490744 heartbeat IPC: 0.32015 cumulative IPC: 0.38380 (Simulation time: 0 hr 10 min 14 sec) 
Heartbeat CPU  0 instructions:  269000002 cycles:  484559621 heartbeat IPC: 0.32585 cumulative IPC: 0.38339 (Simulation time: 0 hr 10 min 17 sec) 
Heartbeat CPU  0 instructions:  270000000 cycles:  487692616 heartbeat IPC: 0.31918 cumulative IPC: 0.38294 (Simulation time: 0 hr 10 min 20 sec) 
Heartbeat CPU  0 instructions:  271000001 cycles:  490778451 heartbeat IPC: 0.32406 cumulative IPC: 0.38253 (Simulation time: 0 hr 10 min 22 sec) 
Heartbeat CPU  0 instructions:  272000000 cycles:  493890565 heartbeat IPC: 0.32132 cumulative IPC: 0.38211 (Simulation time: 0 hr 10 min 25 sec) 
Heartbeat CPU  0 instructions:  273000002 cycles:  497000932 heartbeat IPC: 0.32151 cumulative IPC: 0.38169 (Simulation time: 0 hr 10 min 28 sec) 
Heartbeat CPU  0 instructions:  274000000 cycles:  500072946 heartbeat IPC: 0.32552 cumulative IPC: 0.38132 (Simulation time: 0 hr 10 min 31 sec) 
Heartbeat CPU  0 instructions:  275000001 cycles:  503209304 heartbeat IPC: 0.31884 cumulative IPC: 0.38089 (Simulation time: 0 hr 10 min 33 sec) 
Heartbeat CPU  0 instructions:  276000000 cycles:  506324953 heartbeat IPC: 0.32096 cumulative IPC: 0.38049 (Simulation time: 0 hr 10 min 36 sec) 
Heartbeat CPU  0 instructions:  277000002 cycles:  508385268 heartbeat IPC: 0.48536 cumulative IPC: 0.38095 (Simulation time: 0 hr 10 min 38 sec) 
Heartbeat CPU  0 instructions:  278000000 cycles:  510290969 heartbeat IPC: 0.52474 cumulative IPC: 0.38154 (Simulation time: 0 hr 10 min 41 sec) 
Heartbeat CPU  0 instructions:  279000003 cycles:  512195624 heartbeat IPC: 0.52503 cumulative IPC: 0.38212 (Simulation time: 0 hr 10 min 43 sec) 
Heartbeat CPU  0 instructions:  280000000 cycles:  514097051 heartbeat IPC: 0.52592 cumulative IPC: 0.38270 (Simulation time: 0 hr 10 min 46 sec) 
Heartbeat CPU  0 instructions:  281000001 cycles:  515999025 heartbeat IPC: 0.52577 cumulative IPC: 0.38328 (Simulation time: 0 hr 10 min 48 sec) 
Heartbeat CPU  0 instructions:  282000003 cycles:  517900599 heartbeat IPC: 0.52588 cumulative IPC: 0.38385 (Simulation time: 0 hr 10 min 50 sec) 
Heartbeat CPU  0 instructions:  283000001 cycles:  519805084 heartbeat IPC: 0.52508 cumulative IPC: 0.38442 (Simulation time: 0 hr 10 min 53 sec) 
Heartbeat CPU  0 instructions:  284000000 cycles:  521706038 heartbeat IPC: 0.52605 cumulative IPC: 0.38498 (Simulation time: 0 hr 10 min 55 sec) 
Heartbeat CPU  0 instructions:  285000001 cycles:  523609573 heartbeat IPC: 0.52534 cumulative IPC: 0.38554 (Simulation time: 0 hr 10 min 57 sec) 
Heartbeat CPU  0 instructions:  286000001 cycles:  525512824 heartbeat IPC: 0.52542 cumulative IPC: 0.38609 (Simulation time: 0 hr 11 min 0 sec) 
Heartbeat CPU  0 instructions:  287000001 cycles:  527415102 heartbeat IPC: 0.52569 cumulative IPC: 0.38664 (Simulation time: 0 hr 11 min 2 sec) 
Heartbeat CPU  0 instructions:  288000000 cycles:  529318136 heartbeat IPC: 0.52548 cumulative IPC: 0.38718 (Simulation time: 0 hr 11 min 5 sec) 
Heartbeat CPU  0 instructions:  289000001 cycles:  531220757 heartbeat IPC: 0.52559 cumulative IPC: 0.38772 (Simulation time: 0 hr 11 min 7 sec) 
Heartbeat CPU  0 instructions:  290000001 cycles:  533123196 heartbeat IPC: 0.52564 cumulative IPC: 0.38826 (Simulation time: 0 hr 11 min 9 sec) 
Heartbeat CPU  0 instructions:  291000000 cycles:  535027452 heartbeat IPC: 0.52514 cumulative IPC: 0.38879 (Simulation time: 0 hr 11 min 12 sec) 
Heartbeat CPU  0 instructions:  292000000 cycles:  536932265 heartbeat IPC: 0.52499 cumulative IPC: 0.38931 (Simulation time: 0 hr 11 min 14 sec) 
Heartbeat CPU  0 instructions:  293000003 cycles:  538835591 heartbeat IPC: 0.52540 cumulative IPC: 0.38984 (Simulation time: 0 hr 11 min 16 sec) 
Heartbeat CPU  0 instructions:  294000003 cycles:  540737517 heartbeat IPC: 0.52578 cumulative IPC: 0.39036 (Simulation time: 0 hr 11 min 19 sec) 
Heartbeat CPU  0 instructions:  295000003 cycles:  542641519 heartbeat IPC: 0.52521 cumulative IPC: 0.39087 (Simulation time: 0 hr 11 min 21 sec) 
Heartbeat CPU  0 instructions:  296000000 cycles:  544546741 heartbeat IPC: 0.52487 cumulative IPC: 0.39138 (Simulation time: 0 hr 11 min 24 sec) 
Heartbeat CPU  0 instructions:  297000003 cycles:  546448553 heartbeat IPC: 0.52582 cumulative IPC: 0.39189 (Simulation time: 0 hr 11 min 26 sec) 
Heartbeat CPU  0 instructions:  298000000 cycles:  548350898 heartbeat IPC: 0.52567 cumulative IPC: 0.39240 (Simulation time: 0 hr 11 min 28 sec) 
Heartbeat CPU  0 instructions:  299000001 cycles:  550254751 heartbeat IPC: 0.52525 cumulative IPC: 0.39290 (Simulation time: 0 hr 11 min 31 sec) 
Heartbeat CPU  0 instructions:  300000000 cycles:  552160022 heartbeat IPC: 0.52486 cumulative IPC: 0.39339 (Simulation time: 0 hr 11 min 33 sec) 
Heartbeat CPU  0 instructions:  301000003 cycles:  554062629 heartbeat IPC: 0.52560 cumulative IPC: 0.39388 (Simulation time: 0 hr 11 min 35 sec) 
Heartbeat CPU  0 instructions:  302000003 cycles:  555965001 heartbeat IPC: 0.52566 cumulative IPC: 0.39437 (Simulation time: 0 hr 11 min 38 sec) 
Heartbeat CPU  0 instructions:  303000001 cycles:  557869232 heartbeat IPC: 0.52515 cumulative IPC: 0.39486 (Simulation time: 0 hr 11 min 40 sec) 
Heartbeat CPU  0 instructions:  304000000 cycles:  559772922 heartbeat IPC: 0.52530 cumulative IPC: 0.39534 (Simulation time: 0 hr 11 min 43 sec) 
Heartbeat CPU  0 instructions:  305000000 cycles:  561675582 heartbeat IPC: 0.52558 cumulative IPC: 0.39582 (Simulation time: 0 hr 11 min 45 sec) 
Heartbeat CPU  0 instructions:  306000003 cycles:  563580702 heartbeat IPC: 0.52490 cumulative IPC: 0.39629 (Simulation time: 0 hr 11 min 47 sec) 
Heartbeat CPU  0 instructions:  307000003 cycles:  565484742 heartbeat IPC: 0.52520 cumulative IPC: 0.39676 (Simulation time: 0 hr 11 min 50 sec) 
Heartbeat CPU  0 instructions:  308000000 cycles:  567388494 heartbeat IPC: 0.52528 cumulative IPC: 0.39723 (Simulation time: 0 hr 11 min 52 sec) 
Heartbeat CPU  0 instructions:  309000003 cycles:  569292059 heartbeat IPC: 0.52533 cumulative IPC: 0.39769 (Simulation time: 0 hr 11 min 54 sec) 
Heartbeat CPU  0 instructions:  310000003 cycles:  571194576 heartbeat IPC: 0.52562 cumulative IPC: 0.39815 (Simulation time: 0 hr 11 min 57 sec) 
Heartbeat CPU  0 instructions:  311000001 cycles:  573098405 heartbeat IPC: 0.52526 cumulative IPC: 0.39861 (Simulation time: 0 hr 11 min 59 sec) 
Heartbeat CPU  0 instructions:  312000000 cycles:  575000560 heartbeat IPC: 0.52572 cumulative IPC: 0.39906 (Simulation time: 0 hr 12 min 2 sec) 
Heartbeat CPU  0 instructions:  313000002 cycles:  576902564 heartbeat IPC: 0.52576 cumulative IPC: 0.39952 (Simulation time: 0 hr 12 min 4 sec) 
Heartbeat CPU  0 instructions:  314000002 cycles:  578801592 heartbeat IPC: 0.52659 cumulative IPC: 0.39997 (Simulation time: 0 hr 12 min 6 sec) 
Heartbeat CPU  0 instructions:  315000002 cycles:  580704813 heartbeat IPC: 0.52543 cumulative IPC: 0.40041 (Simulation time: 0 hr 12 min 9 sec) 
Heartbeat CPU  0 instructions:  316000000 cycles:  582603936 heartbeat IPC: 0.52656 cumulative IPC: 0.40086 (Simulation time: 0 hr 12 min 11 sec) 
Heartbeat CPU  0 instructions:  317000002 cycles:  584502539 heartbeat IPC: 0.52670 cumulative IPC: 0.40130 (Simulation time: 0 hr 12 min 13 sec) 
Heartbeat CPU  0 instructions:  318000003 cycles:  586400977 heartbeat IPC: 0.52675 cumulative IPC: 0.40174 (Simulation time: 0 hr 12 min 16 sec) 
Heartbeat CPU  0 instructions:  319000002 cycles:  588301849 heartbeat IPC: 0.52607 cumulative IPC: 0.40217 (Simulation time: 0 hr 12 min 18 sec) 
Heartbeat CPU  0 instructions:  320000000 cycles:  590202173 heartbeat IPC: 0.52623 cumulative IPC: 0.40260 (Simulation time: 0 hr 12 min 21 sec) 
Heartbeat CPU  0 instructions:  321000000 cycles:  592102928 heartbeat IPC: 0.52611 cumulative IPC: 0.40303 (Simulation time: 0 hr 12 min 23 sec) 
Heartbeat CPU  0 instructions:  322000001 cycles:  594001358 heartbeat IPC: 0.52675 cumulative IPC: 0.40346 (Simulation time: 0 hr 12 min 25 sec) 
Heartbeat CPU  0 instructions:  323000001 cycles:  595901250 heartbeat IPC: 0.52635 cumulative IPC: 0.40388 (Simulation time: 0 hr 12 min 28 sec) 
Heartbeat CPU  0 instructions:  324000000 cycles:  597797843 heartbeat IPC: 0.52726 cumulative IPC: 0.40430 (Simulation time: 0 hr 12 min 30 sec) 
Heartbeat CPU  0 instructions:  325000002 cycles:  599696443 heartbeat IPC: 0.52670 cumulative IPC: 0.40472 (Simulation time: 0 hr 12 min 32 sec) 
Heartbeat CPU  0 instructions:  326000002 cycles:  601580328 heartbeat IPC: 0.53082 cumulative IPC: 0.40515 (Simulation time: 0 hr 12 min 35 sec) 
Heartbeat CPU  0 instructions:  327000002 cycles:  603445691 heartbeat IPC: 0.53609 cumulative IPC: 0.40558 (Simulation time: 0 hr 12 min 37 sec) 
Heartbeat CPU  0 instructions:  328000000 cycles:  605209713 heartbeat IPC: 0.56689 cumulative IPC: 0.40609 (Simulation time: 0 hr 12 min 39 sec) 
Heartbeat CPU  0 instructions:  329000002 cycles:  606775434 heartbeat IPC: 0.63868 cumulative IPC: 0.40674 (Simulation time: 0 hr 12 min 42 sec) 
Heartbeat CPU  0 instructions:  330000003 cycles:  608284945 heartbeat IPC: 0.66247 cumulative IPC: 0.40742 (Simulation time: 0 hr 12 min 44 sec) 
Heartbeat CPU  0 instructions:  331000001 cycles:  609779458 heartbeat IPC: 0.66911 cumulative IPC: 0.40811 (Simulation time: 0 hr 12 min 46 sec) 
Heartbeat CPU  0 instructions:  332000000 cycles:  611331144 heartbeat IPC: 0.64446 cumulative IPC: 0.40876 (Simulation time: 0 hr 12 min 48 sec) 
Heartbeat CPU  0 instructions:  333000000 cycles:  612824004 heartbeat IPC: 0.66986 cumulative IPC: 0.40944 (Simulation time: 0 hr 12 min 51 sec) 
Heartbeat CPU  0 instructions:  334000002 cycles:  614318380 heartbeat IPC: 0.66918 cumulative IPC: 0.41012 (Simulation time: 0 hr 12 min 53 sec) 
Heartbeat CPU  0 instructions:  335000001 cycles:  615813842 heartbeat IPC: 0.66869 cumulative IPC: 0.41080 (Simulation time: 0 hr 12 min 55 sec) 
Heartbeat CPU  0 instructions:  336000000 cycles:  617309875 heartbeat IPC: 0.66843 cumulative IPC: 0.41147 (Simulation time: 0 hr 12 min 57 sec) 
Heartbeat CPU  0 instructions:  337000003 cycles:  618805324 heartbeat IPC: 0.66870 cumulative IPC: 0.41214 (Simulation time: 0 hr 12 min 59 sec) 
Heartbeat CPU  0 instructions:  338000002 cycles:  620301619 heartbeat IPC: 0.66832 cumulative IPC: 0.41281 (Simulation time: 0 hr 13 min 2 sec) 
Heartbeat CPU  0 instructions:  339000002 cycles:  621795166 heartbeat IPC: 0.66955 cumulative IPC: 0.41347 (Simulation time: 0 hr 13 min 4 sec) 
Heartbeat CPU  0 instructions:  340000000 cycles:  623288025 heartbeat IPC: 0.66985 cumulative IPC: 0.41413 (Simulation time: 0 hr 13 min 6 sec) 
Heartbeat CPU  0 instructions:  341000003 cycles:  624787369 heartbeat IPC: 0.66696 cumulative IPC: 0.41478 (Simulation time: 0 hr 13 min 8 sec) 
Heartbeat CPU  0 instructions:  342000003 cycles:  626281023 heartbeat IPC: 0.66950 cumulative IPC: 0.41543 (Simulation time: 0 hr 13 min 10 sec) 
Heartbeat CPU  0 instructions:  343000001 cycles:  627775149 heartbeat IPC: 0.66929 cumulative IPC: 0.41608 (Simulation time: 0 hr 13 min 13 sec) 
Heartbeat CPU  0 instructions:  344000000 cycles:  629268326 heartbeat IPC: 0.66971 cumulative IPC: 0.41673 (Simulation time: 0 hr 13 min 15 sec) 
Heartbeat CPU  0 instructions:  345000002 cycles:  630763211 heartbeat IPC: 0.66895 cumulative IPC: 0.41737 (Simulation time: 0 hr 13 min 17 sec) 
Heartbeat CPU  0 instructions:  346000001 cycles:  632444798 heartbeat IPC: 0.59468 cumulative IPC: 0.41788 (Simulation time: 0 hr 13 min 19 sec) 
Heartbeat CPU  0 instructions:  347000002 cycles:  634972738 heartbeat IPC: 0.39558 cumulative IPC: 0.41778 (Simulation time: 0 hr 13 min 22 sec) 
Heartbeat CPU  0 instructions:  348000000 cycles:  637856857 heartbeat IPC: 0.34673 cumulative IPC: 0.41744 (Simulation time: 0 hr 13 min 25 sec) 
Heartbeat CPU  0 instructions:  349000002 cycles:  641125717 heartbeat IPC: 0.30592 cumulative IPC: 0.41683 (Simulation time: 0 hr 13 min 28 sec) 
Heartbeat CPU  0 instructions:  350000001 cycles:  644307605 heartbeat IPC: 0.31428 cumulative IPC: 0.41629 (Simulation time: 0 hr 13 min 31 sec) 
Heartbeat CPU  0 instructions:  351000001 cycles:  647575628 heartbeat IPC: 0.30600 cumulative IPC: 0.41569 (Simulation time: 0 hr 13 min 34 sec) 
Heartbeat CPU  0 instructions:  352000000 cycles:  650828717 heartbeat IPC: 0.30740 cumulative IPC: 0.41511 (Simulation time: 0 hr 13 min 37 sec) 
Heartbeat CPU  0 instructions:  353000000 cycles:  654103460 heartbeat IPC: 0.30537 cumulative IPC: 0.41452 (Simulation time: 0 hr 13 min 39 sec) 
Heartbeat CPU  0 instructions:  354000000 cycles:  657372766 heartbeat IPC: 0.30588 cumulative IPC: 0.41394 (Simulation time: 0 hr 13 min 42 sec) 
Heartbeat CPU  0 instructions:  355000001 cycles:  660635304 heartbeat IPC: 0.30651 cumulative IPC: 0.41337 (Simulation time: 0 hr 13 min 45 sec) 
Heartbeat CPU  0 instructions:  356000000 cycles:  663893850 heartbeat IPC: 0.30689 cumulative IPC: 0.41281 (Simulation time: 0 hr 13 min 48 sec) 
Heartbeat CPU  0 instructions:  357000002 cycles:  667161978 heartbeat IPC: 0.30599 cumulative IPC: 0.41225 (Simulation time: 0 hr 13 min 51 sec) 
Heartbeat CPU  0 instructions:  358000001 cycles:  670423815 heartbeat IPC: 0.30658 cumulative IPC: 0.41170 (Simulation time: 0 hr 13 min 53 sec) 
Heartbeat CPU  0 instructions:  359000001 cycles:  673701306 heartbeat IPC: 0.30511 cumulative IPC: 0.41115 (Simulation time: 0 hr 13 min 56 sec) 
Heartbeat CPU  0 instructions:  360000000 cycles:  676959930 heartbeat IPC: 0.30688 cumulative IPC: 0.41061 (Simulation time: 0 hr 13 min 59 sec) 
Heartbeat CPU  0 instructions:  361000002 cycles:  680200704 heartbeat IPC: 0.30857 cumulative IPC: 0.41009 (Simulation time: 0 hr 14 min 2 sec) 
Heartbeat CPU  0 instructions:  362000001 cycles:  683444470 heartbeat IPC: 0.30828 cumulative IPC: 0.40958 (Simulation time: 0 hr 14 min 5 sec) 
Heartbeat CPU  0 instructions:  363000001 cycles:  686710917 heartbeat IPC: 0.30614 cumulative IPC: 0.40905 (Simulation time: 0 hr 14 min 7 sec) 
Heartbeat CPU  0 instructions:  364000000 cycles:  689930797 heartbeat IPC: 0.31057 cumulative IPC: 0.40856 (Simulation time: 0 hr 14 min 10 sec) 
Heartbeat CPU  0 instructions:  365000000 cycles:  693166425 heartbeat IPC: 0.30906 cumulative IPC: 0.40806 (Simulation time: 0 hr 14 min 13 sec) 
Heartbeat CPU  0 instructions:  366000001 cycles:  696419616 heartbeat IPC: 0.30739 cumulative IPC: 0.40756 (Simulation time: 0 hr 14 min 16 sec) 
Heartbeat CPU  0 instructions:  367000003 cycles:  699697321 heartbeat IPC: 0.30509 cumulative IPC: 0.40705 (Simulation time: 0 hr 14 min 19 sec) 
Heartbeat CPU  0 instructions:  368000000 cycles:  702928601 heartbeat IPC: 0.30947 cumulative IPC: 0.40657 (Simulation time: 0 hr 14 min 21 sec) 
Heartbeat CPU  0 instructions:  369000003 cycles:  706190308 heartbeat IPC: 0.30659 cumulative IPC: 0.40608 (Simulation time: 0 hr 14 min 24 sec) 
Heartbeat CPU  0 instructions:  370000001 cycles:  709462740 heartbeat IPC: 0.30558 cumulative IPC: 0.40559 (Simulation time: 0 hr 14 min 27 sec) 
Heartbeat CPU  0 instructions:  371000001 cycles:  712721055 heartbeat IPC: 0.30691 cumulative IPC: 0.40510 (Simulation time: 0 hr 14 min 30 sec) 
Heartbeat CPU  0 instructions:  372000000 cycles:  714859849 heartbeat IPC: 0.46755 cumulative IPC: 0.40530 (Simulation time: 0 hr 14 min 32 sec) 
Heartbeat CPU  0 instructions:  373000001 cycles:  716635148 heartbeat IPC: 0.56329 cumulative IPC: 0.40572 (Simulation time: 0 hr 14 min 35 sec) 
Heartbeat CPU  0 instructions:  374000001 cycles:  718410085 heartbeat IPC: 0.56340 cumulative IPC: 0.40614 (Simulation time: 0 hr 14 min 37 sec) 
Heartbeat CPU  0 instructions:  375000001 cycles:  720185398 heartbeat IPC: 0.56328 cumulative IPC: 0.40655 (Simulation time: 0 hr 14 min 39 sec) 
Heartbeat CPU  0 instructions:  376000000 cycles:  721959795 heartbeat IPC: 0.56357 cumulative IPC: 0.40696 (Simulation time: 0 hr 14 min 42 sec) 
Heartbeat CPU  0 instructions:  377000000 cycles:  723733035 heartbeat IPC: 0.56394 cumulative IPC: 0.40737 (Simulation time: 0 hr 14 min 44 sec) 
Heartbeat CPU  0 instructions:  378000000 cycles:  725506561 heartbeat IPC: 0.56385 cumulative IPC: 0.40778 (Simulation time: 0 hr 14 min 46 sec) 
Heartbeat CPU  0 instructions:  379000001 cycles:  727281791 heartbeat IPC: 0.56331 cumulative IPC: 0.40818 (Simulation time: 0 hr 14 min 49 sec) 
Heartbeat CPU  0 instructions:  380000000 cycles:  729057246 heartbeat IPC: 0.56324 cumulative IPC: 0.40858 (Simulation time: 0 hr 14 min 51 sec) 
Heartbeat CPU  0 instructions:  381000000 cycles:  730832839 heartbeat IPC: 0.56319 cumulative IPC: 0.40898 (Simulation time: 0 hr 14 min 53 sec) 
Heartbeat CPU  0 instructions:  382000000 cycles:  732607238 heartbeat IPC: 0.56357 cumulative IPC: 0.40938 (Simulation time: 0 hr 14 min 56 sec) 
Heartbeat CPU  0 instructions:  383000002 cycles:  734384215 heartbeat IPC: 0.56275 cumulative IPC: 0.40977 (Simulation time: 0 hr 14 min 58 sec) 
Heartbeat CPU  0 instructions:  384000000 cycles:  736170512 heartbeat IPC: 0.55982 cumulative IPC: 0.41016 (Simulation time: 0 hr 15 min 0 sec) 
Heartbeat CPU  0 instructions:  385000000 cycles:  737955572 heartbeat IPC: 0.56021 cumulative IPC: 0.41055 (Simulation time: 0 hr 15 min 3 sec) 
Heartbeat CPU  0 instructions:  386000000 cycles:  739741150 heartbeat IPC: 0.56004 cumulative IPC: 0.41093 (Simulation time: 0 hr 15 min 5 sec) 
Heartbeat CPU  0 instructions:  387000000 cycles:  741527082 heartbeat IPC: 0.55993 cumulative IPC: 0.41131 (Simulation time: 0 hr 15 min 7 sec) 
Heartbeat CPU  0 instructions:  388000000 cycles:  743312900 heartbeat IPC: 0.55997 cumulative IPC: 0.41169 (Simulation time: 0 hr 15 min 10 sec) 
Heartbeat CPU  0 instructions:  389000000 cycles:  745100585 heartbeat IPC: 0.55938 cumulative IPC: 0.41207 (Simulation time: 0 hr 15 min 12 sec) 
Heartbeat CPU  0 instructions:  390000000 cycles:  746886923 heartbeat IPC: 0.55980 cumulative IPC: 0.41244 (Simulation time: 0 hr 15 min 14 sec) 
Heartbeat CPU  0 instructions:  391000002 cycles:  748671635 heartbeat IPC: 0.56032 cumulative IPC: 0.41282 (Simulation time: 0 hr 15 min 17 sec) 
Heartbeat CPU  0 instructions:  392000000 cycles:  750459669 heartbeat IPC: 0.55927 cumulative IPC: 0.41319 (Simulation time: 0 hr 15 min 19 sec) 
Heartbeat CPU  0 instructions:  393000002 cycles:  752245316 heartbeat IPC: 0.56002 cumulative IPC: 0.41356 (Simulation time: 0 hr 15 min 21 sec) 
Heartbeat CPU  0 instructions:  394000002 cycles:  754031641 heartbeat IPC: 0.55981 cumulative IPC: 0.41393 (Simulation time: 0 hr 15 min 24 sec) 
Heartbeat CPU  0 instructions:  395000003 cycles:  755817458 heartbeat IPC: 0.55997 cumulative IPC: 0.41429 (Simulation time: 0 hr 15 min 26 sec) 
Heartbeat CPU  0 instructions:  396000000 cycles:  757602153 heartbeat IPC: 0.56032 cumulative IPC: 0.41466 (Simulation time: 0 hr 15 min 28 sec) 
Heartbeat CPU  0 instructions:  397000002 cycles:  759389781 heartbeat IPC: 0.55940 cumulative IPC: 0.41502 (Simulation time: 0 hr 15 min 31 sec) 
Heartbeat CPU  0 instructions:  398000001 cycles:  761178603 heartbeat IPC: 0.55903 cumulative IPC: 0.41538 (Simulation time: 0 hr 15 min 33 sec) 
Heartbeat CPU  0 instructions:  399000000 cycles:  762967425 heartbeat IPC: 0.55903 cumulative IPC: 0.41573 (Simulation time: 0 hr 15 min 35 sec) 
Heartbeat CPU  0 instructions:  400000000 cycles:  764754741 heartbeat IPC: 0.55950 cumulative IPC: 0.41609 (Simulation time: 0 hr 15 min 38 sec) 
Heartbeat CPU  0 instructions:  401000001 cycles:  766542150 heartbeat IPC: 0.55947 cumulative IPC: 0.41645 (Simulation time: 0 hr 15 min 40 sec) 
Heartbeat CPU  0 instructions:  402000000 cycles:  768330097 heartbeat IPC: 0.55930 cumulative IPC: 0.41680 (Simulation time: 0 hr 15 min 42 sec) 
Heartbeat CPU  0 instructions:  403000002 cycles:  770118453 heartbeat IPC: 0.55917 cumulative IPC: 0.41715 (Simulation time: 0 hr 15 min 45 sec) 
Heartbeat CPU  0 instructions:  404000000 cycles:  771905541 heartbeat IPC: 0.55957 cumulative IPC: 0.41750 (Simulation time: 0 hr 15 min 47 sec) 
Heartbeat CPU  0 instructions:  405000002 cycles:  773694683 heartbeat IPC: 0.55893 cumulative IPC: 0.41784 (Simulation time: 0 hr 15 min 49 sec) 
Heartbeat CPU  0 instructions:  406000002 cycles:  775481702 heartbeat IPC: 0.55959 cumulative IPC: 0.41819 (Simulation time: 0 hr 15 min 52 sec) 
Heartbeat CPU  0 instructions:  407000001 cycles:  777261472 heartbeat IPC: 0.56187 cumulative IPC: 0.41854 (Simulation time: 0 hr 15 min 54 sec) 
Heartbeat CPU  0 instructions:  408000000 cycles:  779043806 heartbeat IPC: 0.56106 cumulative IPC: 0.41888 (Simulation time: 0 hr 15 min 56 sec) 
Heartbeat CPU  0 instructions:  409000000 cycles:  780825436 heartbeat IPC: 0.56128 cumulative IPC: 0.41923 (Simulation time: 0 hr 15 min 59 sec) 
Heartbeat CPU  0 instructions:  410000002 cycles:  782604118 heartbeat IPC: 0.56222 cumulative IPC: 0.41957 (Simulation time: 0 hr 16 min 1 sec) 
Heartbeat CPU  0 instructions:  411000003 cycles:  784384009 heartbeat IPC: 0.56183 cumulative IPC: 0.41992 (Simulation time: 0 hr 16 min 3 sec) 
Heartbeat CPU  0 instructions:  412000000 cycles:  786164311 heartbeat IPC: 0.56170 cumulative IPC: 0.42026 (Simulation time: 0 hr 16 min 6 sec) 
Heartbeat CPU  0 instructions:  413000003 cycles:  787944739 heartbeat IPC: 0.56166 cumulative IPC: 0.42059 (Simulation time: 0 hr 16 min 8 sec) 
Heartbeat CPU  0 instructions:  414000000 cycles:  789724911 heartbeat IPC: 0.56174 cumulative IPC: 0.42093 (Simulation time: 0 hr 16 min 10 sec) 
Heartbeat CPU  0 instructions:  415000001 cycles:  791505124 heartbeat IPC: 0.56173 cumulative IPC: 0.42127 (Simulation time: 0 hr 16 min 13 sec) 
Heartbeat CPU  0 instructions:  416000000 cycles:  793284181 heartbeat IPC: 0.56209 cumulative IPC: 0.42160 (Simulation time: 0 hr 16 min 15 sec) 
Heartbeat CPU  0 instructions:  417000001 cycles:  795066288 heartbeat IPC: 0.56113 cumulative IPC: 0.42193 (Simulation time: 0 hr 16 min 17 sec) 
Heartbeat CPU  0 instructions:  418000002 cycles:  796848604 heartbeat IPC: 0.56107 cumulative IPC: 0.42226 (Simulation time: 0 hr 16 min 20 sec) 
Heartbeat CPU  0 instructions:  419000001 cycles:  798629440 heartbeat IPC: 0.56153 cumulative IPC: 0.42259 (Simulation time: 0 hr 16 min 22 sec) 
Heartbeat CPU  0 instructions:  420000000 cycles:  800410295 heartbeat IPC: 0.56153 cumulative IPC: 0.42292 (Simulation time: 0 hr 16 min 24 sec) 
Heartbeat CPU  0 instructions:  421000000 cycles:  802165057 heartbeat IPC: 0.56988 cumulative IPC: 0.42326 (Simulation time: 0 hr 16 min 27 sec) 
Heartbeat CPU  0 instructions:  422000002 cycles:  803906527 heartbeat IPC: 0.57423 cumulative IPC: 0.42360 (Simulation time: 0 hr 16 min 29 sec) 
Heartbeat CPU  0 instructions:  423000003 cycles:  805524819 heartbeat IPC: 0.61794 cumulative IPC: 0.42401 (Simulation time: 0 hr 16 min 31 sec) 
Heartbeat CPU  0 instructions:  424000000 cycles:  807168945 heartbeat IPC: 0.60822 cumulative IPC: 0.42441 (Simulation time: 0 hr 16 min 34 sec) 
Heartbeat CPU  0 instructions:  425000001 cycles:  808660571 heartbeat IPC: 0.67041 cumulative IPC: 0.42489 (Simulation time: 0 hr 16 min 36 sec) 
Heartbeat CPU  0 instructions:  426000000 cycles:  810149039 heartbeat IPC: 0.67183 cumulative IPC: 0.42537 (Simulation time: 0 hr 16 min 38 sec) 
Heartbeat CPU  0 instructions:  427000002 cycles:  811622590 heartbeat IPC: 0.67863 cumulative IPC: 0.42586 (Simulation time: 0 hr 16 min 40 sec) 
Heartbeat CPU  0 instructions:  428000000 cycles:  813098442 heartbeat IPC: 0.67757 cumulative IPC: 0.42634 (Simulation time: 0 hr 16 min 42 sec) 
Heartbeat CPU  0 instructions:  429000001 cycles:  814576262 heartbeat IPC: 0.67667 cumulative IPC: 0.42682 (Simulation time: 0 hr 16 min 45 sec) 
Heartbeat CPU  0 instructions:  430000002 cycles:  816052860 heartbeat IPC: 0.67723 cumulative IPC: 0.42730 (Simulation time: 0 hr 16 min 47 sec) 
Heartbeat CPU  0 instructions:  431000001 cycles:  817524304 heartbeat IPC: 0.67960 cumulative IPC: 0.42778 (Simulation time: 0 hr 16 min 49 sec) 
Heartbeat CPU  0 instructions:  432000000 cycles:  818997955 heartbeat IPC: 0.67859 cumulative IPC: 0.42825 (Simulation time: 0 hr 16 min 51 sec) 
Heartbeat CPU  0 instructions:  433000000 cycles:  820472205 heartbeat IPC: 0.67831 cumulative IPC: 0.42873 (Simulation time: 0 hr 16 min 53 sec) 
Heartbeat CPU  0 instructions:  434000002 cycles:  821950456 heartbeat IPC: 0.67648 cumulative IPC: 0.42920 (Simulation time: 0 hr 16 min 56 sec) 
Heartbeat CPU  0 instructions:  435000003 cycles:  823429808 heartbeat IPC: 0.67597 cumulative IPC: 0.42967 (Simulation time: 0 hr 16 min 58 sec) 
Heartbeat CPU  0 instructions:  436000000 cycles:  824907684 heartbeat IPC: 0.67664 cumulative IPC: 0.43014 (Simulation time: 0 hr 17 min 0 sec) 
Heartbeat CPU  0 instructions:  437000003 cycles:  826383280 heartbeat IPC: 0.67769 cumulative IPC: 0.43060 (Simulation time: 0 hr 17 min 2 sec) 
Heartbeat CPU  0 instructions:  438000000 cycles:  827861326 heartbeat IPC: 0.67657 cumulative IPC: 0.43107 (Simulation time: 0 hr 17 min 5 sec) 
Heartbeat CPU  0 instructions:  439000001 cycles:  829360940 heartbeat IPC: 0.66684 cumulative IPC: 0.43152 (Simulation time: 0 hr 17 min 7 sec) 
Heartbeat CPU  0 instructions:  440000000 cycles:  830833582 heartbeat IPC: 0.67905 cumulative IPC: 0.43198 (Simulation time: 0 hr 17 min 9 sec) 
Heartbeat CPU  0 instructions:  441000000 cycles:  832611604 heartbeat IPC: 0.56242 cumulative IPC: 0.43227 (Simulation time: 0 hr 17 min 11 sec) 
Heartbeat CPU  0 instructions:  442000002 cycles:  838315460 heartbeat IPC: 0.17532 cumulative IPC: 0.43043 (Simulation time: 0 hr 17 min 16 sec) 
Heartbeat CPU  0 instructions:  443000002 cycles:  844075457 heartbeat IPC: 0.17361 cumulative IPC: 0.42858 (Simulation time: 0 hr 17 min 20 sec) 
Heartbeat CPU  0 instructions:  444000000 cycles:  849827944 heartbeat IPC: 0.17384 cumulative IPC: 0.42676 (Simulation time: 0 hr 17 min 24 sec) 
Heartbeat CPU  0 instructions:  445000000 cycles:  855546399 heartbeat IPC: 0.17487 cumulative IPC: 0.42499 (Simulation time: 0 hr 17 min 28 sec) 
Heartbeat CPU  0 instructions:  446000000 cycles:  861275622 heartbeat IPC: 0.17454 cumulative IPC: 0.42323 (Simulation time: 0 hr 17 min 33 sec) 
Heartbeat CPU  0 instructions:  447000000 cycles:  866993204 heartbeat IPC: 0.17490 cumulative IPC: 0.42151 (Simulation time: 0 hr 17 min 37 sec) 
Heartbeat CPU  0 instructions:  448000000 cycles:  872707821 heartbeat IPC: 0.17499 cumulative IPC: 0.41981 (Simulation time: 0 hr 17 min 41 sec) 
Heartbeat CPU  0 instructions:  449000003 cycles:  876670789 heartbeat IPC: 0.25234 cumulative IPC: 0.41901 (Simulation time: 0 hr 17 min 45 sec) 
Heartbeat CPU  0 instructions:  450000000 cycles:  879241922 heartbeat IPC: 0.38893 cumulative IPC: 0.41892 (Simulation time: 0 hr 17 min 48 sec) 
Heartbeat CPU  0 instructions:  451000003 cycles:  882276497 heartbeat IPC: 0.32954 cumulative IPC: 0.41860 (Simulation time: 0 hr 17 min 51 sec) 
Heartbeat CPU  0 instructions:  452000000 cycles:  885327606 heartbeat IPC: 0.32775 cumulative IPC: 0.41827 (Simulation time: 0 hr 17 min 53 sec) 
Heartbeat CPU  0 instructions:  453000002 cycles:  888454419 heartbeat IPC: 0.31982 cumulative IPC: 0.41790 (Simulation time: 0 hr 17 min 56 sec) 
Heartbeat CPU  0 instructions:  454000001 cycles:  891647082 heartbeat IPC: 0.31322 cumulative IPC: 0.41751 (Simulation time: 0 hr 17 min 59 sec) 
Heartbeat CPU  0 instructions:  455000002 cycles:  894868097 heartbeat IPC: 0.31046 cumulative IPC: 0.41710 (Simulation time: 0 hr 18 min 2 sec) 
Heartbeat CPU  0 instructions:  456000000 cycles:  898087403 heartbeat IPC: 0.31063 cumulative IPC: 0.41670 (Simulation time: 0 hr 18 min 4 sec) 
Heartbeat CPU  0 instructions:  457000002 cycles:  901249816 heartbeat IPC: 0.31621 cumulative IPC: 0.41633 (Simulation time: 0 hr 18 min 7 sec) 
Heartbeat CPU  0 instructions:  458000001 cycles:  904436460 heartbeat IPC: 0.31381 cumulative IPC: 0.41595 (Simulation time: 0 hr 18 min 10 sec) 
Heartbeat CPU  0 instructions:  459000002 cycles:  907677087 heartbeat IPC: 0.30858 cumulative IPC: 0.41555 (Simulation time: 0 hr 18 min 13 sec) 
Heartbeat CPU  0 instructions:  460000000 cycles:  910908263 heartbeat IPC: 0.30948 cumulative IPC: 0.41515 (Simulation time: 0 hr 18 min 16 sec) 
Heartbeat CPU  0 instructions:  461000002 cycles:  914114913 heartbeat IPC: 0.31185 cumulative IPC: 0.41477 (Simulation time: 0 hr 18 min 18 sec) 
Heartbeat CPU  0 instructions:  462000000 cycles:  917348779 heartbeat IPC: 0.30923 cumulative IPC: 0.41438 (Simulation time: 0 hr 18 min 21 sec) 
Heartbeat CPU  0 instructions:  463000001 cycles:  920536430 heartbeat IPC: 0.31371 cumulative IPC: 0.41402 (Simulation time: 0 hr 18 min 24 sec) 
Heartbeat CPU  0 instructions:  464000000 cycles:  923749353 heartbeat IPC: 0.31124 cumulative IPC: 0.41364 (Simulation time: 0 hr 18 min 27 sec) 
Heartbeat CPU  0 instructions:  465000002 cycles:  926944462 heartbeat IPC: 0.31298 cumulative IPC: 0.41328 (Simulation time: 0 hr 18 min 30 sec) 
Heartbeat CPU  0 instructions:  466000002 cycles:  930124837 heartbeat IPC: 0.31443 cumulative IPC: 0.41292 (Simulation time: 0 hr 18 min 32 sec) 
Heartbeat CPU  0 instructions:  467000003 cycles:  933342205 heartbeat IPC: 0.31081 cumulative IPC: 0.41255 (Simulation time: 0 hr 18 min 35 sec) 
Heartbeat CPU  0 instructions:  468000000 cycles:  936563246 heartbeat IPC: 0.31046 cumulative IPC: 0.41218 (Simulation time: 0 hr 18 min 38 sec) 
Heartbeat CPU  0 instructions:  469000002 cycles:  939791074 heartbeat IPC: 0.30981 cumulative IPC: 0.41182 (Simulation time: 0 hr 18 min 41 sec) 
Heartbeat CPU  0 instructions:  470000001 cycles:  943006979 heartbeat IPC: 0.31095 cumulative IPC: 0.41145 (Simulation time: 0 hr 18 min 44 sec) 
Heartbeat CPU  0 instructions:  471000002 cycles:  946221367 heartbeat IPC: 0.31110 cumulative IPC: 0.41110 (Simulation time: 0 hr 18 min 46 sec) 
Heartbeat CPU  0 instructions:  472000000 cycles:  949435031 heartbeat IPC: 0.31117 cumulative IPC: 0.41074 (Simulation time: 0 hr 18 min 49 sec) 
Heartbeat CPU  0 instructions:  473000002 cycles:  952668255 heartbeat IPC: 0.30929 cumulative IPC: 0.41038 (Simulation time: 0 hr 18 min 52 sec) 
Heartbeat CPU  0 instructions:  474000003 cycles:  955774040 heartbeat IPC: 0.32198 cumulative IPC: 0.41008 (Simulation time: 0 hr 18 min 55 sec) 
Heartbeat CPU  0 instructions:  475000000 cycles:  958315331 heartbeat IPC: 0.39350 cumulative IPC: 0.41003 (Simulation time: 0 hr 18 min 58 sec) 
Heartbeat CPU  0 instructions:  476000000 cycles:  961053324 heartbeat IPC: 0.36523 cumulative IPC: 0.40990 (Simulation time: 0 hr 19 min 1 sec) 
Heartbeat CPU  0 instructions:  477000003 cycles:  964013318 heartbeat IPC: 0.33784 cumulative IPC: 0.40967 (Simulation time: 0 hr 19 min 3 sec) 
Heartbeat CPU  0 instructions:  478000001 cycles:  966992150 heartbeat IPC: 0.33570 cumulative IPC: 0.40943 (Simulation time: 0 hr 19 min 6 sec) 
Heartbeat CPU  0 instructions:  479000002 cycles:  970038872 heartbeat IPC: 0.32822 cumulative IPC: 0.40916 (Simulation time: 0 hr 19 min 9 sec) 
Heartbeat CPU  0 instructions:  480000000 cycles:  973080573 heartbeat IPC: 0.32876 cumulative IPC: 0.40890 (Simulation time: 0 hr 19 min 12 sec) 
Heartbeat CPU  0 instructions:  481000002 cycles:  976161885 heartbeat IPC: 0.32454 cumulative IPC: 0.40862 (Simulation time: 0 hr 19 min 14 sec) 
Heartbeat CPU  0 instructions:  482000001 cycles:  979236115 heartbeat IPC: 0.32528 cumulative IPC: 0.40835 (Simulation time: 0 hr 19 min 17 sec) 
Heartbeat CPU  0 instructions:  483000002 cycles:  982321763 heartbeat IPC: 0.32408 cumulative IPC: 0.40807 (Simulation time: 0 hr 19 min 20 sec) 
Heartbeat CPU  0 instructions:  484000000 cycles:  985407476 heartbeat IPC: 0.32407 cumulative IPC: 0.40780 (Simulation time: 0 hr 19 min 23 sec) 
Heartbeat CPU  0 instructions:  485000001 cycles:  988493360 heartbeat IPC: 0.32406 cumulative IPC: 0.40752 (Simulation time: 0 hr 19 min 25 sec) 
Heartbeat CPU  0 instructions:  486000001 cycles:  991567252 heartbeat IPC: 0.32532 cumulative IPC: 0.40726 (Simulation time: 0 hr 19 min 28 sec) 
Heartbeat CPU  0 instructions:  487000002 cycles:  994638381 heartbeat IPC: 0.32561 cumulative IPC: 0.40699 (Simulation time: 0 hr 19 min 31 sec) 
Heartbeat CPU  0 instructions:  488000000 cycles:  997695159 heartbeat IPC: 0.32714 cumulative IPC: 0.40674 (Simulation time: 0 hr 19 min 33 sec) 
Heartbeat CPU  0 instructions:  489000001 cycles: 1000766870 heartbeat IPC: 0.32555 cumulative IPC: 0.40647 (Simulation time: 0 hr 19 min 36 sec) 
Heartbeat CPU  0 instructions:  490000000 cycles: 1003812778 heartbeat IPC: 0.32831 cumulative IPC: 0.40623 (Simulation time: 0 hr 19 min 39 sec) 
Heartbeat CPU  0 instructions:  491000003 cycles: 1006914032 heartbeat IPC: 0.32245 cumulative IPC: 0.40596 (Simulation time: 0 hr 19 min 42 sec) 
Heartbeat CPU  0 instructions:  492000000 cycles: 1009958025 heartbeat IPC: 0.32851 cumulative IPC: 0.40571 (Simulation time: 0 hr 19 min 44 sec) 
Heartbeat CPU  0 instructions:  493000003 cycles: 1013056136 heartbeat IPC: 0.32278 cumulative IPC: 0.40545 (Simulation time: 0 hr 19 min 47 sec) 
Heartbeat CPU  0 instructions:  494000000 cycles: 1016120028 heartbeat IPC: 0.32638 cumulative IPC: 0.40520 (Simulation time: 0 hr 19 min 50 sec) 
Heartbeat CPU  0 instructions:  495000002 cycles: 1019185093 heartbeat IPC: 0.32626 cumulative IPC: 0.40495 (Simulation time: 0 hr 19 min 53 sec) 
Heartbeat CPU  0 instructions:  496000000 cycles: 1022248486 heartbeat IPC: 0.32643 cumulative IPC: 0.40471 (Simulation time: 0 hr 19 min 55 sec) 
Heartbeat CPU  0 instructions:  497000003 cycles: 1025296474 heartbeat IPC: 0.32809 cumulative IPC: 0.40447 (Simulation time: 0 hr 19 min 58 sec) 
Heartbeat CPU  0 instructions:  498000000 cycles: 1028407157 heartbeat IPC: 0.32147 cumulative IPC: 0.40420 (Simulation time: 0 hr 20 min 1 sec) 
Heartbeat CPU  0 instructions:  499000002 cycles: 1031493011 heartbeat IPC: 0.32406 cumulative IPC: 0.40395 (Simulation time: 0 hr 20 min 4 sec) 
Heartbeat CPU  0 instructions:  500000000 cycles: 1033788183 heartbeat IPC: 0.43570 cumulative IPC: 0.40403 (Simulation time: 0 hr 20 min 6 sec) 
Heartbeat CPU  0 instructions:  501000000 cycles: 1035700043 heartbeat IPC: 0.52305 cumulative IPC: 0.40426 (Simulation time: 0 hr 20 min 8 sec) 
Heartbeat CPU  0 instructions:  502000002 cycles: 1037609382 heartbeat IPC: 0.52374 cumulative IPC: 0.40449 (Simulation time: 0 hr 20 min 11 sec) 
Heartbeat CPU  0 instructions:  503000002 cycles: 1039517225 heartbeat IPC: 0.52415 cumulative IPC: 0.40472 (Simulation time: 0 hr 20 min 13 sec) 
Heartbeat CPU  0 instructions:  504000000 cycles: 1041424533 heartbeat IPC: 0.52430 cumulative IPC: 0.40495 (Simulation time: 0 hr 20 min 16 sec) 
Heartbeat CPU  0 instructions:  505000000 cycles: 1043331284 heartbeat IPC: 0.52445 cumulative IPC: 0.40517 (Simulation time: 0 hr 20 min 18 sec) 
Heartbeat CPU  0 instructions:  506000000 cycles: 1045240232 heartbeat IPC: 0.52385 cumulative IPC: 0.40540 (Simulation time: 0 hr 20 min 20 sec) 
Heartbeat CPU  0 instructions:  507000001 cycles: 1047146821 heartbeat IPC: 0.52450 cumulative IPC: 0.40563 (Simulation time: 0 hr 20 min 23 sec) 
Heartbeat CPU  0 instructions:  508000000 cycles: 1049054734 heartbeat IPC: 0.52413 cumulative IPC: 0.40585 (Simulation time: 0 hr 20 min 25 sec) 
Heartbeat CPU  0 instructions:  509000000 cycles: 1050963526 heartbeat IPC: 0.52389 cumulative IPC: 0.40607 (Simulation time: 0 hr 20 min 27 sec) 
Heartbeat CPU  0 instructions:  510000000 cycles: 1052870868 heartbeat IPC: 0.52429 cumulative IPC: 0.40630 (Simulation time: 0 hr 20 min 30 sec) 
Heartbeat CPU  0 instructions:  511000003 cycles: 1054780896 heartbeat IPC: 0.52355 cumulative IPC: 0.40652 (Simulation time: 0 hr 20 min 32 sec) 
Heartbeat CPU  0 instructions:  512000000 cycles: 1056687962 heartbeat IPC: 0.52436 cumulative IPC: 0.40674 (Simulation time: 0 hr 20 min 35 sec) 
Heartbeat CPU  0 instructions:  513000001 cycles: 1058597046 heartbeat IPC: 0.52381 cumulative IPC: 0.40696 (Simulation time: 0 hr 20 min 37 sec) 
Heartbeat CPU  0 instructions:  514000001 cycles: 1060503218 heartbeat IPC: 0.52461 cumulative IPC: 0.40718 (Simulation time: 0 hr 20 min 39 sec) 
Heartbeat CPU  0 instructions:  515000002 cycles: 1062412824 heartbeat IPC: 0.52367 cumulative IPC: 0.40740 (Simulation time: 0 hr 20 min 42 sec) 
Heartbeat CPU  0 instructions:  516000000 cycles: 1064322638 heartbeat IPC: 0.52361 cumulative IPC: 0.40762 (Simulation time: 0 hr 20 min 44 sec) 
Heartbeat CPU  0 instructions:  517000002 cycles: 1066229727 heartbeat IPC: 0.52436 cumulative IPC: 0.40784 (Simulation time: 0 hr 20 min 46 sec) 
Heartbeat CPU  0 instructions:  518000002 cycles: 1068137296 heartbeat IPC: 0.52423 cumulative IPC: 0.40805 (Simulation time: 0 hr 20 min 49 sec) 
Heartbeat CPU  0 instructions:  519000000 cycles: 1070047791 heartbeat IPC: 0.52342 cumulative IPC: 0.40827 (Simulation time: 0 hr 20 min 51 sec) 
Heartbeat CPU  0 instructions:  520000000 cycles: 1071955577 heartbeat IPC: 0.52417 cumulative IPC: 0.40848 (Simulation time: 0 hr 20 min 54 sec) 
Heartbeat CPU  0 instructions:  521000001 cycles: 1073863228 heartbeat IPC: 0.52421 cumulative IPC: 0.40870 (Simulation time: 0 hr 20 min 56 sec) 
Heartbeat CPU  0 instructions:  522000000 cycles: 1075769761 heartbeat IPC: 0.52451 cumulative IPC: 0.40891 (Simulation time: 0 hr 20 min 58 sec) 
Heartbeat CPU  0 instructions:  523000000 cycles: 1077678579 heartbeat IPC: 0.52388 cumulative IPC: 0.40912 (Simulation time: 0 hr 21 min 1 sec) 
Heartbeat CPU  0 instructions:  524000000 cycles: 1079585902 heartbeat IPC: 0.52430 cumulative IPC: 0.40933 (Simulation time: 0 hr 21 min 3 sec) 
Heartbeat CPU  0 instructions:  525000000 cycles: 1081495400 heartbeat IPC: 0.52370 cumulative IPC: 0.40954 (Simulation time: 0 hr 21 min 5 sec) 
Heartbeat CPU  0 instructions:  526000002 cycles: 1083403292 heartbeat IPC: 0.52414 cumulative IPC: 0.40976 (Simulation time: 0 hr 21 min 8 sec) 
Heartbeat CPU  0 instructions:  527000002 cycles: 1085312547 heartbeat IPC: 0.52376 cumulative IPC: 0.40996 (Simulation time: 0 hr 21 min 10 sec) 
Heartbeat CPU  0 instructions:  528000000 cycles: 1087219945 heartbeat IPC: 0.52427 cumulative IPC: 0.41017 (Simulation time: 0 hr 21 min 13 sec) 
Heartbeat CPU  0 instructions:  529000002 cycles: 1089129372 heartbeat IPC: 0.52372 cumulative IPC: 0.41038 (Simulation time: 0 hr 21 min 15 sec) 
Heartbeat CPU  0 instructions:  530000002 cycles: 1091039713 heartbeat IPC: 0.52347 cumulative IPC: 0.41059 (Simulation time: 0 hr 21 min 17 sec) 
Heartbeat CPU  0 instructions:  531000001 cycles: 1092948464 heartbeat IPC: 0.52390 cumulative IPC: 0.41079 (Simulation time: 0 hr 21 min 20 sec) 
Heartbeat CPU  0 instructions:  532000000 cycles: 1094855909 heartbeat IPC: 0.52426 cumulative IPC: 0.41100 (Simulation time: 0 hr 21 min 22 sec) 
Heartbeat CPU  0 instructions:  533000000 cycles: 1096763850 heartbeat IPC: 0.52413 cumulative IPC: 0.41120 (Simulation time: 0 hr 21 min 24 sec) 
Heartbeat CPU  0 instructions:  534000000 cycles: 1098671740 heartbeat IPC: 0.52414 cumulative IPC: 0.41141 (Simulation time: 0 hr 21 min 27 sec) 
Heartbeat CPU  0 instructions:  535000002 cycles: 1100568279 heartbeat IPC: 0.52728 cumulative IPC: 0.41162 (Simulation time: 0 hr 21 min 29 sec) 
Heartbeat CPU  0 instructions:  536000000 cycles: 1102462001 heartbeat IPC: 0.52806 cumulative IPC: 0.41182 (Simulation time: 0 hr 21 min 32 sec) 
Heartbeat CPU  0 instructions:  537000003 cycles: 1104355941 heartbeat IPC: 0.52800 cumulative IPC: 0.41203 (Simulation time: 0 hr 21 min 34 sec) 
Heartbeat CPU  0 instructions:  538000003 cycles: 1106250486 heartbeat IPC: 0.52783 cumulative IPC: 0.41224 (Simulation time: 0 hr 21 min 36 sec) 
Heartbeat CPU  0 instructions:  539000001 cycles: 1108143948 heartbeat IPC: 0.52813 cumulative IPC: 0.41244 (Simulation time: 0 hr 21 min 39 sec) 
Heartbeat CPU  0 instructions:  540000000 cycles: 1110033523 heartbeat IPC: 0.52922 cumulative IPC: 0.41265 (Simulation time: 0 hr 21 min 41 sec) 
Heartbeat CPU  0 instructions:  541000000 cycles: 1111926106 heartbeat IPC: 0.52838 cumulative IPC: 0.41286 (Simulation time: 0 hr 21 min 43 sec) 
Heartbeat CPU  0 instructions:  542000000 cycles: 1113818685 heartbeat IPC: 0.52838 cumulative IPC: 0.41306 (Simulation time: 0 hr 21 min 46 sec) 
Heartbeat CPU  0 instructions:  543000002 cycles: 1115710693 heartbeat IPC: 0.52854 cumulative IPC: 0.41326 (Simulation time: 0 hr 21 min 48 sec) 
Heartbeat CPU  0 instructions:  544000000 cycles: 1117604314 heartbeat IPC: 0.52809 cumulative IPC: 0.41347 (Simulation time: 0 hr 21 min 51 sec) 
Heartbeat CPU  0 instructions:  545000001 cycles: 1119495670 heartbeat IPC: 0.52872 cumulative IPC: 0.41367 (Simulation time: 0 hr 21 min 53 sec) 
Heartbeat CPU  0 instructions:  546000003 cycles: 1121388708 heartbeat IPC: 0.52825 cumulative IPC: 0.41387 (Simulation time: 0 hr 21 min 55 sec) 
Heartbeat CPU  0 instructions:  547000002 cycles: 1123277872 heartbeat IPC: 0.52933 cumulative IPC: 0.41407 (Simulation time: 0 hr 21 min 58 sec) 
Heartbeat CPU  0 instructions:  548000000 cycles: 1125169828 heartbeat IPC: 0.52855 cumulative IPC: 0.41427 (Simulation time: 0 hr 22 min 0 sec) 
Heartbeat CPU  0 instructions:  549000000 cycles: 1127061388 heartbeat IPC: 0.52866 cumulative IPC: 0.41447 (Simulation time: 0 hr 22 min 2 sec) 
Heartbeat CPU  0 instructions:  550000003 cycles: 1128936937 heartbeat IPC: 0.53318 cumulative IPC: 0.41468 (Simulation time: 0 hr 22 min 5 sec) 
Heartbeat CPU  0 instructions:  551000001 cycles: 1130679293 heartbeat IPC: 0.57393 cumulative IPC: 0.41493 (Simulation time: 0 hr 22 min 7 sec) 
Heartbeat CPU  0 instructions:  552000000 cycles: 1132298759 heartbeat IPC: 0.61749 cumulative IPC: 0.41523 (Simulation time: 0 hr 22 min 9 sec) 
Heartbeat CPU  0 instructions:  553000000 cycles: 1133810183 heartbeat IPC: 0.66163 cumulative IPC: 0.41558 (Simulation time: 0 hr 22 min 12 sec) 
Heartbeat CPU  0 instructions:  554000000 cycles: 1135301140 heartbeat IPC: 0.67071 cumulative IPC: 0.41593 (Simulation time: 0 hr 22 min 14 sec) 
Heartbeat CPU  0 instructions:  555000002 cycles: 1136849396 heartbeat IPC: 0.64589 cumulative IPC: 0.41625 (Simulation time: 0 hr 22 min 16 sec) 
Heartbeat CPU  0 instructions:  556000000 cycles: 1138339232 heartbeat IPC: 0.67121 cumulative IPC: 0.41660 (Simulation time: 0 hr 22 min 18 sec) 
Heartbeat CPU  0 instructions:  557000001 cycles: 1139829013 heartbeat IPC: 0.67124 cumulative IPC: 0.41694 (Simulation time: 0 hr 22 min 20 sec) 
Heartbeat CPU  0 instructions:  558000003 cycles: 1141319467 heartbeat IPC: 0.67094 cumulative IPC: 0.41729 (Simulation time: 0 hr 22 min 23 sec) 
Heartbeat CPU  0 instructions:  559000002 cycles: 1142810900 heartbeat IPC: 0.67050 cumulative IPC: 0.41763 (Simulation time: 0 hr 22 min 25 sec) 
Heartbeat CPU  0 instructions:  560000000 cycles: 1144302953 heartbeat IPC: 0.67022 cumulative IPC: 0.41797 (Simulation time: 0 hr 22 min 27 sec) 
Heartbeat CPU  0 instructions:  561000000 cycles: 1145794727 heartbeat IPC: 0.67034 cumulative IPC: 0.41832 (Simulation time: 0 hr 22 min 29 sec) 
Heartbeat CPU  0 instructions:  562000003 cycles: 1147282959 heartbeat IPC: 0.67194 cumulative IPC: 0.41866 (Simulation time: 0 hr 22 min 31 sec) 
Heartbeat CPU  0 instructions:  563000003 cycles: 1148773945 heartbeat IPC: 0.67070 cumulative IPC: 0.41900 (Simulation time: 0 hr 22 min 34 sec) 
Heartbeat CPU  0 instructions:  564000000 cycles: 1150268228 heartbeat IPC: 0.66922 cumulative IPC: 0.41934 (Simulation time: 0 hr 22 min 36 sec) 
Heartbeat CPU  0 instructions:  565000000 cycles: 1151759266 heartbeat IPC: 0.67067 cumulative IPC: 0.41967 (Simulation time: 0 hr 22 min 38 sec) 
Heartbeat CPU  0 instructions:  566000000 cycles: 1153249418 heartbeat IPC: 0.67107 cumulative IPC: 0.42001 (Simulation time: 0 hr 22 min 40 sec) 
Heartbeat CPU  0 instructions:  567000002 cycles: 1154738533 heartbeat IPC: 0.67154 cumulative IPC: 0.42035 (Simulation time: 0 hr 22 min 42 sec) 
Heartbeat CPU  0 instructions:  568000000 cycles: 1156229808 heartbeat IPC: 0.67057 cumulative IPC: 0.42068 (Simulation time: 0 hr 22 min 45 sec) 
Heartbeat CPU  0 instructions:  569000000 cycles: 1157721772 heartbeat IPC: 0.67026 cumulative IPC: 0.42102 (Simulation time: 0 hr 22 min 47 sec) 
Heartbeat CPU  0 instructions:  570000003 cycles: 1165059031 heartbeat IPC: 0.13629 cumulative IPC: 0.41916 (Simulation time: 0 hr 22 min 54 sec) 
Heartbeat CPU  0 instructions:  571000003 cycles: 1169648158 heartbeat IPC: 0.21791 cumulative IPC: 0.41834 (Simulation time: 0 hr 22 min 58 sec) 
Heartbeat CPU  0 instructions:  572000000 cycles: 1172640192 heartbeat IPC: 0.33422 cumulative IPC: 0.41811 (Simulation time: 0 hr 23 min 1 sec) 
Heartbeat CPU  0 instructions:  573000002 cycles: 1175665675 heartbeat IPC: 0.33053 cumulative IPC: 0.41788 (Simulation time: 0 hr 23 min 4 sec) 
Heartbeat CPU  0 instructions:  574000001 cycles: 1178631009 heartbeat IPC: 0.33723 cumulative IPC: 0.41767 (Simulation time: 0 hr 23 min 6 sec) 
Heartbeat CPU  0 instructions:  575000003 cycles: 1181609320 heartbeat IPC: 0.33576 cumulative IPC: 0.41745 (Simulation time: 0 hr 23 min 9 sec) 
Heartbeat CPU  0 instructions:  576000000 cycles: 1184567676 heartbeat IPC: 0.33802 cumulative IPC: 0.41725 (Simulation time: 0 hr 23 min 12 sec) 
Heartbeat CPU  0 instructions:  577000002 cycles: 1187542949 heartbeat IPC: 0.33610 cumulative IPC: 0.41704 (Simulation time: 0 hr 23 min 14 sec) 
Heartbeat CPU  0 instructions:  578000001 cycles: 1190506570 heartbeat IPC: 0.33742 cumulative IPC: 0.41683 (Simulation time: 0 hr 23 min 17 sec) 
Heartbeat CPU  0 instructions:  579000000 cycles: 1193474906 heartbeat IPC: 0.33689 cumulative IPC: 0.41662 (Simulation time: 0 hr 23 min 20 sec) 
Heartbeat CPU  0 instructions:  580000000 cycles: 1196436413 heartbeat IPC: 0.33767 cumulative IPC: 0.41642 (Simulation time: 0 hr 23 min 22 sec) 
Heartbeat CPU  0 instructions:  581000002 cycles: 1199400056 heartbeat IPC: 0.33742 cumulative IPC: 0.41622 (Simulation time: 0 hr 23 min 25 sec) 
Heartbeat CPU  0 instructions:  582000001 cycles: 1202368544 heartbeat IPC: 0.33687 cumulative IPC: 0.41602 (Simulation time: 0 hr 23 min 28 sec) 
Heartbeat CPU  0 instructions:  583000000 cycles: 1205313526 heartbeat IPC: 0.33956 cumulative IPC: 0.41582 (Simulation time: 0 hr 23 min 30 sec) 
Heartbeat CPU  0 instructions:  584000000 cycles: 1208287656 heartbeat IPC: 0.33623 cumulative IPC: 0.41562 (Simulation time: 0 hr 23 min 33 sec) 
Heartbeat CPU  0 instructions:  585000001 cycles: 1211204572 heartbeat IPC: 0.34283 cumulative IPC: 0.41544 (Simulation time: 0 hr 23 min 36 sec) 
Heartbeat CPU  0 instructions:  586000001 cycles: 1214236536 heartbeat IPC: 0.32982 cumulative IPC: 0.41521 (Simulation time: 0 hr 23 min 39 sec) 
Heartbeat CPU  0 instructions:  587000002 cycles: 1217193717 heartbeat IPC: 0.33816 cumulative IPC: 0.41502 (Simulation time: 0 hr 23 min 41 sec) 
Heartbeat CPU  0 instructions:  588000000 cycles: 1220153022 heartbeat IPC: 0.33792 cumulative IPC: 0.41483 (Simulation time: 0 hr 23 min 44 sec) 
Heartbeat CPU  0 instructions:  589000000 cycles: 1223135244 heartbeat IPC: 0.33532 cumulative IPC: 0.41463 (Simulation time: 0 hr 23 min 47 sec) 
Heartbeat CPU  0 instructions:  590000003 cycles: 1226099959 heartbeat IPC: 0.33730 cumulative IPC: 0.41443 (Simulation time: 0 hr 23 min 49 sec) 
Heartbeat CPU  0 instructions:  591000002 cycles: 1229058607 heartbeat IPC: 0.33799 cumulative IPC: 0.41424 (Simulation time: 0 hr 23 min 52 sec) 
Heartbeat CPU  0 instructions:  592000000 cycles: 1232051246 heartbeat IPC: 0.33415 cumulative IPC: 0.41404 (Simulation time: 0 hr 23 min 55 sec) 
Heartbeat CPU  0 instructions:  593000000 cycles: 1235002481 heartbeat IPC: 0.33884 cumulative IPC: 0.41385 (Simulation time: 0 hr 23 min 57 sec) 
Heartbeat CPU  0 instructions:  594000001 cycles: 1237490499 heartbeat IPC: 0.40193 cumulative IPC: 0.41383 (Simulation time: 0 hr 24 min 0 sec) 
Heartbeat CPU  0 instructions:  595000002 cycles: 1239939029 heartbeat IPC: 0.40841 cumulative IPC: 0.41382 (Simulation time: 0 hr 24 min 3 sec) 
Heartbeat CPU  0 instructions:  596000000 cycles: 1245944453 heartbeat IPC: 0.16652 cumulative IPC: 0.41258 (Simulation time: 0 hr 24 min 8 sec) 
Heartbeat CPU  0 instructions:  597000000 cycles: 1252121882 heartbeat IPC: 0.16188 cumulative IPC: 0.41130 (Simulation time: 0 hr 24 min 13 sec) 
Heartbeat CPU  0 instructions:  598000002 cycles: 1258352223 heartbeat IPC: 0.16051 cumulative IPC: 0.41001 (Simulation time: 0 hr 24 min 17 sec) 
Heartbeat CPU  0 instructions:  599000000 cycles: 1260270282 heartbeat IPC: 0.52136 cumulative IPC: 0.41019 (Simulation time: 0 hr 24 min 20 sec) 
Heartbeat CPU  0 instructions:  600000000 cycles: 1262173953 heartbeat IPC: 0.52530 cumulative IPC: 0.41037 (Simulation time: 0 hr 24 min 22 sec) 
Finished CPU 0 instructions: 500000002 cycles: 1218415699 cumulative IPC: 0.41037 (Simulation time: 0 hr 24 min 22 sec) 

ChampSim completed all CPUs

[ROI Statistics]
Core_0_instructions 500000002
Core_0_cycles 1218415699
Core_0_IPC 0.41037

Core_0_branch_prediction_accuracy 99.99934
Core_0_branch_MPKI 0.00033
Core_0_average_ROB_occupancy_at_mispredict 127.29448

Core_0_L1D_total_access 100005580
Core_0_L1D_total_hit 89948800
Core_0_L1D_total_miss 10056780
Core_0_L1D_loads 48078542
Core_0_L1D_load_hit 39621810
Core_0_L1D_load_miss 8456732
Core_0_L1D_RFOs 51927038
Core_0_L1D_RFO_hit 50326990
Core_0_L1D_RFO_miss 1600048
Core_0_L1D_prefetches 0
Core_0_L1D_prefetch_hit 0
Core_0_L1D_prefetch_miss 0
Core_0_L1D_writebacks 0
Core_0_L1D_writeback_hit 0
Core_0_L1D_writeback_miss 0
Core_0_L1D_prefetch_requested 0
Core_0_L1D_prefetch_dropped 0
Core_0_L1D_prefetch_issued 0
Core_0_L1D_prefetch_filled 0
Core_0_L1D_prefetch_useful 0
Core_0_L1D_prefetch_useless 0
Core_0_L1D_prefetch_late 0
Core_0_L1D_average_miss_latency 270.58944

Core_0_L1D_rq_access 153929115
Core_0_L1D_rq_forward 0
Core_0_L1D_rq_merged 96664979
Core_0_L1D_rq_to_cache 57264136
Core_0_L1D_rq_full 0

Core_0_L1D_wq_access 59520168
Core_0_L1D_wq_forward 0
Core_0_L1D_wq_merged 0
Core_0_L1D_wq_to_cache 59520168
Core_0_L1D_wq_full 18566069

Core_0_L1D_pq_access 0
Core_0_L1D_pq_forward 0
Core_0_L1D_pq_merged 0
Core_0_L1D_pq_to_cache 0
Core_0_L1D_pq_full 0

Core_0_L1D_acc_epochs 1133105
Core_0_L1D_acc_level_0 1133105
Core_0_L1D_acc_level_1 0
Core_0_L1D_acc_level_2 0
Core_0_L1D_acc_level_3 0
Core_0_L1D_acc_level_4 0
Core_0_L1D_acc_level_5 0
Core_0_L1D_acc_level_6 0
Core_0_L1D_acc_level_7 0
Core_0_L1D_acc_level_8 0
Core_0_L1D_acc_level_9 0

Core_0_L1I_total_access 123977010
Core_0_L1I_total_hit 123976963
Core_0_L1I_total_miss 47
Core_0_L1I_loads 123977010
Core_0_L1I_load_hit 123976963
Core_0_L1I_load_miss 47
Core_0_L1I_RFOs 0
Core_0_L1I_RFO_hit 0
Core_0_L1I_RFO_miss 0
Core_0_L1I_prefetches 0
Core_0_L1I_prefetch_hit 0
Core_0_L1I_prefetch_miss 0
Core_0_L1I_writebacks 0
Core_0_L1I_writeback_hit 0
Core_0_L1I_writeback_miss 0
Core_0_L1I_prefetch_requested 0
Core_0_L1I_prefetch_dropped 0
Core_0_L1I_prefetch_issued 0
Core_0_L1I_prefetch_filled 0
Core_0_L1I_prefetch_useful 0
Core_0_L1I_prefetch_useless 0
Core_0_L1I_prefetch_late 0
Core_0_L1I_average_miss_latency 247.53191

Core_0_L1I_rq_access 500000002
Core_0_L1I_rq_forward 0
Core_0_L1I_rq_merged 376022950
Core_0_L1I_rq_to_cache 123977052
Core_0_L1I_rq_full 0

Core_0_L1I_wq_access 0
Core_0_L1I_wq_forward 0
Core_0_L1I_wq_merged 0
Core_0_L1I_wq_to_cache 0
Core_0_L1I_wq_full 0

Core_0_L1I_pq_access 0
Core_0_L1I_pq_forward 0
Core_0_L1I_pq_merged 0
Core_0_L1I_pq_to_cache 0
Core_0_L1I_pq_full 0

Core_0_L1I_acc_epochs 1133105
Core_0_L1I_acc_level_0 1133105
Core_0_L1I_acc_level_1 0
Core_0_L1I_acc_level_2 0
Core_0_L1I_acc_level_3 0
Core_0_L1I_acc_level_4 0
Core_0_L1I_acc_level_5 0
Core_0_L1I_acc_level_6 0
Core_0_L1I_acc_level_7 0
Core_0_L1I_acc_level_8 0
Core_0_L1I_acc_level_9 0

Core_0_L2C_total_access 13084210
Core_0_L2C_total_hit 3027350
Core_0_L2C_total_miss 10056860
Core_0_L2C_loads 8456779
Core_0_L2C_load_hit 0
Core_0_L2C_load_miss 8456779
Core_0_L2C_RFOs 1600048
Core_0_L2C_RFO_hit 0
Core_0_L2C_RFO_miss 1600048
Core_0_L2C_prefetches 0
Core_0_L2C_prefetch_hit 0
Core_0_L2C_prefetch_miss 0
Core_0_L2C_writebacks 3027383
Core_0_L2C_writeback_hit 3027350
Core_0_L2C_writeback_miss 33
Core_0_L2C_prefetch_requested 0
Core_0_L2C_prefetch_dropped 0
Core_0_L2C_prefetch_issued 0
Core_0_L2C_prefetch_filled 0
Core_0_L2C_prefetch_useful 0
Core_0_L2C_prefetch_useless 0
Core_0_L2C_prefetch_late 0
Core_0_L2C_average_miss_latency 253.93343

Core_0_L2C_rq_access 10056827
Core_0_L2C_rq_forward 0
Core_0_L2C_rq_merged 0
Core_0_L2C_rq_to_cache 10056827
Core_0_L2C_rq_full 0

Core_0_L2C_wq_access 3027383
Core_0_L2C_wq_forward 0
Core_0_L2C_wq_merged 0
Core_0_L2C_wq_to_cache 3027383
Core_0_L2C_wq_full 0

Core_0_L2C_pq_access 0
Core_0_L2C_pq_forward 0
Core_0_L2C_pq_merged 0
Core_0_L2C_pq_to_cache 0
Core_0_L2C_pq_full 0

Core_0_L2C_acc_epochs 1133105
Core_0_L2C_acc_level_0 1133105
Core_0_L2C_acc_level_1 0
Core_0_L2C_acc_level_2 0
Core_0_L2C_acc_level_3 0
Core_0_L2C_acc_level_4 0
Core_0_L2C_acc_level_5 0
Core_0_L2C_acc_level_6 0
Core_0_L2C_acc_level_7 0
Core_0_L2C_acc_level_8 0
Core_0_L2C_acc_level_9 0

Core_0_LLC_total_access 13085789
Core_0_LLC_total_hit 187126
Core_0_LLC_total_miss 12898663
Core_0_LLC_loads 8456779
Core_0_LLC_load_hit 135469
Core_0_LLC_load_miss 8321310
Core_0_LLC_RFOs 1600048
Core_0_LLC_RFO_hit 8
Core_0_LLC_RFO_miss 1600040
Core_0_LLC_prefetches 0
Core_0_LLC_prefetch_hit 0
Core_0_LLC_prefetch_miss 0
Core_0_LLC_writebacks 3028962
Core_0_LLC_writeback_hit 51649
Core_0_LLC_writeback_miss 2977313
Core_0_LLC_prefetch_requested 0
Core_0_LLC_prefetch_dropped 0
Core_0_LLC_prefetch_issued 0
Core_0_LLC_prefetch_filled 0
Core_0_LLC_prefetch_useful 0
Core_0_LLC_prefetch_useless 0
Core_0_LLC_prefetch_late 0
Core_0_LLC_average_miss_latency 173.86186

Core_0_LLC_rq_access 10056827
Core_0_LLC_rq_forward 0
Core_0_LLC_rq_merged 0
Core_0_LLC_rq_to_cache 10056827
Core_0_LLC_rq_full 0

Core_0_LLC_wq_access 3028962
Core_0_LLC_wq_forward 0
Core_0_LLC_wq_merged 0
Core_0_LLC_wq_to_cache 3028962
Core_0_LLC_wq_full 0

Core_0_LLC_pq_access 0
Core_0_LLC_pq_forward 0
Core_0_LLC_pq_merged 0
Core_0_LLC_pq_to_cache 0
Core_0_LLC_pq_full 0

Core_0_LLC_acc_epochs 1232592
Core_0_LLC_acc_level_0 1232592
Core_0_LLC_acc_level_1 0
Core_0_LLC_acc_level_2 0
Core_0_LLC_acc_level_3 0
Core_0_LLC_acc_level_4 0
Core_0_LLC_acc_level_5 0
Core_0_LLC_acc_level_6 0
Core_0_LLC_acc_level_7 0
Core_0_LLC_acc_level_8 0
Core_0_LLC_acc_level_9 0

Core_0_major_page_fault 0
Core_0_minor_page_fault 95964

Channel_0_RQ_row_buffer_hit 1761149
Channel_0_RQ_row_buffer_miss 8160180
Channel_0_WQ_row_buffer_hit 1283772
Channel_0_WQ_row_buffer_miss 1746381
Channel_0_WQ_full 94
Channel_0_dbus_congested 6765202

avg_congested_cycle 20

DRAM_bw_pochs 4930368
DRAM_bw_level_0 1588726
DRAM_bw_level_1 1922665
DRAM_bw_level_2 1091775
DRAM_bw_level_3 327202
