*************************************************
   ChampSim Multicore Out-of-Order Simulator
   Last compiled: Dec 11 2024 17:59:53
*************************************************
parsing config file: /home/functionmain/桌面/Pythia/config/pythia.ini

trace_0 /home/functionmain/桌面/Pythia/traces/433.milc-127B.champsimtrace.xz
adding L2C_PREFETCHER: Scooby
Initialize SHIP state
warmup_instructions 100000000
simulation_instructions 500000000
champsim_seed 220
measure_ipc 0
measure_ipc_epoch 1000
measure_dram_bw 1
measure_dram_bw_epoch 256
measure_cache_acc 1
measure_cache_acc_epoch 1024
l1d_perfect 0
l2c_perfect 0
llc_perfect 0
l1d_semi_perfect 0
l2c_semi_perfect 0
llc_semi_perfect 0
semi_perfect_cache_page_buffer_size 64

num_cpus 1
cpu_freq 4000
dram_io_freq 150
page_size 4096
block_size 64
max_read_per_cycle 8
max_fill_per_cycle 1
dram_channels 1
log2_dram_channels 0
dram_ranks 1
dram_banks 8
dram_rows 65536
dram_columns 128
dram_row_size 8
dram_size 4096
dram_pages 1048576

fetch_width 6
decode_width 6
exec_width 4
lq_width 2
sq_width 2
retire_width 4
scheduler_size 128
branch_mispredict_penalty 20
rob_size 256
lq_size 72
sq_size 56
num_instr_destinations_sparc 4
num_instr_destinations 2
num_instr_sources 4

itlb_set 16
itlb_way 8
itlb_rq_size 16
itlb_wq_size 16
itlb_pq_size 0
itlb_mshr_size 8
itlb_latency 1

dtlb_set 16
dtlb_way 4
dtlb_rq_size 16
dtlb_wq_size 16
dtlb_pq_size 0
dtlb_mshr_size 8
dtlb_latency 1

stlb_set 128
stlb_way 12
stlb_rq_size 32
stlb_wq_size 32
stlb_pq_size 0
stlb_mshr_size 16
stlb_latency 8

l1i_size 32
l1i_set 64
l1i_way 8
l1i_rq_size 64
l1i_wq_size 64
l1i_pq_size 8
l1i_mshr_size 8
l1i_latency 1

l1d_size 32
l1d_set 64
l1d_way 8
l1d_rq_size 64
l1d_wq_size 64
l1d_pq_size 8
l1d_mshr_size 16
l1d_latency 4

l2c_size 256
l2c_set 512
l2c_way 8
l2c_rq_size 32
l2c_wq_size 32
l2c_pq_size 32
l2c_mshr_size 32
l2c_latency 10

llc_size 2048
llc_set 2048
llc_way 16
llc_rq_size 32
llc_wq_size 32
llc_pq_size 32
llc_mshr_size 64
llc_latency 20

dram_channel_width 8
dram_wq_size 64
dram_rq_size 64
tRP 15
tRCD 15
tCAS 12.5
dram_dbus_turn_around_time 30
dram_write_high_wm 56
dram_write_low_wm 48
min_dram_writes_per_switch 16
dram_mtps 150
dram_dbus_return_time 213

scooby_alpha 0.0065088
scooby_gamma 0.556301
scooby_epsilon 0.00182284
scooby_state_num_bits 10
scooby_max_states 1024
scooby_seed 200
scooby_policy EGreedy
scooby_learning_type SARSA
scooby_actions 1,3,4,5,10,11,12,22,23,30,32,-1,-3,-6,0,
scooby_max_actions 15
scooby_pt_size 256
scooby_st_size 64
scooby_max_pcs 5
scooby_max_offsets 5
scooby_max_deltas 5
scooby_reward_none -4
scooby_reward_incorrect -8
scooby_reward_correct_untimely 12
scooby_reward_correct_timely 20
scooby_brain_zero_init 0
scooby_enable_reward_all 0
scooby_enable_track_multiple 0
scooby_enable_reward_out_of_bounds 1
scooby_reward_out_of_bounds -12
scooby_state_type 1
scooby_state_hash_type 11
scooby_access_debug 0
scooby_print_access_debug 0
scooby_print_access_debug_pc deadbeef
scooby_print_access_debug_pc_count 0
scooby_print_trace 0
scooby_enable_state_action_stats 1
scooby_enable_reward_tracker_hit 0
scooby_reward_tracker_hit -2
scooby_enable_featurewise_engine 1
scooby_pref_degree 1
scooby_enable_dyn_degree 1
scooby_max_to_avg_q_thresholds 0.5,1,2,
scooby_dyn_degrees 1,2,4,4,
scooby_multi_deg_select_type 2
scooby_last_pref_offset_conf_thresholds 1,3,8,
scooby_dyn_degrees_type2 1,2,4,6,
scooby_action_tracker_size 2
scooby_high_bw_thresh 4
scooby_enable_hbw_reward 1
scooby_reward_hbw_correct_timely 20
scooby_reward_hbw_correct_untimely 12
scooby_reward_hbw_incorrect -14
scooby_reward_hbw_none -2
scooby_reward_hbw_out_of_bounds -12
scooby_reward_hbw_tracker_hit -2
scooby_last_pref_offset_conf_thresholds_hbw 1,3,8,
scooby_dyn_degrees_type2_hbw 1,2,4,6,

le_enable_trace 0
le_trace_interval 0
le_trace_file_name 
le_trace_state 0
le_enable_score_plot 0
le_plot_file_name 
le_plot_actions 
le_enable_action_trace 0
le_action_trace_interval 0
le_action_trace_name 
le_enable_action_plot 0

le_featurewise_active_features PC, PC_Delta
le_featurewise_num_tilings 3,3,
le_featurewise_num_tiles 128,128,
le_featurewise_hash_types 2,2,
le_featurewise_enable_tiling_offset 1,1,
le_featurewise_max_q_thresh 0.5
le_featurewise_enable_action_fallback 1
le_featurewise_feature_weights 1,1,
le_featurewise_enable_dynamic_weight 0
le_featurewise_weight_gradient 0.001
le_featurewise_disable_adjust_weight_all_features_align 1
le_featurewise_selective_update 0
le_featurewise_pooling_type 2
le_featurewise_enable_dyn_action_fallback 1
le_featurewise_bw_acc_check_level 1
le_featurewise_acc_thresh 2
le_featurewise_enable_trace 0
le_featurewise_trace_feature_type 0
le_featurewise_trace_feature 
le_featurewise_trace_interval 0
le_featurewise_trace_record_count 0
le_featurewise_trace_file_name 
le_featurewise_enable_score_plot 0
le_featurewise_plot_actions 
le_featurewise_plot_file_name 


Heartbeat CPU  0 instructions:    1000001 cycles:     385154 heartbeat IPC: 2.59637 cumulative IPC: 2.59637 (Simulation time: 0 hr 0 min 2 sec) 
Heartbeat CPU  0 instructions:    2000000 cycles:     770262 heartbeat IPC: 2.59667 cumulative IPC: 2.59652 (Simulation time: 0 hr 0 min 4 sec) 
Heartbeat CPU  0 instructions:    3000000 cycles:    1155346 heartbeat IPC: 2.59684 cumulative IPC: 2.59662 (Simulation time: 0 hr 0 min 6 sec) 
Heartbeat CPU  0 instructions:    4000000 cycles:    1540451 heartbeat IPC: 2.59669 cumulative IPC: 2.59664 (Simulation time: 0 hr 0 min 7 sec) 
Heartbeat CPU  0 instructions:    5000001 cycles:    1925580 heartbeat IPC: 2.59654 cumulative IPC: 2.59662 (Simulation time: 0 hr 0 min 9 sec) 
Heartbeat CPU  0 instructions:    6000000 cycles:    2310687 heartbeat IPC: 2.59668 cumulative IPC: 2.59663 (Simulation time: 0 hr 0 min 11 sec) 
Heartbeat CPU  0 instructions:    7000002 cycles:    2695771 heartbeat IPC: 2.59684 cumulative IPC: 2.59666 (Simulation time: 0 hr 0 min 13 sec) 
Heartbeat CPU  0 instructions:    8000000 cycles:    3080889 heartbeat IPC: 2.59660 cumulative IPC: 2.59665 (Simulation time: 0 hr 0 min 15 sec) 
Heartbeat CPU  0 instructions:    9000003 cycles:    3465997 heartbeat IPC: 2.59668 cumulative IPC: 2.59666 (Simulation time: 0 hr 0 min 17 sec) 
Heartbeat CPU  0 instructions:   10000000 cycles:    3851110 heartbeat IPC: 2.59663 cumulative IPC: 2.59665 (Simulation time: 0 hr 0 min 19 sec) 
Heartbeat CPU  0 instructions:   11000002 cycles:    4236192 heartbeat IPC: 2.59685 cumulative IPC: 2.59667 (Simulation time: 0 hr 0 min 21 sec) 
Heartbeat CPU  0 instructions:   12000000 cycles:    4621289 heartbeat IPC: 2.59674 cumulative IPC: 2.59668 (Simulation time: 0 hr 0 min 22 sec) 
Heartbeat CPU  0 instructions:   13000003 cycles:    5006423 heartbeat IPC: 2.59651 cumulative IPC: 2.59666 (Simulation time: 0 hr 0 min 24 sec) 
Heartbeat CPU  0 instructions:   14000000 cycles:    5391515 heartbeat IPC: 2.59677 cumulative IPC: 2.59667 (Simulation time: 0 hr 0 min 26 sec) 
Heartbeat CPU  0 instructions:   15000003 cycles:    5776616 heartbeat IPC: 2.59673 cumulative IPC: 2.59668 (Simulation time: 0 hr 0 min 28 sec) 
Heartbeat CPU  0 instructions:   16000000 cycles:    6161723 heartbeat IPC: 2.59667 cumulative IPC: 2.59668 (Simulation time: 0 hr 0 min 30 sec) 
Heartbeat CPU  0 instructions:   17000001 cycles:    6546846 heartbeat IPC: 2.59658 cumulative IPC: 2.59667 (Simulation time: 0 hr 0 min 32 sec) 
Heartbeat CPU  0 instructions:   18000000 cycles:    6931962 heartbeat IPC: 2.59662 cumulative IPC: 2.59667 (Simulation time: 0 hr 0 min 34 sec) 
Heartbeat CPU  0 instructions:   19000003 cycles:    7317037 heartbeat IPC: 2.59690 cumulative IPC: 2.59668 (Simulation time: 0 hr 0 min 35 sec) 
Heartbeat CPU  0 instructions:   20000000 cycles:    7804018 heartbeat IPC: 2.05346 cumulative IPC: 2.56278 (Simulation time: 0 hr 0 min 37 sec) 
Heartbeat CPU  0 instructions:   21000001 cycles:    8311543 heartbeat IPC: 1.97035 cumulative IPC: 2.52661 (Simulation time: 0 hr 0 min 39 sec) 
Heartbeat CPU  0 instructions:   22000001 cycles:    8868699 heartbeat IPC: 1.79483 cumulative IPC: 2.48063 (Simulation time: 0 hr 0 min 42 sec) 
Heartbeat CPU  0 instructions:   23000001 cycles:    9425797 heartbeat IPC: 1.79502 cumulative IPC: 2.44011 (Simulation time: 0 hr 0 min 44 sec) 
Heartbeat CPU  0 instructions:   24000000 cycles:    9974679 heartbeat IPC: 1.82188 cumulative IPC: 2.40609 (Simulation time: 0 hr 0 min 47 sec) 
Heartbeat CPU  0 instructions:   25000002 cycles:   10417537 heartbeat IPC: 2.25806 cumulative IPC: 2.39980 (Simulation time: 0 hr 0 min 49 sec) 
Heartbeat CPU  0 instructions:   26000002 cycles:   10860309 heartbeat IPC: 2.25850 cumulative IPC: 2.39404 (Simulation time: 0 hr 0 min 51 sec) 
Heartbeat CPU  0 instructions:   27000002 cycles:   11303078 heartbeat IPC: 2.25851 cumulative IPC: 2.38873 (Simulation time: 0 hr 0 min 52 sec) 
Heartbeat CPU  0 instructions:   28000000 cycles:   11745851 heartbeat IPC: 2.25849 cumulative IPC: 2.38382 (Simulation time: 0 hr 0 min 54 sec) 
Heartbeat CPU  0 instructions:   29000000 cycles:   12188661 heartbeat IPC: 2.25830 cumulative IPC: 2.37926 (Simulation time: 0 hr 0 min 56 sec) 
Heartbeat CPU  0 instructions:   30000000 cycles:   12631468 heartbeat IPC: 2.25832 cumulative IPC: 2.37502 (Simulation time: 0 hr 0 min 58 sec) 
Heartbeat CPU  0 instructions:   31000000 cycles:   13074241 heartbeat IPC: 2.25849 cumulative IPC: 2.37107 (Simulation time: 0 hr 1 min 0 sec) 
Heartbeat CPU  0 instructions:   32000000 cycles:   13517011 heartbeat IPC: 2.25851 cumulative IPC: 2.36739 (Simulation time: 0 hr 1 min 2 sec) 
Heartbeat CPU  0 instructions:   33000000 cycles:   13959810 heartbeat IPC: 2.25836 cumulative IPC: 2.36393 (Simulation time: 0 hr 1 min 4 sec) 
Heartbeat CPU  0 instructions:   34000000 cycles:   14402582 heartbeat IPC: 2.25850 cumulative IPC: 2.36069 (Simulation time: 0 hr 1 min 6 sec) 
Heartbeat CPU  0 instructions:   35000000 cycles:   14845354 heartbeat IPC: 2.25850 cumulative IPC: 2.35764 (Simulation time: 0 hr 1 min 8 sec) 
Heartbeat CPU  0 instructions:   36000000 cycles:   15288129 heartbeat IPC: 2.25848 cumulative IPC: 2.35477 (Simulation time: 0 hr 1 min 10 sec) 
Heartbeat CPU  0 instructions:   37000001 cycles:   15730946 heartbeat IPC: 2.25827 cumulative IPC: 2.35205 (Simulation time: 0 hr 1 min 12 sec) 
Heartbeat CPU  0 instructions:   38000001 cycles:   16173718 heartbeat IPC: 2.25850 cumulative IPC: 2.34949 (Simulation time: 0 hr 1 min 13 sec) 
Heartbeat CPU  0 instructions:   39000001 cycles:   16616491 heartbeat IPC: 2.25849 cumulative IPC: 2.34707 (Simulation time: 0 hr 1 min 15 sec) 
Heartbeat CPU  0 instructions:   40000000 cycles:   17059270 heartbeat IPC: 2.25846 cumulative IPC: 2.34477 (Simulation time: 0 hr 1 min 17 sec) 
Heartbeat CPU  0 instructions:   41000000 cycles:   17502079 heartbeat IPC: 2.25831 cumulative IPC: 2.34258 (Simulation time: 0 hr 1 min 19 sec) 
Heartbeat CPU  0 instructions:   42000000 cycles:   17944857 heartbeat IPC: 2.25847 cumulative IPC: 2.34050 (Simulation time: 0 hr 1 min 21 sec) 
Heartbeat CPU  0 instructions:   43000000 cycles:   18387641 heartbeat IPC: 2.25844 cumulative IPC: 2.33853 (Simulation time: 0 hr 1 min 23 sec) 
Heartbeat CPU  0 instructions:   44000000 cycles:   18830414 heartbeat IPC: 2.25849 cumulative IPC: 2.33665 (Simulation time: 0 hr 1 min 25 sec) 
Heartbeat CPU  0 instructions:   45000001 cycles:   19273216 heartbeat IPC: 2.25835 cumulative IPC: 2.33485 (Simulation time: 0 hr 1 min 27 sec) 
Heartbeat CPU  0 instructions:   46000001 cycles:   19715987 heartbeat IPC: 2.25850 cumulative IPC: 2.33313 (Simulation time: 0 hr 1 min 28 sec) 
Heartbeat CPU  0 instructions:   47000001 cycles:   20158758 heartbeat IPC: 2.25850 cumulative IPC: 2.33149 (Simulation time: 0 hr 1 min 30 sec) 
Heartbeat CPU  0 instructions:   48000000 cycles:   20601532 heartbeat IPC: 2.25849 cumulative IPC: 2.32992 (Simulation time: 0 hr 1 min 32 sec) 
Heartbeat CPU  0 instructions:   49000002 cycles:   21044354 heartbeat IPC: 2.25825 cumulative IPC: 2.32842 (Simulation time: 0 hr 1 min 34 sec) 
Heartbeat CPU  0 instructions:   50000001 cycles:   21487158 heartbeat IPC: 2.25833 cumulative IPC: 2.32697 (Simulation time: 0 hr 1 min 36 sec) 
Heartbeat CPU  0 instructions:   51000001 cycles:   21929929 heartbeat IPC: 2.25850 cumulative IPC: 2.32559 (Simulation time: 0 hr 1 min 38 sec) 
Heartbeat CPU  0 instructions:   52000000 cycles:   22372701 heartbeat IPC: 2.25850 cumulative IPC: 2.32426 (Simulation time: 0 hr 1 min 40 sec) 
Heartbeat CPU  0 instructions:   53000002 cycles:   22815499 heartbeat IPC: 2.25837 cumulative IPC: 2.32298 (Simulation time: 0 hr 1 min 42 sec) 
Heartbeat CPU  0 instructions:   54000002 cycles:   23258275 heartbeat IPC: 2.25848 cumulative IPC: 2.32175 (Simulation time: 0 hr 1 min 43 sec) 
Heartbeat CPU  0 instructions:   55000002 cycles:   23701050 heartbeat IPC: 2.25848 cumulative IPC: 2.32057 (Simulation time: 0 hr 1 min 45 sec) 
Heartbeat CPU  0 instructions:   56000000 cycles:   24143827 heartbeat IPC: 2.25847 cumulative IPC: 2.31943 (Simulation time: 0 hr 1 min 47 sec) 
Heartbeat CPU  0 instructions:   57000000 cycles:   24586649 heartbeat IPC: 2.25824 cumulative IPC: 2.31833 (Simulation time: 0 hr 1 min 49 sec) 
Heartbeat CPU  0 instructions:   58000000 cycles:   25029422 heartbeat IPC: 2.25849 cumulative IPC: 2.31727 (Simulation time: 0 hr 1 min 51 sec) 
Heartbeat CPU  0 instructions:   59000003 cycles:   25472547 heartbeat IPC: 2.25671 cumulative IPC: 2.31622 (Simulation time: 0 hr 1 min 53 sec) 
Heartbeat CPU  0 instructions:   60000000 cycles:   25916147 heartbeat IPC: 2.25428 cumulative IPC: 2.31516 (Simulation time: 0 hr 1 min 55 sec) 
Heartbeat CPU  0 instructions:   61000000 cycles:   26359781 heartbeat IPC: 2.25411 cumulative IPC: 2.31413 (Simulation time: 0 hr 1 min 57 sec) 
Heartbeat CPU  0 instructions:   62000002 cycles:   26803401 heartbeat IPC: 2.25419 cumulative IPC: 2.31314 (Simulation time: 0 hr 1 min 58 sec) 
Heartbeat CPU  0 instructions:   63000003 cycles:   27246982 heartbeat IPC: 2.25438 cumulative IPC: 2.31218 (Simulation time: 0 hr 2 min 0 sec) 
Heartbeat CPU  0 instructions:   64000000 cycles:   27690604 heartbeat IPC: 2.25416 cumulative IPC: 2.31125 (Simulation time: 0 hr 2 min 2 sec) 
Heartbeat CPU  0 instructions:   65000003 cycles:   28134231 heartbeat IPC: 2.25415 cumulative IPC: 2.31035 (Simulation time: 0 hr 2 min 4 sec) 
Heartbeat CPU  0 instructions:   66000000 cycles:   28577821 heartbeat IPC: 2.25433 cumulative IPC: 2.30948 (Simulation time: 0 hr 2 min 6 sec) 
Heartbeat CPU  0 instructions:   67000001 cycles:   29021439 heartbeat IPC: 2.25419 cumulative IPC: 2.30864 (Simulation time: 0 hr 2 min 8 sec) 
Heartbeat CPU  0 instructions:   68000000 cycles:   29465010 heartbeat IPC: 2.25443 cumulative IPC: 2.30782 (Simulation time: 0 hr 2 min 10 sec) 
Heartbeat CPU  0 instructions:   69000003 cycles:   29908639 heartbeat IPC: 2.25414 cumulative IPC: 2.30703 (Simulation time: 0 hr 2 min 12 sec) 
Heartbeat CPU  0 instructions:   70000003 cycles:   30352228 heartbeat IPC: 2.25434 cumulative IPC: 2.30626 (Simulation time: 0 hr 2 min 13 sec) 
Heartbeat CPU  0 instructions:   71000003 cycles:   30795836 heartbeat IPC: 2.25424 cumulative IPC: 2.30551 (Simulation time: 0 hr 2 min 15 sec) 
Heartbeat CPU  0 instructions:   72000000 cycles:   31239441 heartbeat IPC: 2.25425 cumulative IPC: 2.30478 (Simulation time: 0 hr 2 min 17 sec) 
Heartbeat CPU  0 instructions:   73000001 cycles:   31683072 heartbeat IPC: 2.25413 cumulative IPC: 2.30407 (Simulation time: 0 hr 2 min 19 sec) 
Heartbeat CPU  0 instructions:   74000002 cycles:   32126676 heartbeat IPC: 2.25427 cumulative IPC: 2.30338 (Simulation time: 0 hr 2 min 21 sec) 
Heartbeat CPU  0 instructions:   75000003 cycles:   32570249 heartbeat IPC: 2.25442 cumulative IPC: 2.30272 (Simulation time: 0 hr 2 min 23 sec) 
Heartbeat CPU  0 instructions:   76000000 cycles:   33013863 heartbeat IPC: 2.25421 cumulative IPC: 2.30206 (Simulation time: 0 hr 2 min 25 sec) 
Heartbeat CPU  0 instructions:   77000003 cycles:   33457485 heartbeat IPC: 2.25418 cumulative IPC: 2.30143 (Simulation time: 0 hr 2 min 27 sec) 
Heartbeat CPU  0 instructions:   78000000 cycles:   33901069 heartbeat IPC: 2.25436 cumulative IPC: 2.30081 (Simulation time: 0 hr 2 min 28 sec) 
Heartbeat CPU  0 instructions:   79000001 cycles:   34344697 heartbeat IPC: 2.25414 cumulative IPC: 2.30021 (Simulation time: 0 hr 2 min 30 sec) 
Heartbeat CPU  0 instructions:   80000000 cycles:   34788268 heartbeat IPC: 2.25443 cumulative IPC: 2.29963 (Simulation time: 0 hr 2 min 32 sec) 
Heartbeat CPU  0 instructions:   81000001 cycles:   35231923 heartbeat IPC: 2.25401 cumulative IPC: 2.29905 (Simulation time: 0 hr 2 min 34 sec) 
Heartbeat CPU  0 instructions:   82000002 cycles:   35675524 heartbeat IPC: 2.25428 cumulative IPC: 2.29849 (Simulation time: 0 hr 2 min 36 sec) 
Heartbeat CPU  0 instructions:   83000003 cycles:   36119115 heartbeat IPC: 2.25433 cumulative IPC: 2.29795 (Simulation time: 0 hr 2 min 38 sec) 
Heartbeat CPU  0 instructions:   84000000 cycles:   36562706 heartbeat IPC: 2.25432 cumulative IPC: 2.29742 (Simulation time: 0 hr 2 min 40 sec) 
Heartbeat CPU  0 instructions:   85000003 cycles:   37006359 heartbeat IPC: 2.25402 cumulative IPC: 2.29690 (Simulation time: 0 hr 2 min 42 sec) 
Heartbeat CPU  0 instructions:   86000002 cycles:   37449945 heartbeat IPC: 2.25435 cumulative IPC: 2.29640 (Simulation time: 0 hr 2 min 43 sec) 
Heartbeat CPU  0 instructions:   87000003 cycles:   37893535 heartbeat IPC: 2.25434 cumulative IPC: 2.29591 (Simulation time: 0 hr 2 min 45 sec) 
Heartbeat CPU  0 instructions:   88000000 cycles:   38337140 heartbeat IPC: 2.25425 cumulative IPC: 2.29542 (Simulation time: 0 hr 2 min 47 sec) 
Heartbeat CPU  0 instructions:   89000001 cycles:   38780775 heartbeat IPC: 2.25411 cumulative IPC: 2.29495 (Simulation time: 0 hr 2 min 49 sec) 
Heartbeat CPU  0 instructions:   90000000 cycles:   39224364 heartbeat IPC: 2.25434 cumulative IPC: 2.29449 (Simulation time: 0 hr 2 min 51 sec) 
Heartbeat CPU  0 instructions:   91000001 cycles:   39667986 heartbeat IPC: 2.25417 cumulative IPC: 2.29404 (Simulation time: 0 hr 2 min 53 sec) 
Heartbeat CPU  0 instructions:   92000000 cycles:   40111539 heartbeat IPC: 2.25452 cumulative IPC: 2.29360 (Simulation time: 0 hr 2 min 55 sec) 
Heartbeat CPU  0 instructions:   93000001 cycles:   40555178 heartbeat IPC: 2.25409 cumulative IPC: 2.29317 (Simulation time: 0 hr 2 min 56 sec) 
Heartbeat CPU  0 instructions:   94000003 cycles:   40993439 heartbeat IPC: 2.28175 cumulative IPC: 2.29305 (Simulation time: 0 hr 2 min 58 sec) 
Heartbeat CPU  0 instructions:   95000002 cycles:   41423293 heartbeat IPC: 2.32637 cumulative IPC: 2.29340 (Simulation time: 0 hr 3 min 1 sec) 
Heartbeat CPU  0 instructions:   96000000 cycles:   41853131 heartbeat IPC: 2.32645 cumulative IPC: 2.29374 (Simulation time: 0 hr 3 min 3 sec) 
Heartbeat CPU  0 instructions:   97000001 cycles:   42282988 heartbeat IPC: 2.32636 cumulative IPC: 2.29407 (Simulation time: 0 hr 3 min 5 sec) 
Heartbeat CPU  0 instructions:   98000000 cycles:   42712822 heartbeat IPC: 2.32648 cumulative IPC: 2.29439 (Simulation time: 0 hr 3 min 8 sec) 
Heartbeat CPU  0 instructions:   99000000 cycles:   43142683 heartbeat IPC: 2.32633 cumulative IPC: 2.29471 (Simulation time: 0 hr 3 min 10 sec) 
Heartbeat CPU  0 instructions:  100000000 cycles:   43572530 heartbeat IPC: 2.32641 cumulative IPC: 2.29502 (Simulation time: 0 hr 3 min 12 sec) 

Warmup complete CPU  0 instructions:  100000001 cycles:   43572531 (Simulation time: 0 hr 3 min 12 sec) 

Heartbeat CPU  0 instructions:  101000002 cycles:   53866276 heartbeat IPC: 0.09715 cumulative IPC: 0.09715 (Simulation time: 0 hr 3 min 19 sec) 
Heartbeat CPU  0 instructions:  102000001 cycles:   60407341 heartbeat IPC: 0.15288 cumulative IPC: 0.11880 (Simulation time: 0 hr 3 min 25 sec) 
Heartbeat CPU  0 instructions:  103000001 cycles:   67705524 heartbeat IPC: 0.13702 cumulative IPC: 0.12431 (Simulation time: 0 hr 3 min 30 sec) 
Heartbeat CPU  0 instructions:  104000000 cycles:   75794381 heartbeat IPC: 0.12363 cumulative IPC: 0.12414 (Simulation time: 0 hr 3 min 35 sec) 
Heartbeat CPU  0 instructions:  105000002 cycles:   83383539 heartbeat IPC: 0.13177 cumulative IPC: 0.12559 (Simulation time: 0 hr 3 min 41 sec) 
Heartbeat CPU  0 instructions:  106000002 cycles:   91111322 heartbeat IPC: 0.12940 cumulative IPC: 0.12621 (Simulation time: 0 hr 3 min 46 sec) 
Heartbeat CPU  0 instructions:  107000001 cycles:   98859653 heartbeat IPC: 0.12906 cumulative IPC: 0.12661 (Simulation time: 0 hr 3 min 51 sec) 
Heartbeat CPU  0 instructions:  108000000 cycles:  106433393 heartbeat IPC: 0.13204 cumulative IPC: 0.12727 (Simulation time: 0 hr 3 min 56 sec) 
Heartbeat CPU  0 instructions:  109000000 cycles:  113937832 heartbeat IPC: 0.13325 cumulative IPC: 0.12790 (Simulation time: 0 hr 4 min 1 sec) 
Heartbeat CPU  0 instructions:  110000000 cycles:  121591391 heartbeat IPC: 0.13066 cumulative IPC: 0.12817 (Simulation time: 0 hr 4 min 6 sec) 
Heartbeat CPU  0 instructions:  111000002 cycles:  129390087 heartbeat IPC: 0.12823 cumulative IPC: 0.12818 (Simulation time: 0 hr 4 min 12 sec) 
Heartbeat CPU  0 instructions:  112000000 cycles:  137145390 heartbeat IPC: 0.12894 cumulative IPC: 0.12824 (Simulation time: 0 hr 4 min 17 sec) 
Heartbeat CPU  0 instructions:  113000000 cycles:  144919558 heartbeat IPC: 0.12863 cumulative IPC: 0.12827 (Simulation time: 0 hr 4 min 22 sec) 
Heartbeat CPU  0 instructions:  114000001 cycles:  152544679 heartbeat IPC: 0.13115 cumulative IPC: 0.12847 (Simulation time: 0 hr 4 min 27 sec) 
Heartbeat CPU  0 instructions:  115000001 cycles:  160424595 heartbeat IPC: 0.12690 cumulative IPC: 0.12837 (Simulation time: 0 hr 4 min 32 sec) 
Heartbeat CPU  0 instructions:  116000000 cycles:  168227598 heartbeat IPC: 0.12816 cumulative IPC: 0.12835 (Simulation time: 0 hr 4 min 38 sec) 
Heartbeat CPU  0 instructions:  117000003 cycles:  176094529 heartbeat IPC: 0.12711 cumulative IPC: 0.12828 (Simulation time: 0 hr 4 min 43 sec) 
Heartbeat CPU  0 instructions:  118000001 cycles:  183939355 heartbeat IPC: 0.12747 cumulative IPC: 0.12824 (Simulation time: 0 hr 4 min 48 sec) 
Heartbeat CPU  0 instructions:  119000000 cycles:  191627866 heartbeat IPC: 0.13006 cumulative IPC: 0.12833 (Simulation time: 0 hr 4 min 53 sec) 
Heartbeat CPU  0 instructions:  120000000 cycles:  199410669 heartbeat IPC: 0.12849 cumulative IPC: 0.12834 (Simulation time: 0 hr 4 min 58 sec) 
Heartbeat CPU  0 instructions:  121000003 cycles:  207240583 heartbeat IPC: 0.12772 cumulative IPC: 0.12831 (Simulation time: 0 hr 5 min 4 sec) 
Heartbeat CPU  0 instructions:  122000001 cycles:  215048971 heartbeat IPC: 0.12807 cumulative IPC: 0.12830 (Simulation time: 0 hr 5 min 9 sec) 
Heartbeat CPU  0 instructions:  123000001 cycles:  222895429 heartbeat IPC: 0.12745 cumulative IPC: 0.12826 (Simulation time: 0 hr 5 min 14 sec) 
Heartbeat CPU  0 instructions:  124000000 cycles:  230652877 heartbeat IPC: 0.12891 cumulative IPC: 0.12829 (Simulation time: 0 hr 5 min 19 sec) 
Heartbeat CPU  0 instructions:  125000003 cycles:  238489413 heartbeat IPC: 0.12761 cumulative IPC: 0.12826 (Simulation time: 0 hr 5 min 25 sec) 
Heartbeat CPU  0 instructions:  126000001 cycles:  246229739 heartbeat IPC: 0.12919 cumulative IPC: 0.12830 (Simulation time: 0 hr 5 min 30 sec) 
Heartbeat CPU  0 instructions:  127000003 cycles:  252946577 heartbeat IPC: 0.14888 cumulative IPC: 0.12896 (Simulation time: 0 hr 5 min 35 sec) 
Heartbeat CPU  0 instructions:  128000000 cycles:  259087843 heartbeat IPC: 0.16283 cumulative IPC: 0.12992 (Simulation time: 0 hr 5 min 40 sec) 
Heartbeat CPU  0 instructions:  129000003 cycles:  266790666 heartbeat IPC: 0.12982 cumulative IPC: 0.12992 (Simulation time: 0 hr 5 min 45 sec) 
Heartbeat CPU  0 instructions:  130000003 cycles:  274423952 heartbeat IPC: 0.13101 cumulative IPC: 0.12995 (Simulation time: 0 hr 5 min 51 sec) 
Heartbeat CPU  0 instructions:  131000000 cycles:  282081244 heartbeat IPC: 0.13059 cumulative IPC: 0.12997 (Simulation time: 0 hr 5 min 56 sec) 
Heartbeat CPU  0 instructions:  132000000 cycles:  289811944 heartbeat IPC: 0.12935 cumulative IPC: 0.12995 (Simulation time: 0 hr 6 min 1 sec) 
Heartbeat CPU  0 instructions:  133000001 cycles:  297533316 heartbeat IPC: 0.12951 cumulative IPC: 0.12994 (Simulation time: 0 hr 6 min 6 sec) 
Heartbeat CPU  0 instructions:  134000002 cycles:  305266691 heartbeat IPC: 0.12931 cumulative IPC: 0.12992 (Simulation time: 0 hr 6 min 11 sec) 
Heartbeat CPU  0 instructions:  135000001 cycles:  313108507 heartbeat IPC: 0.12752 cumulative IPC: 0.12985 (Simulation time: 0 hr 6 min 17 sec) 
Heartbeat CPU  0 instructions:  136000000 cycles:  320891378 heartbeat IPC: 0.12849 cumulative IPC: 0.12981 (Simulation time: 0 hr 6 min 22 sec) 
Heartbeat CPU  0 instructions:  137000003 cycles:  328685273 heartbeat IPC: 0.12831 cumulative IPC: 0.12977 (Simulation time: 0 hr 6 min 27 sec) 
Heartbeat CPU  0 instructions:  138000003 cycles:  336519155 heartbeat IPC: 0.12765 cumulative IPC: 0.12972 (Simulation time: 0 hr 6 min 33 sec) 
Heartbeat CPU  0 instructions:  139000003 cycles:  344310029 heartbeat IPC: 0.12836 cumulative IPC: 0.12968 (Simulation time: 0 hr 6 min 38 sec) 
Heartbeat CPU  0 instructions:  140000000 cycles:  352133305 heartbeat IPC: 0.12782 cumulative IPC: 0.12963 (Simulation time: 0 hr 6 min 43 sec) 
Heartbeat CPU  0 instructions:  141000003 cycles:  359944926 heartbeat IPC: 0.12801 cumulative IPC: 0.12959 (Simulation time: 0 hr 6 min 49 sec) 
Heartbeat CPU  0 instructions:  142000002 cycles:  367782505 heartbeat IPC: 0.12759 cumulative IPC: 0.12955 (Simulation time: 0 hr 6 min 54 sec) 
Heartbeat CPU  0 instructions:  143000002 cycles:  375602496 heartbeat IPC: 0.12788 cumulative IPC: 0.12951 (Simulation time: 0 hr 6 min 59 sec) 
Heartbeat CPU  0 instructions:  144000000 cycles:  383398856 heartbeat IPC: 0.12826 cumulative IPC: 0.12948 (Simulation time: 0 hr 7 min 4 sec) 
Heartbeat CPU  0 instructions:  145000003 cycles:  391229995 heartbeat IPC: 0.12770 cumulative IPC: 0.12944 (Simulation time: 0 hr 7 min 10 sec) 
Heartbeat CPU  0 instructions:  146000003 cycles:  399059703 heartbeat IPC: 0.12772 cumulative IPC: 0.12940 (Simulation time: 0 hr 7 min 15 sec) 
Heartbeat CPU  0 instructions:  147000002 cycles:  406856107 heartbeat IPC: 0.12826 cumulative IPC: 0.12938 (Simulation time: 0 hr 7 min 20 sec) 
Heartbeat CPU  0 instructions:  148000000 cycles:  414679183 heartbeat IPC: 0.12783 cumulative IPC: 0.12934 (Simulation time: 0 hr 7 min 26 sec) 
Heartbeat CPU  0 instructions:  149000003 cycles:  422455031 heartbeat IPC: 0.12860 cumulative IPC: 0.12933 (Simulation time: 0 hr 7 min 31 sec) 
Heartbeat CPU  0 instructions:  150000003 cycles:  430322966 heartbeat IPC: 0.12710 cumulative IPC: 0.12928 (Simulation time: 0 hr 7 min 36 sec) 
Heartbeat CPU  0 instructions:  151000002 cycles:  438111021 heartbeat IPC: 0.12840 cumulative IPC: 0.12926 (Simulation time: 0 hr 7 min 41 sec) 
Heartbeat CPU  0 instructions:  152000000 cycles:  445921118 heartbeat IPC: 0.12804 cumulative IPC: 0.12924 (Simulation time: 0 hr 7 min 47 sec) 
Heartbeat CPU  0 instructions:  153000003 cycles:  450025617 heartbeat IPC: 0.24364 cumulative IPC: 0.13040 (Simulation time: 0 hr 7 min 50 sec) 
Heartbeat CPU  0 instructions:  154000003 cycles:  453372549 heartbeat IPC: 0.29878 cumulative IPC: 0.13177 (Simulation time: 0 hr 7 min 54 sec) 
Heartbeat CPU  0 instructions:  155000003 cycles:  456626043 heartbeat IPC: 0.30736 cumulative IPC: 0.13315 (Simulation time: 0 hr 7 min 57 sec) 
Heartbeat CPU  0 instructions:  156000000 cycles:  459871239 heartbeat IPC: 0.30815 cumulative IPC: 0.13452 (Simulation time: 0 hr 8 min 1 sec) 
Heartbeat CPU  0 instructions:  157000000 cycles:  463113772 heartbeat IPC: 0.30840 cumulative IPC: 0.13586 (Simulation time: 0 hr 8 min 4 sec) 
Heartbeat CPU  0 instructions:  158000000 cycles:  466356823 heartbeat IPC: 0.30835 cumulative IPC: 0.13719 (Simulation time: 0 hr 8 min 7 sec) 
Heartbeat CPU  0 instructions:  159000001 cycles:  469599197 heartbeat IPC: 0.30842 cumulative IPC: 0.13849 (Simulation time: 0 hr 8 min 11 sec) 
Heartbeat CPU  0 instructions:  160000000 cycles:  472855312 heartbeat IPC: 0.30711 cumulative IPC: 0.13977 (Simulation time: 0 hr 8 min 14 sec) 
Heartbeat CPU  0 instructions:  161000001 cycles:  476100215 heartbeat IPC: 0.30818 cumulative IPC: 0.14103 (Simulation time: 0 hr 8 min 17 sec) 
Heartbeat CPU  0 instructions:  162000000 cycles:  479328846 heartbeat IPC: 0.30973 cumulative IPC: 0.14228 (Simulation time: 0 hr 8 min 21 sec) 
Heartbeat CPU  0 instructions:  163000003 cycles:  482570314 heartbeat IPC: 0.30850 cumulative IPC: 0.14351 (Simulation time: 0 hr 8 min 24 sec) 
Heartbeat CPU  0 instructions:  164000000 cycles:  485817047 heartbeat IPC: 0.30800 cumulative IPC: 0.14472 (Simulation time: 0 hr 8 min 27 sec) 
Heartbeat CPU  0 instructions:  165000001 cycles:  489061164 heartbeat IPC: 0.30825 cumulative IPC: 0.14591 (Simulation time: 0 hr 8 min 31 sec) 
Heartbeat CPU  0 instructions:  166000003 cycles:  492303394 heartbeat IPC: 0.30843 cumulative IPC: 0.14708 (Simulation time: 0 hr 8 min 34 sec) 
Heartbeat CPU  0 instructions:  167000001 cycles:  495549307 heartbeat IPC: 0.30808 cumulative IPC: 0.14824 (Simulation time: 0 hr 8 min 37 sec) 
Heartbeat CPU  0 instructions:  168000000 cycles:  498786721 heartbeat IPC: 0.30889 cumulative IPC: 0.14938 (Simulation time: 0 hr 8 min 41 sec) 
Heartbeat CPU  0 instructions:  169000001 cycles:  502034588 heartbeat IPC: 0.30789 cumulative IPC: 0.15050 (Simulation time: 0 hr 8 min 44 sec) 
Heartbeat CPU  0 instructions:  170000001 cycles:  505272196 heartbeat IPC: 0.30887 cumulative IPC: 0.15161 (Simulation time: 0 hr 8 min 47 sec) 
Heartbeat CPU  0 instructions:  171000001 cycles:  508517276 heartbeat IPC: 0.30816 cumulative IPC: 0.15271 (Simulation time: 0 hr 8 min 51 sec) 
Heartbeat CPU  0 instructions:  172000000 cycles:  511760127 heartbeat IPC: 0.30837 cumulative IPC: 0.15378 (Simulation time: 0 hr 8 min 54 sec) 
Heartbeat CPU  0 instructions:  173000001 cycles:  515000615 heartbeat IPC: 0.30860 cumulative IPC: 0.15485 (Simulation time: 0 hr 8 min 57 sec) 
Heartbeat CPU  0 instructions:  174000001 cycles:  518241759 heartbeat IPC: 0.30853 cumulative IPC: 0.15590 (Simulation time: 0 hr 9 min 1 sec) 
Heartbeat CPU  0 instructions:  175000000 cycles:  521485669 heartbeat IPC: 0.30827 cumulative IPC: 0.15693 (Simulation time: 0 hr 9 min 4 sec) 
Heartbeat CPU  0 instructions:  176000000 cycles:  524733268 heartbeat IPC: 0.30792 cumulative IPC: 0.15795 (Simulation time: 0 hr 9 min 7 sec) 
Heartbeat CPU  0 instructions:  177000003 cycles:  527973007 heartbeat IPC: 0.30867 cumulative IPC: 0.15896 (Simulation time: 0 hr 9 min 11 sec) 
Heartbeat CPU  0 instructions:  178000003 cycles:  531217508 heartbeat IPC: 0.30821 cumulative IPC: 0.15995 (Simulation time: 0 hr 9 min 14 sec) 
Heartbeat CPU  0 instructions:  179000003 cycles:  534458341 heartbeat IPC: 0.30856 cumulative IPC: 0.16093 (Simulation time: 0 hr 9 min 17 sec) 
Heartbeat CPU  0 instructions:  180000000 cycles:  537700048 heartbeat IPC: 0.30848 cumulative IPC: 0.16190 (Simulation time: 0 hr 9 min 21 sec) 
Heartbeat CPU  0 instructions:  181000003 cycles:  540941861 heartbeat IPC: 0.30847 cumulative IPC: 0.16286 (Simulation time: 0 hr 9 min 24 sec) 
Heartbeat CPU  0 instructions:  182000000 cycles:  544182148 heartbeat IPC: 0.30861 cumulative IPC: 0.16380 (Simulation time: 0 hr 9 min 27 sec) 
Heartbeat CPU  0 instructions:  183000001 cycles:  547426371 heartbeat IPC: 0.30824 cumulative IPC: 0.16473 (Simulation time: 0 hr 9 min 31 sec) 
Heartbeat CPU  0 instructions:  184000000 cycles:  550668996 heartbeat IPC: 0.30839 cumulative IPC: 0.16565 (Simulation time: 0 hr 9 min 34 sec) 
Heartbeat CPU  0 instructions:  185000003 cycles:  553912872 heartbeat IPC: 0.30827 cumulative IPC: 0.16656 (Simulation time: 0 hr 9 min 37 sec) 
Heartbeat CPU  0 instructions:  186000001 cycles:  557157590 heartbeat IPC: 0.30819 cumulative IPC: 0.16745 (Simulation time: 0 hr 9 min 41 sec) 
Heartbeat CPU  0 instructions:  187000003 cycles:  560389802 heartbeat IPC: 0.30939 cumulative IPC: 0.16834 (Simulation time: 0 hr 9 min 44 sec) 
Heartbeat CPU  0 instructions:  188000000 cycles:  563601854 heartbeat IPC: 0.31133 cumulative IPC: 0.16922 (Simulation time: 0 hr 9 min 47 sec) 
Heartbeat CPU  0 instructions:  189000001 cycles:  566823978 heartbeat IPC: 0.31035 cumulative IPC: 0.17009 (Simulation time: 0 hr 9 min 51 sec) 
Heartbeat CPU  0 instructions:  190000002 cycles:  570045619 heartbeat IPC: 0.31040 cumulative IPC: 0.17095 (Simulation time: 0 hr 9 min 54 sec) 
Heartbeat CPU  0 instructions:  191000002 cycles:  573245463 heartbeat IPC: 0.31252 cumulative IPC: 0.17180 (Simulation time: 0 hr 9 min 57 sec) 
Heartbeat CPU  0 instructions:  192000000 cycles:  576468340 heartbeat IPC: 0.31028 cumulative IPC: 0.17264 (Simulation time: 0 hr 10 min 1 sec) 
Heartbeat CPU  0 instructions:  193000001 cycles:  579662901 heartbeat IPC: 0.31303 cumulative IPC: 0.17348 (Simulation time: 0 hr 10 min 4 sec) 
Heartbeat CPU  0 instructions:  194000001 cycles:  582869800 heartbeat IPC: 0.31183 cumulative IPC: 0.17430 (Simulation time: 0 hr 10 min 7 sec) 
Heartbeat CPU  0 instructions:  195000003 cycles:  586081638 heartbeat IPC: 0.31135 cumulative IPC: 0.17511 (Simulation time: 0 hr 10 min 11 sec) 
Heartbeat CPU  0 instructions:  196000000 cycles:  589310398 heartbeat IPC: 0.30972 cumulative IPC: 0.17591 (Simulation time: 0 hr 10 min 14 sec) 
Heartbeat CPU  0 instructions:  197000002 cycles:  592517779 heartbeat IPC: 0.31178 cumulative IPC: 0.17670 (Simulation time: 0 hr 10 min 17 sec) 
Heartbeat CPU  0 instructions:  198000000 cycles:  595681195 heartbeat IPC: 0.31611 cumulative IPC: 0.17750 (Simulation time: 0 hr 10 min 21 sec) 
Heartbeat CPU  0 instructions:  199000001 cycles:  598801612 heartbeat IPC: 0.32047 cumulative IPC: 0.17830 (Simulation time: 0 hr 10 min 24 sec) 
Heartbeat CPU  0 instructions:  200000000 cycles:  602015416 heartbeat IPC: 0.31116 cumulative IPC: 0.17907 (Simulation time: 0 hr 10 min 27 sec) 
Heartbeat CPU  0 instructions:  201000001 cycles:  605136668 heartbeat IPC: 0.32038 cumulative IPC: 0.17985 (Simulation time: 0 hr 10 min 31 sec) 
Heartbeat CPU  0 instructions:  202000000 cycles:  608248036 heartbeat IPC: 0.32140 cumulative IPC: 0.18063 (Simulation time: 0 hr 10 min 34 sec) 
Heartbeat CPU  0 instructions:  203000000 cycles:  611349817 heartbeat IPC: 0.32240 cumulative IPC: 0.18141 (Simulation time: 0 hr 10 min 37 sec) 
Heartbeat CPU  0 instructions:  204000000 cycles:  614436043 heartbeat IPC: 0.32402 cumulative IPC: 0.18218 (Simulation time: 0 hr 10 min 40 sec) 
Heartbeat CPU  0 instructions:  205000001 cycles:  617544571 heartbeat IPC: 0.32170 cumulative IPC: 0.18294 (Simulation time: 0 hr 10 min 44 sec) 
Heartbeat CPU  0 instructions:  206000001 cycles:  620551116 heartbeat IPC: 0.33261 cumulative IPC: 0.18372 (Simulation time: 0 hr 10 min 47 sec) 
Heartbeat CPU  0 instructions:  207000003 cycles:  623571951 heartbeat IPC: 0.33103 cumulative IPC: 0.18448 (Simulation time: 0 hr 10 min 50 sec) 
Heartbeat CPU  0 instructions:  208000000 cycles:  626582754 heartbeat IPC: 0.33214 cumulative IPC: 0.18525 (Simulation time: 0 hr 10 min 53 sec) 
Heartbeat CPU  0 instructions:  209000000 cycles:  629532229 heartbeat IPC: 0.33904 cumulative IPC: 0.18602 (Simulation time: 0 hr 10 min 56 sec) 
Heartbeat CPU  0 instructions:  210000002 cycles:  632459876 heartbeat IPC: 0.34157 cumulative IPC: 0.18679 (Simulation time: 0 hr 11 min 0 sec) 
Heartbeat CPU  0 instructions:  211000003 cycles:  635386598 heartbeat IPC: 0.34168 cumulative IPC: 0.18756 (Simulation time: 0 hr 11 min 3 sec) 
Heartbeat CPU  0 instructions:  212000000 cycles:  638285418 heartbeat IPC: 0.34497 cumulative IPC: 0.18833 (Simulation time: 0 hr 11 min 6 sec) 
Heartbeat CPU  0 instructions:  213000003 cycles:  641195083 heartbeat IPC: 0.34368 cumulative IPC: 0.18908 (Simulation time: 0 hr 11 min 9 sec) 
Heartbeat CPU  0 instructions:  214000000 cycles:  644107437 heartbeat IPC: 0.34336 cumulative IPC: 0.18983 (Simulation time: 0 hr 11 min 12 sec) 
Heartbeat CPU  0 instructions:  215000001 cycles:  647015931 heartbeat IPC: 0.34382 cumulative IPC: 0.19057 (Simulation time: 0 hr 11 min 15 sec) 
Heartbeat CPU  0 instructions:  216000000 cycles:  649930078 heartbeat IPC: 0.34315 cumulative IPC: 0.19131 (Simulation time: 0 hr 11 min 18 sec) 
Heartbeat CPU  0 instructions:  217000001 cycles:  652838866 heartbeat IPC: 0.34379 cumulative IPC: 0.19203 (Simulation time: 0 hr 11 min 22 sec) 
Heartbeat CPU  0 instructions:  218000002 cycles:  655729015 heartbeat IPC: 0.34600 cumulative IPC: 0.19276 (Simulation time: 0 hr 11 min 25 sec) 
Heartbeat CPU  0 instructions:  219000001 cycles:  658621301 heartbeat IPC: 0.34575 cumulative IPC: 0.19348 (Simulation time: 0 hr 11 min 28 sec) 
Heartbeat CPU  0 instructions:  220000000 cycles:  661520797 heartbeat IPC: 0.34489 cumulative IPC: 0.19419 (Simulation time: 0 hr 11 min 31 sec) 
Heartbeat CPU  0 instructions:  221000000 cycles:  664406325 heartbeat IPC: 0.34656 cumulative IPC: 0.19490 (Simulation time: 0 hr 11 min 34 sec) 
Heartbeat CPU  0 instructions:  222000000 cycles:  678199109 heartbeat IPC: 0.07250 cumulative IPC: 0.19224 (Simulation time: 0 hr 11 min 45 sec) 
Heartbeat CPU  0 instructions:  223000000 cycles:  716962353 heartbeat IPC: 0.02580 cumulative IPC: 0.18266 (Simulation time: 0 hr 12 min 12 sec) 
Heartbeat CPU  0 instructions:  224000000 cycles:  726262070 heartbeat IPC: 0.10753 cumulative IPC: 0.18163 (Simulation time: 0 hr 12 min 17 sec) 
Heartbeat CPU  0 instructions:  225000002 cycles:  734956054 heartbeat IPC: 0.11502 cumulative IPC: 0.18080 (Simulation time: 0 hr 12 min 23 sec) 
Heartbeat CPU  0 instructions:  226000001 cycles:  743807850 heartbeat IPC: 0.11297 cumulative IPC: 0.17994 (Simulation time: 0 hr 12 min 28 sec) 
Heartbeat CPU  0 instructions:  227000000 cycles:  752398009 heartbeat IPC: 0.11641 cumulative IPC: 0.17917 (Simulation time: 0 hr 12 min 34 sec) 
Heartbeat CPU  0 instructions:  228000000 cycles:  761031496 heartbeat IPC: 0.11583 cumulative IPC: 0.17841 (Simulation time: 0 hr 12 min 39 sec) 
Heartbeat CPU  0 instructions:  229000002 cycles:  769714712 heartbeat IPC: 0.11516 cumulative IPC: 0.17765 (Simulation time: 0 hr 12 min 44 sec) 
Heartbeat CPU  0 instructions:  230000000 cycles:  778353020 heartbeat IPC: 0.11576 cumulative IPC: 0.17692 (Simulation time: 0 hr 12 min 50 sec) 
Heartbeat CPU  0 instructions:  231000000 cycles:  786992219 heartbeat IPC: 0.11575 cumulative IPC: 0.17621 (Simulation time: 0 hr 12 min 55 sec) 
Heartbeat CPU  0 instructions:  232000000 cycles:  795679085 heartbeat IPC: 0.11512 cumulative IPC: 0.17551 (Simulation time: 0 hr 13 min 1 sec) 
Heartbeat CPU  0 instructions:  233000002 cycles:  804338464 heartbeat IPC: 0.11548 cumulative IPC: 0.17482 (Simulation time: 0 hr 13 min 6 sec) 
Heartbeat CPU  0 instructions:  234000001 cycles:  813008506 heartbeat IPC: 0.11534 cumulative IPC: 0.17415 (Simulation time: 0 hr 13 min 11 sec) 
Heartbeat CPU  0 instructions:  235000000 cycles:  821658040 heartbeat IPC: 0.11561 cumulative IPC: 0.17350 (Simulation time: 0 hr 13 min 17 sec) 
Heartbeat CPU  0 instructions:  236000000 cycles:  830373820 heartbeat IPC: 0.11473 cumulative IPC: 0.17285 (Simulation time: 0 hr 13 min 22 sec) 
Heartbeat CPU  0 instructions:  237000002 cycles:  839006796 heartbeat IPC: 0.11584 cumulative IPC: 0.17223 (Simulation time: 0 hr 13 min 28 sec) 
Heartbeat CPU  0 instructions:  238000001 cycles:  847652061 heartbeat IPC: 0.11567 cumulative IPC: 0.17162 (Simulation time: 0 hr 13 min 33 sec) 
Heartbeat CPU  0 instructions:  239000000 cycles:  856328625 heartbeat IPC: 0.11525 cumulative IPC: 0.17102 (Simulation time: 0 hr 13 min 38 sec) 
Heartbeat CPU  0 instructions:  240000000 cycles:  865003825 heartbeat IPC: 0.11527 cumulative IPC: 0.17043 (Simulation time: 0 hr 13 min 44 sec) 
Heartbeat CPU  0 instructions:  241000002 cycles:  873684699 heartbeat IPC: 0.11520 cumulative IPC: 0.16986 (Simulation time: 0 hr 13 min 49 sec) 
Heartbeat CPU  0 instructions:  242000001 cycles:  882291154 heartbeat IPC: 0.11619 cumulative IPC: 0.16931 (Simulation time: 0 hr 13 min 54 sec) 
Heartbeat CPU  0 instructions:  243000000 cycles:  891008351 heartbeat IPC: 0.11472 cumulative IPC: 0.16874 (Simulation time: 0 hr 14 min 0 sec) 
Heartbeat CPU  0 instructions:  244000000 cycles:  899674059 heartbeat IPC: 0.11540 cumulative IPC: 0.16820 (Simulation time: 0 hr 14 min 5 sec) 
Heartbeat CPU  0 instructions:  245000002 cycles:  908311139 heartbeat IPC: 0.11578 cumulative IPC: 0.16768 (Simulation time: 0 hr 14 min 11 sec) 
Heartbeat CPU  0 instructions:  246000000 cycles:  916596069 heartbeat IPC: 0.12070 cumulative IPC: 0.16723 (Simulation time: 0 hr 14 min 16 sec) 
Heartbeat CPU  0 instructions:  247000000 cycles:  922441684 heartbeat IPC: 0.17107 cumulative IPC: 0.16726 (Simulation time: 0 hr 14 min 21 sec) 
Heartbeat CPU  0 instructions:  248000000 cycles:  935334920 heartbeat IPC: 0.07756 cumulative IPC: 0.16596 (Simulation time: 0 hr 14 min 30 sec) 
Heartbeat CPU  0 instructions:  249000000 cycles:  962220148 heartbeat IPC: 0.03720 cumulative IPC: 0.16219 (Simulation time: 0 hr 14 min 46 sec) 
Heartbeat CPU  0 instructions:  250000003 cycles:  989170694 heartbeat IPC: 0.03711 cumulative IPC: 0.15863 (Simulation time: 0 hr 15 min 2 sec) 
Heartbeat CPU  0 instructions:  251000000 cycles: 1009118819 heartbeat IPC: 0.05013 cumulative IPC: 0.15639 (Simulation time: 0 hr 15 min 15 sec) 
Heartbeat CPU  0 instructions:  252000000 cycles: 1015261126 heartbeat IPC: 0.16281 cumulative IPC: 0.15643 (Simulation time: 0 hr 15 min 20 sec) 
Heartbeat CPU  0 instructions:  253000001 cycles: 1022575989 heartbeat IPC: 0.13671 cumulative IPC: 0.15628 (Simulation time: 0 hr 15 min 26 sec) 
Heartbeat CPU  0 instructions:  254000000 cycles: 1030171141 heartbeat IPC: 0.13166 cumulative IPC: 0.15609 (Simulation time: 0 hr 15 min 31 sec) 
Heartbeat CPU  0 instructions:  255000002 cycles: 1037908365 heartbeat IPC: 0.12925 cumulative IPC: 0.15588 (Simulation time: 0 hr 15 min 36 sec) 
Heartbeat CPU  0 instructions:  256000000 cycles: 1045668221 heartbeat IPC: 0.12887 cumulative IPC: 0.15567 (Simulation time: 0 hr 15 min 41 sec) 
Heartbeat CPU  0 instructions:  257000000 cycles: 1053407898 heartbeat IPC: 0.12920 cumulative IPC: 0.15547 (Simulation time: 0 hr 15 min 46 sec) 
Heartbeat CPU  0 instructions:  258000001 cycles: 1061205531 heartbeat IPC: 0.12824 cumulative IPC: 0.15526 (Simulation time: 0 hr 15 min 52 sec) 
Heartbeat CPU  0 instructions:  259000000 cycles: 1069076702 heartbeat IPC: 0.12705 cumulative IPC: 0.15505 (Simulation time: 0 hr 15 min 57 sec) 
Heartbeat CPU  0 instructions:  260000000 cycles: 1076869472 heartbeat IPC: 0.12832 cumulative IPC: 0.15484 (Simulation time: 0 hr 16 min 2 sec) 
Heartbeat CPU  0 instructions:  261000002 cycles: 1084662300 heartbeat IPC: 0.12832 cumulative IPC: 0.15465 (Simulation time: 0 hr 16 min 8 sec) 
Heartbeat CPU  0 instructions:  262000001 cycles: 1092459393 heartbeat IPC: 0.12825 cumulative IPC: 0.15445 (Simulation time: 0 hr 16 min 13 sec) 
Heartbeat CPU  0 instructions:  263000001 cycles: 1100230549 heartbeat IPC: 0.12868 cumulative IPC: 0.15426 (Simulation time: 0 hr 16 min 18 sec) 
Heartbeat CPU  0 instructions:  264000000 cycles: 1107988153 heartbeat IPC: 0.12891 cumulative IPC: 0.15408 (Simulation time: 0 hr 16 min 23 sec) 
Heartbeat CPU  0 instructions:  265000001 cycles: 1115792484 heartbeat IPC: 0.12813 cumulative IPC: 0.15389 (Simulation time: 0 hr 16 min 29 sec) 
Heartbeat CPU  0 instructions:  266000001 cycles: 1123536125 heartbeat IPC: 0.12914 cumulative IPC: 0.15371 (Simulation time: 0 hr 16 min 34 sec) 
Heartbeat CPU  0 instructions:  267000001 cycles: 1131341588 heartbeat IPC: 0.12812 cumulative IPC: 0.15353 (Simulation time: 0 hr 16 min 39 sec) 
Heartbeat CPU  0 instructions:  268000000 cycles: 1139262453 heartbeat IPC: 0.12625 cumulative IPC: 0.15333 (Simulation time: 0 hr 16 min 45 sec) 
Heartbeat CPU  0 instructions:  269000002 cycles: 1146954617 heartbeat IPC: 0.13000 cumulative IPC: 0.15317 (Simulation time: 0 hr 16 min 50 sec) 
Heartbeat CPU  0 instructions:  270000001 cycles: 1154796826 heartbeat IPC: 0.12751 cumulative IPC: 0.15298 (Simulation time: 0 hr 16 min 55 sec) 
Heartbeat CPU  0 instructions:  271000001 cycles: 1162528149 heartbeat IPC: 0.12934 cumulative IPC: 0.15282 (Simulation time: 0 hr 17 min 0 sec) 
Heartbeat CPU  0 instructions:  272000000 cycles: 1170319928 heartbeat IPC: 0.12834 cumulative IPC: 0.15265 (Simulation time: 0 hr 17 min 5 sec) 
Heartbeat CPU  0 instructions:  273000001 cycles: 1178173727 heartbeat IPC: 0.12733 cumulative IPC: 0.15248 (Simulation time: 0 hr 17 min 11 sec) 
Heartbeat CPU  0 instructions:  274000001 cycles: 1185910086 heartbeat IPC: 0.12926 cumulative IPC: 0.15232 (Simulation time: 0 hr 17 min 16 sec) 
Heartbeat CPU  0 instructions:  275000001 cycles: 1193796645 heartbeat IPC: 0.12680 cumulative IPC: 0.15214 (Simulation time: 0 hr 17 min 21 sec) 
Heartbeat CPU  0 instructions:  276000000 cycles: 1201581572 heartbeat IPC: 0.12845 cumulative IPC: 0.15198 (Simulation time: 0 hr 17 min 27 sec) 
Heartbeat CPU  0 instructions:  277000002 cycles: 1205585835 heartbeat IPC: 0.24973 cumulative IPC: 0.15232 (Simulation time: 0 hr 17 min 30 sec) 
Heartbeat CPU  0 instructions:  278000003 cycles: 1208998494 heartbeat IPC: 0.29303 cumulative IPC: 0.15273 (Simulation time: 0 hr 17 min 34 sec) 
Heartbeat CPU  0 instructions:  279000003 cycles: 1212243455 heartbeat IPC: 0.30817 cumulative IPC: 0.15317 (Simulation time: 0 hr 17 min 37 sec) 
Heartbeat CPU  0 instructions:  280000000 cycles: 1215487458 heartbeat IPC: 0.30826 cumulative IPC: 0.15359 (Simulation time: 0 hr 17 min 41 sec) 
Heartbeat CPU  0 instructions:  281000001 cycles: 1218735915 heartbeat IPC: 0.30784 cumulative IPC: 0.15402 (Simulation time: 0 hr 17 min 44 sec) 
Heartbeat CPU  0 instructions:  282000003 cycles: 1221973507 heartbeat IPC: 0.30887 cumulative IPC: 0.15445 (Simulation time: 0 hr 17 min 48 sec) 
Heartbeat CPU  0 instructions:  283000001 cycles: 1225220631 heartbeat IPC: 0.30796 cumulative IPC: 0.15487 (Simulation time: 0 hr 17 min 51 sec) 
Heartbeat CPU  0 instructions:  284000000 cycles: 1228468257 heartbeat IPC: 0.30792 cumulative IPC: 0.15529 (Simulation time: 0 hr 17 min 54 sec) 
Heartbeat CPU  0 instructions:  285000001 cycles: 1231708561 heartbeat IPC: 0.30861 cumulative IPC: 0.15571 (Simulation time: 0 hr 17 min 58 sec) 
Heartbeat CPU  0 instructions:  286000001 cycles: 1234956737 heartbeat IPC: 0.30787 cumulative IPC: 0.15612 (Simulation time: 0 hr 18 min 1 sec) 
Heartbeat CPU  0 instructions:  287000001 cycles: 1238195573 heartbeat IPC: 0.30875 cumulative IPC: 0.15653 (Simulation time: 0 hr 18 min 5 sec) 
Heartbeat CPU  0 instructions:  288000000 cycles: 1241440057 heartbeat IPC: 0.30822 cumulative IPC: 0.15695 (Simulation time: 0 hr 18 min 8 sec) 
Heartbeat CPU  0 instructions:  289000001 cycles: 1244693281 heartbeat IPC: 0.30739 cumulative IPC: 0.15735 (Simulation time: 0 hr 18 min 11 sec) 
Heartbeat CPU  0 instructions:  290000001 cycles: 1247928125 heartbeat IPC: 0.30913 cumulative IPC: 0.15776 (Simulation time: 0 hr 18 min 15 sec) 
Heartbeat CPU  0 instructions:  291000000 cycles: 1251171141 heartbeat IPC: 0.30835 cumulative IPC: 0.15817 (Simulation time: 0 hr 18 min 18 sec) 
Heartbeat CPU  0 instructions:  292000000 cycles: 1254415366 heartbeat IPC: 0.30824 cumulative IPC: 0.15857 (Simulation time: 0 hr 18 min 22 sec) 
Heartbeat CPU  0 instructions:  293000003 cycles: 1257655781 heartbeat IPC: 0.30860 cumulative IPC: 0.15897 (Simulation time: 0 hr 18 min 25 sec) 
Heartbeat CPU  0 instructions:  294000003 cycles: 1260901855 heartbeat IPC: 0.30806 cumulative IPC: 0.15937 (Simulation time: 0 hr 18 min 29 sec) 
Heartbeat CPU  0 instructions:  295000003 cycles: 1264143983 heartbeat IPC: 0.30844 cumulative IPC: 0.15976 (Simulation time: 0 hr 18 min 32 sec) 
Heartbeat CPU  0 instructions:  296000000 cycles: 1267395904 heartbeat IPC: 0.30751 cumulative IPC: 0.16015 (Simulation time: 0 hr 18 min 35 sec) 
Heartbeat CPU  0 instructions:  297000003 cycles: 1270637947 heartbeat IPC: 0.30845 cumulative IPC: 0.16055 (Simulation time: 0 hr 18 min 39 sec) 
Heartbeat CPU  0 instructions:  298000000 cycles: 1273875938 heartbeat IPC: 0.30883 cumulative IPC: 0.16094 (Simulation time: 0 hr 18 min 42 sec) 
Heartbeat CPU  0 instructions:  299000001 cycles: 1277122074 heartbeat IPC: 0.30806 cumulative IPC: 0.16132 (Simulation time: 0 hr 18 min 46 sec) 
Heartbeat CPU  0 instructions:  300000000 cycles: 1280361504 heartbeat IPC: 0.30870 cumulative IPC: 0.16171 (Simulation time: 0 hr 18 min 49 sec) 
Heartbeat CPU  0 instructions:  301000003 cycles: 1283606981 heartbeat IPC: 0.30812 cumulative IPC: 0.16209 (Simulation time: 0 hr 18 min 52 sec) 
Heartbeat CPU  0 instructions:  302000001 cycles: 1286851848 heartbeat IPC: 0.30818 cumulative IPC: 0.16247 (Simulation time: 0 hr 18 min 56 sec) 
Heartbeat CPU  0 instructions:  303000001 cycles: 1290092035 heartbeat IPC: 0.30862 cumulative IPC: 0.16285 (Simulation time: 0 hr 18 min 59 sec) 
Heartbeat CPU  0 instructions:  304000000 cycles: 1293338842 heartbeat IPC: 0.30799 cumulative IPC: 0.16323 (Simulation time: 0 hr 19 min 3 sec) 
Heartbeat CPU  0 instructions:  305000000 cycles: 1296582351 heartbeat IPC: 0.30831 cumulative IPC: 0.16361 (Simulation time: 0 hr 19 min 6 sec) 
Heartbeat CPU  0 instructions:  306000003 cycles: 1299818156 heartbeat IPC: 0.30904 cumulative IPC: 0.16398 (Simulation time: 0 hr 19 min 9 sec) 
Heartbeat CPU  0 instructions:  307000003 cycles: 1303057742 heartbeat IPC: 0.30868 cumulative IPC: 0.16435 (Simulation time: 0 hr 19 min 13 sec) 
Heartbeat CPU  0 instructions:  308000000 cycles: 1306305944 heartbeat IPC: 0.30786 cumulative IPC: 0.16472 (Simulation time: 0 hr 19 min 16 sec) 
Heartbeat CPU  0 instructions:  309000003 cycles: 1309544980 heartbeat IPC: 0.30873 cumulative IPC: 0.16509 (Simulation time: 0 hr 19 min 20 sec) 
Heartbeat CPU  0 instructions:  310000003 cycles: 1312794085 heartbeat IPC: 0.30778 cumulative IPC: 0.16546 (Simulation time: 0 hr 19 min 23 sec) 
Heartbeat CPU  0 instructions:  311000001 cycles: 1316035832 heartbeat IPC: 0.30848 cumulative IPC: 0.16582 (Simulation time: 0 hr 19 min 26 sec) 
Heartbeat CPU  0 instructions:  312000000 cycles: 1319247477 heartbeat IPC: 0.31137 cumulative IPC: 0.16619 (Simulation time: 0 hr 19 min 30 sec) 
Heartbeat CPU  0 instructions:  313000003 cycles: 1322471768 heartbeat IPC: 0.31015 cumulative IPC: 0.16655 (Simulation time: 0 hr 19 min 33 sec) 
Heartbeat CPU  0 instructions:  314000002 cycles: 1325689874 heartbeat IPC: 0.31074 cumulative IPC: 0.16691 (Simulation time: 0 hr 19 min 37 sec) 
Heartbeat CPU  0 instructions:  315000000 cycles: 1328908211 heartbeat IPC: 0.31072 cumulative IPC: 0.16727 (Simulation time: 0 hr 19 min 40 sec) 
Heartbeat CPU  0 instructions:  316000000 cycles: 1332123158 heartbeat IPC: 0.31105 cumulative IPC: 0.16763 (Simulation time: 0 hr 19 min 43 sec) 
Heartbeat CPU  0 instructions:  317000002 cycles: 1335340204 heartbeat IPC: 0.31084 cumulative IPC: 0.16799 (Simulation time: 0 hr 19 min 47 sec) 
Heartbeat CPU  0 instructions:  318000003 cycles: 1338566282 heartbeat IPC: 0.30997 cumulative IPC: 0.16834 (Simulation time: 0 hr 19 min 50 sec) 
Heartbeat CPU  0 instructions:  319000000 cycles: 1341783210 heartbeat IPC: 0.31085 cumulative IPC: 0.16869 (Simulation time: 0 hr 19 min 53 sec) 
Heartbeat CPU  0 instructions:  320000000 cycles: 1345000542 heartbeat IPC: 0.31082 cumulative IPC: 0.16905 (Simulation time: 0 hr 19 min 57 sec) 
Heartbeat CPU  0 instructions:  321000000 cycles: 1348217138 heartbeat IPC: 0.31089 cumulative IPC: 0.16939 (Simulation time: 0 hr 20 min 0 sec) 
Heartbeat CPU  0 instructions:  322000002 cycles: 1351439260 heartbeat IPC: 0.31036 cumulative IPC: 0.16974 (Simulation time: 0 hr 20 min 4 sec) 
Heartbeat CPU  0 instructions:  323000001 cycles: 1354652076 heartbeat IPC: 0.31125 cumulative IPC: 0.17009 (Simulation time: 0 hr 20 min 7 sec) 
Heartbeat CPU  0 instructions:  324000000 cycles: 1357870090 heartbeat IPC: 0.31075 cumulative IPC: 0.17043 (Simulation time: 0 hr 20 min 11 sec) 
Heartbeat CPU  0 instructions:  325000002 cycles: 1361083475 heartbeat IPC: 0.31120 cumulative IPC: 0.17078 (Simulation time: 0 hr 20 min 14 sec) 
Heartbeat CPU  0 instructions:  326000002 cycles: 1364292173 heartbeat IPC: 0.31165 cumulative IPC: 0.17112 (Simulation time: 0 hr 20 min 18 sec) 
Heartbeat CPU  0 instructions:  327000002 cycles: 1367484855 heartbeat IPC: 0.31322 cumulative IPC: 0.17146 (Simulation time: 0 hr 20 min 22 sec) 
Heartbeat CPU  0 instructions:  328000000 cycles: 1370592322 heartbeat IPC: 0.32180 cumulative IPC: 0.17181 (Simulation time: 0 hr 20 min 25 sec) 
Heartbeat CPU  0 instructions:  329000002 cycles: 1373540976 heartbeat IPC: 0.33914 cumulative IPC: 0.17218 (Simulation time: 0 hr 20 min 29 sec) 
Heartbeat CPU  0 instructions:  330000003 cycles: 1376447585 heartbeat IPC: 0.34404 cumulative IPC: 0.17256 (Simulation time: 0 hr 20 min 32 sec) 
Heartbeat CPU  0 instructions:  331000001 cycles: 1379330779 heartbeat IPC: 0.34684 cumulative IPC: 0.17294 (Simulation time: 0 hr 20 min 35 sec) 
Heartbeat CPU  0 instructions:  332000000 cycles: 1382272493 heartbeat IPC: 0.33994 cumulative IPC: 0.17330 (Simulation time: 0 hr 20 min 39 sec) 
Heartbeat CPU  0 instructions:  333000000 cycles: 1385164669 heartbeat IPC: 0.34576 cumulative IPC: 0.17367 (Simulation time: 0 hr 20 min 42 sec) 
Heartbeat CPU  0 instructions:  334000002 cycles: 1388048339 heartbeat IPC: 0.34678 cumulative IPC: 0.17405 (Simulation time: 0 hr 20 min 46 sec) 
Heartbeat CPU  0 instructions:  335000001 cycles: 1390938332 heartbeat IPC: 0.34602 cumulative IPC: 0.17441 (Simulation time: 0 hr 20 min 49 sec) 
Heartbeat CPU  0 instructions:  336000000 cycles: 1393834301 heartbeat IPC: 0.34531 cumulative IPC: 0.17478 (Simulation time: 0 hr 20 min 52 sec) 
Heartbeat CPU  0 instructions:  337000003 cycles: 1396713704 heartbeat IPC: 0.34730 cumulative IPC: 0.17515 (Simulation time: 0 hr 20 min 56 sec) 
Heartbeat CPU  0 instructions:  338000002 cycles: 1399605433 heartbeat IPC: 0.34581 cumulative IPC: 0.17551 (Simulation time: 0 hr 20 min 59 sec) 
Heartbeat CPU  0 instructions:  339000000 cycles: 1402494187 heartbeat IPC: 0.34617 cumulative IPC: 0.17587 (Simulation time: 0 hr 21 min 2 sec) 
Heartbeat CPU  0 instructions:  340000000 cycles: 1405373331 heartbeat IPC: 0.34733 cumulative IPC: 0.17624 (Simulation time: 0 hr 21 min 6 sec) 
Heartbeat CPU  0 instructions:  341000003 cycles: 1408263699 heartbeat IPC: 0.34598 cumulative IPC: 0.17660 (Simulation time: 0 hr 21 min 9 sec) 
Heartbeat CPU  0 instructions:  342000003 cycles: 1411153788 heartbeat IPC: 0.34601 cumulative IPC: 0.17695 (Simulation time: 0 hr 21 min 13 sec) 
Heartbeat CPU  0 instructions:  343000001 cycles: 1414035984 heartbeat IPC: 0.34696 cumulative IPC: 0.17731 (Simulation time: 0 hr 21 min 16 sec) 
Heartbeat CPU  0 instructions:  344000000 cycles: 1416924243 heartbeat IPC: 0.34623 cumulative IPC: 0.17767 (Simulation time: 0 hr 21 min 19 sec) 
Heartbeat CPU  0 instructions:  345000002 cycles: 1419815243 heartbeat IPC: 0.34590 cumulative IPC: 0.17802 (Simulation time: 0 hr 21 min 23 sec) 
Heartbeat CPU  0 instructions:  346000001 cycles: 1422899439 heartbeat IPC: 0.32423 cumulative IPC: 0.17835 (Simulation time: 0 hr 21 min 26 sec) 
Heartbeat CPU  0 instructions:  347000000 cycles: 1428642988 heartbeat IPC: 0.17411 cumulative IPC: 0.17833 (Simulation time: 0 hr 21 min 31 sec) 
Heartbeat CPU  0 instructions:  348000000 cycles: 1435764612 heartbeat IPC: 0.14042 cumulative IPC: 0.17814 (Simulation time: 0 hr 21 min 37 sec) 
Heartbeat CPU  0 instructions:  349000001 cycles: 1443728229 heartbeat IPC: 0.12557 cumulative IPC: 0.17784 (Simulation time: 0 hr 21 min 42 sec) 
Heartbeat CPU  0 instructions:  350000000 cycles: 1451294163 heartbeat IPC: 0.13217 cumulative IPC: 0.17759 (Simulation time: 0 hr 21 min 48 sec) 
Heartbeat CPU  0 instructions:  351000001 cycles: 1459189214 heartbeat IPC: 0.12666 cumulative IPC: 0.17731 (Simulation time: 0 hr 21 min 54 sec) 
Heartbeat CPU  0 instructions:  352000000 cycles: 1467038508 heartbeat IPC: 0.12740 cumulative IPC: 0.17703 (Simulation time: 0 hr 22 min 0 sec) 
Heartbeat CPU  0 instructions:  353000000 cycles: 1474852221 heartbeat IPC: 0.12798 cumulative IPC: 0.17676 (Simulation time: 0 hr 22 min 5 sec) 
Heartbeat CPU  0 instructions:  354000001 cycles: 1482665544 heartbeat IPC: 0.12799 cumulative IPC: 0.17650 (Simulation time: 0 hr 22 min 11 sec) 
Heartbeat CPU  0 instructions:  355000001 cycles: 1490422090 heartbeat IPC: 0.12892 cumulative IPC: 0.17625 (Simulation time: 0 hr 22 min 16 sec) 
Heartbeat CPU  0 instructions:  356000000 cycles: 1498266935 heartbeat IPC: 0.12747 cumulative IPC: 0.17598 (Simulation time: 0 hr 22 min 23 sec) 
Heartbeat CPU  0 instructions:  357000000 cycles: 1506108993 heartbeat IPC: 0.12752 cumulative IPC: 0.17572 (Simulation time: 0 hr 22 min 30 sec) 
Heartbeat CPU  0 instructions:  358000001 cycles: 1513867004 heartbeat IPC: 0.12890 cumulative IPC: 0.17548 (Simulation time: 0 hr 22 min 36 sec) 
Heartbeat CPU  0 instructions:  359000001 cycles: 1521698732 heartbeat IPC: 0.12769 cumulative IPC: 0.17522 (Simulation time: 0 hr 22 min 42 sec) 
Heartbeat CPU  0 instructions:  360000000 cycles: 1529506868 heartbeat IPC: 0.12807 cumulative IPC: 0.17497 (Simulation time: 0 hr 22 min 48 sec) 
Heartbeat CPU  0 instructions:  361000000 cycles: 1537264986 heartbeat IPC: 0.12890 cumulative IPC: 0.17473 (Simulation time: 0 hr 22 min 53 sec) 
Heartbeat CPU  0 instructions:  362000000 cycles: 1544978466 heartbeat IPC: 0.12964 cumulative IPC: 0.17450 (Simulation time: 0 hr 22 min 59 sec) 
Heartbeat CPU  0 instructions:  363000001 cycles: 1552891695 heartbeat IPC: 0.12637 cumulative IPC: 0.17425 (Simulation time: 0 hr 23 min 5 sec) 
Heartbeat CPU  0 instructions:  364000000 cycles: 1560608329 heartbeat IPC: 0.12959 cumulative IPC: 0.17402 (Simulation time: 0 hr 23 min 10 sec) 
Heartbeat CPU  0 instructions:  365000000 cycles: 1568410273 heartbeat IPC: 0.12817 cumulative IPC: 0.17379 (Simulation time: 0 hr 23 min 16 sec) 
Heartbeat CPU  0 instructions:  366000001 cycles: 1576240052 heartbeat IPC: 0.12772 cumulative IPC: 0.17355 (Simulation time: 0 hr 23 min 21 sec) 
Heartbeat CPU  0 instructions:  367000001 cycles: 1584084686 heartbeat IPC: 0.12748 cumulative IPC: 0.17332 (Simulation time: 0 hr 23 min 27 sec) 
Heartbeat CPU  0 instructions:  368000000 cycles: 1591841169 heartbeat IPC: 0.12892 cumulative IPC: 0.17310 (Simulation time: 0 hr 23 min 34 sec) 
Heartbeat CPU  0 instructions:  369000000 cycles: 1599660342 heartbeat IPC: 0.12789 cumulative IPC: 0.17287 (Simulation time: 0 hr 23 min 42 sec) 
Heartbeat CPU  0 instructions:  370000001 cycles: 1607450670 heartbeat IPC: 0.12836 cumulative IPC: 0.17265 (Simulation time: 0 hr 23 min 49 sec) 
Heartbeat CPU  0 instructions:  371000001 cycles: 1615210754 heartbeat IPC: 0.12886 cumulative IPC: 0.17243 (Simulation time: 0 hr 23 min 55 sec) 
Heartbeat CPU  0 instructions:  372000000 cycles: 1619742801 heartbeat IPC: 0.22065 cumulative IPC: 0.17257 (Simulation time: 0 hr 24 min 0 sec) 
Heartbeat CPU  0 instructions:  373000001 cycles: 1623193372 heartbeat IPC: 0.28981 cumulative IPC: 0.17283 (Simulation time: 0 hr 24 min 4 sec) 
Heartbeat CPU  0 instructions:  374000001 cycles: 1626526309 heartbeat IPC: 0.30004 cumulative IPC: 0.17309 (Simulation time: 0 hr 24 min 8 sec) 
Heartbeat CPU  0 instructions:  375000000 cycles: 1629775924 heartbeat IPC: 0.30773 cumulative IPC: 0.17337 (Simulation time: 0 hr 24 min 11 sec) 
Heartbeat CPU  0 instructions:  376000000 cycles: 1633034984 heartbeat IPC: 0.30684 cumulative IPC: 0.17364 (Simulation time: 0 hr 24 min 14 sec) 
Heartbeat CPU  0 instructions:  377000000 cycles: 1636277284 heartbeat IPC: 0.30842 cumulative IPC: 0.17392 (Simulation time: 0 hr 24 min 18 sec) 
Heartbeat CPU  0 instructions:  378000000 cycles: 1639540278 heartbeat IPC: 0.30647 cumulative IPC: 0.17419 (Simulation time: 0 hr 24 min 21 sec) 
Heartbeat CPU  0 instructions:  379000000 cycles: 1642787037 heartbeat IPC: 0.30800 cumulative IPC: 0.17446 (Simulation time: 0 hr 24 min 24 sec) 
Heartbeat CPU  0 instructions:  380000000 cycles: 1646042963 heartbeat IPC: 0.30713 cumulative IPC: 0.17473 (Simulation time: 0 hr 24 min 27 sec) 
Heartbeat CPU  0 instructions:  381000003 cycles: 1649311964 heartbeat IPC: 0.30590 cumulative IPC: 0.17500 (Simulation time: 0 hr 24 min 31 sec) 
Heartbeat CPU  0 instructions:  382000003 cycles: 1652575879 heartbeat IPC: 0.30638 cumulative IPC: 0.17526 (Simulation time: 0 hr 24 min 34 sec) 
Heartbeat CPU  0 instructions:  383000002 cycles: 1655830666 heartbeat IPC: 0.30724 cumulative IPC: 0.17553 (Simulation time: 0 hr 24 min 37 sec) 
Heartbeat CPU  0 instructions:  384000000 cycles: 1659095281 heartbeat IPC: 0.30631 cumulative IPC: 0.17579 (Simulation time: 0 hr 24 min 41 sec) 
Heartbeat CPU  0 instructions:  385000000 cycles: 1662352214 heartbeat IPC: 0.30704 cumulative IPC: 0.17606 (Simulation time: 0 hr 24 min 44 sec) 
Heartbeat CPU  0 instructions:  386000000 cycles: 1665611661 heartbeat IPC: 0.30680 cumulative IPC: 0.17632 (Simulation time: 0 hr 24 min 47 sec) 
Heartbeat CPU  0 instructions:  387000000 cycles: 1668884215 heartbeat IPC: 0.30557 cumulative IPC: 0.17658 (Simulation time: 0 hr 24 min 50 sec) 
Heartbeat CPU  0 instructions:  388000000 cycles: 1672132720 heartbeat IPC: 0.30783 cumulative IPC: 0.17684 (Simulation time: 0 hr 24 min 54 sec) 
Heartbeat CPU  0 instructions:  389000000 cycles: 1675397730 heartbeat IPC: 0.30628 cumulative IPC: 0.17710 (Simulation time: 0 hr 24 min 57 sec) 
Heartbeat CPU  0 instructions:  390000000 cycles: 1678664821 heartbeat IPC: 0.30608 cumulative IPC: 0.17736 (Simulation time: 0 hr 25 min 0 sec) 
Heartbeat CPU  0 instructions:  391000002 cycles: 1681920219 heartbeat IPC: 0.30718 cumulative IPC: 0.17762 (Simulation time: 0 hr 25 min 3 sec) 
Heartbeat CPU  0 instructions:  392000000 cycles: 1685179302 heartbeat IPC: 0.30683 cumulative IPC: 0.17787 (Simulation time: 0 hr 25 min 7 sec) 
Heartbeat CPU  0 instructions:  393000002 cycles: 1688442382 heartbeat IPC: 0.30646 cumulative IPC: 0.17813 (Simulation time: 0 hr 25 min 10 sec) 
Heartbeat CPU  0 instructions:  394000002 cycles: 1691704383 heartbeat IPC: 0.30656 cumulative IPC: 0.17838 (Simulation time: 0 hr 25 min 13 sec) 
Heartbeat CPU  0 instructions:  395000003 cycles: 1694966260 heartbeat IPC: 0.30657 cumulative IPC: 0.17864 (Simulation time: 0 hr 25 min 16 sec) 
Heartbeat CPU  0 instructions:  396000000 cycles: 1698222317 heartbeat IPC: 0.30712 cumulative IPC: 0.17889 (Simulation time: 0 hr 25 min 20 sec) 
Heartbeat CPU  0 instructions:  397000002 cycles: 1701489696 heartbeat IPC: 0.30606 cumulative IPC: 0.17914 (Simulation time: 0 hr 25 min 23 sec) 
Heartbeat CPU  0 instructions:  398000001 cycles: 1704740538 heartbeat IPC: 0.30761 cumulative IPC: 0.17939 (Simulation time: 0 hr 25 min 26 sec) 
Heartbeat CPU  0 instructions:  399000000 cycles: 1708003158 heartbeat IPC: 0.30650 cumulative IPC: 0.17964 (Simulation time: 0 hr 25 min 30 sec) 
Heartbeat CPU  0 instructions:  400000000 cycles: 1711262504 heartbeat IPC: 0.30681 cumulative IPC: 0.17989 (Simulation time: 0 hr 25 min 33 sec) 
Heartbeat CPU  0 instructions:  401000001 cycles: 1714522298 heartbeat IPC: 0.30677 cumulative IPC: 0.18014 (Simulation time: 0 hr 25 min 36 sec) 
Heartbeat CPU  0 instructions:  402000000 cycles: 1717783273 heartbeat IPC: 0.30666 cumulative IPC: 0.18038 (Simulation time: 0 hr 25 min 39 sec) 
Heartbeat CPU  0 instructions:  403000002 cycles: 1721047934 heartbeat IPC: 0.30631 cumulative IPC: 0.18063 (Simulation time: 0 hr 25 min 43 sec) 
Heartbeat CPU  0 instructions:  404000000 cycles: 1724305559 heartbeat IPC: 0.30697 cumulative IPC: 0.18087 (Simulation time: 0 hr 25 min 46 sec) 
Heartbeat CPU  0 instructions:  405000003 cycles: 1727577537 heartbeat IPC: 0.30563 cumulative IPC: 0.18112 (Simulation time: 0 hr 25 min 49 sec) 
Heartbeat CPU  0 instructions:  406000002 cycles: 1730834693 heartbeat IPC: 0.30702 cumulative IPC: 0.18136 (Simulation time: 0 hr 25 min 52 sec) 
Heartbeat CPU  0 instructions:  407000001 cycles: 1734078502 heartbeat IPC: 0.30828 cumulative IPC: 0.18160 (Simulation time: 0 hr 25 min 56 sec) 
Heartbeat CPU  0 instructions:  408000000 cycles: 1737306977 heartbeat IPC: 0.30974 cumulative IPC: 0.18185 (Simulation time: 0 hr 25 min 59 sec) 
Heartbeat CPU  0 instructions:  409000000 cycles: 1740557395 heartbeat IPC: 0.30765 cumulative IPC: 0.18209 (Simulation time: 0 hr 26 min 2 sec) 
Heartbeat CPU  0 instructions:  410000002 cycles: 1743796900 heartbeat IPC: 0.30869 cumulative IPC: 0.18233 (Simulation time: 0 hr 26 min 5 sec) 
Heartbeat CPU  0 instructions:  411000001 cycles: 1747034210 heartbeat IPC: 0.30890 cumulative IPC: 0.18257 (Simulation time: 0 hr 26 min 9 sec) 
Heartbeat CPU  0 instructions:  412000000 cycles: 1750279972 heartbeat IPC: 0.30809 cumulative IPC: 0.18281 (Simulation time: 0 hr 26 min 12 sec) 
Heartbeat CPU  0 instructions:  413000003 cycles: 1753515417 heartbeat IPC: 0.30908 cumulative IPC: 0.18305 (Simulation time: 0 hr 26 min 15 sec) 
Heartbeat CPU  0 instructions:  414000000 cycles: 1756758285 heartbeat IPC: 0.30837 cumulative IPC: 0.18328 (Simulation time: 0 hr 26 min 18 sec) 
Heartbeat CPU  0 instructions:  415000001 cycles: 1760003190 heartbeat IPC: 0.30818 cumulative IPC: 0.18352 (Simulation time: 0 hr 26 min 22 sec) 
Heartbeat CPU  0 instructions:  416000000 cycles: 1763243242 heartbeat IPC: 0.30864 cumulative IPC: 0.18376 (Simulation time: 0 hr 26 min 25 sec) 
Heartbeat CPU  0 instructions:  417000001 cycles: 1766487992 heartbeat IPC: 0.30819 cumulative IPC: 0.18399 (Simulation time: 0 hr 26 min 28 sec) 
Heartbeat CPU  0 instructions:  418000002 cycles: 1769731863 heartbeat IPC: 0.30827 cumulative IPC: 0.18422 (Simulation time: 0 hr 26 min 31 sec) 
Heartbeat CPU  0 instructions:  419000001 cycles: 1772970772 heartbeat IPC: 0.30875 cumulative IPC: 0.18446 (Simulation time: 0 hr 26 min 35 sec) 
Heartbeat CPU  0 instructions:  420000000 cycles: 1776210284 heartbeat IPC: 0.30869 cumulative IPC: 0.18469 (Simulation time: 0 hr 26 min 38 sec) 
Heartbeat CPU  0 instructions:  421000003 cycles: 1779426330 heartbeat IPC: 0.31094 cumulative IPC: 0.18492 (Simulation time: 0 hr 26 min 41 sec) 
Heartbeat CPU  0 instructions:  422000002 cycles: 1782618283 heartbeat IPC: 0.31329 cumulative IPC: 0.18516 (Simulation time: 0 hr 26 min 44 sec) 
Heartbeat CPU  0 instructions:  423000003 cycles: 1785684872 heartbeat IPC: 0.32610 cumulative IPC: 0.18541 (Simulation time: 0 hr 26 min 47 sec) 
Heartbeat CPU  0 instructions:  424000000 cycles: 1788786026 heartbeat IPC: 0.32246 cumulative IPC: 0.18565 (Simulation time: 0 hr 26 min 51 sec) 
Heartbeat CPU  0 instructions:  425000001 cycles: 1791712950 heartbeat IPC: 0.34166 cumulative IPC: 0.18591 (Simulation time: 0 hr 26 min 54 sec) 
Heartbeat CPU  0 instructions:  426000000 cycles: 1794650129 heartbeat IPC: 0.34046 cumulative IPC: 0.18617 (Simulation time: 0 hr 26 min 57 sec) 
Heartbeat CPU  0 instructions:  427000002 cycles: 1797564335 heartbeat IPC: 0.34315 cumulative IPC: 0.18643 (Simulation time: 0 hr 27 min 0 sec) 
Heartbeat CPU  0 instructions:  428000000 cycles: 1800480785 heartbeat IPC: 0.34288 cumulative IPC: 0.18669 (Simulation time: 0 hr 27 min 3 sec) 
Heartbeat CPU  0 instructions:  429000001 cycles: 1803399576 heartbeat IPC: 0.34261 cumulative IPC: 0.18695 (Simulation time: 0 hr 27 min 6 sec) 
Heartbeat CPU  0 instructions:  430000002 cycles: 1806312907 heartbeat IPC: 0.34325 cumulative IPC: 0.18721 (Simulation time: 0 hr 27 min 9 sec) 
Heartbeat CPU  0 instructions:  431000001 cycles: 1809224838 heartbeat IPC: 0.34341 cumulative IPC: 0.18747 (Simulation time: 0 hr 27 min 12 sec) 
Heartbeat CPU  0 instructions:  432000000 cycles: 1812149507 heartbeat IPC: 0.34192 cumulative IPC: 0.18772 (Simulation time: 0 hr 27 min 15 sec) 
Heartbeat CPU  0 instructions:  433000000 cycles: 1815057533 heartbeat IPC: 0.34388 cumulative IPC: 0.18798 (Simulation time: 0 hr 27 min 19 sec) 
Heartbeat CPU  0 instructions:  434000002 cycles: 1817971278 heartbeat IPC: 0.34320 cumulative IPC: 0.18823 (Simulation time: 0 hr 27 min 22 sec) 
Heartbeat CPU  0 instructions:  435000001 cycles: 1820886127 heartbeat IPC: 0.34307 cumulative IPC: 0.18849 (Simulation time: 0 hr 27 min 25 sec) 
Heartbeat CPU  0 instructions:  436000000 cycles: 1823805034 heartbeat IPC: 0.34259 cumulative IPC: 0.18874 (Simulation time: 0 hr 27 min 28 sec) 
Heartbeat CPU  0 instructions:  437000003 cycles: 1826720252 heartbeat IPC: 0.34303 cumulative IPC: 0.18899 (Simulation time: 0 hr 27 min 31 sec) 
Heartbeat CPU  0 instructions:  438000000 cycles: 1829631978 heartbeat IPC: 0.34344 cumulative IPC: 0.18924 (Simulation time: 0 hr 27 min 34 sec) 
Heartbeat CPU  0 instructions:  439000001 cycles: 1832572048 heartbeat IPC: 0.34013 cumulative IPC: 0.18949 (Simulation time: 0 hr 27 min 37 sec) 
Heartbeat CPU  0 instructions:  440000000 cycles: 1835485511 heartbeat IPC: 0.34323 cumulative IPC: 0.18974 (Simulation time: 0 hr 27 min 40 sec) 
Heartbeat CPU  0 instructions:  441000001 cycles: 1838769886 heartbeat IPC: 0.30447 cumulative IPC: 0.18995 (Simulation time: 0 hr 27 min 44 sec) 
Heartbeat CPU  0 instructions:  442000001 cycles: 1848826173 heartbeat IPC: 0.09944 cumulative IPC: 0.18945 (Simulation time: 0 hr 27 min 50 sec) 
Heartbeat CPU  0 instructions:  443000002 cycles: 1859098727 heartbeat IPC: 0.09735 cumulative IPC: 0.18893 (Simulation time: 0 hr 27 min 57 sec) 
Heartbeat CPU  0 instructions:  444000000 cycles: 1869441173 heartbeat IPC: 0.09669 cumulative IPC: 0.18840 (Simulation time: 0 hr 28 min 5 sec) 
Heartbeat CPU  0 instructions:  445000000 cycles: 1879738016 heartbeat IPC: 0.09712 cumulative IPC: 0.18789 (Simulation time: 0 hr 28 min 12 sec) 
Heartbeat CPU  0 instructions:  446000000 cycles: 1890095693 heartbeat IPC: 0.09655 cumulative IPC: 0.18738 (Simulation time: 0 hr 28 min 19 sec) 
Heartbeat CPU  0 instructions:  447000000 cycles: 1900356274 heartbeat IPC: 0.09746 cumulative IPC: 0.18688 (Simulation time: 0 hr 28 min 26 sec) 
Heartbeat CPU  0 instructions:  448000000 cycles: 1910701042 heartbeat IPC: 0.09667 cumulative IPC: 0.18638 (Simulation time: 0 hr 28 min 33 sec) 
Heartbeat CPU  0 instructions:  449000001 cycles: 1918492759 heartbeat IPC: 0.12834 cumulative IPC: 0.18614 (Simulation time: 0 hr 28 min 39 sec) 
Heartbeat CPU  0 instructions:  450000000 cycles: 1924559110 heartbeat IPC: 0.16484 cumulative IPC: 0.18607 (Simulation time: 0 hr 28 min 44 sec) 
Heartbeat CPU  0 instructions:  451000002 cycles: 1932263323 heartbeat IPC: 0.12980 cumulative IPC: 0.18584 (Simulation time: 0 hr 28 min 49 sec) 
Heartbeat CPU  0 instructions:  452000000 cycles: 1939792197 heartbeat IPC: 0.13282 cumulative IPC: 0.18563 (Simulation time: 0 hr 28 min 54 sec) 
Heartbeat CPU  0 instructions:  453000002 cycles: 1947457349 heartbeat IPC: 0.13046 cumulative IPC: 0.18541 (Simulation time: 0 hr 28 min 59 sec) 
Heartbeat CPU  0 instructions:  454000001 cycles: 1955189565 heartbeat IPC: 0.12933 cumulative IPC: 0.18518 (Simulation time: 0 hr 29 min 4 sec) 
Heartbeat CPU  0 instructions:  455000002 cycles: 1963065349 heartbeat IPC: 0.12697 cumulative IPC: 0.18494 (Simulation time: 0 hr 29 min 9 sec) 
Heartbeat CPU  0 instructions:  456000000 cycles: 1970843669 heartbeat IPC: 0.12856 cumulative IPC: 0.18472 (Simulation time: 0 hr 29 min 15 sec) 
Heartbeat CPU  0 instructions:  457000002 cycles: 1978671959 heartbeat IPC: 0.12774 cumulative IPC: 0.18449 (Simulation time: 0 hr 29 min 20 sec) 
Heartbeat CPU  0 instructions:  458000003 cycles: 1986472283 heartbeat IPC: 0.12820 cumulative IPC: 0.18426 (Simulation time: 0 hr 29 min 25 sec) 
Heartbeat CPU  0 instructions:  459000003 cycles: 1994314466 heartbeat IPC: 0.12752 cumulative IPC: 0.18403 (Simulation time: 0 hr 29 min 30 sec) 
Heartbeat CPU  0 instructions:  460000000 cycles: 2002105709 heartbeat IPC: 0.12835 cumulative IPC: 0.18381 (Simulation time: 0 hr 29 min 35 sec) 
Heartbeat CPU  0 instructions:  461000002 cycles: 2009865841 heartbeat IPC: 0.12886 cumulative IPC: 0.18359 (Simulation time: 0 hr 29 min 41 sec) 
Heartbeat CPU  0 instructions:  462000002 cycles: 2017681723 heartbeat IPC: 0.12794 cumulative IPC: 0.18337 (Simulation time: 0 hr 29 min 46 sec) 
Heartbeat CPU  0 instructions:  463000003 cycles: 2025378587 heartbeat IPC: 0.12992 cumulative IPC: 0.18317 (Simulation time: 0 hr 29 min 51 sec) 
Heartbeat CPU  0 instructions:  464000000 cycles: 2033224852 heartbeat IPC: 0.12745 cumulative IPC: 0.18295 (Simulation time: 0 hr 29 min 56 sec) 
Heartbeat CPU  0 instructions:  465000002 cycles: 2040976502 heartbeat IPC: 0.12901 cumulative IPC: 0.18274 (Simulation time: 0 hr 30 min 2 sec) 
Heartbeat CPU  0 instructions:  466000003 cycles: 2048693965 heartbeat IPC: 0.12958 cumulative IPC: 0.18253 (Simulation time: 0 hr 30 min 7 sec) 
Heartbeat CPU  0 instructions:  467000003 cycles: 2056573791 heartbeat IPC: 0.12691 cumulative IPC: 0.18231 (Simulation time: 0 hr 30 min 12 sec) 
Heartbeat CPU  0 instructions:  468000000 cycles: 2064346543 heartbeat IPC: 0.12865 cumulative IPC: 0.18211 (Simulation time: 0 hr 30 min 17 sec) 
Heartbeat CPU  0 instructions:  469000002 cycles: 2072153671 heartbeat IPC: 0.12809 cumulative IPC: 0.18190 (Simulation time: 0 hr 30 min 22 sec) 
Heartbeat CPU  0 instructions:  470000002 cycles: 2079941401 heartbeat IPC: 0.12841 cumulative IPC: 0.18170 (Simulation time: 0 hr 30 min 27 sec) 
Heartbeat CPU  0 instructions:  471000002 cycles: 2087735140 heartbeat IPC: 0.12831 cumulative IPC: 0.18149 (Simulation time: 0 hr 30 min 33 sec) 
Heartbeat CPU  0 instructions:  472000000 cycles: 2095525502 heartbeat IPC: 0.12836 cumulative IPC: 0.18129 (Simulation time: 0 hr 30 min 38 sec) 
Heartbeat CPU  0 instructions:  473000002 cycles: 2103392619 heartbeat IPC: 0.12711 cumulative IPC: 0.18108 (Simulation time: 0 hr 30 min 43 sec) 
Heartbeat CPU  0 instructions:  474000003 cycles: 2110837934 heartbeat IPC: 0.13431 cumulative IPC: 0.18092 (Simulation time: 0 hr 30 min 48 sec) 
Heartbeat CPU  0 instructions:  475000002 cycles: 2116678538 heartbeat IPC: 0.17121 cumulative IPC: 0.18089 (Simulation time: 0 hr 30 min 53 sec) 
Heartbeat CPU  0 instructions:  476000000 cycles: 2123688683 heartbeat IPC: 0.14265 cumulative IPC: 0.18076 (Simulation time: 0 hr 30 min 59 sec) 
Heartbeat CPU  0 instructions:  477000003 cycles: 2131368734 heartbeat IPC: 0.13021 cumulative IPC: 0.18057 (Simulation time: 0 hr 31 min 4 sec) 
Heartbeat CPU  0 instructions:  478000000 cycles: 2139070206 heartbeat IPC: 0.12984 cumulative IPC: 0.18039 (Simulation time: 0 hr 31 min 9 sec) 
Heartbeat CPU  0 instructions:  479000003 cycles: 2146870425 heartbeat IPC: 0.12820 cumulative IPC: 0.18019 (Simulation time: 0 hr 31 min 14 sec) 
Heartbeat CPU  0 instructions:  480000000 cycles: 2154596061 heartbeat IPC: 0.12944 cumulative IPC: 0.18001 (Simulation time: 0 hr 31 min 19 sec) 
Heartbeat CPU  0 instructions:  481000003 cycles: 2162406324 heartbeat IPC: 0.12804 cumulative IPC: 0.17982 (Simulation time: 0 hr 31 min 25 sec) 
Heartbeat CPU  0 instructions:  482000000 cycles: 2170287400 heartbeat IPC: 0.12689 cumulative IPC: 0.17962 (Simulation time: 0 hr 31 min 30 sec) 
Heartbeat CPU  0 instructions:  483000000 cycles: 2178081861 heartbeat IPC: 0.12830 cumulative IPC: 0.17943 (Simulation time: 0 hr 31 min 35 sec) 
Heartbeat CPU  0 instructions:  484000000 cycles: 2185882661 heartbeat IPC: 0.12819 cumulative IPC: 0.17925 (Simulation time: 0 hr 31 min 40 sec) 
Heartbeat CPU  0 instructions:  485000001 cycles: 2193687106 heartbeat IPC: 0.12813 cumulative IPC: 0.17906 (Simulation time: 0 hr 31 min 46 sec) 
Heartbeat CPU  0 instructions:  486000000 cycles: 2201475791 heartbeat IPC: 0.12839 cumulative IPC: 0.17888 (Simulation time: 0 hr 31 min 51 sec) 
Heartbeat CPU  0 instructions:  487000000 cycles: 2209230032 heartbeat IPC: 0.12896 cumulative IPC: 0.17870 (Simulation time: 0 hr 31 min 56 sec) 
Heartbeat CPU  0 instructions:  488000000 cycles: 2216985387 heartbeat IPC: 0.12894 cumulative IPC: 0.17852 (Simulation time: 0 hr 32 min 1 sec) 
Heartbeat CPU  0 instructions:  489000001 cycles: 2224838004 heartbeat IPC: 0.12735 cumulative IPC: 0.17834 (Simulation time: 0 hr 32 min 7 sec) 
Heartbeat CPU  0 instructions:  490000001 cycles: 2232543322 heartbeat IPC: 0.12978 cumulative IPC: 0.17817 (Simulation time: 0 hr 32 min 12 sec) 
Heartbeat CPU  0 instructions:  491000000 cycles: 2240529422 heartbeat IPC: 0.12522 cumulative IPC: 0.17797 (Simulation time: 0 hr 32 min 17 sec) 
Heartbeat CPU  0 instructions:  492000000 cycles: 2248229469 heartbeat IPC: 0.12987 cumulative IPC: 0.17781 (Simulation time: 0 hr 32 min 22 sec) 
Heartbeat CPU  0 instructions:  493000003 cycles: 2256088474 heartbeat IPC: 0.12724 cumulative IPC: 0.17763 (Simulation time: 0 hr 32 min 27 sec) 
Heartbeat CPU  0 instructions:  494000001 cycles: 2263799889 heartbeat IPC: 0.12968 cumulative IPC: 0.17746 (Simulation time: 0 hr 32 min 33 sec) 
Heartbeat CPU  0 instructions:  495000002 cycles: 2271641293 heartbeat IPC: 0.12753 cumulative IPC: 0.17728 (Simulation time: 0 hr 32 min 38 sec) 
Heartbeat CPU  0 instructions:  496000000 cycles: 2279407814 heartbeat IPC: 0.12876 cumulative IPC: 0.17712 (Simulation time: 0 hr 32 min 43 sec) 
Heartbeat CPU  0 instructions:  497000003 cycles: 2287111855 heartbeat IPC: 0.12980 cumulative IPC: 0.17695 (Simulation time: 0 hr 32 min 48 sec) 
Heartbeat CPU  0 instructions:  498000000 cycles: 2295108603 heartbeat IPC: 0.12505 cumulative IPC: 0.17677 (Simulation time: 0 hr 32 min 54 sec) 
Heartbeat CPU  0 instructions:  499000002 cycles: 2302911261 heartbeat IPC: 0.12816 cumulative IPC: 0.17660 (Simulation time: 0 hr 32 min 59 sec) 
Heartbeat CPU  0 instructions:  500000000 cycles: 2307803804 heartbeat IPC: 0.20439 cumulative IPC: 0.17666 (Simulation time: 0 hr 33 min 3 sec) 
Heartbeat CPU  0 instructions:  501000000 cycles: 2311244283 heartbeat IPC: 0.29066 cumulative IPC: 0.17683 (Simulation time: 0 hr 33 min 6 sec) 
Heartbeat CPU  0 instructions:  502000002 cycles: 2314501899 heartbeat IPC: 0.30697 cumulative IPC: 0.17702 (Simulation time: 0 hr 33 min 10 sec) 
Heartbeat CPU  0 instructions:  503000002 cycles: 2317742940 heartbeat IPC: 0.30854 cumulative IPC: 0.17721 (Simulation time: 0 hr 33 min 13 sec) 
Heartbeat CPU  0 instructions:  504000000 cycles: 2320986812 heartbeat IPC: 0.30827 cumulative IPC: 0.17739 (Simulation time: 0 hr 33 min 17 sec) 
Heartbeat CPU  0 instructions:  505000000 cycles: 2324233923 heartbeat IPC: 0.30797 cumulative IPC: 0.17758 (Simulation time: 0 hr 33 min 20 sec) 
Heartbeat CPU  0 instructions:  506000000 cycles: 2327472722 heartbeat IPC: 0.30876 cumulative IPC: 0.17777 (Simulation time: 0 hr 33 min 23 sec) 
Heartbeat CPU  0 instructions:  507000001 cycles: 2330716092 heartbeat IPC: 0.30832 cumulative IPC: 0.17795 (Simulation time: 0 hr 33 min 27 sec) 
Heartbeat CPU  0 instructions:  508000000 cycles: 2333958091 heartbeat IPC: 0.30845 cumulative IPC: 0.17814 (Simulation time: 0 hr 33 min 30 sec) 
Heartbeat CPU  0 instructions:  509000000 cycles: 2337197985 heartbeat IPC: 0.30865 cumulative IPC: 0.17832 (Simulation time: 0 hr 33 min 34 sec) 
Heartbeat CPU  0 instructions:  510000000 cycles: 2340437394 heartbeat IPC: 0.30870 cumulative IPC: 0.17850 (Simulation time: 0 hr 33 min 37 sec) 
Heartbeat CPU  0 instructions:  511000003 cycles: 2343686336 heartbeat IPC: 0.30779 cumulative IPC: 0.17869 (Simulation time: 0 hr 33 min 40 sec) 
Heartbeat CPU  0 instructions:  512000000 cycles: 2346916239 heartbeat IPC: 0.30961 cumulative IPC: 0.17887 (Simulation time: 0 hr 33 min 44 sec) 
[...]
scooby_state_4110af|24|-1 5,0,0,0,0,0,0,0,0,0,0,0,0,0,0,5,
scooby_state_410d6b|53|0 5,0,0,0,0,0,0,0,0,0,0,0,0,0,0,5,
scooby_state_410d6b|63|0 5,0,0,0,0,0,0,0,0,0,0,0,0,0,0,5,
scooby_state_410d6b|45|0 5,0,0,0,0,0,0,0,0,0,0,0,0,0,0,5,
scooby_state_410d6b|61|0 5,0,0,0,0,0,0,0,0,0,0,0,0,0,0,5,
scooby_state_410d6b|13|0 5,0,0,0,0,0,0,0,0,0,0,0,0,0,0,5,
scooby_state_410d6b|7|0 5,0,0,0,0,0,0,0,0,0,0,0,0,0,0,5,
scooby_state_40d2f0|15|0 5,0,0,0,0,0,0,0,0,0,0,0,0,0,0,5,
scooby_state_4110af|62|3 4,0,0,0,0,0,0,0,0,0,0,0,0,0,0,4,
scooby_state_410d6b|24|0 4,0,0,0,0,0,0,0,0,0,0,0,0,0,0,4,
scooby_state_40d21c|39|0 2,0,0,0,0,0,0,0,0,2,0,0,0,0,0,4,
scooby_state_40ddc7|32|0 3,0,0,0,0,0,0,0,0,0,0,0,0,0,0,3,
scooby_state_42d6c8|43|2 2,0,0,0,0,0,0,0,0,0,1,0,0,0,0,3,
scooby_state_4110af|25|-1 3,0,0,0,0,0,0,0,0,0,0,0,0,0,0,3,
scooby_state_40de64|15|0 3,0,0,0,0,0,0,0,0,0,0,0,0,0,0,3,
scooby_state_40de1a|57|0 3,0,0,0,0,0,0,0,0,0,0,0,0,0,0,3,
scooby_state_40de08|32|0 3,0,0,0,0,0,0,0,0,0,0,0,0,0,0,3,
scooby_state_40de1a|25|0 3,0,0,0,0,0,0,0,0,0,0,0,0,0,0,3,
scooby_state_4158ab|17|0 0,3,0,0,0,0,0,0,0,0,0,0,0,0,0,3,
scooby_state_40de1a|1|0 3,0,0,0,0,0,0,0,0,0,0,0,0,0,0,3,
scooby_state_43172e|41|0 3,0,0,0,0,0,0,0,0,0,0,0,0,0,0,3,
scooby_state_40dca3|32|0 3,0,0,0,0,0,0,0,0,0,0,0,0,0,0,3,
scooby_state_43177e|25|0 3,0,0,0,0,0,0,0,0,0,0,0,0,0,0,3,
scooby_state_40de1a|33|0 3,0,0,0,0,0,0,0,0,0,0,0,0,0,0,3,
scooby_state_431758|25|0 3,0,0,0,0,0,0,0,0,0,0,0,0,0,0,3,
scooby_state_40f6ba|17|2 2,0,0,0,0,0,0,0,0,0,0,0,0,0,0,2,
scooby_state_40faa5|19|2 2,0,0,0,0,0,0,0,0,0,0,0,0,0,0,2,
scooby_state_42fb7b|5|0 2,0,0,0,0,0,0,0,0,0,0,0,0,0,0,2,
scooby_state_40f6bf|19|2 2,0,0,0,0,0,0,0,0,0,0,0,0,0,0,2,
scooby_state_4110af|30|-1 2,0,0,0,0,0,0,0,0,0,0,0,0,0,0,2,
scooby_state_4110af|43|3 2,0,0,0,0,0,0,0,0,0,0,0,0,0,0,2,
scooby_state_4110af|9|2 2,0,0,0,0,0,0,0,0,0,0,0,0,0,0,2,
scooby_state_40f6dc|19|2 2,0,0,0,0,0,0,0,0,0,0,0,0,0,0,2,
scooby_state_40f6cf|17|2 2,0,0,0,0,0,0,0,0,0,0,0,0,0,0,2,
scooby_state_42fc3b|41|0 2,0,0,0,0,0,0,0,0,0,0,0,0,0,0,2,
scooby_state_410d6b|23|-8 2,0,0,0,0,0,0,0,0,0,0,0,0,0,0,2,
scooby_state_42e01f|13|0 2,0,0,0,0,0,0,0,0,0,0,0,0,0,0,2,
scooby_state_42d6e9|25|0 2,0,0,0,0,0,0,0,0,0,0,0,0,0,0,2,
scooby_state_42fc57|25|0 2,0,0,0,0,0,0,0,0,0,0,0,0,0,0,2,
scooby_state_42d70c|11|0 2,0,0,0,0,0,0,0,0,0,0,0,0,0,0,2,
scooby_state_4110af|17|2 2,0,0,0,0,0,0,0,0,0,0,0,0,0,0,2,
scooby_state_40f6e4|18|-1 0,0,0,0,0,0,0,0,0,0,2,0,0,0,0,2,
scooby_state_410d6b|32|9 2,0,0,0,0,0,0,0,0,0,0,0,0,0,0,2,
scooby_state_4110af|15|-1 2,0,0,0,0,0,0,0,0,0,0,0,0,0,0,2,
scooby_state_4110af|27|2 2,0,0,0,0,0,0,0,0,0,0,0,0,0,0,2,
scooby_state_42fbfd|14|1 1,0,0,0,0,0,0,0,0,0,1,0,0,0,0,2,
scooby_state_4110af|44|-1 2,0,0,0,0,0,0,0,0,0,0,0,0,0,0,2,
scooby_state_40dd6b|25|-4 0,0,0,0,0,0,0,0,0,0,0,0,0,0,2,2,
scooby_state_40dd61|29|0 0,0,0,0,0,0,0,0,0,0,2,0,0,0,0,2,
scooby_state_40d368|39|0 1,0,0,0,0,0,0,0,0,0,1,0,0,0,0,2,
scooby_state_42fc4d|43|2 2,0,0,0,0,0,0,0,0,0,0,0,0,0,0,2,
scooby_state_4110aa|24|0 2,0,0,0,0,0,0,0,0,0,0,0,0,0,0,2,
scooby_state_42d66e|13|2 1,0,0,0,0,0,0,0,0,0,1,0,0,0,0,2,
scooby_state_40faa0|17|2 2,0,0,0,0,0,0,0,0,0,0,0,0,0,0,2,
scooby_state_42fc18|32|0 1,1,0,0,0,0,0,0,0,0,0,0,0,0,0,2,
scooby_state_42dbb4|12|-1 0,2,0,0,0,0,0,0,0,0,0,0,0,0,0,2,
scooby_state_40f69b|19|4 2,0,0,0,0,0,0,0,0,0,0,0,0,0,0,2,
scooby_state_42fc2c|25|0 2,0,0,0,0,0,0,0,0,0,0,0,0,0,0,2,
scooby_state_4110af|8|-1 2,0,0,0,0,0,0,0,0,0,0,0,0,0,0,2,
scooby_state_40f6a3|17|-2 2,0,0,0,0,0,0,0,0,0,0,0,0,0,0,2,
scooby_state_40fab0|16|-3 2,0,0,0,0,0,0,0,0,0,0,0,0,0,0,2,
scooby_state_4110af|16|2 1,0,0,0,0,0,0,0,0,0,0,0,0,0,0,1,
scooby_state_40f706|28|0 0,0,0,0,0,0,0,0,0,0,1,0,0,0,0,1,
scooby_state_40f728|19|1 1,0,0,0,0,0,0,0,0,0,0,0,0,0,0,1,
scooby_state_40f686|18|2 0,0,0,0,0,0,0,0,0,0,1,0,0,0,0,1,
scooby_state_40f686|18|1 1,0,0,0,0,0,0,0,0,0,0,0,0,0,0,1,
scooby_state_40f6fd|18|3 1,0,0,0,0,0,0,0,0,0,0,0,0,0,0,1,
scooby_state_40fa80|42|1 1,0,0,0,0,0,0,0,0,0,0,0,0,0,0,1,
scooby_state_4110af|7|2 1,0,0,0,0,0,0,0,0,0,0,0,0,0,0,1,
scooby_state_4110af|8|2 1,0,0,0,0,0,0,0,0,0,0,0,0,0,0,1,
scooby_state_4110af|16|3 1,0,0,0,0,0,0,0,0,0,0,0,0,0,0,1,
scooby_state_4110af|6|-1 1,0,0,0,0,0,0,0,0,0,0,0,0,0,0,1,
scooby_state_42e429|11|-2 0,1,0,0,0,0,0,0,0,0,0,0,0,0,0,1,
scooby_state_40f760|29|4 1,0,0,0,0,0,0,0,0,0,0,0,0,0,0,1,
scooby_state_42fb50|45|0 1,0,0,0,0,0,0,0,0,0,0,0,0,0,0,1,
scooby_state_40f65f|17|1 1,0,0,0,0,0,0,0,0,0,0,0,0,0,0,1,
scooby_state_4110af|11|-1 1,0,0,0,0,0,0,0,0,0,0,0,0,0,0,1,
scooby_state_40f649|16|1 1,0,0,0,0,0,0,0,0,0,0,0,0,0,0,1,
scooby_state_42fc11|48|2 1,0,0,0,0,0,0,0,0,0,0,0,0,0,0,1,
scooby_state_40fa70|41|0 1,0,0,0,0,0,0,0,0,0,0,0,0,0,0,1,
scooby_state_42e3f7|10|-1 1,0,0,0,0,0,0,0,0,0,0,0,0,0,0,1,
scooby_state_40dd41|53|0 0,0,0,0,0,0,0,0,0,1,0,0,0,0,0,1,
scooby_state_410dc1|55|1 1,0,0,0,0,0,0,0,0,0,0,0,0,0,0,1,
scooby_state_40dd00|52|1 1,0,0,0,0,0,0,0,0,0,0,0,0,0,0,1,
scooby_state_40dcc4|51|0 1,0,0,0,0,0,0,0,0,0,0,0,0,0,0,1,
scooby_state_4110af|30|3 1,0,0,0,0,0,0,0,0,0,0,0,0,0,0,1,
scooby_state_40dc80|50|0 1,0,0,0,0,0,0,0,0,0,0,0,0,0,0,1,
scooby_state_4110af|57|-1 1,0,0,0,0,0,0,0,0,0,0,0,0,0,0,1,
scooby_state_4110af|28|3 1,0,0,0,0,0,0,0,0,0,0,0,0,0,0,1,
scooby_state_42e429|11|1 1,0,0,0,0,0,0,0,0,0,0,0,0,0,0,1,
scooby_state_410d6b|48|0 1,0,0,0,0,0,0,0,0,0,0,0,0,0,0,1,
scooby_state_40f6c7|27|0 1,0,0,0,0,0,0,0,0,0,0,0,0,0,0,1,
scooby_state_433106|13|-5 0,0,0,0,0,0,0,0,0,1,0,0,0,0,0,1,
scooby_state_410d6b|16|0 1,0,0,0,0,0,0,0,0,0,0,0,0,0,0,1,
scooby_state_4330d8|3|-2 1,0,0,0,0,0,0,0,0,0,0,0,0,0,0,1,
scooby_state_433140|5|1 1,0,0,0,0,0,0,0,0,0,0,0,0,0,0,1,
scooby_state_431753|29|1 1,0,0,0,0,0,0,0,0,0,0,0,0,0,0,1,
scooby_state_42e070|1|-27 1,0,0,0,0,0,0,0,0,0,0,0,0,0,0,1,
scooby_state_42e70c|28|-8 0,0,0,0,0,0,0,0,0,0,1,0,0,0,0,1,
scooby_state_42e907|36|18 1,0,0,0,0,0,0,0,0,0,0,0,0,0,0,1,
scooby_state_410d6b|56|0 1,0,0,0,0,0,0,0,0,0,0,0,0,0,0,1,
scooby_state_42e49d|18|1 1,0,0,0,0,0,0,0,0,0,0,0,0,0,0,1,
scooby_state_42e440|17|1 1,0,0,0,0,0,0,0,0,0,0,0,0,0,0,1,
scooby_state_42e40a|16|1 1,0,0,0,0,0,0,0,0,0,0,0,0,0,0,1,
scooby_state_42e3f7|10|-3 0,0,0,0,0,0,0,0,0,0,1,0,0,0,0,1,
scooby_state_42e3df|15|8 1,0,0,0,0,0,0,0,0,0,0,0,0,0,0,1,
scooby_state_42e5c2|23|1 1,0,0,0,0,0,0,0,0,0,0,0,0,0,0,1,
scooby_state_42e101|4|2 1,0,0,0,0,0,0,0,0,0,0,0,0,0,0,1,
scooby_state_42e085|2|2 1,0,0,0,0,0,0,0,0,0,0,0,0,0,0,1,
scooby_state_42e003|0|0 1,0,0,0,0,0,0,0,0,0,0,0,0,0,0,1,
scooby_state_42dfe0|63|0 1,0,0,0,0,0,0,0,0,0,0,0,0,0,0,1,
scooby_state_42e1c2|7|2 1,0,0,0,0,0,0,0,0,0,0,0,0,0,0,1,
scooby_state_411443|17|1 1,0,0,0,0,0,0,0,0,0,0,0,0,0,0,1,
scooby_state_4157f0|31|0 1,0,0,0,0,0,0,0,0,0,0,0,0,0,0,1,
scooby_state_40f5d0|23|0 1,0,0,0,0,0,0,0,0,0,0,0,0,0,0,1,
scooby_state_40ddc5|55|1 1,0,0,0,0,0,0,0,0,0,0,0,0,0,0,1,
scooby_state_42fbf1|47|-6 1,0,0,0,0,0,0,0,0,0,0,0,0,0,0,1,
scooby_state_4110af|37|3 1,0,0,0,0,0,0,0,0,0,0,0,0,0,0,1,
scooby_state_42dba5|46|15 1,0,0,0,0,0,0,0,0,0,0,0,0,0,0,1,
scooby_state_4110af|47|3 1,0,0,0,0,0,0,0,0,0,0,0,0,0,0,1,
scooby_state_42fb82|46|1 1,0,0,0,0,0,0,0,0,0,0,0,0,0,0,1,
scooby_state_42e6c0|27|1 1,0,0,0,0,0,0,0,0,0,0,0,0,0,0,1,
scooby_state_415882|34|1 1,0,0,0,0,0,0,0,0,0,0,0,0,0,0,1,
scooby_state_4158c3|35|1 1,0,0,0,0,0,0,0,0,0,0,0,0,0,0,1,
scooby_state_410822|9|0 1,0,0,0,0,0,0,0,0,0,0,0,0,0,0,1,
scooby_state_415878|33|2 1,0,0,0,0,0,0,0,0,0,0,0,0,0,0,1,
scooby_state_40d380|14|1 1,0,0,0,0,0,0,0,0,0,0,0,0,0,0,1,
scooby_state_40f61b|19|4 1,0,0,0,0,0,0,0,0,0,0,0,0,0,0,1,
scooby_state_40f600|24|1 1,0,0,0,0,0,0,0,0,0,0,0,0,0,0,1,
scooby_state_410e83|58|1 1,0,0,0,0,0,0,0,0,0,0,0,0,0,0,1,
scooby_state_40f7b7|18|3 1,0,0,0,0,0,0,0,0,0,0,0,0,0,0,1,
scooby_state_415930|36|0 1,0,0,0,0,0,0,0,0,0,0,0,0,0,0,1,
scooby_state_42fc82|50|1 1,0,0,0,0,0,0,0,0,0,0,0,0,0,0,1,
scooby_state_415940|37|0 1,0,0,0,0,0,0,0,0,0,0,0,0,0,0,1,
scooby_state_431785|30|1 1,0,0,0,0,0,0,0,0,0,0,0,0,0,0,1,
scooby_state_42d642|25|1 1,0,0,0,0,0,0,0,0,0,0,0,0,0,0,1,
scooby_state_42d6c8|27|2 1,0,0,0,0,0,0,0,0,0,0,0,0,0,0,1,
scooby_state_42d9b5|25|0 0,0,0,0,0,0,0,0,0,1,0,0,0,0,0,1,
scooby_state_411041|1|1 1,0,0,0,0,0,0,0,0,0,0,0,0,0,0,1,
scooby_state_4110c3|3|0 0,1,0,0,0,0,0,0,0,0,0,0,0,0,0,1,
scooby_state_4108c2|35|1 1,0,0,0,0,0,0,0,0,0,0,0,0,0,0,1,
scooby_state_4108b2|34|0 1,0,0,0,0,0,0,0,0,0,0,0,0,0,0,1,
scooby_state_4108e7|14|0 1,0,0,0,0,0,0,0,0,0,0,0,0,0,0,1,
scooby_state_410842|33|1 1,0,0,0,0,0,0,0,0,0,0,0,0,0,0,1,
scooby_state_42d620|24|0 1,0,0,0,0,0,0,0,0,0,0,0,0,0,0,1,
scooby_state_42d9c3|39|1 1,0,0,0,0,0,0,0,0,0,0,0,0,0,0,1,
scooby_state_40d300|12|0 1,0,0,0,0,0,0,0,0,0,0,0,0,0,0,1,
scooby_state_42d6b9|26|-20 1,0,0,0,0,0,0,0,0,0,0,0,0,0,0,1,
scooby_state_410d6b|23|-7 1,0,0,0,0,0,0,0,0,0,0,0,0,0,0,1,
scooby_state_42fc40|49|1 0,0,0,0,0,0,0,0,0,0,1,0,0,0,0,1,
scooby_state_42d9b5|38|11 1,0,0,0,0,0,0,0,0,0,0,0,0,0,0,1,
scooby_state_42d70c|11|-2 1,0,0,0,0,0,0,0,0,0,0,0,0,0,0,1,
scooby_state_40ddbf|29|0 1,0,0,0,0,0,0,0,0,0,0,0,0,0,0,1,
scooby_state_42e5a6|22|18 1,0,0,0,0,0,0,0,0,0,0,0,0,0,0,1,
scooby_state_433050|1|0 0,0,0,0,0,0,0,0,0,0,1,0,0,0,0,1,
scooby_state_40ddbf|54|0 1,0,0,0,0,0,0,0,0,0,0,0,0,0,0,1,
scooby_state_40f640|25|0 1,0,0,0,0,0,0,0,0,0,0,0,0,0,0,1,
scooby_state_410e46|57|1 1,0,0,0,0,0,0,0,0,0,0,0,0,0,0,1,
scooby_state_41082d|23|0 1,0,0,0,0,0,0,0,0,0,0,0,0,0,0,1,
scooby_state_433110|4|2 1,0,0,0,0,0,0,0,0,0,0,0,0,0,0,1,
scooby_state_433106|13|-6 0,0,0,0,0,0,0,0,0,0,1,0,0,0,0,1,
scooby_state_42fd70|53|2 1,0,0,0,0,0,0,0,0,0,0,0,0,0,0,1,
scooby_state_433091|2|1 1,0,0,0,0,0,0,0,0,0,0,0,0,0,0,1,
scooby_state_42fcc3|51|-7 1,0,0,0,0,0,0,0,0,0,0,0,0,0,0,1,
scooby_state_40de00|56|0 1,0,0,0,0,0,0,0,0,0,0,0,0,0,0,1,
scooby_state_40f623|18|-1 1,0,0,0,0,0,0,0,0,0,0,0,0,0,0,1,
scooby_state_411420|16|-10 1,0,0,0,0,0,0,0,0,0,0,0,0,0,0,1,
scooby_state_40f803|32|1 1,0,0,0,0,0,0,0,0,0,0,0,0,0,0,1,
scooby_state_4110af|61|3 1,0,0,0,0,0,0,0,0,0,0,0,0,0,0,1,
scooby_state_40f7c0|31|0 1,0,0,0,0,0,0,0,0,0,0,0,0,0,0,1,
scooby_state_40f7e0|17|-1 0,1,0,0,0,0,0,0,0,0,0,0,0,0,0,1,
scooby_state_410822|32|-3 1,0,0,0,0,0,0,0,0,0,0,0,0,0,0,1,
scooby_state_410d6b|31|8 1,0,0,0,0,0,0,0,0,0,0,0,0,0,0,1,
scooby_state_42e6a1|26|3 0,1,0,0,0,0,0,0,0,0,0,0,0,0,0,1,
scooby_state_40f649|16|0 1,0,0,0,0,0,0,0,0,0,0,0,0,0,0,1,
scooby_state_40d243|9|1 1,0,0,0,0,0,0,0,0,0,0,0,0,0,0,1,
scooby_state_40f7ac|16|-2 1,0,0,0,0,0,0,0,0,0,0,0,0,0,0,1,
scooby_state_40fa70|18|3 0,0,0,0,0,0,0,0,0,0,1,0,0,0,0,1,
scooby_state_42d705|28|-11 1,0,0,0,0,0,0,0,0,0,0,0,0,0,0,1,
scooby_state_4110af|18|-1 1,0,0,0,0,0,0,0,0,0,0,0,0,0,0,1,
scooby_state_42fe9a|58|8 1,0,0,0,0,0,0,0,0,0,0,0,0,0,0,1,
scooby_state_40d201|8|1 1,0,0,0,0,0,0,0,0,0,0,0,0,0,0,1,
scooby_state_41082d|36|0 1,0,0,0,0,0,0,0,0,0,0,0,0,0,0,1,
scooby_state_410d60|53|0 0,1,0,0,0,0,0,0,0,0,0,0,0,0,0,1,
scooby_state_411683|26|1 1,0,0,0,0,0,0,0,0,0,0,0,0,0,0,1,
scooby_state_40f7e5|19|2 1,0,0,0,0,0,0,0,0,0,0,0,0,0,0,1,
scooby_state_4110af|24|0 1,0,0,0,0,0,0,0,0,0,0,0,0,0,0,1,
scooby_state_40f730|17|-2 1,0,0,0,0,0,0,0,0,0,0,0,0,0,0,1,
scooby_state_40f5d9|16|0 1,0,0,0,0,0,0,0,0,0,0,0,0,0,0,1,
scooby_state_40fa78|19|1 1,0,0,0,0,0,0,0,0,0,0,0,0,0,0,1,
scooby_state_411030|0|-18 1,0,0,0,0,0,0,0,0,0,0,0,0,0,0,1,
scooby_state_411601|24|1 1,0,0,0,0,0,0,0,0,0,0,0,0,0,0,1,
scooby_state_42d777|29|1 1,0,0,0,0,0,0,0,0,0,0,0,0,0,0,1,
scooby_state_42db1c|44|15 1,0,0,0,0,0,0,0,0,0,0,0,0,0,0,1,
scooby_state_42d7d3|31|-13 1,0,0,0,0,0,0,0,0,0,0,0,0,0,0,1,
scooby_state_411082|2|1 1,0,0,0,0,0,0,0,0,0,0,0,0,0,0,1,
scooby_state_40d368|13|1 1,0,0,0,0,0,0,0,0,0,0,0,0,0,0,1,
scooby_state_4317c3|31|1 0,0,0,0,0,0,0,1,0,0,0,0,0,0,0,1,
scooby_state_40f786|19|4 1,0,0,0,0,0,0,0,0,0,0,0,0,0,0,1,
scooby_state_40f78e|18|-1 1,0,0,0,0,0,0,0,0,0,0,0,0,0,0,1,
scooby_state_40d1c0|7|-7 0,0,0,0,0,0,0,0,0,1,0,0,0,0,0,1,
scooby_state_40d2c0|11|2 0,0,0,0,0,0,0,0,0,1,0,0,0,0,0,1,
scooby_state_40f681|26|-3 1,0,0,0,0,0,0,0,0,0,0,0,0,0,0,1,
scooby_state_4115f0|23|0 1,0,0,0,0,0,0,0,0,0,0,0,0,0,0,1,
scooby_state_40d280|10|-1 1,0,0,0,0,0,0,0,0,0,0,0,0,0,0,1,
scooby_state_411641|25|1 1,0,0,0,0,0,0,0,0,0,0,0,0,0,0,1,
scooby_state_411483|18|1 1,0,0,0,0,0,0,0,0,0,0,0,0,0,0,1,
scooby_state_410e30|56|0 1,0,0,0,0,0,0,0,0,0,0,0,0,0,0,1,
scooby_state_410ec0|59|1 0,0,0,0,0,0,0,0,0,1,0,0,0,0,0,1,
scooby_state_4158a0|22|-3 1,0,0,0,0,0,0,0,0,0,0,0,0,0,0,1,
scooby_state_40de40|57|1 1,0,0,0,0,0,0,0,0,0,0,0,0,0,0,1,
scooby_state_431720|28|0 1,0,0,0,0,0,0,0,0,0,0,0,0,0,0,1,
scooby_state_42e141|5|-22 0,0,0,0,0,0,0,0,0,0,1,0,0,0,0,1,
scooby_state_40f786|30|0 0,1,0,0,0,0,0,0,0,0,0,0,0,0,0,1,
scooby_state_42d66e|13|0 1,0,0,0,0,0,0,0,0,0,0,0,0,0,0,1,
scooby_state_410d80|54|1 1,0,0,0,0,0,0,0,0,0,0,0,0,0,0,1,
scooby_state_42dbb4|12|1 1,0,0,0,0,0,0,0,0,0,0,0,0,0,0,1,

scooby_action_0_deg_dist 0,323041,0,0,0,0,0,0,0,0,0,0,0,0,0,0,
scooby_action_-6_deg_dist 0,1198,0,0,0,0,0,0,0,0,0,0,0,0,0,0,
scooby_action_4_deg_dist 0,1515,0,0,0,0,0,0,0,0,0,0,0,0,0,0,
scooby_action_1_deg_dist 0,1447676,331332,0,264211,0,2838044,0,0,0,0,0,0,0,0,0,
scooby_action_30_deg_dist 0,451855,0,0,0,0,0,0,0,0,0,0,0,0,0,0,
scooby_action_5_deg_dist 0,1546,0,0,0,0,0,0,0,0,0,0,0,0,0,0,
scooby_action_10_deg_dist 0,1488,0,0,0,0,0,0,0,0,0,0,0,0,0,0,
scooby_action_3_deg_dist 0,1573,0,0,0,0,0,0,0,0,0,0,0,0,0,0,
scooby_action_32_deg_dist 0,2714597,1495434,0,461,0,4249,0,0,0,0,0,0,0,0,0,
scooby_action_11_deg_dist 0,1536,28,0,0,0,0,0,0,0,0,0,0,0,0,0,
scooby_action_12_deg_dist 0,1557,0,0,0,0,0,0,0,0,0,0,0,0,0,0,
scooby_action_22_deg_dist 0,1517,0,0,0,0,0,0,0,0,0,0,0,0,0,0,
scooby_action_23_deg_dist 0,1431,0,0,0,0,0,0,0,0,0,0,0,0,0,0,
scooby_action_-1_deg_dist 0,147031,0,0,0,0,0,0,0,0,0,0,0,0,0,0,
scooby_action_-3_deg_dist 0,1201,0,0,0,0,0,0,0,0,0,0,0,0,0,0,

scooby_track_called 10032521
scooby_track_same_address 434882
scooby_track_evict 9597383

scooby_reward_demand_called 10032521
scooby_reward_demand_pt_not_found 2971142
scooby_reward_demand_pt_found 7061379
scooby_reward_demand_pt_found_total 7061379
scooby_reward_demand_has_reward 0
scooby_reward_train_called 349579
scooby_reward_assign_reward_called 9597580
scooby_reward_no_pref 322984
scooby_reward_incorrect 26595
scooby_reward_correct_untimely 5861494
scooby_reward_correct_timely 1199885
scooby_reward_out_of_bounds 2186622
scooby_reward_tracker_hit 0

scooby_reward_none_low_bw 322984
scooby_reward_none_high_bw 0
scooby_reward_incorrect_low_bw 26595
scooby_reward_incorrect_high_bw 0
scooby_reward_correct_untimely_low_bw 5861494
scooby_reward_correct_untimely_high_bw 0
scooby_reward_correct_timely_low_bw 1199885
scooby_reward_correct_timely_high_bw 0
scooby_reward_out_of_bounds_low_bw 2186622
scooby_reward_out_of_bounds_high_bw 0
scooby_reward_tracker_hit_low_bw 0
scooby_reward_tracker_hit_high_bw 0

scooby_reward_1 0,15673,4036945,342707,52595,0,
scooby_reward_3 0,1159,325,64,24,0,
scooby_reward_4 0,1113,294,80,28,0,
scooby_reward_5 0,1129,223,151,42,0,
scooby_reward_10 0,1049,10,354,74,0,
scooby_reward_11 0,1099,43,315,68,0,
scooby_reward_12 0,1093,26,329,82,0,
scooby_reward_22 0,849,0,250,418,0,
scooby_reward_23 0,742,0,265,424,0,
scooby_reward_30 0,562,146440,78018,226762,0,
scooby_reward_32 0,26,1532085,776851,1905779,0,
scooby_reward_-1 0,773,145103,501,47,0,
scooby_reward_-3 0,704,0,0,91,0,
scooby_reward_-6 0,624,0,0,188,0,
scooby_reward_0 322984,0,0,0,0,0,

scooby_train_called 9597382
scooby_train_compute_reward 349579

scooby_register_fill_called 4186120
scooby_register_fill_set 1213036
scooby_register_fill_set_total 1213036

scooby_register_prefetch_hit_called 11515233
scooby_register_prefetch_hit_set 2841899
scooby_register_prefetch_hit_set_total 2841899

scooby_pref_issue_scooby 21335010

learning_engine_featurewise.action.called 10032521
learning_engine_featurewise.action.explore 18155
learning_engine_featurewise.action.exploit 10014366
learning_engine_featurewise.action.fallback 0
learning_engine_featurewise.action.dyn_fallback_saved_bw 0
learning_engine_featurewise.action.dyn_fallback_saved_bw_acc 1238410
learning_engine_featurewise.action.index_1_explored 1259
learning_engine_featurewise.action.index_1_exploited 4880004
learning_engine_featurewise.action.index_3_explored 1211
learning_engine_featurewise.action.index_3_exploited 362
learning_engine_featurewise.action.index_4_explored 1215
learning_engine_featurewise.action.index_4_exploited 300
learning_engine_featurewise.action.index_5_explored 1178
learning_engine_featurewise.action.index_5_exploited 368
learning_engine_featurewise.action.index_10_explored 1243
learning_engine_featurewise.action.index_10_exploited 245
learning_engine_featurewise.action.index_11_explored 1211
learning_engine_featurewise.action.index_11_exploited 353
learning_engine_featurewise.action.index_12_explored 1253
learning_engine_featurewise.action.index_12_exploited 304
learning_engine_featurewise.action.index_22_explored 1215
learning_engine_featurewise.action.index_22_exploited 302
learning_engine_featurewise.action.index_23_explored 1186
learning_engine_featurewise.action.index_23_exploited 245
learning_engine_featurewise.action.index_30_explored 1184
learning_engine_featurewise.action.index_30_exploited 450671
learning_engine_featurewise.action.index_32_explored 1156
learning_engine_featurewise.action.index_32_exploited 4213585
learning_engine_featurewise.action.index_-1_explored 1217
learning_engine_featurewise.action.index_-1_exploited 145814
learning_engine_featurewise.action.index_-3_explored 1197
learning_engine_featurewise.action.index_-3_exploited 4
learning_engine_featurewise.action.index_-6_explored 1198
learning_engine_featurewise.action.index_-6_exploited 0
learning_engine_featurewise.action.index_0_explored 1232
learning_engine_featurewise.action.index_0_exploited 321809
learning_engine_featurewise.learn.called 9597382
learning_engine_featurewise.learn.su_skip_PC 0
learning_engine_featurewise.learn.su_skip_PC_Delta 0

learning_engine_featurewise.q_value_histogram.bucket_0 0
learning_engine_featurewise.q_value_histogram.bucket_1 0
learning_engine_featurewise.q_value_histogram.bucket_2 0
learning_engine_featurewise.q_value_histogram.bucket_3 0
learning_engine_featurewise.q_value_histogram.bucket_4 18961
learning_engine_featurewise.q_value_histogram.bucket_5 2374488
learning_engine_featurewise.q_value_histogram.bucket_6 7620917
learning_engine_featurewise.q_value_histogram.bucket_7 0

learning_engine_featurewise.consensus.total 10014366
learning_engine_featurewise.consensus.feature_align_PC 9589151
learning_engine_featurewise.consensus.feature_align_PC_ratio 0.96
learning_engine_featurewise.consensus.feature_align_PC_Delta 9394007
learning_engine_featurewise.consensus.feature_align_PC_Delta_ratio 0.94
learning_engine_featurewise.consensus.feature_align_all 8968792
learning_engine_featurewise.consensus.feature_align_all_ratio 0.90

learning_engine_featurewise.feature_PC_min_weight 1000000.00000000
learning_engine_featurewise.feature_PC_max_weight 0.00000000
learning_engine_featurewise.feature_PC_Delta_min_weight 1000000.00000000
learning_engine_featurewise.feature_PC_Delta_max_weight 0.00000000
unique_pcs 189
unique_pages 95964
unique_trigger_pcs 77
total_bitmaps_seen 0
unique_bitmaps_seen 0

scooby_bw_epochs 11222726
scooby_bw_level_0 4968597
scooby_bw_level_1 0
scooby_bw_level_2 0
scooby_bw_level_3 6254129

scooby_ipc_epochs 0
scooby_ipc_level_0 0
scooby_ipc_level_1 0
scooby_ipc_level_2 0
scooby_ipc_level_3 0

scooby_cache_acc_epochs 2706194
scooby_cache_acc_level_0 422470
scooby_cache_acc_level_1 235949
scooby_cache_acc_level_2 238076
scooby_cache_acc_level_3 217139
scooby_cache_acc_level_4 161609
scooby_cache_acc_level_5 246596
scooby_cache_acc_level_6 187899
scooby_cache_acc_level_7 164535
scooby_cache_acc_level_8 149499
scooby_cache_acc_level_9 682422

Channel_0_RQ_row_buffer_hit 4402548
Channel_0_RQ_row_buffer_miss 5687714
Channel_0_WQ_row_buffer_hit 976474
Channel_0_WQ_row_buffer_miss 2053634
Channel_0_WQ_full 0
Channel_0_dbus_congested 13342716

avg_congested_cycle 200

DRAM_bw_pochs 11222726
DRAM_bw_level_0 4968597
DRAM_bw_level_1 0
DRAM_bw_level_2 0
DRAM_bw_level_3 6254129
