*************************************************
   ChampSim Multicore Out-of-Order Simulator
   Last compiled: Dec 11 2024 17:59:53
*************************************************
parsing config file: /home/functionmain/桌面/Pythia/config/bingo.ini

trace_0 /home/functionmain/桌面/Pythia/traces/433.milc-127B.champsimtrace.xz
adding L2C_PREFETCHER: Bingo
Initialize SHIP state
warmup_instructions 100000000
simulation_instructions 500000000
champsim_seed 220
measure_ipc 0
measure_ipc_epoch 1000
measure_dram_bw 1
measure_dram_bw_epoch 256
measure_cache_acc 1
measure_cache_acc_epoch 1024
l1d_perfect 0
l2c_perfect 0
llc_perfect 0
l1d_semi_perfect 0
l2c_semi_perfect 0
llc_semi_perfect 0
semi_perfect_cache_page_buffer_size 64

num_cpus 1
cpu_freq 4000
dram_io_freq 4800
page_size 4096
block_size 64
max_read_per_cycle 8
max_fill_per_cycle 1
dram_channels 1
log2_dram_channels 0
dram_ranks 1
dram_banks 8
dram_rows 65536
dram_columns 128
dram_row_size 8
dram_size 4096
dram_pages 1048576

fetch_width 6
decode_width 6
exec_width 4
lq_width 2
sq_width 2
retire_width 4
scheduler_size 128
branch_mispredict_penalty 20
rob_size 256
lq_size 72
sq_size 56
num_instr_destinations_sparc 4
num_instr_destinations 2
num_instr_sources 4

itlb_set 16
itlb_way 8
itlb_rq_size 16
itlb_wq_size 16
itlb_pq_size 0
itlb_mshr_size 8
itlb_latency 1

dtlb_set 16
dtlb_way 4
dtlb_rq_size 16
dtlb_wq_size 16
dtlb_pq_size 0
dtlb_mshr_size 8
dtlb_latency 1

stlb_set 128
stlb_way 12
stlb_rq_size 32
stlb_wq_size 32
stlb_pq_size 0
stlb_mshr_size 16
stlb_latency 8

l1i_size 32
l1i_set 64
l1i_way 8
l1i_rq_size 64
l1i_wq_size 64
l1i_pq_size 8
l1i_mshr_size 8
l1i_latency 1

l1d_size 32
l1d_set 64
l1d_way 8
l1d_rq_size 64
l1d_wq_size 64
l1d_pq_size 8
l1d_mshr_size 16
l1d_latency 4

l2c_size 256
l2c_set 512
l2c_way 8
l2c_rq_size 32
l2c_wq_size 32
l2c_pq_size 32
l2c_mshr_size 32
l2c_latency 10

llc_size 2048
llc_set 2048
llc_way 16
llc_rq_size 32
llc_wq_size 32
llc_pq_size 32
llc_mshr_size 64
llc_latency 20

dram_channel_width 8
dram_wq_size 64
dram_rq_size 64
tRP 15
tRCD 15
tCAS 12.5
dram_dbus_turn_around_time 30
dram_write_high_wm 56
dram_write_low_wm 48
min_dram_writes_per_switch 16
dram_mtps 4800
dram_dbus_return_time 6

bingo_region_size 2048
bingo_pattern_len 32
bingo_pc_width 16
bingo_min_addr_width 5
bingo_max_addr_width 16
bingo_ft_size 64
bingo_at_size 128
bingo_pht_size 4096
bingo_pht_ways 16
bingo_pf_streamer_size 128
bingo_debug_level 0
bingo_l1d_thresh 1.01
bingo_l2c_thresh 0.8
bingo_llc_thresh 0.05
bingo_pc_address_fill_level L2


Heartbeat CPU  0 instructions:    1000001 cycles:     385073 heartbeat IPC: 2.59691 cumulative IPC: 2.59691 (Simulation time: 0 hr 0 min 2 sec) 
Heartbeat CPU  0 instructions:    2000000 cycles:     770100 heartbeat IPC: 2.59722 cumulative IPC: 2.59707 (Simulation time: 0 hr 0 min 3 sec) 
Heartbeat CPU  0 instructions:    3000000 cycles:    1155105 heartbeat IPC: 2.59737 cumulative IPC: 2.59717 (Simulation time: 0 hr 0 min 5 sec) 
Heartbeat CPU  0 instructions:    4000000 cycles:    1540129 heartbeat IPC: 2.59724 cumulative IPC: 2.59719 (Simulation time: 0 hr 0 min 7 sec) 
Heartbeat CPU  0 instructions:    5000001 cycles:    1925178 heartbeat IPC: 2.59707 cumulative IPC: 2.59716 (Simulation time: 0 hr 0 min 8 sec) 
Heartbeat CPU  0 instructions:    6000000 cycles:    2310196 heartbeat IPC: 2.59728 cumulative IPC: 2.59718 (Simulation time: 0 hr 0 min 10 sec) 
Heartbeat CPU  0 instructions:    7000002 cycles:    2695197 heartbeat IPC: 2.59740 cumulative IPC: 2.59721 (Simulation time: 0 hr 0 min 12 sec) 
Heartbeat CPU  0 instructions:    8000000 cycles:    3080231 heartbeat IPC: 2.59717 cumulative IPC: 2.59721 (Simulation time: 0 hr 0 min 14 sec) 
Heartbeat CPU  0 instructions:    9000003 cycles:    3465269 heartbeat IPC: 2.59715 cumulative IPC: 2.59720 (Simulation time: 0 hr 0 min 15 sec) 
Heartbeat CPU  0 instructions:   10000000 cycles:    3850300 heartbeat IPC: 2.59719 cumulative IPC: 2.59720 (Simulation time: 0 hr 0 min 17 sec) 
Heartbeat CPU  0 instructions:   11000002 cycles:    4235305 heartbeat IPC: 2.59737 cumulative IPC: 2.59722 (Simulation time: 0 hr 0 min 19 sec) 
Heartbeat CPU  0 instructions:   12000000 cycles:    4620319 heartbeat IPC: 2.59730 cumulative IPC: 2.59722 (Simulation time: 0 hr 0 min 20 sec) 
Heartbeat CPU  0 instructions:   13000003 cycles:    5005372 heartbeat IPC: 2.59705 cumulative IPC: 2.59721 (Simulation time: 0 hr 0 min 22 sec) 
Heartbeat CPU  0 instructions:   14000000 cycles:    5390389 heartbeat IPC: 2.59728 cumulative IPC: 2.59722 (Simulation time: 0 hr 0 min 24 sec) 
Heartbeat CPU  0 instructions:   15000003 cycles:    5775407 heartbeat IPC: 2.59729 cumulative IPC: 2.59722 (Simulation time: 0 hr 0 min 25 sec) 
Heartbeat CPU  0 instructions:   16000000 cycles:    6160425 heartbeat IPC: 2.59727 cumulative IPC: 2.59722 (Simulation time: 0 hr 0 min 27 sec) 
Heartbeat CPU  0 instructions:   17000001 cycles:    6545469 heartbeat IPC: 2.59711 cumulative IPC: 2.59722 (Simulation time: 0 hr 0 min 29 sec) 
Heartbeat CPU  0 instructions:   18000000 cycles:    6930506 heartbeat IPC: 2.59715 cumulative IPC: 2.59721 (Simulation time: 0 hr 0 min 31 sec) 
Heartbeat CPU  0 instructions:   19000003 cycles:    7315504 heartbeat IPC: 2.59742 cumulative IPC: 2.59722 (Simulation time: 0 hr 0 min 32 sec) 
Heartbeat CPU  0 instructions:   20000000 cycles:    7803623 heartbeat IPC: 2.04867 cumulative IPC: 2.56291 (Simulation time: 0 hr 0 min 34 sec) 
Heartbeat CPU  0 instructions:   21000001 cycles:    8310400 heartbeat IPC: 1.97326 cumulative IPC: 2.52695 (Simulation time: 0 hr 0 min 36 sec) 
Heartbeat CPU  0 instructions:   22000001 cycles:    8867174 heartbeat IPC: 1.79606 cumulative IPC: 2.48106 (Simulation time: 0 hr 0 min 38 sec) 
Heartbeat CPU  0 instructions:   23000001 cycles:    9423995 heartbeat IPC: 1.79591 cumulative IPC: 2.44058 (Simulation time: 0 hr 0 min 40 sec) 
Heartbeat CPU  0 instructions:   24000000 cycles:    9972808 heartbeat IPC: 1.82211 cumulative IPC: 2.40654 (Simulation time: 0 hr 0 min 42 sec) 
Heartbeat CPU  0 instructions:   25000002 cycles:   10417109 heartbeat IPC: 2.25073 cumulative IPC: 2.39990 (Simulation time: 0 hr 0 min 43 sec) 
Heartbeat CPU  0 instructions:   26000002 cycles:   10861384 heartbeat IPC: 2.25086 cumulative IPC: 2.39380 (Simulation time: 0 hr 0 min 45 sec) 
Heartbeat CPU  0 instructions:   27000002 cycles:   11305658 heartbeat IPC: 2.25086 cumulative IPC: 2.38819 (Simulation time: 0 hr 0 min 47 sec) 
Heartbeat CPU  0 instructions:   28000000 cycles:   11749932 heartbeat IPC: 2.25086 cumulative IPC: 2.38299 (Simulation time: 0 hr 0 min 49 sec) 
Heartbeat CPU  0 instructions:   29000000 cycles:   12194242 heartbeat IPC: 2.25068 cumulative IPC: 2.37817 (Simulation time: 0 hr 0 min 51 sec) 
Heartbeat CPU  0 instructions:   30000000 cycles:   12638549 heartbeat IPC: 2.25070 cumulative IPC: 2.37369 (Simulation time: 0 hr 0 min 52 sec) 
Heartbeat CPU  0 instructions:   31000000 cycles:   13082823 heartbeat IPC: 2.25086 cumulative IPC: 2.36952 (Simulation time: 0 hr 0 min 54 sec) 
Heartbeat CPU  0 instructions:   32000000 cycles:   13527097 heartbeat IPC: 2.25086 cumulative IPC: 2.36562 (Simulation time: 0 hr 0 min 56 sec) 
Heartbeat CPU  0 instructions:   33000000 cycles:   13971399 heartbeat IPC: 2.25072 cumulative IPC: 2.36197 (Simulation time: 0 hr 0 min 58 sec) 
Heartbeat CPU  0 instructions:   34000000 cycles:   14415673 heartbeat IPC: 2.25086 cumulative IPC: 2.35854 (Simulation time: 0 hr 1 min 0 sec) 
Heartbeat CPU  0 instructions:   35000000 cycles:   14859947 heartbeat IPC: 2.25086 cumulative IPC: 2.35532 (Simulation time: 0 hr 1 min 1 sec) 
Heartbeat CPU  0 instructions:   36000000 cycles:   15304228 heartbeat IPC: 2.25083 cumulative IPC: 2.35229 (Simulation time: 0 hr 1 min 3 sec) 
Heartbeat CPU  0 instructions:   37000001 cycles:   15748546 heartbeat IPC: 2.25064 cumulative IPC: 2.34942 (Simulation time: 0 hr 1 min 5 sec) 
Heartbeat CPU  0 instructions:   38000001 cycles:   16192820 heartbeat IPC: 2.25086 cumulative IPC: 2.34672 (Simulation time: 0 hr 1 min 7 sec) 
Heartbeat CPU  0 instructions:   39000001 cycles:   16637094 heartbeat IPC: 2.25086 cumulative IPC: 2.34416 (Simulation time: 0 hr 1 min 9 sec) 
Heartbeat CPU  0 instructions:   40000000 cycles:   17081371 heartbeat IPC: 2.25085 cumulative IPC: 2.34173 (Simulation time: 0 hr 1 min 10 sec) 
Heartbeat CPU  0 instructions:   41000000 cycles:   17525682 heartbeat IPC: 2.25068 cumulative IPC: 2.33942 (Simulation time: 0 hr 1 min 12 sec) 
Heartbeat CPU  0 instructions:   42000000 cycles:   17969961 heartbeat IPC: 2.25084 cumulative IPC: 2.33723 (Simulation time: 0 hr 1 min 14 sec) 
Heartbeat CPU  0 instructions:   43000000 cycles:   18414248 heartbeat IPC: 2.25080 cumulative IPC: 2.33515 (Simulation time: 0 hr 1 min 16 sec) 
Heartbeat CPU  0 instructions:   44000000 cycles:   18858523 heartbeat IPC: 2.25086 cumulative IPC: 2.33316 (Simulation time: 0 hr 1 min 18 sec) 
Heartbeat CPU  0 instructions:   45000001 cycles:   19302830 heartbeat IPC: 2.25070 cumulative IPC: 2.33126 (Simulation time: 0 hr 1 min 19 sec) 
Heartbeat CPU  0 instructions:   46000001 cycles:   19747104 heartbeat IPC: 2.25086 cumulative IPC: 2.32946 (Simulation time: 0 hr 1 min 21 sec) 
Heartbeat CPU  0 instructions:   47000001 cycles:   20191378 heartbeat IPC: 2.25086 cumulative IPC: 2.32773 (Simulation time: 0 hr 1 min 23 sec) 
Heartbeat CPU  0 instructions:   48000000 cycles:   20635652 heartbeat IPC: 2.25086 cumulative IPC: 2.32607 (Simulation time: 0 hr 1 min 25 sec) 
Heartbeat CPU  0 instructions:   49000002 cycles:   21079976 heartbeat IPC: 2.25061 cumulative IPC: 2.32448 (Simulation time: 0 hr 1 min 27 sec) 
Heartbeat CPU  0 instructions:   50000001 cycles:   21524282 heartbeat IPC: 2.25070 cumulative IPC: 2.32296 (Simulation time: 0 hr 1 min 28 sec) 
Heartbeat CPU  0 instructions:   51000001 cycles:   21968556 heartbeat IPC: 2.25086 cumulative IPC: 2.32150 (Simulation time: 0 hr 1 min 30 sec) 
Heartbeat CPU  0 instructions:   52000000 cycles:   22412830 heartbeat IPC: 2.25086 cumulative IPC: 2.32010 (Simulation time: 0 hr 1 min 32 sec) 
Heartbeat CPU  0 instructions:   53000002 cycles:   22857132 heartbeat IPC: 2.25073 cumulative IPC: 2.31875 (Simulation time: 0 hr 1 min 34 sec) 
Heartbeat CPU  0 instructions:   54000002 cycles:   23301406 heartbeat IPC: 2.25086 cumulative IPC: 2.31746 (Simulation time: 0 hr 1 min 36 sec) 
Heartbeat CPU  0 instructions:   55000002 cycles:   23745680 heartbeat IPC: 2.25086 cumulative IPC: 2.31621 (Simulation time: 0 hr 1 min 37 sec) 
Heartbeat CPU  0 instructions:   56000000 cycles:   24189956 heartbeat IPC: 2.25085 cumulative IPC: 2.31501 (Simulation time: 0 hr 1 min 39 sec) 
Heartbeat CPU  0 instructions:   57000000 cycles:   24634280 heartbeat IPC: 2.25061 cumulative IPC: 2.31385 (Simulation time: 0 hr 1 min 41 sec) 
Heartbeat CPU  0 instructions:   58000000 cycles:   25078554 heartbeat IPC: 2.25086 cumulative IPC: 2.31273 (Simulation time: 0 hr 1 min 43 sec) 
Heartbeat CPU  0 instructions:   59000003 cycles:   25523030 heartbeat IPC: 2.24985 cumulative IPC: 2.31164 (Simulation time: 0 hr 1 min 45 sec) 
Heartbeat CPU  0 instructions:   60000000 cycles:   25967725 heartbeat IPC: 2.24873 cumulative IPC: 2.31056 (Simulation time: 0 hr 1 min 46 sec) 
Heartbeat CPU  0 instructions:   61000000 cycles:   26412459 heartbeat IPC: 2.24854 cumulative IPC: 2.30952 (Simulation time: 0 hr 1 min 48 sec) 
Heartbeat CPU  0 instructions:   62000002 cycles:   26857173 heartbeat IPC: 2.24864 cumulative IPC: 2.30851 (Simulation time: 0 hr 1 min 50 sec) 
Heartbeat CPU  0 instructions:   63000003 cycles:   27301856 heartbeat IPC: 2.24880 cumulative IPC: 2.30754 (Simulation time: 0 hr 1 min 52 sec) 
Heartbeat CPU  0 instructions:   64000000 cycles:   27746576 heartbeat IPC: 2.24860 cumulative IPC: 2.30659 (Simulation time: 0 hr 1 min 54 sec) 
Heartbeat CPU  0 instructions:   65000003 cycles:   28191305 heartbeat IPC: 2.24857 cumulative IPC: 2.30568 (Simulation time: 0 hr 1 min 55 sec) 
Heartbeat CPU  0 instructions:   66000000 cycles:   28635994 heartbeat IPC: 2.24876 cumulative IPC: 2.30479 (Simulation time: 0 hr 1 min 57 sec) 
Heartbeat CPU  0 instructions:   67000001 cycles:   29080710 heartbeat IPC: 2.24863 cumulative IPC: 2.30393 (Simulation time: 0 hr 1 min 59 sec) 
Heartbeat CPU  0 instructions:   68000000 cycles:   29525378 heartbeat IPC: 2.24887 cumulative IPC: 2.30310 (Simulation time: 0 hr 2 min 1 sec) 
Heartbeat CPU  0 instructions:   69000003 cycles:   29970110 heartbeat IPC: 2.24855 cumulative IPC: 2.30229 (Simulation time: 0 hr 2 min 3 sec) 
Heartbeat CPU  0 instructions:   70000003 cycles:   30414800 heartbeat IPC: 2.24876 cumulative IPC: 2.30151 (Simulation time: 0 hr 2 min 4 sec) 
Heartbeat CPU  0 instructions:   71000003 cycles:   30859503 heartbeat IPC: 2.24869 cumulative IPC: 2.30075 (Simulation time: 0 hr 2 min 6 sec) 
Heartbeat CPU  0 instructions:   72000000 cycles:   31304210 heartbeat IPC: 2.24866 cumulative IPC: 2.30001 (Simulation time: 0 hr 2 min 8 sec) 
Heartbeat CPU  0 instructions:   73000001 cycles:   31748940 heartbeat IPC: 2.24856 cumulative IPC: 2.29929 (Simulation time: 0 hr 2 min 10 sec) 
Heartbeat CPU  0 instructions:   74000002 cycles:   32193644 heartbeat IPC: 2.24869 cumulative IPC: 2.29859 (Simulation time: 0 hr 2 min 12 sec) 
Heartbeat CPU  0 instructions:   75000003 cycles:   32638315 heartbeat IPC: 2.24886 cumulative IPC: 2.29791 (Simulation time: 0 hr 2 min 13 sec) 
Heartbeat CPU  0 instructions:   76000000 cycles:   33083021 heartbeat IPC: 2.24867 cumulative IPC: 2.29725 (Simulation time: 0 hr 2 min 15 sec) 
Heartbeat CPU  0 instructions:   77000003 cycles:   33527741 heartbeat IPC: 2.24861 cumulative IPC: 2.29661 (Simulation time: 0 hr 2 min 17 sec) 
Heartbeat CPU  0 instructions:   78000000 cycles:   33972425 heartbeat IPC: 2.24878 cumulative IPC: 2.29598 (Simulation time: 0 hr 2 min 19 sec) 
Heartbeat CPU  0 instructions:   79000001 cycles:   34417155 heartbeat IPC: 2.24856 cumulative IPC: 2.29537 (Simulation time: 0 hr 2 min 21 sec) 
Heartbeat CPU  0 instructions:   80000000 cycles:   34861826 heartbeat IPC: 2.24885 cumulative IPC: 2.29477 (Simulation time: 0 hr 2 min 23 sec) 
Heartbeat CPU  0 instructions:   81000001 cycles:   35306577 heartbeat IPC: 2.24845 cumulative IPC: 2.29419 (Simulation time: 0 hr 2 min 24 sec) 
Heartbeat CPU  0 instructions:   82000002 cycles:   35751279 heartbeat IPC: 2.24870 cumulative IPC: 2.29362 (Simulation time: 0 hr 2 min 26 sec) 
Heartbeat CPU  0 instructions:   83000003 cycles:   36195969 heartbeat IPC: 2.24876 cumulative IPC: 2.29307 (Simulation time: 0 hr 2 min 28 sec) 
Heartbeat CPU  0 instructions:   84000000 cycles:   36640652 heartbeat IPC: 2.24879 cumulative IPC: 2.29254 (Simulation time: 0 hr 2 min 30 sec) 
Heartbeat CPU  0 instructions:   85000003 cycles:   37085405 heartbeat IPC: 2.24845 cumulative IPC: 2.29201 (Simulation time: 0 hr 2 min 32 sec) 
Heartbeat CPU  0 instructions:   86000002 cycles:   37530096 heartbeat IPC: 2.24875 cumulative IPC: 2.29149 (Simulation time: 0 hr 2 min 33 sec) 
Heartbeat CPU  0 instructions:   87000003 cycles:   37974781 heartbeat IPC: 2.24879 cumulative IPC: 2.29099 (Simulation time: 0 hr 2 min 35 sec) 
Heartbeat CPU  0 instructions:   88000000 cycles:   38419486 heartbeat IPC: 2.24867 cumulative IPC: 2.29050 (Simulation time: 0 hr 2 min 37 sec) 
Heartbeat CPU  0 instructions:   89000001 cycles:   38864221 heartbeat IPC: 2.24853 cumulative IPC: 2.29002 (Simulation time: 0 hr 2 min 39 sec) 
Heartbeat CPU  0 instructions:   90000000 cycles:   39308914 heartbeat IPC: 2.24874 cumulative IPC: 2.28956 (Simulation time: 0 hr 2 min 41 sec) 
Heartbeat CPU  0 instructions:   91000001 cycles:   39753626 heartbeat IPC: 2.24865 cumulative IPC: 2.28910 (Simulation time: 0 hr 2 min 42 sec) 
Heartbeat CPU  0 instructions:   92000000 cycles:   40198273 heartbeat IPC: 2.24897 cumulative IPC: 2.28866 (Simulation time: 0 hr 2 min 44 sec) 
Heartbeat CPU  0 instructions:   93000001 cycles:   40643010 heartbeat IPC: 2.24852 cumulative IPC: 2.28822 (Simulation time: 0 hr 2 min 46 sec) 
Heartbeat CPU  0 instructions:   94000003 cycles:   41083523 heartbeat IPC: 2.27009 cumulative IPC: 2.28802 (Simulation time: 0 hr 2 min 48 sec) 
Heartbeat CPU  0 instructions:   95000001 cycles:   41513534 heartbeat IPC: 2.32552 cumulative IPC: 2.28841 (Simulation time: 0 hr 2 min 50 sec) 
Heartbeat CPU  0 instructions:   96000000 cycles:   41943548 heartbeat IPC: 2.32550 cumulative IPC: 2.28879 (Simulation time: 0 hr 2 min 51 sec) 
Heartbeat CPU  0 instructions:   97000001 cycles:   42373579 heartbeat IPC: 2.32542 cumulative IPC: 2.28916 (Simulation time: 0 hr 2 min 53 sec) 
Heartbeat CPU  0 instructions:   98000000 cycles:   42803588 heartbeat IPC: 2.32553 cumulative IPC: 2.28953 (Simulation time: 0 hr 2 min 55 sec) 
Heartbeat CPU  0 instructions:   99000000 cycles:   43233617 heartbeat IPC: 2.32542 cumulative IPC: 2.28988 (Simulation time: 0 hr 2 min 57 sec) 
Heartbeat CPU  0 instructions:  100000000 cycles:   43663625 heartbeat IPC: 2.32554 cumulative IPC: 2.29024 (Simulation time: 0 hr 2 min 59 sec) 

Warmup complete CPU  0 instructions:  100000001 cycles:   43663626 (Simulation time: 0 hr 2 min 59 sec) 

Heartbeat CPU  0 instructions:  101000002 cycles:   45078486 heartbeat IPC: 0.70678 cumulative IPC: 0.70678 (Simulation time: 0 hr 3 min 1 sec) 
Heartbeat CPU  0 instructions:  102000001 cycles:   46732470 heartbeat IPC: 0.60460 cumulative IPC: 0.65171 (Simulation time: 0 hr 3 min 4 sec) 
Heartbeat CPU  0 instructions:  103000002 cycles:   48575489 heartbeat IPC: 0.54259 cumulative IPC: 0.61077 (Simulation time: 0 hr 3 min 7 sec) 
Heartbeat CPU  0 instructions:  104000000 cycles:   50644349 heartbeat IPC: 0.48336 cumulative IPC: 0.57301 (Simulation time: 0 hr 3 min 9 sec) 
Heartbeat CPU  0 instructions:  105000002 cycles:   52675452 heartbeat IPC: 0.49234 cumulative IPC: 0.55483 (Simulation time: 0 hr 3 min 12 sec) 
Heartbeat CPU  0 instructions:  106000001 cycles:   54690197 heartbeat IPC: 0.49634 cumulative IPC: 0.54414 (Simulation time: 0 hr 3 min 14 sec) 
Heartbeat CPU  0 instructions:  107000002 cycles:   56719497 heartbeat IPC: 0.49278 cumulative IPC: 0.53616 (Simulation time: 0 hr 3 min 17 sec) 
Heartbeat CPU  0 instructions:  108000000 cycles:   58767281 heartbeat IPC: 0.48833 cumulative IPC: 0.52967 (Simulation time: 0 hr 3 min 19 sec) 
Heartbeat CPU  0 instructions:  109000000 cycles:   60828877 heartbeat IPC: 0.48506 cumulative IPC: 0.52431 (Simulation time: 0 hr 3 min 21 sec) 
Heartbeat CPU  0 instructions:  110000001 cycles:   62911990 heartbeat IPC: 0.48005 cumulative IPC: 0.51952 (Simulation time: 0 hr 3 min 24 sec) 
Heartbeat CPU  0 instructions:  111000002 cycles:   64971839 heartbeat IPC: 0.48547 cumulative IPC: 0.51623 (Simulation time: 0 hr 3 min 26 sec) 
Heartbeat CPU  0 instructions:  112000000 cycles:   67037779 heartbeat IPC: 0.48404 cumulative IPC: 0.51339 (Simulation time: 0 hr 3 min 29 sec) 
Heartbeat CPU  0 instructions:  113000000 cycles:   69111309 heartbeat IPC: 0.48227 cumulative IPC: 0.51085 (Simulation time: 0 hr 3 min 31 sec) 
Heartbeat CPU  0 instructions:  114000000 cycles:   71157259 heartbeat IPC: 0.48877 cumulative IPC: 0.50921 (Simulation time: 0 hr 3 min 34 sec) 
Heartbeat CPU  0 instructions:  115000001 cycles:   73242609 heartbeat IPC: 0.47954 cumulative IPC: 0.50712 (Simulation time: 0 hr 3 min 36 sec) 
Heartbeat CPU  0 instructions:  116000000 cycles:   75324103 heartbeat IPC: 0.48042 cumulative IPC: 0.50536 (Simulation time: 0 hr 3 min 38 sec) 
Heartbeat CPU  0 instructions:  117000003 cycles:   77415721 heartbeat IPC: 0.47810 cumulative IPC: 0.50367 (Simulation time: 0 hr 3 min 41 sec) 
Heartbeat CPU  0 instructions:  118000001 cycles:   79507176 heartbeat IPC: 0.47814 cumulative IPC: 0.50218 (Simulation time: 0 hr 3 min 43 sec) 
Heartbeat CPU  0 instructions:  119000000 cycles:   81567852 heartbeat IPC: 0.48528 cumulative IPC: 0.50126 (Simulation time: 0 hr 3 min 46 sec) 
Heartbeat CPU  0 instructions:  120000000 cycles:   83638990 heartbeat IPC: 0.48283 cumulative IPC: 0.50031 (Simulation time: 0 hr 3 min 48 sec) 
Heartbeat CPU  0 instructions:  121000003 cycles:   85730078 heartbeat IPC: 0.47822 cumulative IPC: 0.49921 (Simulation time: 0 hr 3 min 51 sec) 
Heartbeat CPU  0 instructions:  122000000 cycles:   87803513 heartbeat IPC: 0.48229 cumulative IPC: 0.49842 (Simulation time: 0 hr 3 min 53 sec) 
Heartbeat CPU  0 instructions:  123000001 cycles:   89879230 heartbeat IPC: 0.48176 cumulative IPC: 0.49767 (Simulation time: 0 hr 3 min 56 sec) 
Heartbeat CPU  0 instructions:  124000000 cycles:   91942207 heartbeat IPC: 0.48474 cumulative IPC: 0.49711 (Simulation time: 0 hr 3 min 58 sec) 
Heartbeat CPU  0 instructions:  125000003 cycles:   94017800 heartbeat IPC: 0.48179 cumulative IPC: 0.49648 (Simulation time: 0 hr 4 min 0 sec) 
Heartbeat CPU  0 instructions:  126000000 cycles:   96075903 heartbeat IPC: 0.48588 cumulative IPC: 0.49607 (Simulation time: 0 hr 4 min 3 sec) 
Heartbeat CPU  0 instructions:  127000003 cycles:   97977680 heartbeat IPC: 0.52583 cumulative IPC: 0.49711 (Simulation time: 0 hr 4 min 5 sec) 
Heartbeat CPU  0 instructions:  128000000 cycles:   99670026 heartbeat IPC: 0.59089 cumulative IPC: 0.49994 (Simulation time: 0 hr 4 min 8 sec) 
Heartbeat CPU  0 instructions:  129000001 cycles:  101660704 heartbeat IPC: 0.50234 cumulative IPC: 0.50003 (Simulation time: 0 hr 4 min 11 sec) 
Heartbeat CPU  0 instructions:  130000002 cycles:  103730752 heartbeat IPC: 0.48308 cumulative IPC: 0.49944 (Simulation time: 0 hr 4 min 13 sec) 
Heartbeat CPU  0 instructions:  131000000 cycles:  105791928 heartbeat IPC: 0.48516 cumulative IPC: 0.49897 (Simulation time: 0 hr 4 min 16 sec) 
Heartbeat CPU  0 instructions:  132000000 cycles:  107862321 heartbeat IPC: 0.48300 cumulative IPC: 0.49845 (Simulation time: 0 hr 4 min 18 sec) 
Heartbeat CPU  0 instructions:  133000001 cycles:  109921289 heartbeat IPC: 0.48568 cumulative IPC: 0.49806 (Simulation time: 0 hr 4 min 21 sec) 
Heartbeat CPU  0 instructions:  134000002 cycles:  111978120 heartbeat IPC: 0.48619 cumulative IPC: 0.49770 (Simulation time: 0 hr 4 min 23 sec) 
Heartbeat CPU  0 instructions:  135000001 cycles:  114054665 heartbeat IPC: 0.48157 cumulative IPC: 0.49722 (Simulation time: 0 hr 4 min 25 sec) 
Heartbeat CPU  0 instructions:  136000000 cycles:  116121683 heartbeat IPC: 0.48379 cumulative IPC: 0.49684 (Simulation time: 0 hr 4 min 28 sec) 
Heartbeat CPU  0 instructions:  137000003 cycles:  118205506 heartbeat IPC: 0.47989 cumulative IPC: 0.49637 (Simulation time: 0 hr 4 min 30 sec) 
Heartbeat CPU  0 instructions:  138000002 cycles:  120303611 heartbeat IPC: 0.47662 cumulative IPC: 0.49582 (Simulation time: 0 hr 4 min 33 sec) 
Heartbeat CPU  0 instructions:  139000003 cycles:  122374414 heartbeat IPC: 0.48290 cumulative IPC: 0.49548 (Simulation time: 0 hr 4 min 35 sec) 
Heartbeat CPU  0 instructions:  140000000 cycles:  124443945 heartbeat IPC: 0.48320 cumulative IPC: 0.49517 (Simulation time: 0 hr 4 min 38 sec) 
Heartbeat CPU  0 instructions:  141000003 cycles:  126517583 heartbeat IPC: 0.48225 cumulative IPC: 0.49485 (Simulation time: 0 hr 4 min 40 sec) 
Heartbeat CPU  0 instructions:  142000002 cycles:  128595344 heartbeat IPC: 0.48129 cumulative IPC: 0.49451 (Simulation time: 0 hr 4 min 43 sec) 
Heartbeat CPU  0 instructions:  143000002 cycles:  130675153 heartbeat IPC: 0.48081 cumulative IPC: 0.49419 (Simulation time: 0 hr 4 min 45 sec) 
Heartbeat CPU  0 instructions:  144000000 cycles:  132747070 heartbeat IPC: 0.48264 cumulative IPC: 0.49392 (Simulation time: 0 hr 4 min 48 sec) 
Heartbeat CPU  0 instructions:  145000003 cycles:  134809501 heartbeat IPC: 0.48487 cumulative IPC: 0.49371 (Simulation time: 0 hr 4 min 50 sec) 
Heartbeat CPU  0 instructions:  146000001 cycles:  136883443 heartbeat IPC: 0.48217 cumulative IPC: 0.49346 (Simulation time: 0 hr 4 min 52 sec) 
Heartbeat CPU  0 instructions:  147000002 cycles:  138954441 heartbeat IPC: 0.48286 cumulative IPC: 0.49323 (Simulation time: 0 hr 4 min 55 sec) 
Heartbeat CPU  0 instructions:  148000000 cycles:  141039934 heartbeat IPC: 0.47950 cumulative IPC: 0.49293 (Simulation time: 0 hr 4 min 57 sec) 
Heartbeat CPU  0 instructions:  149000003 cycles:  143095626 heartbeat IPC: 0.48646 cumulative IPC: 0.49280 (Simulation time: 0 hr 5 min 0 sec) 
Heartbeat CPU  0 instructions:  150000002 cycles:  145172151 heartbeat IPC: 0.48157 cumulative IPC: 0.49257 (Simulation time: 0 hr 5 min 2 sec) 
Heartbeat CPU  0 instructions:  151000002 cycles:  147217100 heartbeat IPC: 0.48901 cumulative IPC: 0.49250 (Simulation time: 0 hr 5 min 5 sec) 
Heartbeat CPU  0 instructions:  152000000 cycles:  149267914 heartbeat IPC: 0.48761 cumulative IPC: 0.49240 (Simulation time: 0 hr 5 min 7 sec) 
Heartbeat CPU  0 instructions:  153000003 cycles:  150505197 heartbeat IPC: 0.80822 cumulative IPC: 0.49606 (Simulation time: 0 hr 5 min 9 sec) 
Heartbeat CPU  0 instructions:  154000003 cycles:  151724740 heartbeat IPC: 0.81998 cumulative IPC: 0.49972 (Simulation time: 0 hr 5 min 12 sec) 
Heartbeat CPU  0 instructions:  155000003 cycles:  152940769 heartbeat IPC: 0.82235 cumulative IPC: 0.50331 (Simulation time: 0 hr 5 min 14 sec) 
Heartbeat CPU  0 instructions:  156000000 cycles:  154159291 heartbeat IPC: 0.82066 cumulative IPC: 0.50681 (Simulation time: 0 hr 5 min 16 sec) 
Heartbeat CPU  0 instructions:  157000000 cycles:  155374729 heartbeat IPC: 0.82275 cumulative IPC: 0.51024 (Simulation time: 0 hr 5 min 18 sec) 
Heartbeat CPU  0 instructions:  158000000 cycles:  156590239 heartbeat IPC: 0.82270 cumulative IPC: 0.51361 (Simulation time: 0 hr 5 min 20 sec) 
Heartbeat CPU  0 instructions:  159000001 cycles:  157807108 heartbeat IPC: 0.82178 cumulative IPC: 0.51689 (Simulation time: 0 hr 5 min 22 sec) 
Heartbeat CPU  0 instructions:  160000000 cycles:  159022400 heartbeat IPC: 0.82285 cumulative IPC: 0.52012 (Simulation time: 0 hr 5 min 24 sec) 
Heartbeat CPU  0 instructions:  161000001 cycles:  160239426 heartbeat IPC: 0.82168 cumulative IPC: 0.52326 (Simulation time: 0 hr 5 min 27 sec) 
Heartbeat CPU  0 instructions:  162000003 cycles:  161454672 heartbeat IPC: 0.82288 cumulative IPC: 0.52636 (Simulation time: 0 hr 5 min 29 sec) 
Heartbeat CPU  0 instructions:  163000003 cycles:  162667342 heartbeat IPC: 0.82463 cumulative IPC: 0.52940 (Simulation time: 0 hr 5 min 31 sec) 
Heartbeat CPU  0 instructions:  164000000 cycles:  163887717 heartbeat IPC: 0.81942 cumulative IPC: 0.53234 (Simulation time: 0 hr 5 min 33 sec) 
Heartbeat CPU  0 instructions:  165000001 cycles:  165106718 heartbeat IPC: 0.82034 cumulative IPC: 0.53523 (Simulation time: 0 hr 5 min 35 sec) 
Heartbeat CPU  0 instructions:  166000003 cycles:  166326990 heartbeat IPC: 0.81949 cumulative IPC: 0.53806 (Simulation time: 0 hr 5 min 37 sec) 
Heartbeat CPU  0 instructions:  167000001 cycles:  167549418 heartbeat IPC: 0.81804 cumulative IPC: 0.54082 (Simulation time: 0 hr 5 min 40 sec) 
Heartbeat CPU  0 instructions:  168000000 cycles:  168769991 heartbeat IPC: 0.81929 cumulative IPC: 0.54354 (Simulation time: 0 hr 5 min 42 sec) 
Heartbeat CPU  0 instructions:  169000003 cycles:  169993289 heartbeat IPC: 0.81746 cumulative IPC: 0.54619 (Simulation time: 0 hr 5 min 44 sec) 
Heartbeat CPU  0 instructions:  170000003 cycles:  171214705 heartbeat IPC: 0.81872 cumulative IPC: 0.54880 (Simulation time: 0 hr 5 min 46 sec) 
Heartbeat CPU  0 instructions:  171000001 cycles:  172435622 heartbeat IPC: 0.81905 cumulative IPC: 0.55136 (Simulation time: 0 hr 5 min 48 sec) 
Heartbeat CPU  0 instructions:  172000000 cycles:  173656403 heartbeat IPC: 0.81915 cumulative IPC: 0.55388 (Simulation time: 0 hr 5 min 50 sec) 
Heartbeat CPU  0 instructions:  173000001 cycles:  174878580 heartbeat IPC: 0.81821 cumulative IPC: 0.55634 (Simulation time: 0 hr 5 min 52 sec) 
Heartbeat CPU  0 instructions:  174000001 cycles:  176098897 heartbeat IPC: 0.81946 cumulative IPC: 0.55876 (Simulation time: 0 hr 5 min 55 sec) 
Heartbeat CPU  0 instructions:  175000000 cycles:  177320753 heartbeat IPC: 0.81843 cumulative IPC: 0.56114 (Simulation time: 0 hr 5 min 57 sec) 
Heartbeat CPU  0 instructions:  176000000 cycles:  178543308 heartbeat IPC: 0.81796 cumulative IPC: 0.56347 (Simulation time: 0 hr 5 min 59 sec) 
Heartbeat CPU  0 instructions:  177000003 cycles:  179764100 heartbeat IPC: 0.81914 cumulative IPC: 0.56576 (Simulation time: 0 hr 6 min 1 sec) 
Heartbeat CPU  0 instructions:  178000003 cycles:  180986623 heartbeat IPC: 0.81798 cumulative IPC: 0.56800 (Simulation time: 0 hr 6 min 3 sec) 
Heartbeat CPU  0 instructions:  179000003 cycles:  182209757 heartbeat IPC: 0.81757 cumulative IPC: 0.57021 (Simulation time: 0 hr 6 min 5 sec) 
Heartbeat CPU  0 instructions:  180000000 cycles:  183430137 heartbeat IPC: 0.81941 cumulative IPC: 0.57238 (Simulation time: 0 hr 6 min 8 sec) 
Heartbeat CPU  0 instructions:  181000003 cycles:  184649356 heartbeat IPC: 0.82020 cumulative IPC: 0.57453 (Simulation time: 0 hr 6 min 10 sec) 
Heartbeat CPU  0 instructions:  182000000 cycles:  185870868 heartbeat IPC: 0.81866 cumulative IPC: 0.57662 (Simulation time: 0 hr 6 min 12 sec) 
Heartbeat CPU  0 instructions:  183000001 cycles:  187090460 heartbeat IPC: 0.81995 cumulative IPC: 0.57869 (Simulation time: 0 hr 6 min 14 sec) 
Heartbeat CPU  0 instructions:  184000000 cycles:  188313084 heartbeat IPC: 0.81791 cumulative IPC: 0.58071 (Simulation time: 0 hr 6 min 16 sec) 
Heartbeat CPU  0 instructions:  185000003 cycles:  189537761 heartbeat IPC: 0.81654 cumulative IPC: 0.58269 (Simulation time: 0 hr 6 min 18 sec) 
Heartbeat CPU  0 instructions:  186000001 cycles:  190759918 heartbeat IPC: 0.81822 cumulative IPC: 0.58465 (Simulation time: 0 hr 6 min 21 sec) 
Heartbeat CPU  0 instructions:  187000003 cycles:  191980126 heartbeat IPC: 0.81953 cumulative IPC: 0.58658 (Simulation time: 0 hr 6 min 23 sec) 
Heartbeat CPU  0 instructions:  188000000 cycles:  193195114 heartbeat IPC: 0.82305 cumulative IPC: 0.58850 (Simulation time: 0 hr 6 min 25 sec) 
Heartbeat CPU  0 instructions:  189000001 cycles:  194408596 heartbeat IPC: 0.82408 cumulative IPC: 0.59040 (Simulation time: 0 hr 6 min 27 sec) 
Heartbeat CPU  0 instructions:  190000002 cycles:  195618814 heartbeat IPC: 0.82630 cumulative IPC: 0.59228 (Simulation time: 0 hr 6 min 29 sec) 
Heartbeat CPU  0 instructions:  191000002 cycles:  196832071 heartbeat IPC: 0.82423 cumulative IPC: 0.59412 (Simulation time: 0 hr 6 min 31 sec) 
Heartbeat CPU  0 instructions:  192000000 cycles:  198046246 heartbeat IPC: 0.82360 cumulative IPC: 0.59592 (Simulation time: 0 hr 6 min 33 sec) 
Heartbeat CPU  0 instructions:  193000001 cycles:  199257095 heartbeat IPC: 0.82587 cumulative IPC: 0.59771 (Simulation time: 0 hr 6 min 36 sec) 
Heartbeat CPU  0 instructions:  194000001 cycles:  200469291 heartbeat IPC: 0.82495 cumulative IPC: 0.59947 (Simulation time: 0 hr 6 min 38 sec) 
Heartbeat CPU  0 instructions:  195000003 cycles:  201682408 heartbeat IPC: 0.82432 cumulative IPC: 0.60119 (Simulation time: 0 hr 6 min 40 sec) 
Heartbeat CPU  0 instructions:  196000000 cycles:  202895556 heartbeat IPC: 0.82430 cumulative IPC: 0.60289 (Simulation time: 0 hr 6 min 42 sec) 
Heartbeat CPU  0 instructions:  197000002 cycles:  204108612 heartbeat IPC: 0.82437 cumulative IPC: 0.60457 (Simulation time: 0 hr 6 min 44 sec) 
Heartbeat CPU  0 instructions:  198000000 cycles:  205321295 heartbeat IPC: 0.82462 cumulative IPC: 0.60622 (Simulation time: 0 hr 6 min 46 sec) 
Heartbeat CPU  0 instructions:  199000003 cycles:  206534061 heartbeat IPC: 0.82456 cumulative IPC: 0.60785 (Simulation time: 0 hr 6 min 49 sec) 
Heartbeat CPU  0 instructions:  200000000 cycles:  207747576 heartbeat IPC: 0.82405 cumulative IPC: 0.60944 (Simulation time: 0 hr 6 min 51 sec) 
Heartbeat CPU  0 instructions:  201000001 cycles:  208956703 heartbeat IPC: 0.82704 cumulative IPC: 0.61104 (Simulation time: 0 hr 6 min 53 sec) 
Heartbeat CPU  0 instructions:  202000002 cycles:  210166616 heartbeat IPC: 0.82651 cumulative IPC: 0.61260 (Simulation time: 0 hr 6 min 55 sec) 
Heartbeat CPU  0 instructions:  203000000 cycles:  211376885 heartbeat IPC: 0.82626 cumulative IPC: 0.61414 (Simulation time: 0 hr 6 min 57 sec) 
Heartbeat CPU  0 instructions:  204000000 cycles:  212588437 heartbeat IPC: 0.82539 cumulative IPC: 0.61566 (Simulation time: 0 hr 6 min 59 sec) 
Heartbeat CPU  0 instructions:  205000001 cycles:  213797997 heartbeat IPC: 0.82675 cumulative IPC: 0.61716 (Simulation time: 0 hr 7 min 2 sec) 
Heartbeat CPU  0 instructions:  206000001 cycles:  215006354 heartbeat IPC: 0.82757 cumulative IPC: 0.61864 (Simulation time: 0 hr 7 min 4 sec) 
Heartbeat CPU  0 instructions:  207000003 cycles:  216215342 heartbeat IPC: 0.82714 cumulative IPC: 0.62010 (Simulation time: 0 hr 7 min 6 sec) 
Heartbeat CPU  0 instructions:  208000000 cycles:  217424368 heartbeat IPC: 0.82711 cumulative IPC: 0.62154 (Simulation time: 0 hr 7 min 8 sec) 
Heartbeat CPU  0 instructions:  209000000 cycles:  218631249 heartbeat IPC: 0.82858 cumulative IPC: 0.62297 (Simulation time: 0 hr 7 min 10 sec) 
Heartbeat CPU  0 instructions:  210000002 cycles:  219837836 heartbeat IPC: 0.82879 cumulative IPC: 0.62438 (Simulation time: 0 hr 7 min 12 sec) 
Heartbeat CPU  0 instructions:  211000001 cycles:  221044900 heartbeat IPC: 0.82846 cumulative IPC: 0.62577 (Simulation time: 0 hr 7 min 15 sec) 
Heartbeat CPU  0 instructions:  212000000 cycles:  222250836 heartbeat IPC: 0.82923 cumulative IPC: 0.62714 (Simulation time: 0 hr 7 min 17 sec) 
Heartbeat CPU  0 instructions:  213000003 cycles:  223457343 heartbeat IPC: 0.82884 cumulative IPC: 0.62850 (Simulation time: 0 hr 7 min 19 sec) 
Heartbeat CPU  0 instructions:  214000000 cycles:  224664358 heartbeat IPC: 0.82849 cumulative IPC: 0.62983 (Simulation time: 0 hr 7 min 21 sec) 
Heartbeat CPU  0 instructions:  215000001 cycles:  225870277 heartbeat IPC: 0.82924 cumulative IPC: 0.63115 (Simulation time: 0 hr 7 min 23 sec) 
Heartbeat CPU  0 instructions:  216000000 cycles:  227077088 heartbeat IPC: 0.82863 cumulative IPC: 0.63245 (Simulation time: 0 hr 7 min 25 sec) 
Heartbeat CPU  0 instructions:  217000001 cycles:  228282205 heartbeat IPC: 0.82980 cumulative IPC: 0.63374 (Simulation time: 0 hr 7 min 27 sec) 
Heartbeat CPU  0 instructions:  218000002 cycles:  229486489 heartbeat IPC: 0.83037 cumulative IPC: 0.63501 (Simulation time: 0 hr 7 min 30 sec) 
Heartbeat CPU  0 instructions:  219000001 cycles:  230693195 heartbeat IPC: 0.82870 cumulative IPC: 0.63626 (Simulation time: 0 hr 7 min 32 sec) 
Heartbeat CPU  0 instructions:  220000000 cycles:  231899864 heartbeat IPC: 0.82873 cumulative IPC: 0.63750 (Simulation time: 0 hr 7 min 34 sec) 
Heartbeat CPU  0 instructions:  221000000 cycles:  233103323 heartbeat IPC: 0.83094 cumulative IPC: 0.63873 (Simulation time: 0 hr 7 min 36 sec) 
Heartbeat CPU  0 instructions:  222000001 cycles:  235063397 heartbeat IPC: 0.51019 cumulative IPC: 0.63741 (Simulation time: 0 hr 7 min 39 sec) 
Heartbeat CPU  0 instructions:  223000000 cycles:  238595926 heartbeat IPC: 0.28308 cumulative IPC: 0.63099 (Simulation time: 0 hr 7 min 44 sec) 
Heartbeat CPU  0 instructions:  224000000 cycles:  240860997 heartbeat IPC: 0.44149 cumulative IPC: 0.62881 (Simulation time: 0 hr 7 min 46 sec) 
Heartbeat CPU  0 instructions:  225000002 cycles:  243027565 heartbeat IPC: 0.46156 cumulative IPC: 0.62699 (Simulation time: 0 hr 7 min 49 sec) 
Heartbeat CPU  0 instructions:  226000001 cycles:  245221189 heartbeat IPC: 0.45587 cumulative IPC: 0.62513 (Simulation time: 0 hr 7 min 51 sec) 
Heartbeat CPU  0 instructions:  227000003 cycles:  247363681 heartbeat IPC: 0.46675 cumulative IPC: 0.62347 (Simulation time: 0 hr 7 min 54 sec) 
Heartbeat CPU  0 instructions:  228000000 cycles:  249498370 heartbeat IPC: 0.46845 cumulative IPC: 0.62186 (Simulation time: 0 hr 7 min 56 sec) 
Heartbeat CPU  0 instructions:  229000001 cycles:  251646077 heartbeat IPC: 0.46561 cumulative IPC: 0.62024 (Simulation time: 0 hr 7 min 58 sec) 
Heartbeat CPU  0 instructions:  230000000 cycles:  253790440 heartbeat IPC: 0.46634 cumulative IPC: 0.61867 (Simulation time: 0 hr 8 min 1 sec) 
Heartbeat CPU  0 instructions:  231000000 cycles:  255929197 heartbeat IPC: 0.46756 cumulative IPC: 0.61715 (Simulation time: 0 hr 8 min 3 sec) 
Heartbeat CPU  0 instructions:  232000000 cycles:  258069139 heartbeat IPC: 0.46730 cumulative IPC: 0.61566 (Simulation time: 0 hr 8 min 6 sec) 
Heartbeat CPU  0 instructions:  233000002 cycles:  260207517 heartbeat IPC: 0.46765 cumulative IPC: 0.61419 (Simulation time: 0 hr 8 min 8 sec) 
Heartbeat CPU  0 instructions:  234000001 cycles:  262344840 heartbeat IPC: 0.46787 cumulative IPC: 0.61276 (Simulation time: 0 hr 8 min 11 sec) 
Heartbeat CPU  0 instructions:  235000000 cycles:  264485867 heartbeat IPC: 0.46707 cumulative IPC: 0.61135 (Simulation time: 0 hr 8 min 13 sec) 
Heartbeat CPU  0 instructions:  236000000 cycles:  266626023 heartbeat IPC: 0.46726 cumulative IPC: 0.60997 (Simulation time: 0 hr 8 min 16 sec) 
Heartbeat CPU  0 instructions:  237000002 cycles:  268763000 heartbeat IPC: 0.46795 cumulative IPC: 0.60862 (Simulation time: 0 hr 8 min 18 sec) 
Heartbeat CPU  0 instructions:  238000001 cycles:  270905269 heartbeat IPC: 0.46679 cumulative IPC: 0.60728 (Simulation time: 0 hr 8 min 20 sec) 
Heartbeat CPU  0 instructions:  239000000 cycles:  273057336 heartbeat IPC: 0.46467 cumulative IPC: 0.60595 (Simulation time: 0 hr 8 min 23 sec) 
Heartbeat CPU  0 instructions:  240000000 cycles:  275199449 heartbeat IPC: 0.46683 cumulative IPC: 0.60466 (Simulation time: 0 hr 8 min 25 sec) 
Heartbeat CPU  0 instructions:  241000001 cycles:  277342400 heartbeat IPC: 0.46665 cumulative IPC: 0.60339 (Simulation time: 0 hr 8 min 28 sec) 
Heartbeat CPU  0 instructions:  242000001 cycles:  279474509 heartbeat IPC: 0.46902 cumulative IPC: 0.60218 (Simulation time: 0 hr 8 min 30 sec) 
Heartbeat CPU  0 instructions:  243000000 cycles:  281613055 heartbeat IPC: 0.46761 cumulative IPC: 0.60097 (Simulation time: 0 hr 8 min 33 sec) 
Heartbeat CPU  0 instructions:  244000000 cycles:  283753459 heartbeat IPC: 0.46720 cumulative IPC: 0.59978 (Simulation time: 0 hr 8 min 35 sec) 
Heartbeat CPU  0 instructions:  245000002 cycles:  285888668 heartbeat IPC: 0.46834 cumulative IPC: 0.59862 (Simulation time: 0 hr 8 min 37 sec) 
Heartbeat CPU  0 instructions:  246000000 cycles:  287973366 heartbeat IPC: 0.47968 cumulative IPC: 0.59760 (Simulation time: 0 hr 8 min 40 sec) 
Heartbeat CPU  0 instructions:  247000000 cycles:  289681662 heartbeat IPC: 0.58538 cumulative IPC: 0.59752 (Simulation time: 0 hr 8 min 43 sec) 
Heartbeat CPU  0 instructions:  248000000 cycles:  291614504 heartbeat IPC: 0.51737 cumulative IPC: 0.59689 (Simulation time: 0 hr 8 min 46 sec) 
Heartbeat CPU  0 instructions:  249000003 cycles:  294182851 heartbeat IPC: 0.38936 cumulative IPC: 0.59476 (Simulation time: 0 hr 8 min 49 sec) 
Heartbeat CPU  0 instructions:  250000003 cycles:  296785819 heartbeat IPC: 0.38418 cumulative IPC: 0.59260 (Simulation time: 0 hr 8 min 53 sec) 
Heartbeat CPU  0 instructions:  251000000 cycles:  299078010 heartbeat IPC: 0.43626 cumulative IPC: 0.59120 (Simulation time: 0 hr 8 min 56 sec) 
Heartbeat CPU  0 instructions:  252000000 cycles:  300772955 heartbeat IPC: 0.58999 cumulative IPC: 0.59119 (Simulation time: 0 hr 8 min 59 sec) 
Heartbeat CPU  0 instructions:  253000001 cycles:  302736924 heartbeat IPC: 0.50917 cumulative IPC: 0.59057 (Simulation time: 0 hr 9 min 2 sec) 
Heartbeat CPU  0 instructions:  254000001 cycles:  304796192 heartbeat IPC: 0.48561 cumulative IPC: 0.58974 (Simulation time: 0 hr 9 min 4 sec) 
Heartbeat CPU  0 instructions:  255000000 cycles:  306879599 heartbeat IPC: 0.47998 cumulative IPC: 0.58887 (Simulation time: 0 hr 9 min 6 sec) 
Heartbeat CPU  0 instructions:  256000000 cycles:  308959726 heartbeat IPC: 0.48074 cumulative IPC: 0.58802 (Simulation time: 0 hr 9 min 9 sec) 
Heartbeat CPU  0 instructions:  257000000 cycles:  311025937 heartbeat IPC: 0.48398 cumulative IPC: 0.58722 (Simulation time: 0 hr 9 min 11 sec) 
Heartbeat CPU  0 instructions:  258000000 cycles:  313101084 heartbeat IPC: 0.48189 cumulative IPC: 0.58641 (Simulation time: 0 hr 9 min 14 sec) 
Heartbeat CPU  0 instructions:  259000000 cycles:  315197667 heartbeat IPC: 0.47697 cumulative IPC: 0.58556 (Simulation time: 0 hr 9 min 16 sec) 
Heartbeat CPU  0 instructions:  260000000 cycles:  317267978 heartbeat IPC: 0.48302 cumulative IPC: 0.58479 (Simulation time: 0 hr 9 min 19 sec) 
Heartbeat CPU  0 instructions:  261000002 cycles:  319350075 heartbeat IPC: 0.48029 cumulative IPC: 0.58400 (Simulation time: 0 hr 9 min 21 sec) 
Heartbeat CPU  0 instructions:  262000000 cycles:  321442024 heartbeat IPC: 0.47802 cumulative IPC: 0.58320 (Simulation time: 0 hr 9 min 24 sec) 
Heartbeat CPU  0 instructions:  263000000 cycles:  323521618 heartbeat IPC: 0.48086 cumulative IPC: 0.58244 (Simulation time: 0 hr 9 min 26 sec) 
Heartbeat CPU  0 instructions:  264000000 cycles:  325602415 heartbeat IPC: 0.48059 cumulative IPC: 0.58169 (Simulation time: 0 hr 9 min 28 sec) 
Heartbeat CPU  0 instructions:  265000002 cycles:  327683775 heartbeat IPC: 0.48046 cumulative IPC: 0.58094 (Simulation time: 0 hr 9 min 31 sec) 
Heartbeat CPU  0 instructions:  266000000 cycles:  329751316 heartbeat IPC: 0.48367 cumulative IPC: 0.58024 (Simulation time: 0 hr 9 min 33 sec) 
Heartbeat CPU  0 instructions:  267000000 cycles:  331828828 heartbeat IPC: 0.48134 cumulative IPC: 0.57953 (Simulation time: 0 hr 9 min 36 sec) 
Heartbeat CPU  0 instructions:  268000000 cycles:  333937924 heartbeat IPC: 0.47414 cumulative IPC: 0.57876 (Simulation time: 0 hr 9 min 38 sec) 
Heartbeat CPU  0 instructions:  269000002 cycles:  335986288 heartbeat IPC: 0.48820 cumulative IPC: 0.57813 (Simulation time: 0 hr 9 min 41 sec) 
Heartbeat CPU  0 instructions:  270000000 cycles:  338078537 heartbeat IPC: 0.47795 cumulative IPC: 0.57742 (Simulation time: 0 hr 9 min 43 sec) 
Heartbeat CPU  0 instructions:  271000001 cycles:  340131837 heartbeat IPC: 0.48702 cumulative IPC: 0.57679 (Simulation time: 0 hr 9 min 45 sec) 
Heartbeat CPU  0 instructions:  272000000 cycles:  342202239 heartbeat IPC: 0.48300 cumulative IPC: 0.57614 (Simulation time: 0 hr 9 min 48 sec) 
Heartbeat CPU  0 instructions:  273000003 cycles:  344269555 heartbeat IPC: 0.48372 cumulative IPC: 0.57550 (Simulation time: 0 hr 9 min 50 sec) 
Heartbeat CPU  0 instructions:  274000000 cycles:  346309510 heartbeat IPC: 0.49021 cumulative IPC: 0.57493 (Simulation time: 0 hr 9 min 53 sec) 
Heartbeat CPU  0 instructions:  275000000 cycles:  348398315 heartbeat IPC: 0.47874 cumulative IPC: 0.57427 (Simulation time: 0 hr 9 min 55 sec) 
Heartbeat CPU  0 instructions:  276000000 cycles:  350456159 heartbeat IPC: 0.48595 cumulative IPC: 0.57368 (Simulation time: 0 hr 9 min 58 sec) 
Heartbeat CPU  0 instructions:  277000002 cycles:  351792733 heartbeat IPC: 0.74818 cumulative IPC: 0.57443 (Simulation time: 0 hr 10 min 0 sec) 
Heartbeat CPU  0 instructions:  278000000 cycles:  353027361 heartbeat IPC: 0.80996 cumulative IPC: 0.57537 (Simulation time: 0 hr 10 min 2 sec) 
Heartbeat CPU  0 instructions:  279000003 cycles:  354261245 heartbeat IPC: 0.81045 cumulative IPC: 0.57631 (Simulation time: 0 hr 10 min 4 sec) 
Heartbeat CPU  0 instructions:  280000000 cycles:  355493499 heartbeat IPC: 0.81152 cumulative IPC: 0.57724 (Simulation time: 0 hr 10 min 6 sec) 
Heartbeat CPU  0 instructions:  281000001 cycles:  356724491 heartbeat IPC: 0.81235 cumulative IPC: 0.57816 (Simulation time: 0 hr 10 min 8 sec) 
Heartbeat CPU  0 instructions:  282000003 cycles:  357954736 heartbeat IPC: 0.81285 cumulative IPC: 0.57908 (Simulation time: 0 hr 10 min 11 sec) 
Heartbeat CPU  0 instructions:  283000001 cycles:  359187412 heartbeat IPC: 0.81124 cumulative IPC: 0.57999 (Simulation time: 0 hr 10 min 13 sec) 
Heartbeat CPU  0 instructions:  284000000 cycles:  360418414 heartbeat IPC: 0.81235 cumulative IPC: 0.58089 (Simulation time: 0 hr 10 min 15 sec) 
Heartbeat CPU  0 instructions:  285000003 cycles:  361649182 heartbeat IPC: 0.81250 cumulative IPC: 0.58179 (Simulation time: 0 hr 10 min 17 sec) 
Heartbeat CPU  0 instructions:  286000003 cycles:  362880937 heartbeat IPC: 0.81185 cumulative IPC: 0.58268 (Simulation time: 0 hr 10 min 19 sec) 
Heartbeat CPU  0 instructions:  287000001 cycles:  364110775 heartbeat IPC: 0.81311 cumulative IPC: 0.58356 (Simulation time: 0 hr 10 min 21 sec) 
Heartbeat CPU  0 instructions:  288000000 cycles:  365342686 heartbeat IPC: 0.81175 cumulative IPC: 0.58443 (Simulation time: 0 hr 10 min 24 sec) 
Heartbeat CPU  0 instructions:  289000001 cycles:  366575403 heartbeat IPC: 0.81122 cumulative IPC: 0.58530 (Simulation time: 0 hr 10 min 26 sec) 
Heartbeat CPU  0 instructions:  290000001 cycles:  367805945 heartbeat IPC: 0.81265 cumulative IPC: 0.58616 (Simulation time: 0 hr 10 min 28 sec) 
Heartbeat CPU  0 instructions:  291000000 cycles:  369040704 heartbeat IPC: 0.80987 cumulative IPC: 0.58701 (Simulation time: 0 hr 10 min 30 sec) 
Heartbeat CPU  0 instructions:  292000000 cycles:  370274936 heartbeat IPC: 0.81022 cumulative IPC: 0.58785 (Simulation time: 0 hr 10 min 32 sec) 
Heartbeat CPU  0 instructions:  293000003 cycles:  371509699 heartbeat IPC: 0.80987 cumulative IPC: 0.58869 (Simulation time: 0 hr 10 min 34 sec) 
Heartbeat CPU  0 instructions:  294000003 cycles:  372742116 heartbeat IPC: 0.81141 cumulative IPC: 0.58953 (Simulation time: 0 hr 10 min 37 sec) 
Heartbeat CPU  0 instructions:  295000003 cycles:  373974606 heartbeat IPC: 0.81137 cumulative IPC: 0.59035 (Simulation time: 0 hr 10 min 39 sec) 
Heartbeat CPU  0 instructions:  296000000 cycles:  375208943 heartbeat IPC: 0.81015 cumulative IPC: 0.59117 (Simulation time: 0 hr 10 min 41 sec) 
Heartbeat CPU  0 instructions:  297000003 cycles:  376443448 heartbeat IPC: 0.81004 cumulative IPC: 0.59198 (Simulation time: 0 hr 10 min 43 sec) 
Heartbeat CPU  0 instructions:  298000000 cycles:  377673390 heartbeat IPC: 0.81304 cumulative IPC: 0.59280 (Simulation time: 0 hr 10 min 45 sec) 
Heartbeat CPU  0 instructions:  299000001 cycles:  378905617 heartbeat IPC: 0.81154 cumulative IPC: 0.59360 (Simulation time: 0 hr 10 min 47 sec) 
Heartbeat CPU  0 instructions:  300000000 cycles:  380140732 heartbeat IPC: 0.80964 cumulative IPC: 0.59439 (Simulation time: 0 hr 10 min 50 sec) 
Heartbeat CPU  0 instructions:  301000003 cycles:  381373606 heartbeat IPC: 0.81112 cumulative IPC: 0.59519 (Simulation time: 0 hr 10 min 52 sec) 
Heartbeat CPU  0 instructions:  302000001 cycles:  382607877 heartbeat IPC: 0.81019 cumulative IPC: 0.59597 (Simulation time: 0 hr 10 min 54 sec) 
Heartbeat CPU  0 instructions:  303000001 cycles:  383842450 heartbeat IPC: 0.81000 cumulative IPC: 0.59674 (Simulation time: 0 hr 10 min 56 sec) 
Heartbeat CPU  0 instructions:  304000000 cycles:  385075541 heartbeat IPC: 0.81097 cumulative IPC: 0.59752 (Simulation time: 0 hr 10 min 58 sec) 
Heartbeat CPU  0 instructions:  305000000 cycles:  386306146 heartbeat IPC: 0.81261 cumulative IPC: 0.59829 (Simulation time: 0 hr 11 min 0 sec) 
Heartbeat CPU  0 instructions:  306000001 cycles:  387539499 heartbeat IPC: 0.81080 cumulative IPC: 0.59905 (Simulation time: 0 hr 11 min 3 sec) 
Heartbeat CPU  0 instructions:  307000001 cycles:  388773030 heartbeat IPC: 0.81068 cumulative IPC: 0.59981 (Simulation time: 0 hr 11 min 5 sec) 
Heartbeat CPU  0 instructions:  308000000 cycles:  390007276 heartbeat IPC: 0.81021 cumulative IPC: 0.60056 (Simulation time: 0 hr 11 min 7 sec) 
Heartbeat CPU  0 instructions:  309000003 cycles:  391241879 heartbeat IPC: 0.80998 cumulative IPC: 0.60130 (Simulation time: 0 hr 11 min 9 sec) 
Heartbeat CPU  0 instructions:  310000003 cycles:  392476300 heartbeat IPC: 0.81010 cumulative IPC: 0.60204 (Simulation time: 0 hr 11 min 11 sec) 
Heartbeat CPU  0 instructions:  311000001 cycles:  393710112 heartbeat IPC: 0.81049 cumulative IPC: 0.60278 (Simulation time: 0 hr 11 min 13 sec) 
Heartbeat CPU  0 instructions:  312000000 cycles:  394936528 heartbeat IPC: 0.81538 cumulative IPC: 0.60352 (Simulation time: 0 hr 11 min 15 sec) 
Heartbeat CPU  0 instructions:  313000002 cycles:  396163799 heartbeat IPC: 0.81482 cumulative IPC: 0.60426 (Simulation time: 0 hr 11 min 18 sec) 
Heartbeat CPU  0 instructions:  314000002 cycles:  397387146 heartbeat IPC: 0.81743 cumulative IPC: 0.60499 (Simulation time: 0 hr 11 min 20 sec) 
Heartbeat CPU  0 instructions:  315000000 cycles:  398612861 heartbeat IPC: 0.81585 cumulative IPC: 0.60572 (Simulation time: 0 hr 11 min 22 sec) 
Heartbeat CPU  0 instructions:  316000000 cycles:  399838326 heartbeat IPC: 0.81602 cumulative IPC: 0.60644 (Simulation time: 0 hr 11 min 24 sec) 
Heartbeat CPU  0 instructions:  317000002 cycles:  401063074 heartbeat IPC: 0.81650 cumulative IPC: 0.60716 (Simulation time: 0 hr 11 min 26 sec) 
Heartbeat CPU  0 instructions:  318000003 cycles:  402284307 heartbeat IPC: 0.81885 cumulative IPC: 0.60788 (Simulation time: 0 hr 11 min 28 sec) 
Heartbeat CPU  0 instructions:  319000002 cycles:  403509344 heartbeat IPC: 0.81630 cumulative IPC: 0.60859 (Simulation time: 0 hr 11 min 31 sec) 
Heartbeat CPU  0 instructions:  320000000 cycles:  404734096 heartbeat IPC: 0.81649 cumulative IPC: 0.60930 (Simulation time: 0 hr 11 min 33 sec) 
Heartbeat CPU  0 instructions:  321000000 cycles:  405957434 heartbeat IPC: 0.81744 cumulative IPC: 0.61000 (Simulation time: 0 hr 11 min 35 sec) 
Heartbeat CPU  0 instructions:  322000001 cycles:  407182546 heartbeat IPC: 0.81625 cumulative IPC: 0.61070 (Simulation time: 0 hr 11 min 37 sec) 
Heartbeat CPU  0 instructions:  323000001 cycles:  408406004 heartbeat IPC: 0.81736 cumulative IPC: 0.61139 (Simulation time: 0 hr 11 min 39 sec) 
Heartbeat CPU  0 instructions:  324000000 cycles:  409630507 heartbeat IPC: 0.81666 cumulative IPC: 0.61208 (Simulation time: 0 hr 11 min 41 sec) 
Heartbeat CPU  0 instructions:  325000002 cycles:  410852709 heartbeat IPC: 0.81820 cumulative IPC: 0.61276 (Simulation time: 0 hr 11 min 44 sec) 
Heartbeat CPU  0 instructions:  326000002 cycles:  412073918 heartbeat IPC: 0.81886 cumulative IPC: 0.61345 (Simulation time: 0 hr 11 min 46 sec) 
Heartbeat CPU  0 instructions:  327000002 cycles:  413296059 heartbeat IPC: 0.81824 cumulative IPC: 0.61412 (Simulation time: 0 hr 11 min 48 sec) 
Heartbeat CPU  0 instructions:  328000000 cycles:  414516155 heartbeat IPC: 0.81961 cumulative IPC: 0.61480 (Simulation time: 0 hr 11 min 50 sec) 
Heartbeat CPU  0 instructions:  329000002 cycles:  415732486 heartbeat IPC: 0.82215 cumulative IPC: 0.61548 (Simulation time: 0 hr 11 min 52 sec) 
Heartbeat CPU  0 instructions:  330000003 cycles:  416947749 heartbeat IPC: 0.82287 cumulative IPC: 0.61615 (Simulation time: 0 hr 11 min 54 sec) 
Heartbeat CPU  0 instructions:  331000001 cycles:  418162504 heartbeat IPC: 0.82321 cumulative IPC: 0.61682 (Simulation time: 0 hr 11 min 57 sec) 
Heartbeat CPU  0 instructions:  332000000 cycles:  419379780 heartbeat IPC: 0.82151 cumulative IPC: 0.61749 (Simulation time: 0 hr 11 min 59 sec) 
Heartbeat CPU  0 instructions:  333000000 cycles:  420594164 heartbeat IPC: 0.82346 cumulative IPC: 0.61815 (Simulation time: 0 hr 12 min 1 sec) 
Heartbeat CPU  0 instructions:  334000002 cycles:  421803501 heartbeat IPC: 0.82690 cumulative IPC: 0.61882 (Simulation time: 0 hr 12 min 3 sec) 
Heartbeat CPU  0 instructions:  335000001 cycles:  423015897 heartbeat IPC: 0.82481 cumulative IPC: 0.61948 (Simulation time: 0 hr 12 min 5 sec) 
Heartbeat CPU  0 instructions:  336000000 cycles:  424226653 heartbeat IPC: 0.82593 cumulative IPC: 0.62013 (Simulation time: 0 hr 12 min 7 sec) 
Heartbeat CPU  0 instructions:  337000003 cycles:  425436115 heartbeat IPC: 0.82682 cumulative IPC: 0.62079 (Simulation time: 0 hr 12 min 10 sec) 
Heartbeat CPU  0 instructions:  338000000 cycles:  426646794 heartbeat IPC: 0.82598 cumulative IPC: 0.62144 (Simulation time: 0 hr 12 min 12 sec) 
Heartbeat CPU  0 instructions:  339000000 cycles:  427855666 heartbeat IPC: 0.82722 cumulative IPC: 0.62208 (Simulation time: 0 hr 12 min 14 sec) 
Heartbeat CPU  0 instructions:  340000000 cycles:  429064915 heartbeat IPC: 0.82696 cumulative IPC: 0.62273 (Simulation time: 0 hr 12 min 16 sec) 
Heartbeat CPU  0 instructions:  341000003 cycles:  430276553 heartbeat IPC: 0.82533 cumulative IPC: 0.62336 (Simulation time: 0 hr 12 min 18 sec) 
Heartbeat CPU  0 instructions:  342000003 cycles:  431482789 heartbeat IPC: 0.82903 cumulative IPC: 0.62400 (Simulation time: 0 hr 12 min 20 sec) 
Heartbeat CPU  0 instructions:  343000001 cycles:  432691627 heartbeat IPC: 0.82724 cumulative IPC: 0.62463 (Simulation time: 0 hr 12 min 22 sec) 
Heartbeat CPU  0 instructions:  344000000 cycles:  433899927 heartbeat IPC: 0.82761 cumulative IPC: 0.62526 (Simulation time: 0 hr 12 min 25 sec) 
Heartbeat CPU  0 instructions:  345000002 cycles:  435105921 heartbeat IPC: 0.82919 cumulative IPC: 0.62589 (Simulation time: 0 hr 12 min 27 sec) 
Heartbeat CPU  0 instructions:  346000001 cycles:  436408360 heartbeat IPC: 0.76779 cumulative IPC: 0.62636 (Simulation time: 0 hr 12 min 29 sec) 
Heartbeat CPU  0 instructions:  347000002 cycles:  438090948 heartbeat IPC: 0.59432 cumulative IPC: 0.62622 (Simulation time: 0 hr 12 min 32 sec) 
Heartbeat CPU  0 instructions:  348000000 cycles:  439988900 heartbeat IPC: 0.52688 cumulative IPC: 0.62575 (Simulation time: 0 hr 12 min 35 sec) 
Heartbeat CPU  0 instructions:  349000002 cycles:  442110633 heartbeat IPC: 0.47131 cumulative IPC: 0.62493 (Simulation time: 0 hr 12 min 37 sec) 
Heartbeat CPU  0 instructions:  350000000 cycles:  444175001 heartbeat IPC: 0.48441 cumulative IPC: 0.62420 (Simulation time: 0 hr 12 min 39 sec) 
Heartbeat CPU  0 instructions:  351000003 cycles:  446286771 heartbeat IPC: 0.47354 cumulative IPC: 0.62341 (Simulation time: 0 hr 12 min 42 sec) 
Heartbeat CPU  0 instructions:  352000000 cycles:  448402230 heartbeat IPC: 0.47271 cumulative IPC: 0.62262 (Simulation time: 0 hr 12 min 44 sec) 
Heartbeat CPU  0 instructions:  353000000 cycles:  450504219 heartbeat IPC: 0.47574 cumulative IPC: 0.62187 (Simulation time: 0 hr 12 min 47 sec) 
Heartbeat CPU  0 instructions:  354000000 cycles:  452612040 heartbeat IPC: 0.47442 cumulative IPC: 0.62111 (Simulation time: 0 hr 12 min 49 sec) 
Heartbeat CPU  0 instructions:  355000003 cycles:  454708638 heartbeat IPC: 0.47696 cumulative IPC: 0.62037 (Simulation time: 0 hr 12 min 51 sec) 
Heartbeat CPU  0 instructions:  356000000 cycles:  456818957 heartbeat IPC: 0.47386 cumulative IPC: 0.61962 (Simulation time: 0 hr 12 min 54 sec) 
Heartbeat CPU  0 instructions:  357000000 cycles:  458931850 heartbeat IPC: 0.47328 cumulative IPC: 0.61888 (Simulation time: 0 hr 12 min 56 sec) 
Heartbeat CPU  0 instructions:  358000000 cycles:  461034975 heartbeat IPC: 0.47548 cumulative IPC: 0.61815 (Simulation time: 0 hr 12 min 59 sec) 
Heartbeat CPU  0 instructions:  359000001 cycles:  463142082 heartbeat IPC: 0.47458 cumulative IPC: 0.61743 (Simulation time: 0 hr 13 min 1 sec) 
Heartbeat CPU  0 instructions:  360000000 cycles:  465245232 heartbeat IPC: 0.47548 cumulative IPC: 0.61673 (Simulation time: 0 hr 13 min 4 sec) 
Heartbeat CPU  0 instructions:  361000000 cycles:  467335478 heartbeat IPC: 0.47841 cumulative IPC: 0.61604 (Simulation time: 0 hr 13 min 6 sec) 
Heartbeat CPU  0 instructions:  362000000 cycles:  469419273 heartbeat IPC: 0.47989 cumulative IPC: 0.61538 (Simulation time: 0 hr 13 min 8 sec) 
Heartbeat CPU  0 instructions:  363000000 cycles:  471541112 heartbeat IPC: 0.47129 cumulative IPC: 0.61466 (Simulation time: 0 hr 13 min 11 sec) 
Heartbeat CPU  0 instructions:  364000000 cycles:  473614669 heartbeat IPC: 0.48226 cumulative IPC: 0.61402 (Simulation time: 0 hr 13 min 13 sec) 
Heartbeat CPU  0 instructions:  365000000 cycles:  475705529 heartbeat IPC: 0.47827 cumulative IPC: 0.61337 (Simulation time: 0 hr 13 min 16 sec) 
Heartbeat CPU  0 instructions:  366000001 cycles:  477798291 heartbeat IPC: 0.47784 cumulative IPC: 0.61271 (Simulation time: 0 hr 13 min 18 sec) 
Heartbeat CPU  0 instructions:  367000001 cycles:  479895349 heartbeat IPC: 0.47686 cumulative IPC: 0.61206 (Simulation time: 0 hr 13 min 21 sec) 
Heartbeat CPU  0 instructions:  368000000 cycles:  481968682 heartbeat IPC: 0.48231 cumulative IPC: 0.61145 (Simulation time: 0 hr 13 min 23 sec) 
Heartbeat CPU  0 instructions:  369000000 cycles:  484054630 heartbeat IPC: 0.47940 cumulative IPC: 0.61082 (Simulation time: 0 hr 13 min 25 sec) 
Heartbeat CPU  0 instructions:  370000001 cycles:  486153647 heartbeat IPC: 0.47641 cumulative IPC: 0.61018 (Simulation time: 0 hr 13 min 28 sec) 
Heartbeat CPU  0 instructions:  371000003 cycles:  488228275 heartbeat IPC: 0.48202 cumulative IPC: 0.60959 (Simulation time: 0 hr 13 min 30 sec) 
Heartbeat CPU  0 instructions:  372000000 cycles:  489670954 heartbeat IPC: 0.69315 cumulative IPC: 0.60986 (Simulation time: 0 hr 13 min 32 sec) 
Heartbeat CPU  0 instructions:  373000001 cycles:  490899844 heartbeat IPC: 0.81374 cumulative IPC: 0.61042 (Simulation time: 0 hr 13 min 35 sec) 
Heartbeat CPU  0 instructions:  374000001 cycles:  492126702 heartbeat IPC: 0.81509 cumulative IPC: 0.61098 (Simulation time: 0 hr 13 min 37 sec) 
Heartbeat CPU  0 instructions:  375000000 cycles:  493352534 heartbeat IPC: 0.81577 cumulative IPC: 0.61153 (Simulation time: 0 hr 13 min 39 sec) 
Heartbeat CPU  0 instructions:  376000000 cycles:  494577667 heartbeat IPC: 0.81624 cumulative IPC: 0.61209 (Simulation time: 0 hr 13 min 41 sec) 
Heartbeat CPU  0 instructions:  377000000 cycles:  495801951 heartbeat IPC: 0.81680 cumulative IPC: 0.61264 (Simulation time: 0 hr 13 min 43 sec) 
Heartbeat CPU  0 instructions:  378000000 cycles:  497029203 heartbeat IPC: 0.81483 cumulative IPC: 0.61319 (Simulation time: 0 hr 13 min 46 sec) 
Heartbeat CPU  0 instructions:  379000000 cycles:  498253747 heartbeat IPC: 0.81663 cumulative IPC: 0.61374 (Simulation time: 0 hr 13 min 48 sec) 
Heartbeat CPU  0 instructions:  380000000 cycles:  499479456 heartbeat IPC: 0.81585 cumulative IPC: 0.61428 (Simulation time: 0 hr 13 min 50 sec) 
Heartbeat CPU  0 instructions:  381000003 cycles:  500704110 heartbeat IPC: 0.81656 cumulative IPC: 0.61483 (Simulation time: 0 hr 13 min 52 sec) 
Heartbeat CPU  0 instructions:  382000003 cycles:  501927382 heartbeat IPC: 0.81748 cumulative IPC: 0.61537 (Simulation time: 0 hr 13 min 54 sec) 
Heartbeat CPU  0 instructions:  383000002 cycles:  503152771 heartbeat IPC: 0.81607 cumulative IPC: 0.61590 (Simulation time: 0 hr 13 min 56 sec) 
Heartbeat CPU  0 instructions:  384000000 cycles:  504383529 heartbeat IPC: 0.81251 cumulative IPC: 0.61643 (Simulation time: 0 hr 13 min 58 sec) 
Heartbeat CPU  0 instructions:  385000000 cycles:  505612427 heartbeat IPC: 0.81374 cumulative IPC: 0.61695 (Simulation time: 0 hr 14 min 1 sec) 
Heartbeat CPU  0 instructions:  386000000 cycles:  506842556 heartbeat IPC: 0.81292 cumulative IPC: 0.61747 (Simulation time: 0 hr 14 min 3 sec) 
Heartbeat CPU  0 instructions:  387000002 cycles:  508073441 heartbeat IPC: 0.81243 cumulative IPC: 0.61799 (Simulation time: 0 hr 14 min 5 sec) 
Heartbeat CPU  0 instructions:  388000000 cycles:  509304033 heartbeat IPC: 0.81262 cumulative IPC: 0.61850 (Simulation time: 0 hr 14 min 7 sec) 
Heartbeat CPU  0 instructions:  389000000 cycles:  510534537 heartbeat IPC: 0.81268 cumulative IPC: 0.61901 (Simulation time: 0 hr 14 min 9 sec) 
Heartbeat CPU  0 instructions:  390000000 cycles:  511764129 heartbeat IPC: 0.81328 cumulative IPC: 0.61953 (Simulation time: 0 hr 14 min 12 sec) 
Heartbeat CPU  0 instructions:  391000002 cycles:  512994538 heartbeat IPC: 0.81274 cumulative IPC: 0.62003 (Simulation time: 0 hr 14 min 14 sec) 
Heartbeat CPU  0 instructions:  392000000 cycles:  514224585 heartbeat IPC: 0.81298 cumulative IPC: 0.62054 (Simulation time: 0 hr 14 min 16 sec) 
Heartbeat CPU  0 instructions:  393000002 cycles:  515455095 heartbeat IPC: 0.81267 cumulative IPC: 0.62104 (Simulation time: 0 hr 14 min 18 sec) 
Heartbeat CPU  0 instructions:  394000002 cycles:  516683341 heartbeat IPC: 0.81417 cumulative IPC: 0.62154 (Simulation time: 0 hr 14 min 20 sec) 
Heartbeat CPU  0 instructions:  395000003 cycles:  517912726 heartbeat IPC: 0.81342 cumulative IPC: 0.62204 (Simulation time: 0 hr 14 min 22 sec) 
Heartbeat CPU  0 instructions:  396000000 cycles:  519138997 heartbeat IPC: 0.81548 cumulative IPC: 0.62253 (Simulation time: 0 hr 14 min 25 sec) 
Heartbeat CPU  0 instructions:  397000002 cycles:  520372892 heartbeat IPC: 0.81044 cumulative IPC: 0.62302 (Simulation time: 0 hr 14 min 27 sec) 
Heartbeat CPU  0 instructions:  398000001 cycles:  521607347 heartbeat IPC: 0.81007 cumulative IPC: 0.62350 (Simulation time: 0 hr 14 min 29 sec) 
Heartbeat CPU  0 instructions:  399000000 cycles:  522838858 heartbeat IPC: 0.81201 cumulative IPC: 0.62399 (Simulation time: 0 hr 14 min 31 sec) 
Heartbeat CPU  0 instructions:  400000000 cycles:  524068850 heartbeat IPC: 0.81301 cumulative IPC: 0.62447 (Simulation time: 0 hr 14 min 33 sec) 
Heartbeat CPU  0 instructions:  401000001 cycles:  525300269 heartbeat IPC: 0.81207 cumulative IPC: 0.62495 (Simulation time: 0 hr 14 min 35 sec) 
Heartbeat CPU  0 instructions:  402000000 cycles:  526532144 heartbeat IPC: 0.81177 cumulative IPC: 0.62543 (Simulation time: 0 hr 14 min 38 sec) 
Heartbeat CPU  0 instructions:  403000002 cycles:  527764463 heartbeat IPC: 0.81148 cumulative IPC: 0.62590 (Simulation time: 0 hr 14 min 40 sec) 
Heartbeat CPU  0 instructions:  404000000 cycles:  528993728 heartbeat IPC: 0.81349 cumulative IPC: 0.62638 (Simulation time: 0 hr 14 min 42 sec) 
Heartbeat CPU  0 instructions:  405000002 cycles:  530223961 heartbeat IPC: 0.81286 cumulative IPC: 0.62685 (Simulation time: 0 hr 14 min 44 sec) 
Heartbeat CPU  0 instructions:  406000002 cycles:  531453313 heartbeat IPC: 0.81344 cumulative IPC: 0.62732 (Simulation time: 0 hr 14 min 46 sec) 
Heartbeat CPU  0 instructions:  407000001 cycles:  532674485 heartbeat IPC: 0.81888 cumulative IPC: 0.62780 (Simulation time: 0 hr 14 min 48 sec) 
Heartbeat CPU  0 instructions:  408000000 cycles:  533897013 heartbeat IPC: 0.81798 cumulative IPC: 0.62827 (Simulation time: 0 hr 14 min 51 sec) 
Heartbeat CPU  0 instructions:  409000000 cycles:  535118119 heartbeat IPC: 0.81893 cumulative IPC: 0.62875 (Simulation time: 0 hr 14 min 53 sec) 
Heartbeat CPU  0 instructions:  410000002 cycles:  536338335 heartbeat IPC: 0.81953 cumulative IPC: 0.62922 (Simulation time: 0 hr 14 min 55 sec) 
Heartbeat CPU  0 instructions:  411000003 cycles:  537559558 heartbeat IPC: 0.81885 cumulative IPC: 0.62969 (Simulation time: 0 hr 14 min 57 sec) 
Heartbeat CPU  0 instructions:  412000000 cycles:  538778978 heartbeat IPC: 0.82006 cumulative IPC: 0.63016 (Simulation time: 0 hr 14 min 59 sec) 
Heartbeat CPU  0 instructions:  413000003 cycles:  539996973 heartbeat IPC: 0.82102 cumulative IPC: 0.63062 (Simulation time: 0 hr 15 min 1 sec) 
Heartbeat CPU  0 instructions:  414000002 cycles:  541217143 heartbeat IPC: 0.81956 cumulative IPC: 0.63109 (Simulation time: 0 hr 15 min 4 sec) 
Heartbeat CPU  0 instructions:  415000001 cycles:  542438042 heartbeat IPC: 0.81907 cumulative IPC: 0.63155 (Simulation time: 0 hr 15 min 6 sec) 
Heartbeat CPU  0 instructions:  416000000 cycles:  543657476 heartbeat IPC: 0.82005 cumulative IPC: 0.63201 (Simulation time: 0 hr 15 min 8 sec) 
Heartbeat CPU  0 instructions:  417000003 cycles:  544882046 heartbeat IPC: 0.81662 cumulative IPC: 0.63246 (Simulation time: 0 hr 15 min 10 sec) 
Heartbeat CPU  0 instructions:  418000002 cycles:  546105704 heartbeat IPC: 0.81722 cumulative IPC: 0.63291 (Simulation time: 0 hr 15 min 12 sec) 
Heartbeat CPU  0 instructions:  419000001 cycles:  547327002 heartbeat IPC: 0.81880 cumulative IPC: 0.63336 (Simulation time: 0 hr 15 min 14 sec) 
Heartbeat CPU  0 instructions:  420000000 cycles:  548546375 heartbeat IPC: 0.82009 cumulative IPC: 0.63381 (Simulation time: 0 hr 15 min 17 sec) 
Heartbeat CPU  0 instructions:  421000003 cycles:  549764898 heartbeat IPC: 0.82067 cumulative IPC: 0.63426 (Simulation time: 0 hr 15 min 19 sec) 
Heartbeat CPU  0 instructions:  422000002 cycles:  550986072 heartbeat IPC: 0.81888 cumulative IPC: 0.63470 (Simulation time: 0 hr 15 min 21 sec) 
Heartbeat CPU  0 instructions:  423000003 cycles:  552203447 heartbeat IPC: 0.82144 cumulative IPC: 0.63515 (Simulation time: 0 hr 15 min 23 sec) 
Heartbeat CPU  0 instructions:  424000000 cycles:  553418161 heartbeat IPC: 0.82324 cumulative IPC: 0.63560 (Simulation time: 0 hr 15 min 25 sec) 
Heartbeat CPU  0 instructions:  425000001 cycles:  554628395 heartbeat IPC: 0.82629 cumulative IPC: 0.63605 (Simulation time: 0 hr 15 min 27 sec) 
Heartbeat CPU  0 instructions:  426000000 cycles:  555836995 heartbeat IPC: 0.82740 cumulative IPC: 0.63650 (Simulation time: 0 hr 15 min 30 sec) 
Heartbeat CPU  0 instructions:  427000002 cycles:  557045443 heartbeat IPC: 0.82751 cumulative IPC: 0.63695 (Simulation time: 0 hr 15 min 32 sec) 
Heartbeat CPU  0 instructions:  428000000 cycles:  558253591 heartbeat IPC: 0.82771 cumulative IPC: 0.63740 (Simulation time: 0 hr 15 min 34 sec) 
Heartbeat CPU  0 instructions:  429000003 cycles:  559461412 heartbeat IPC: 0.82794 cumulative IPC: 0.63785 (Simulation time: 0 hr 15 min 36 sec) 
Heartbeat CPU  0 instructions:  430000002 cycles:  560669716 heartbeat IPC: 0.82761 cumulative IPC: 0.63829 (Simulation time: 0 hr 15 min 38 sec) 
Heartbeat CPU  0 instructions:  431000001 cycles:  561876027 heartbeat IPC: 0.82897 cumulative IPC: 0.63873 (Simulation time: 0 hr 15 min 40 sec) 
Heartbeat CPU  0 instructions:  432000000 cycles:  563084350 heartbeat IPC: 0.82759 cumulative IPC: 0.63917 (Simulation time: 0 hr 15 min 43 sec) 
Heartbeat CPU  0 instructions:  433000000 cycles:  564290802 heartbeat IPC: 0.82888 cumulative IPC: 0.63961 (Simulation time: 0 hr 15 min 45 sec) 
Heartbeat CPU  0 instructions:  434000002 cycles:  565501351 heartbeat IPC: 0.82607 cumulative IPC: 0.64005 (Simulation time: 0 hr 15 min 47 sec) 
Heartbeat CPU  0 instructions:  435000001 cycles:  566713861 heartbeat IPC: 0.82473 cumulative IPC: 0.64047 (Simulation time: 0 hr 15 min 49 sec) 
Heartbeat CPU  0 instructions:  436000000 cycles:  567924196 heartbeat IPC: 0.82622 cumulative IPC: 0.64090 (Simulation time: 0 hr 15 min 51 sec) 
Heartbeat CPU  0 instructions:  437000003 cycles:  569133046 heartbeat IPC: 0.82723 cumulative IPC: 0.64133 (Simulation time: 0 hr 15 min 53 sec) 
Heartbeat CPU  0 instructions:  438000000 cycles:  570345790 heartbeat IPC: 0.82457 cumulative IPC: 0.64175 (Simulation time: 0 hr 15 min 56 sec) 
Heartbeat CPU  0 instructions:  439000000 cycles:  571557255 heartbeat IPC: 0.82545 cumulative IPC: 0.64217 (Simulation time: 0 hr 15 min 58 sec) 
Heartbeat CPU  0 instructions:  440000000 cycles:  572764375 heartbeat IPC: 0.82842 cumulative IPC: 0.64260 (Simulation time: 0 hr 16 min 0 sec) 
Heartbeat CPU  0 instructions:  441000001 cycles:  573982534 heartbeat IPC: 0.82091 cumulative IPC: 0.64301 (Simulation time: 0 hr 16 min 2 sec) 
Heartbeat CPU  0 instructions:  442000002 cycles:  575341254 heartbeat IPC: 0.73599 cumulative IPC: 0.64325 (Simulation time: 0 hr 16 min 5 sec) 
Heartbeat CPU  0 instructions:  443000002 cycles:  576713895 heartbeat IPC: 0.72852 cumulative IPC: 0.64347 (Simulation time: 0 hr 16 min 7 sec) 
Heartbeat CPU  0 instructions:  444000000 cycles:  578086194 heartbeat IPC: 0.72870 cumulative IPC: 0.64369 (Simulation time: 0 hr 16 min 10 sec) 
Heartbeat CPU  0 instructions:  445000000 cycles:  579448525 heartbeat IPC: 0.73404 cumulative IPC: 0.64392 (Simulation time: 0 hr 16 min 12 sec) 
Heartbeat CPU  0 instructions:  446000000 cycles:  580816197 heartbeat IPC: 0.73117 cumulative IPC: 0.64414 (Simulation time: 0 hr 16 min 15 sec) 
Heartbeat CPU  0 instructions:  447000000 cycles:  582178746 heartbeat IPC: 0.73392 cumulative IPC: 0.64436 (Simulation time: 0 hr 16 min 17 sec) 
Heartbeat CPU  0 instructions:  448000000 cycles:  583546012 heartbeat IPC: 0.73139 cumulative IPC: 0.64458 (Simulation time: 0 hr 16 min 20 sec) 
Heartbeat CPU  0 instructions:  449000001 cycles:  585097470 heartbeat IPC: 0.64456 cumulative IPC: 0.64458 (Simulation time: 0 hr 16 min 23 sec) 
Heartbeat CPU  0 instructions:  450000000 cycles:  586792751 heartbeat IPC: 0.58987 cumulative IPC: 0.64441 (Simulation time: 0 hr 16 min 25 sec) 
Heartbeat CPU  0 instructions:  451000003 cycles:  588883020 heartbeat IPC: 0.47841 cumulative IPC: 0.64378 (Simulation time: 0 hr 16 min 28 sec) 
Heartbeat CPU  0 instructions:  452000000 cycles:  590955361 heartbeat IPC: 0.48254 cumulative IPC: 0.64317 (Simulation time: 0 hr 16 min 30 sec) 
Heartbeat CPU  0 instructions:  453000001 cycles:  593054322 heartbeat IPC: 0.47643 cumulative IPC: 0.64253 (Simulation time: 0 hr 16 min 33 sec) 
Heartbeat CPU  0 instructions:  454000001 cycles:  595152042 heartbeat IPC: 0.47671 cumulative IPC: 0.64190 (Simulation time: 0 hr 16 min 35 sec) 
Heartbeat CPU  0 instructions:  455000002 cycles:  597269954 heartbeat IPC: 0.47216 cumulative IPC: 0.64125 (Simulation time: 0 hr 16 min 38 sec) 
Heartbeat CPU  0 instructions:  456000000 cycles:  599370401 heartbeat IPC: 0.47609 cumulative IPC: 0.64063 (Simulation time: 0 hr 16 min 40 sec) 
Heartbeat CPU  0 instructions:  457000002 cycles:  601477822 heartbeat IPC: 0.47451 cumulative IPC: 0.64000 (Simulation time: 0 hr 16 min 43 sec) 
Heartbeat CPU  0 instructions:  458000000 cycles:  603569852 heartbeat IPC: 0.47800 cumulative IPC: 0.63939 (Simulation time: 0 hr 16 min 45 sec) 
Heartbeat CPU  0 instructions:  459000001 cycles:  605689065 heartbeat IPC: 0.47187 cumulative IPC: 0.63876 (Simulation time: 0 hr 16 min 47 sec) 
Heartbeat CPU  0 instructions:  460000000 cycles:  607797467 heartbeat IPC: 0.47429 cumulative IPC: 0.63815 (Simulation time: 0 hr 16 min 50 sec) 
Heartbeat CPU  0 instructions:  461000001 cycles:  609898700 heartbeat IPC: 0.47591 cumulative IPC: 0.63754 (Simulation time: 0 hr 16 min 52 sec) 
Heartbeat CPU  0 instructions:  462000002 cycles:  612000663 heartbeat IPC: 0.47575 cumulative IPC: 0.63695 (Simulation time: 0 hr 16 min 55 sec) 
Heartbeat CPU  0 instructions:  463000001 cycles:  614076757 heartbeat IPC: 0.48167 cumulative IPC: 0.63638 (Simulation time: 0 hr 16 min 57 sec) 
Heartbeat CPU  0 instructions:  464000000 cycles:  616191286 heartbeat IPC: 0.47292 cumulative IPC: 0.63578 (Simulation time: 0 hr 16 min 59 sec) 
Heartbeat CPU  0 instructions:  465000001 cycles:  618281787 heartbeat IPC: 0.47835 cumulative IPC: 0.63520 (Simulation time: 0 hr 17 min 2 sec) 
Heartbeat CPU  0 instructions:  466000002 cycles:  620370965 heartbeat IPC: 0.47866 cumulative IPC: 0.63464 (Simulation time: 0 hr 17 min 4 sec) 
Heartbeat CPU  0 instructions:  467000001 cycles:  622490759 heartbeat IPC: 0.47174 cumulative IPC: 0.63404 (Simulation time: 0 hr 17 min 7 sec) 
Heartbeat CPU  0 instructions:  468000000 cycles:  624582692 heartbeat IPC: 0.47803 cumulative IPC: 0.63348 (Simulation time: 0 hr 17 min 9 sec) 
Heartbeat CPU  0 instructions:  469000002 cycles:  626674306 heartbeat IPC: 0.47810 cumulative IPC: 0.63292 (Simulation time: 0 hr 17 min 12 sec) 
Heartbeat CPU  0 instructions:  470000002 cycles:  628761964 heartbeat IPC: 0.47901 cumulative IPC: 0.63237 (Simulation time: 0 hr 17 min 14 sec) 
Heartbeat CPU  0 instructions:  471000002 cycles:  630858505 heartbeat IPC: 0.47698 cumulative IPC: 0.63182 (Simulation time: 0 hr 17 min 16 sec) 
Heartbeat CPU  0 instructions:  472000000 cycles:  632934202 heartbeat IPC: 0.48176 cumulative IPC: 0.63129 (Simulation time: 0 hr 17 min 19 sec) 
Heartbeat CPU  0 instructions:  473000002 cycles:  635043861 heartbeat IPC: 0.47401 cumulative IPC: 0.63073 (Simulation time: 0 hr 17 min 21 sec) 
Heartbeat CPU  0 instructions:  474000003 cycles:  637093488 heartbeat IPC: 0.48789 cumulative IPC: 0.63023 (Simulation time: 0 hr 17 min 24 sec) 
Heartbeat CPU  0 instructions:  475000002 cycles:  638793061 heartbeat IPC: 0.58838 cumulative IPC: 0.63012 (Simulation time: 0 hr 17 min 27 sec) 
Heartbeat CPU  0 instructions:  476000000 cycles:  640652647 heartbeat IPC: 0.53775 cumulative IPC: 0.62983 (Simulation time: 0 hr 17 min 29 sec) 
Heartbeat CPU  0 instructions:  477000003 cycles:  642676046 heartbeat IPC: 0.49422 cumulative IPC: 0.62937 (Simulation time: 0 hr 17 min 32 sec) 
Heartbeat CPU  0 instructions:  478000000 cycles:  644703090 heartbeat IPC: 0.49333 cumulative IPC: 0.62891 (Simulation time: 0 hr 17 min 34 sec) 
Heartbeat CPU  0 instructions:  479000003 cycles:  646751976 heartbeat IPC: 0.48807 cumulative IPC: 0.62843 (Simulation time: 0 hr 17 min 37 sec) 
Heartbeat CPU  0 instructions:  480000000 cycles:  648773789 heartbeat IPC: 0.49460 cumulative IPC: 0.62798 (Simulation time: 0 hr 17 min 39 sec) 
Heartbeat CPU  0 instructions:  481000003 cycles:  650817157 heartbeat IPC: 0.48939 cumulative IPC: 0.62752 (Simulation time: 0 hr 17 min 41 sec) 
Heartbeat CPU  0 instructions:  482000001 cycles:  652870315 heartbeat IPC: 0.48705 cumulative IPC: 0.62704 (Simulation time: 0 hr 17 min 44 sec) 
Heartbeat CPU  0 instructions:  483000003 cycles:  654910258 heartbeat IPC: 0.49021 cumulative IPC: 0.62659 (Simulation time: 0 hr 17 min 46 sec) 
Heartbeat CPU  0 instructions:  484000000 cycles:  656964417 heartbeat IPC: 0.48682 cumulative IPC: 0.62612 (Simulation time: 0 hr 17 min 49 sec) 
Heartbeat CPU  0 instructions:  485000003 cycles:  659004413 heartbeat IPC: 0.49020 cumulative IPC: 0.62567 (Simulation time: 0 hr 17 min 51 sec) 
Heartbeat CPU  0 instructions:  486000000 cycles:  661052563 heartbeat IPC: 0.48824 cumulative IPC: 0.62521 (Simulation time: 0 hr 17 min 53 sec) 
Heartbeat CPU  0 instructions:  487000000 cycles:  663094312 heartbeat IPC: 0.48978 cumulative IPC: 0.62477 (Simulation time: 0 hr 17 min 56 sec) 
Heartbeat CPU  0 instructions:  488000000 cycles:  665130636 heartbeat IPC: 0.49108 cumulative IPC: 0.62433 (Simulation time: 0 hr 17 min 58 sec) 
Heartbeat CPU  0 instructions:  489000001 cycles:  667183912 heartbeat IPC: 0.48703 cumulative IPC: 0.62388 (Simulation time: 0 hr 18 min 1 sec) 
Heartbeat CPU  0 instructions:  490000001 cycles:  669210226 heartbeat IPC: 0.49351 cumulative IPC: 0.62345 (Simulation time: 0 hr 18 min 3 sec) 
Heartbeat CPU  0 instructions:  491000003 cycles:  671288288 heartbeat IPC: 0.48122 cumulative IPC: 0.62298 (Simulation time: 0 hr 18 min 6 sec) 
Heartbeat CPU  0 instructions:  492000000 cycles:  673301587 heartbeat IPC: 0.49670 cumulative IPC: 0.62258 (Simulation time: 0 hr 18 min 8 sec) 
Heartbeat CPU  0 instructions:  493000003 cycles:  675348745 heartbeat IPC: 0.48848 cumulative IPC: 0.62215 (Simulation time: 0 hr 18 min 10 sec) 
Heartbeat CPU  0 instructions:  494000001 cycles:  677367608 heartbeat IPC: 0.49533 cumulative IPC: 0.62174 (Simulation time: 0 hr 18 min 13 sec) 
Heartbeat CPU  0 instructions:  495000003 cycles:  679409870 heartbeat IPC: 0.48965 cumulative IPC: 0.62132 (Simulation time: 0 hr 18 min 15 sec) 
Heartbeat CPU  0 instructions:  496000000 cycles:  681435381 heartbeat IPC: 0.49370 cumulative IPC: 0.62091 (Simulation time: 0 hr 18 min 18 sec) 
Heartbeat CPU  0 instructions:  497000003 cycles:  683448024 heartbeat IPC: 0.49686 cumulative IPC: 0.62052 (Simulation time: 0 hr 18 min 20 sec) 
Heartbeat CPU  0 instructions:  498000002 cycles:  685519790 heartbeat IPC: 0.48268 cumulative IPC: 0.62008 (Simulation time: 0 hr 18 min 22 sec) 
Heartbeat CPU  0 instructions:  499000003 cycles:  687531189 heartbeat IPC: 0.49717 cumulative IPC: 0.61969 (Simulation time: 0 hr 18 min 25 sec) 
Heartbeat CPU  0 instructions:  500000000 cycles:  689026951 heartbeat IPC: 0.66855 cumulative IPC: 0.61981 (Simulation time: 0 hr 18 min 27 sec) 
Heartbeat CPU  0 instructions:  501000000 cycles:  690262553 heartbeat IPC: 0.80932 cumulative IPC: 0.62017 (Simulation time: 0 hr 18 min 29 sec) 
Heartbeat CPU  0 instructions:  502000002 cycles:  691495378 heartbeat IPC: 0.81115 cumulative IPC: 0.62053 (Simulation time: 0 hr 18 min 31 sec) 
Heartbeat CPU  0 instructions:  503000002 cycles:  692727108 heartbeat IPC: 0.81187 cumulative IPC: 0.62089 (Simulation time: 0 hr 18 min 34 sec) 
Heartbeat CPU  0 instructions:  504000000 cycles:  693957207 heartbeat IPC: 0.81294 cumulative IPC: 0.62126 (Simulation time: 0 hr 18 min 36 sec) 
Heartbeat CPU  0 instructions:  505000002 cycles:  695186618 heartbeat IPC: 0.81340 cumulative IPC: 0.62162 (Simulation time: 0 hr 18 min 38 sec) 
Heartbeat CPU  0 instructions:  506000002 cycles:  696416870 heartbeat IPC: 0.81284 cumulative IPC: 0.62198 (Simulation time: 0 hr 18 min 40 sec) 
Heartbeat CPU  0 instructions:  507000000 cycles:  697647513 heartbeat IPC: 0.81258 cumulative IPC: 0.62234 (Simulation time: 0 hr 18 min 42 sec) 
Heartbeat CPU  0 instructions:  508000000 cycles:  698878135 heartbeat IPC: 0.81260 cumulative IPC: 0.62270 (Simulation time: 0 hr 18 min 44 sec) 
Heartbeat CPU  0 instructions:  509000000 cycles:  700107778 heartbeat IPC: 0.81324 cumulative IPC: 0.62305 (Simulation time: 0 hr 18 min 47 sec) 
Heartbeat CPU  0 instructions:  510000000 cycles:  701336467 heartbeat IPC: 0.81388 cumulative IPC: 0.62341 (Simulation time: 0 hr 18 min 49 sec) 
Heartbeat CPU  0 instructions:  511000003 cycles:  702567293 heartbeat IPC: 0.81246 cumulative IPC: 0.62376 (Simulation time: 0 hr 18 min 51 sec) 
Heartbeat CPU  0 instructions:  512000000 cycles:  703798737 heartbeat IPC: 0.81205 cumulative IPC: 0.62411 (Simulation time: 0 hr 18 min 53 sec) 
Heartbeat CPU  0 instructions:  513000001 cycles:  705029811 heartbeat IPC: 0.81230 cumulative IPC: 0.62446 (Simulation time: 0 hr 18 min 55 sec) 
Heartbeat CPU  0 instructions:  514000001 cycles:  706262519 heartbeat IPC: 0.81122 cumulative IPC: 0.62481 (Simulation time: 0 hr 18 min 57 sec) 
Heartbeat CPU  0 instructions:  515000002 cycles:  707495494 heartbeat IPC: 0.81105 cumulative IPC: 0.62516 (Simulation time: 0 hr 18 min 59 sec) 
Heartbeat CPU  0 instructions:  516000000 cycles:  708729185 heartbeat IPC: 0.81057 cumulative IPC: 0.62550 (Simulation time: 0 hr 19 min 2 sec) 
Heartbeat CPU  0 instructions:  517000002 cycles:  709961177 heartbeat IPC: 0.81170 cumulative IPC: 0.62585 (Simulation time: 0 hr 19 min 4 sec) 
Heartbeat CPU  0 instructions:  518000002 cycles:  711191384 heartbeat IPC: 0.81287 cumulative IPC: 0.62619 (Simulation time: 0 hr 19 min 6 sec) 
Heartbeat CPU  0 instructions:  519000002 cycles:  712423831 heartbeat IPC: 0.81139 cumulative IPC: 0.62653 (Simulation time: 0 hr 19 min 8 sec) 
Heartbeat CPU  0 instructions:  520000000 cycles:  713656174 heartbeat IPC: 0.81146 cumulative IPC: 0.62687 (Simulation time: 0 hr 19 min 10 sec) 
Heartbeat CPU  0 instructions:  521000001 cycles:  714884525 heartbeat IPC: 0.81410 cumulative IPC: 0.62722 (Simulation time: 0 hr 19 min 12 sec) 
Heartbeat CPU  0 instructions:  522000000 cycles:  716114958 heartbeat IPC: 0.81272 cumulative IPC: 0.62755 (Simulation time: 0 hr 19 min 15 sec) 
Heartbeat CPU  0 instructions:  523000000 cycles:  717349395 heartbeat IPC: 0.81009 cumulative IPC: 0.62789 (Simulation time: 0 hr 19 min 17 sec) 
Heartbeat CPU  0 instructions:  524000000 cycles:  718579628 heartbeat IPC: 0.81285 cumulative IPC: 0.62823 (Simulation time: 0 hr 19 min 19 sec) 
Heartbeat CPU  0 instructions:  525000000 cycles:  719813411 heartbeat IPC: 0.81052 cumulative IPC: 0.62856 (Simulation time: 0 hr 19 min 21 sec) 
Heartbeat CPU  0 instructions:  526000002 cycles:  721045089 heartbeat IPC: 0.81190 cumulative IPC: 0.62889 (Simulation time: 0 hr 19 min 23 sec) 
Heartbeat CPU  0 instructions:  527000002 cycles:  722279014 heartbeat IPC: 0.81042 cumulative IPC: 0.62922 (Simulation time: 0 hr 19 min 25 sec) 
Heartbeat CPU  0 instructions:  528000000 cycles:  723506919 heartbeat IPC: 0.81439 cumulative IPC: 0.62956 (Simulation time: 0 hr 19 min 28 sec) 
Heartbeat CPU  0 instructions:  529000002 cycles:  724739051 heartbeat IPC: 0.81160 cumulative IPC: 0.62989 (Simulation time: 0 hr 19 min 30 sec) 
Heartbeat CPU  0 instructions:  530000002 cycles:  725971886 heartbeat IPC: 0.81114 cumulative IPC: 0.63021 (Simulation time: 0 hr 19 min 32 sec) 
Heartbeat CPU  0 instructions:  531000001 cycles:  727206296 heartbeat IPC: 0.81010 cumulative IPC: 0.63054 (Simulation time: 0 hr 19 min 34 sec) 
Heartbeat CPU  0 instructions:  532000000 cycles:  728437659 heartbeat IPC: 0.81211 cumulative IPC: 0.63087 (Simulation time: 0 hr 19 min 36 sec) 
Heartbeat CPU  0 instructions:  533000000 cycles:  729670815 heartbeat IPC: 0.81093 cumulative IPC: 0.63119 (Simulation time: 0 hr 19 min 38 sec) 
Heartbeat CPU  0 instructions:  534000000 cycles:  730904191 heartbeat IPC: 0.81078 cumulative IPC: 0.63151 (Simulation time: 0 hr 19 min 41 sec) 
Heartbeat CPU  0 instructions:  535000003 cycles:  732133127 heartbeat IPC: 0.81371 cumulative IPC: 0.63184 (Simulation time: 0 hr 19 min 43 sec) 
Heartbeat CPU  0 instructions:  536000000 cycles:  733359917 heartbeat IPC: 0.81513 cumulative IPC: 0.63216 (Simulation time: 0 hr 19 min 45 sec) 
Heartbeat CPU  0 instructions:  537000003 cycles:  734585894 heartbeat IPC: 0.81568 cumulative IPC: 0.63249 (Simulation time: 0 hr 19 min 47 sec) 
Heartbeat CPU  0 instructions:  538000003 cycles:  735812753 heartbeat IPC: 0.81509 cumulative IPC: 0.63281 (Simulation time: 0 hr 19 min 49 sec) 
Heartbeat CPU  0 instructions:  539000001 cycles:  737037757 heartbeat IPC: 0.81632 cumulative IPC: 0.63314 (Simulation time: 0 hr 19 min 51 sec) 
Heartbeat CPU  0 instructions:  540000000 cycles:  738262767 heartbeat IPC: 0.81632 cumulative IPC: 0.63346 (Simulation time: 0 hr 19 min 54 sec) 
Heartbeat CPU  0 instructions:  541000000 cycles:  739485098 heartbeat IPC: 0.81811 cumulative IPC: 0.63378 (Simulation time: 0 hr 19 min 56 sec) 
Heartbeat CPU  0 instructions:  542000000 cycles:  740711106 heartbeat IPC: 0.81566 cumulative IPC: 0.63410 (Simulation time: 0 hr 19 min 58 sec) 
Heartbeat CPU  0 instructions:  543000002 cycles:  741936842 heartbeat IPC: 0.81584 cumulative IPC: 0.63442 (Simulation time: 0 hr 20 min 0 sec) 
Heartbeat CPU  0 instructions:  544000000 cycles:  743160367 heartbeat IPC: 0.81731 cumulative IPC: 0.63474 (Simulation time: 0 hr 20 min 2 sec) 
Heartbeat CPU  0 instructions:  545000001 cycles:  744385206 heartbeat IPC: 0.81643 cumulative IPC: 0.63506 (Simulation time: 0 hr 20 min 4 sec) 
Heartbeat CPU  0 instructions:  546000003 cycles:  745612007 heartbeat IPC: 0.81513 cumulative IPC: 0.63537 (Simulation time: 0 hr 20 min 7 sec) 
Heartbeat CPU  0 instructions:  547000002 cycles:  746835371 heartbeat IPC: 0.81742 cumulative IPC: 0.63569 (Simulation time: 0 hr 20 min 9 sec) 
Heartbeat CPU  0 instructions:  548000000 cycles:  748060125 heartbeat IPC: 0.81649 cumulative IPC: 0.63601 (Simulation time: 0 hr 20 min 11 sec) 
Heartbeat CPU  0 instructions:  549000000 cycles:  749281708 heartbeat IPC: 0.81861 cumulative IPC: 0.63632 (Simulation time: 0 hr 20 min 13 sec) 
Heartbeat CPU  0 instructions:  550000001 cycles:  750504092 heartbeat IPC: 0.81807 cumulative IPC: 0.63664 (Simulation time: 0 hr 20 min 15 sec) 
Heartbeat CPU  0 instructions:  551000001 cycles:  751724632 heartbeat IPC: 0.81931 cumulative IPC: 0.63695 (Simulation time: 0 hr 20 min 17 sec) 
Heartbeat CPU  0 instructions:  552000000 cycles:  752940510 heartbeat IPC: 0.82245 cumulative IPC: 0.63727 (Simulation time: 0 hr 20 min 20 sec) 
Heartbeat CPU  0 instructions:  553000000 cycles:  754155844 heartbeat IPC: 0.82282 cumulative IPC: 0.63759 (Simulation time: 0 hr 20 min 22 sec) 
Heartbeat CPU  0 instructions:  554000000 cycles:  755370261 heartbeat IPC: 0.82344 cumulative IPC: 0.63790 (Simulation time: 0 hr 20 min 24 sec) 
Heartbeat CPU  0 instructions:  555000002 cycles:  756586197 heartbeat IPC: 0.82241 cumulative IPC: 0.63822 (Simulation time: 0 hr 20 min 26 sec) 
Heartbeat CPU  0 instructions:  556000000 cycles:  757798739 heartbeat IPC: 0.82471 cumulative IPC: 0.63853 (Simulation time: 0 hr 20 min 28 sec) 
Heartbeat CPU  0 instructions:  557000001 cycles:  759008288 heartbeat IPC: 0.82676 cumulative IPC: 0.63885 (Simulation time: 0 hr 20 min 30 sec) 
Heartbeat CPU  0 instructions:  558000003 cycles:  760218595 heartbeat IPC: 0.82624 cumulative IPC: 0.63917 (Simulation time: 0 hr 20 min 33 sec) 
Heartbeat CPU  0 instructions:  559000000 cycles:  761429712 heartbeat IPC: 0.82568 cumulative IPC: 0.63948 (Simulation time: 0 hr 20 min 35 sec) 
Heartbeat CPU  0 instructions:  560000000 cycles:  762640332 heartbeat IPC: 0.82602 cumulative IPC: 0.63980 (Simulation time: 0 hr 20 min 37 sec) 
Heartbeat CPU  0 instructions:  561000000 cycles:  763849239 heartbeat IPC: 0.82719 cumulative IPC: 0.64011 (Simulation time: 0 hr 20 min 39 sec) 
Heartbeat CPU  0 instructions:  562000001 cycles:  765057947 heartbeat IPC: 0.82733 cumulative IPC: 0.64043 (Simulation time: 0 hr 20 min 41 sec) 
Heartbeat CPU  0 instructions:  563000003 cycles:  766267291 heartbeat IPC: 0.82690 cumulative IPC: 0.64074 (Simulation time: 0 hr 20 min 43 sec) 
Heartbeat CPU  0 instructions:  564000000 cycles:  767477017 heartbeat IPC: 0.82663 cumulative IPC: 0.64105 (Simulation time: 0 hr 20 min 45 sec) 
Heartbeat CPU  0 instructions:  565000000 cycles:  768685633 heartbeat IPC: 0.82739 cumulative IPC: 0.64136 (Simulation time: 0 hr 20 min 48 sec) 
Heartbeat CPU  0 instructions:  566000000 cycles:  769893137 heartbeat IPC: 0.82815 cumulative IPC: 0.64167 (Simulation time: 0 hr 20 min 50 sec) 
Heartbeat CPU  0 instructions:  567000002 cycles:  771100883 heartbeat IPC: 0.82799 cumulative IPC: 0.64198 (Simulation time: 0 hr 20 min 52 sec) 
Heartbeat CPU  0 instructions:  568000000 cycles:  772308484 heartbeat IPC: 0.82809 cumulative IPC: 0.64229 (Simulation time: 0 hr 20 min 54 sec) 
Heartbeat CPU  0 instructions:  569000000 cycles:  773515039 heartbeat IPC: 0.82881 cumulative IPC: 0.64260 (Simulation time: 0 hr 20 min 56 sec) 
Heartbeat CPU  0 instructions:  570000003 cycles:  776991986 heartbeat IPC: 0.28761 cumulative IPC: 0.64091 (Simulation time: 0 hr 21 min 1 sec) 
Heartbeat CPU  0 instructions:  571000000 cycles:  779685400 heartbeat IPC: 0.37127 cumulative IPC: 0.63993 (Simulation time: 0 hr 21 min 4 sec) 
Heartbeat CPU  0 instructions:  572000000 cycles:  781861481 heartbeat IPC: 0.45954 cumulative IPC: 0.63939 (Simulation time: 0 hr 21 min 6 sec) 
Heartbeat CPU  0 instructions:  573000002 cycles:  784054700 heartbeat IPC: 0.45595 cumulative IPC: 0.63885 (Simulation time: 0 hr 21 min 9 sec) 
Heartbeat CPU  0 instructions:  574000000 cycles:  786214039 heartbeat IPC: 0.46310 cumulative IPC: 0.63834 (Simulation time: 0 hr 21 min 11 sec) 
Heartbeat CPU  0 instructions:  575000000 cycles:  788370416 heartbeat IPC: 0.46374 cumulative IPC: 0.63783 (Simulation time: 0 hr 21 min 14 sec) 
Heartbeat CPU  0 instructions:  576000000 cycles:  790511796 heartbeat IPC: 0.46699 cumulative IPC: 0.63735 (Simulation time: 0 hr 21 min 16 sec) 
Heartbeat CPU  0 instructions:  577000002 cycles:  792656190 heartbeat IPC: 0.46633 cumulative IPC: 0.63686 (Simulation time: 0 hr 21 min 19 sec) 
Heartbeat CPU  0 instructions:  578000000 cycles:  794807815 heartbeat IPC: 0.46476 cumulative IPC: 0.63636 (Simulation time: 0 hr 21 min 21 sec) 
Heartbeat CPU  0 instructions:  579000000 cycles:  796959607 heartbeat IPC: 0.46473 cumulative IPC: 0.63587 (Simulation time: 0 hr 21 min 24 sec) 
Heartbeat CPU  0 instructions:  580000000 cycles:  799103131 heartbeat IPC: 0.46652 cumulative IPC: 0.63539 (Simulation time: 0 hr 21 min 26 sec) 
Heartbeat CPU  0 instructions:  581000002 cycles:  801244407 heartbeat IPC: 0.46701 cumulative IPC: 0.63492 (Simulation time: 0 hr 21 min 28 sec) 
Heartbeat CPU  0 instructions:  582000001 cycles:  803387511 heartbeat IPC: 0.46661 cumulative IPC: 0.63444 (Simulation time: 0 hr 21 min 31 sec) 
Heartbeat CPU  0 instructions:  583000000 cycles:  805527048 heartbeat IPC: 0.46739 cumulative IPC: 0.63397 (Simulation time: 0 hr 21 min 33 sec) 
Heartbeat CPU  0 instructions:  584000000 cycles:  807682954 heartbeat IPC: 0.46384 cumulative IPC: 0.63349 (Simulation time: 0 hr 21 min 36 sec) 
Heartbeat CPU  0 instructions:  585000001 cycles:  809809674 heartbeat IPC: 0.47021 cumulative IPC: 0.63304 (Simulation time: 0 hr 21 min 38 sec) 
Heartbeat CPU  0 instructions:  586000000 cycles:  812002254 heartbeat IPC: 0.45608 cumulative IPC: 0.63253 (Simulation time: 0 hr 21 min 41 sec) 
Heartbeat CPU  0 instructions:  587000002 cycles:  814150157 heartbeat IPC: 0.46557 cumulative IPC: 0.63207 (Simulation time: 0 hr 21 min 43 sec) 
Heartbeat CPU  0 instructions:  588000000 cycles:  816301257 heartbeat IPC: 0.46488 cumulative IPC: 0.63160 (Simulation time: 0 hr 21 min 45 sec) 
Heartbeat CPU  0 instructions:  589000000 cycles:  818456532 heartbeat IPC: 0.46398 cumulative IPC: 0.63114 (Simulation time: 0 hr 21 min 48 sec) 
Heartbeat CPU  0 instructions:  590000003 cycles:  820595787 heartbeat IPC: 0.46745 cumulative IPC: 0.63069 (Simulation time: 0 hr 21 min 50 sec) 
Heartbeat CPU  0 instructions:  591000002 cycles:  822733811 heartbeat IPC: 0.46772 cumulative IPC: 0.63024 (Simulation time: 0 hr 21 min 53 sec) 
Heartbeat CPU  0 instructions:  592000000 cycles:  824896428 heartbeat IPC: 0.46240 cumulative IPC: 0.62977 (Simulation time: 0 hr 21 min 55 sec) 
Heartbeat CPU  0 instructions:  593000000 cycles:  827037719 heartbeat IPC: 0.46701 cumulative IPC: 0.62933 (Simulation time: 0 hr 21 min 58 sec) 
Heartbeat CPU  0 instructions:  594000002 cycles:  828832155 heartbeat IPC: 0.55728 cumulative IPC: 0.62916 (Simulation time: 0 hr 22 min 0 sec) 
Heartbeat CPU  0 instructions:  595000002 cycles:  830544108 heartbeat IPC: 0.58413 cumulative IPC: 0.62907 (Simulation time: 0 hr 22 min 3 sec) 
Heartbeat CPU  0 instructions:  596000000 cycles:  833068805 heartbeat IPC: 0.39609 cumulative IPC: 0.62832 (Simulation time: 0 hr 22 min 7 sec) 
Heartbeat CPU  0 instructions:  597000002 cycles:  835626867 heartbeat IPC: 0.39092 cumulative IPC: 0.62755 (Simulation time: 0 hr 22 min 10 sec) 
Heartbeat CPU  0 instructions:  598000002 cycles:  838211138 heartbeat IPC: 0.38696 cumulative IPC: 0.62677 (Simulation time: 0 hr 22 min 14 sec) 
Heartbeat CPU  0 instructions:  599000000 cycles:  839458645 heartbeat IPC: 0.80160 cumulative IPC: 0.62705 (Simulation time: 0 hr 22 min 16 sec) 
Heartbeat CPU  0 instructions:  600000000 cycles:  840698145 heartbeat IPC: 0.80678 cumulative IPC: 0.62733 (Simulation time: 0 hr 22 min 18 sec) 
Finished CPU 0 instructions: 500000002 cycles: 797034528 cumulative IPC: 0.62733 (Simulation time: 0 hr 22 min 18 sec) 

ChampSim completed all CPUs

[ROI Statistics]
Core_0_instructions 500000002
Core_0_cycles 797034528
Core_0_IPC 0.62733

Core_0_branch_prediction_accuracy 99.99934
Core_0_branch_MPKI 0.00033
Core_0_average_ROB_occupancy_at_mispredict 123.65031

Core_0_L1D_total_access 101246327
Core_0_L1D_total_hit 91189547
Core_0_L1D_total_miss 10056780
Core_0_L1D_loads 50200424
Core_0_L1D_load_hit 41743692
Core_0_L1D_load_miss 8456732
Core_0_L1D_RFOs 51045903
Core_0_L1D_RFO_hit 49445855
Core_0_L1D_RFO_miss 1600048
Core_0_L1D_prefetches 0
Core_0_L1D_prefetch_hit 0
Core_0_L1D_prefetch_miss 0
Core_0_L1D_writebacks 0
Core_0_L1D_writeback_hit 0
Core_0_L1D_writeback_miss 0
Core_0_L1D_prefetch_requested 0
Core_0_L1D_prefetch_dropped 0
Core_0_L1D_prefetch_issued 0
Core_0_L1D_prefetch_filled 0
Core_0_L1D_prefetch_useful 0
Core_0_L1D_prefetch_useless 0
Core_0_L1D_prefetch_late 0
Core_0_L1D_average_miss_latency 155.65527

Core_0_L1D_rq_access 153921794
Core_0_L1D_rq_forward 0
Core_0_L1D_rq_merged 98194589
Core_0_L1D_rq_to_cache 55727205
Core_0_L1D_rq_full 0

Core_0_L1D_wq_access 59520168
Core_0_L1D_wq_forward 0
Core_0_L1D_wq_merged 0
Core_0_L1D_wq_to_cache 59520168
Core_0_L1D_wq_full 7735322

Core_0_L1D_pq_access 0
Core_0_L1D_pq_forward 0
Core_0_L1D_pq_merged 0
Core_0_L1D_pq_to_cache 0
Core_0_L1D_pq_full 0

Core_0_L1D_acc_epochs 721507
Core_0_L1D_acc_level_0 721507
Core_0_L1D_acc_level_1 0
Core_0_L1D_acc_level_2 0
Core_0_L1D_acc_level_3 0
Core_0_L1D_acc_level_4 0
Core_0_L1D_acc_level_5 0
Core_0_L1D_acc_level_6 0
Core_0_L1D_acc_level_7 0
Core_0_L1D_acc_level_8 0
Core_0_L1D_acc_level_9 0

Core_0_L1I_total_access 124308708
Core_0_L1I_total_hit 124308661
Core_0_L1I_total_miss 47
Core_0_L1I_loads 124308708
Core_0_L1I_load_hit 124308661
Core_0_L1I_load_miss 47
Core_0_L1I_RFOs 0
Core_0_L1I_RFO_hit 0
Core_0_L1I_RFO_miss 0
Core_0_L1I_prefetches 0
Core_0_L1I_prefetch_hit 0
Core_0_L1I_prefetch_miss 0
Core_0_L1I_writebacks 0
Core_0_L1I_writeback_hit 0
Core_0_L1I_writeback_miss 0
Core_0_L1I_prefetch_requested 0
Core_0_L1I_prefetch_dropped 0
Core_0_L1I_prefetch_issued 0
Core_0_L1I_prefetch_filled 0
Core_0_L1I_prefetch_useful 0
Core_0_L1I_prefetch_useless 0
Core_0_L1I_prefetch_late 0
Core_0_L1I_average_miss_latency 243.63830

Core_0_L1I_rq_access 500000004
Core_0_L1I_rq_forward 0
Core_0_L1I_rq_merged 375691257
Core_0_L1I_rq_to_cache 124308747
Core_0_L1I_rq_full 0

Core_0_L1I_wq_access 0
Core_0_L1I_wq_forward 0
Core_0_L1I_wq_merged 0
Core_0_L1I_wq_to_cache 0
Core_0_L1I_wq_full 0

Core_0_L1I_pq_access 0
Core_0_L1I_pq_forward 0
Core_0_L1I_pq_merged 0
Core_0_L1I_pq_to_cache 0
Core_0_L1I_pq_full 0

Core_0_L1I_acc_epochs 721507
Core_0_L1I_acc_level_0 721507
Core_0_L1I_acc_level_1 0
Core_0_L1I_acc_level_2 0
Core_0_L1I_acc_level_3 0
Core_0_L1I_acc_level_4 0
Core_0_L1I_acc_level_5 0
Core_0_L1I_acc_level_6 0
Core_0_L1I_acc_level_7 0
Core_0_L1I_acc_level_8 0
Core_0_L1I_acc_level_9 0

Core_0_L2C_total_access 16172976
Core_0_L2C_total_hit 6113417
Core_0_L2C_total_miss 10059559
Core_0_L2C_loads 8456779
Core_0_L2C_load_hit 3084139
Core_0_L2C_load_miss 5372640
Core_0_L2C_RFOs 1600048
Core_0_L2C_RFO_hit 0
Core_0_L2C_RFO_miss 1600048
Core_0_L2C_prefetches 3088766
Core_0_L2C_prefetch_hit 1959
Core_0_L2C_prefetch_miss 3086807
Core_0_L2C_writebacks 3027383
Core_0_L2C_writeback_hit 3027319
Core_0_L2C_writeback_miss 64
Core_0_L2C_prefetch_requested 7701759
Core_0_L2C_prefetch_dropped 0
Core_0_L2C_prefetch_issued 7701759
Core_0_L2C_prefetch_filled 3980665
Core_0_L2C_prefetch_useful 3977844
Core_0_L2C_prefetch_useless 2803
Core_0_L2C_prefetch_late 1223610
Core_0_L2C_average_miss_latency 227.37825

Core_0_L2C_rq_access 10056827
Core_0_L2C_rq_forward 0
Core_0_L2C_rq_merged 0
Core_0_L2C_rq_to_cache 10056827
Core_0_L2C_rq_full 0

Core_0_L2C_wq_access 3027383
Core_0_L2C_wq_forward 0
Core_0_L2C_wq_merged 0
Core_0_L2C_wq_to_cache 3027383
Core_0_L2C_wq_full 0

Core_0_L2C_pq_access 7701759
Core_0_L2C_pq_forward 0
Core_0_L2C_pq_merged 0
Core_0_L2C_pq_to_cache 7701759
Core_0_L2C_pq_full 0

Core_0_L2C_acc_epochs 721507
Core_0_L2C_acc_level_0 195071
Core_0_L2C_acc_level_1 34465
Core_0_L2C_acc_level_2 20476
Core_0_L2C_acc_level_3 21423
Core_0_L2C_acc_level_4 7964
Core_0_L2C_acc_level_5 17865
Core_0_L2C_acc_level_6 15303
Core_0_L2C_acc_level_7 14633
Core_0_L2C_acc_level_8 11155
Core_0_L2C_acc_level_9 383152

Core_0_LLC_total_access 13127117
Core_0_LLC_total_hit 223565
Core_0_LLC_total_miss 12903552
Core_0_LLC_loads 4236175
Core_0_LLC_load_hit 24880
Core_0_LLC_load_miss 4211295
Core_0_LLC_RFOs 1600048
Core_0_LLC_RFO_hit 5908
Core_0_LLC_RFO_miss 1594140
Core_0_LLC_prefetches 4261948
Core_0_LLC_prefetch_hit 128185
Core_0_LLC_prefetch_miss 4133763
Core_0_LLC_writebacks 3028946
Core_0_LLC_writeback_hit 64592
Core_0_LLC_writeback_miss 2964354
Core_0_LLC_prefetch_requested 0
Core_0_LLC_prefetch_dropped 0
Core_0_LLC_prefetch_issued 0
Core_0_LLC_prefetch_filled 5113793
Core_0_LLC_prefetch_useful 19881
Core_0_LLC_prefetch_useless 5092058
Core_0_LLC_prefetch_late 28
Core_0_LLC_average_miss_latency 155.40332

Core_0_LLC_rq_access 5836223
Core_0_LLC_rq_forward 0
Core_0_LLC_rq_merged 0
Core_0_LLC_rq_to_cache 5836223
Core_0_LLC_rq_full 0

Core_0_LLC_wq_access 3028946
Core_0_LLC_wq_forward 0
Core_0_LLC_wq_merged 0
Core_0_LLC_wq_to_cache 3028946
Core_0_LLC_wq_full 769

Core_0_LLC_pq_access 5242979
Core_0_LLC_pq_forward 0
Core_0_LLC_pq_merged 0
Core_0_LLC_pq_to_cache 5242979
Core_0_LLC_pq_full 0

Core_0_LLC_acc_epochs 820995
Core_0_LLC_acc_level_0 804904
Core_0_LLC_acc_level_1 12813
Core_0_LLC_acc_level_2 2650
Core_0_LLC_acc_level_3 362
Core_0_LLC_acc_level_4 0
Core_0_LLC_acc_level_5 257
Core_0_LLC_acc_level_6 3
Core_0_LLC_acc_level_7 1
Core_0_LLC_acc_level_8 0
Core_0_LLC_acc_level_9 5

Core_0_major_page_fault 0
Core_0_minor_page_fault 95964

[Bingo] PHT Access: 2325746
[Bingo] PHT Hit PC+Addr: 4530
[Bingo] PHT Hit PC+Offs: 2320147
[Bingo] PHT Miss: 1069
[Bingo] Prefetch PC+Addr: 0
[Bingo] Prefetch PC+Offs: 0
[Bingo] Useful PC+Addr: 0
[Bingo] Useful PC+Offs: 0
[Bingo] Useless PC+Addr: 0
[Bingo] Useless PC+Offs: 0
[Bingo] L1 Prefetch per Region: 0.00000
[Bingo] L2 Prefetch per Region: 4.30178
[Bingo] L3 Prefetch per Region: 0.01674
[Bingo] No Prefetch per Region: 27.68149
[Bingo] Number of Voters Mean: 15.99669
[Bingo] Number of Voters SD: 0.18108

Channel_0_RQ_row_buffer_hit 4837419
Channel_0_RQ_row_buffer_miss 5101779
Channel_0_WQ_row_buffer_hit 731004
Channel_0_WQ_row_buffer_miss 2299050
Channel_0_WQ_full 591268
Channel_0_dbus_congested 4508767

avg_congested_cycle 4

DRAM_bw_pochs 3283978
DRAM_bw_level_0 3006612
DRAM_bw_level_1 178627
DRAM_bw_level_2 40643
DRAM_bw_level_3 58096
