*************************************************
   ChampSim Multicore Out-of-Order Simulator
   Last compiled: Dec 11 2024 17:59:53
*************************************************
parsing config file: /home/functionmain/桌面/Pythia/config/bingo.ini

trace_0 /home/functionmain/桌面/Pythia/traces/433.milc-127B.champsimtrace.xz
adding L2C_PREFETCHER: Bingo
Initialize SHIP state
warmup_instructions 100000000
simulation_instructions 500000000
champsim_seed 220
measure_ipc 0
measure_ipc_epoch 1000
measure_dram_bw 1
measure_dram_bw_epoch 256
measure_cache_acc 1
measure_cache_acc_epoch 1024
l1d_perfect 0
l2c_perfect 0
llc_perfect 0
l1d_semi_perfect 0
l2c_semi_perfect 0
llc_semi_perfect 0
semi_perfect_cache_page_buffer_size 64

num_cpus 1
cpu_freq 4000
dram_io_freq 300
page_size 4096
block_size 64
max_read_per_cycle 8
max_fill_per_cycle 1
dram_channels 1
log2_dram_channels 0
dram_ranks 1
dram_banks 8
dram_rows 65536
dram_columns 128
dram_row_size 8
dram_size 4096
dram_pages 1048576

fetch_width 6
decode_width 6
exec_width 4
lq_width 2
sq_width 2
retire_width 4
scheduler_size 128
branch_mispredict_penalty 20
rob_size 256
lq_size 72
sq_size 56
num_instr_destinations_sparc 4
num_instr_destinations 2
num_instr_sources 4

itlb_set 16
itlb_way 8
itlb_rq_size 16
itlb_wq_size 16
itlb_pq_size 0
itlb_mshr_size 8
itlb_latency 1

dtlb_set 16
dtlb_way 4
dtlb_rq_size 16
dtlb_wq_size 16
dtlb_pq_size 0
dtlb_mshr_size 8
dtlb_latency 1

stlb_set 128
stlb_way 12
stlb_rq_size 32
stlb_wq_size 32
stlb_pq_size 0
stlb_mshr_size 16
stlb_latency 8

l1i_size 32
l1i_set 64
l1i_way 8
l1i_rq_size 64
l1i_wq_size 64
l1i_pq_size 8
l1i_mshr_size 8
l1i_latency 1

l1d_size 32
l1d_set 64
l1d_way 8
l1d_rq_size 64
l1d_wq_size 64
l1d_pq_size 8
l1d_mshr_size 16
l1d_latency 4

l2c_size 256
l2c_set 512
l2c_way 8
l2c_rq_size 32
l2c_wq_size 32
l2c_pq_size 32
l2c_mshr_size 32
l2c_latency 10

llc_size 2048
llc_set 2048
llc_way 16
llc_rq_size 32
llc_wq_size 32
llc_pq_size 32
llc_mshr_size 64
llc_latency 20

dram_channel_width 8
dram_wq_size 64
dram_rq_size 64
tRP 15
tRCD 15
tCAS 12.5
dram_dbus_turn_around_time 30
dram_write_high_wm 56
dram_write_low_wm 48
min_dram_writes_per_switch 16
dram_mtps 300
dram_dbus_return_time 106

bingo_region_size 2048
bingo_pattern_len 32
bingo_pc_width 16
bingo_min_addr_width 5
bingo_max_addr_width 16
bingo_ft_size 64
bingo_at_size 128
bingo_pht_size 4096
bingo_pht_ways 16
bingo_pf_streamer_size 128
bingo_debug_level 0
bingo_l1d_thresh 1.01
bingo_l2c_thresh 0.8
bingo_llc_thresh 0.05
bingo_pc_address_fill_level L2


Heartbeat CPU  0 instructions:    1000001 cycles:     385073 heartbeat IPC: 2.59691 cumulative IPC: 2.59691 (Simulation time: 0 hr 0 min 2 sec) 
Heartbeat CPU  0 instructions:    2000000 cycles:     770100 heartbeat IPC: 2.59722 cumulative IPC: 2.59707 (Simulation time: 0 hr 0 min 3 sec) 
Heartbeat CPU  0 instructions:    3000000 cycles:    1155105 heartbeat IPC: 2.59737 cumulative IPC: 2.59717 (Simulation time: 0 hr 0 min 5 sec) 
Heartbeat CPU  0 instructions:    4000000 cycles:    1540129 heartbeat IPC: 2.59724 cumulative IPC: 2.59719 (Simulation time: 0 hr 0 min 7 sec) 
Heartbeat CPU  0 instructions:    5000001 cycles:    1925178 heartbeat IPC: 2.59707 cumulative IPC: 2.59716 (Simulation time: 0 hr 0 min 8 sec) 
Heartbeat CPU  0 instructions:    6000000 cycles:    2310196 heartbeat IPC: 2.59728 cumulative IPC: 2.59718 (Simulation time: 0 hr 0 min 10 sec) 
Heartbeat CPU  0 instructions:    7000002 cycles:    2695197 heartbeat IPC: 2.59740 cumulative IPC: 2.59721 (Simulation time: 0 hr 0 min 12 sec) 
Heartbeat CPU  0 instructions:    8000000 cycles:    3080231 heartbeat IPC: 2.59717 cumulative IPC: 2.59721 (Simulation time: 0 hr 0 min 13 sec) 
Heartbeat CPU  0 instructions:    9000003 cycles:    3465269 heartbeat IPC: 2.59715 cumulative IPC: 2.59720 (Simulation time: 0 hr 0 min 15 sec) 
Heartbeat CPU  0 instructions:   10000000 cycles:    3850300 heartbeat IPC: 2.59719 cumulative IPC: 2.59720 (Simulation time: 0 hr 0 min 17 sec) 
Heartbeat CPU  0 instructions:   11000002 cycles:    4235305 heartbeat IPC: 2.59737 cumulative IPC: 2.59722 (Simulation time: 0 hr 0 min 19 sec) 
Heartbeat CPU  0 instructions:   12000000 cycles:    4620319 heartbeat IPC: 2.59730 cumulative IPC: 2.59722 (Simulation time: 0 hr 0 min 20 sec) 
Heartbeat CPU  0 instructions:   13000003 cycles:    5005372 heartbeat IPC: 2.59705 cumulative IPC: 2.59721 (Simulation time: 0 hr 0 min 22 sec) 
Heartbeat CPU  0 instructions:   14000000 cycles:    5390389 heartbeat IPC: 2.59728 cumulative IPC: 2.59722 (Simulation time: 0 hr 0 min 24 sec) 
Heartbeat CPU  0 instructions:   15000003 cycles:    5775407 heartbeat IPC: 2.59729 cumulative IPC: 2.59722 (Simulation time: 0 hr 0 min 25 sec) 
Heartbeat CPU  0 instructions:   16000000 cycles:    6160425 heartbeat IPC: 2.59727 cumulative IPC: 2.59722 (Simulation time: 0 hr 0 min 27 sec) 
Heartbeat CPU  0 instructions:   17000001 cycles:    6545469 heartbeat IPC: 2.59711 cumulative IPC: 2.59722 (Simulation time: 0 hr 0 min 29 sec) 
Heartbeat CPU  0 instructions:   18000000 cycles:    6930506 heartbeat IPC: 2.59715 cumulative IPC: 2.59721 (Simulation time: 0 hr 0 min 30 sec) 
Heartbeat CPU  0 instructions:   19000003 cycles:    7315504 heartbeat IPC: 2.59742 cumulative IPC: 2.59722 (Simulation time: 0 hr 0 min 32 sec) 
Heartbeat CPU  0 instructions:   20000000 cycles:    7803623 heartbeat IPC: 2.04867 cumulative IPC: 2.56291 (Simulation time: 0 hr 0 min 34 sec) 
Heartbeat CPU  0 instructions:   21000001 cycles:    8310400 heartbeat IPC: 1.97326 cumulative IPC: 2.52695 (Simulation time: 0 hr 0 min 35 sec) 
Heartbeat CPU  0 instructions:   22000001 cycles:    8867174 heartbeat IPC: 1.79606 cumulative IPC: 2.48106 (Simulation time: 0 hr 0 min 37 sec) 
Heartbeat CPU  0 instructions:   23000001 cycles:    9423995 heartbeat IPC: 1.79591 cumulative IPC: 2.44058 (Simulation time: 0 hr 0 min 39 sec) 
Heartbeat CPU  0 instructions:   24000000 cycles:    9972808 heartbeat IPC: 1.82211 cumulative IPC: 2.40654 (Simulation time: 0 hr 0 min 41 sec) 
Heartbeat CPU  0 instructions:   25000002 cycles:   10417109 heartbeat IPC: 2.25073 cumulative IPC: 2.39990 (Simulation time: 0 hr 0 min 43 sec) 
Heartbeat CPU  0 instructions:   26000002 cycles:   10861384 heartbeat IPC: 2.25086 cumulative IPC: 2.39380 (Simulation time: 0 hr 0 min 45 sec) 
Heartbeat CPU  0 instructions:   27000002 cycles:   11305658 heartbeat IPC: 2.25086 cumulative IPC: 2.38819 (Simulation time: 0 hr 0 min 47 sec) 
Heartbeat CPU  0 instructions:   28000000 cycles:   11749932 heartbeat IPC: 2.25086 cumulative IPC: 2.38299 (Simulation time: 0 hr 0 min 48 sec) 
Heartbeat CPU  0 instructions:   29000000 cycles:   12194242 heartbeat IPC: 2.25068 cumulative IPC: 2.37817 (Simulation time: 0 hr 0 min 50 sec) 
Heartbeat CPU  0 instructions:   30000000 cycles:   12638549 heartbeat IPC: 2.25070 cumulative IPC: 2.37369 (Simulation time: 0 hr 0 min 52 sec) 
Heartbeat CPU  0 instructions:   31000000 cycles:   13082823 heartbeat IPC: 2.25086 cumulative IPC: 2.36952 (Simulation time: 0 hr 0 min 54 sec) 
Heartbeat CPU  0 instructions:   32000000 cycles:   13527097 heartbeat IPC: 2.25086 cumulative IPC: 2.36562 (Simulation time: 0 hr 0 min 55 sec) 
Heartbeat CPU  0 instructions:   33000000 cycles:   13971399 heartbeat IPC: 2.25072 cumulative IPC: 2.36197 (Simulation time: 0 hr 0 min 57 sec) 
Heartbeat CPU  0 instructions:   34000000 cycles:   14415673 heartbeat IPC: 2.25086 cumulative IPC: 2.35854 (Simulation time: 0 hr 0 min 59 sec) 
Heartbeat CPU  0 instructions:   35000000 cycles:   14859947 heartbeat IPC: 2.25086 cumulative IPC: 2.35532 (Simulation time: 0 hr 1 min 1 sec) 
Heartbeat CPU  0 instructions:   36000000 cycles:   15304228 heartbeat IPC: 2.25083 cumulative IPC: 2.35229 (Simulation time: 0 hr 1 min 3 sec) 
Heartbeat CPU  0 instructions:   37000001 cycles:   15748546 heartbeat IPC: 2.25064 cumulative IPC: 2.34942 (Simulation time: 0 hr 1 min 5 sec) 
Heartbeat CPU  0 instructions:   38000001 cycles:   16192820 heartbeat IPC: 2.25086 cumulative IPC: 2.34672 (Simulation time: 0 hr 1 min 6 sec) 
Heartbeat CPU  0 instructions:   39000001 cycles:   16637094 heartbeat IPC: 2.25086 cumulative IPC: 2.34416 (Simulation time: 0 hr 1 min 8 sec) 
Heartbeat CPU  0 instructions:   40000000 cycles:   17081371 heartbeat IPC: 2.25085 cumulative IPC: 2.34173 (Simulation time: 0 hr 1 min 10 sec) 
Heartbeat CPU  0 instructions:   41000000 cycles:   17525682 heartbeat IPC: 2.25068 cumulative IPC: 2.33942 (Simulation time: 0 hr 1 min 12 sec) 
Heartbeat CPU  0 instructions:   42000000 cycles:   17969961 heartbeat IPC: 2.25084 cumulative IPC: 2.33723 (Simulation time: 0 hr 1 min 13 sec) 
Heartbeat CPU  0 instructions:   43000000 cycles:   18414248 heartbeat IPC: 2.25080 cumulative IPC: 2.33515 (Simulation time: 0 hr 1 min 15 sec) 
Heartbeat CPU  0 instructions:   44000000 cycles:   18858523 heartbeat IPC: 2.25086 cumulative IPC: 2.33316 (Simulation time: 0 hr 1 min 17 sec) 
Heartbeat CPU  0 instructions:   45000001 cycles:   19302830 heartbeat IPC: 2.25070 cumulative IPC: 2.33126 (Simulation time: 0 hr 1 min 19 sec) 
Heartbeat CPU  0 instructions:   46000001 cycles:   19747104 heartbeat IPC: 2.25086 cumulative IPC: 2.32946 (Simulation time: 0 hr 1 min 21 sec) 
Heartbeat CPU  0 instructions:   47000001 cycles:   20191378 heartbeat IPC: 2.25086 cumulative IPC: 2.32773 (Simulation time: 0 hr 1 min 22 sec) 
Heartbeat CPU  0 instructions:   48000000 cycles:   20635652 heartbeat IPC: 2.25086 cumulative IPC: 2.32607 (Simulation time: 0 hr 1 min 24 sec) 
Heartbeat CPU  0 instructions:   49000002 cycles:   21079976 heartbeat IPC: 2.25061 cumulative IPC: 2.32448 (Simulation time: 0 hr 1 min 26 sec) 
Heartbeat CPU  0 instructions:   50000001 cycles:   21524282 heartbeat IPC: 2.25070 cumulative IPC: 2.32296 (Simulation time: 0 hr 1 min 28 sec) 
Heartbeat CPU  0 instructions:   51000001 cycles:   21968556 heartbeat IPC: 2.25086 cumulative IPC: 2.32150 (Simulation time: 0 hr 1 min 30 sec) 
Heartbeat CPU  0 instructions:   52000000 cycles:   22412830 heartbeat IPC: 2.25086 cumulative IPC: 2.32010 (Simulation time: 0 hr 1 min 31 sec) 
Heartbeat CPU  0 instructions:   53000002 cycles:   22857132 heartbeat IPC: 2.25073 cumulative IPC: 2.31875 (Simulation time: 0 hr 1 min 33 sec) 
Heartbeat CPU  0 instructions:   54000002 cycles:   23301406 heartbeat IPC: 2.25086 cumulative IPC: 2.31746 (Simulation time: 0 hr 1 min 35 sec) 
Heartbeat CPU  0 instructions:   55000002 cycles:   23745680 heartbeat IPC: 2.25086 cumulative IPC: 2.31621 (Simulation time: 0 hr 1 min 37 sec) 
Heartbeat CPU  0 instructions:   56000000 cycles:   24189956 heartbeat IPC: 2.25085 cumulative IPC: 2.31501 (Simulation time: 0 hr 1 min 39 sec) 
Heartbeat CPU  0 instructions:   57000000 cycles:   24634280 heartbeat IPC: 2.25061 cumulative IPC: 2.31385 (Simulation time: 0 hr 1 min 40 sec) 
Heartbeat CPU  0 instructions:   58000000 cycles:   25078554 heartbeat IPC: 2.25086 cumulative IPC: 2.31273 (Simulation time: 0 hr 1 min 42 sec) 
Heartbeat CPU  0 instructions:   59000003 cycles:   25523030 heartbeat IPC: 2.24985 cumulative IPC: 2.31164 (Simulation time: 0 hr 1 min 44 sec) 
Heartbeat CPU  0 instructions:   60000000 cycles:   25967725 heartbeat IPC: 2.24873 cumulative IPC: 2.31056 (Simulation time: 0 hr 1 min 46 sec) 
Heartbeat CPU  0 instructions:   61000000 cycles:   26412459 heartbeat IPC: 2.24854 cumulative IPC: 2.30952 (Simulation time: 0 hr 1 min 47 sec) 
Heartbeat CPU  0 instructions:   62000002 cycles:   26857173 heartbeat IPC: 2.24864 cumulative IPC: 2.30851 (Simulation time: 0 hr 1 min 49 sec) 
Heartbeat CPU  0 instructions:   63000003 cycles:   27301856 heartbeat IPC: 2.24880 cumulative IPC: 2.30754 (Simulation time: 0 hr 1 min 51 sec) 
Heartbeat CPU  0 instructions:   64000000 cycles:   27746576 heartbeat IPC: 2.24860 cumulative IPC: 2.30659 (Simulation time: 0 hr 1 min 53 sec) 
Heartbeat CPU  0 instructions:   65000003 cycles:   28191305 heartbeat IPC: 2.24857 cumulative IPC: 2.30568 (Simulation time: 0 hr 1 min 55 sec) 
Heartbeat CPU  0 instructions:   66000000 cycles:   28635994 heartbeat IPC: 2.24876 cumulative IPC: 2.30479 (Simulation time: 0 hr 1 min 56 sec) 
Heartbeat CPU  0 instructions:   67000001 cycles:   29080710 heartbeat IPC: 2.24863 cumulative IPC: 2.30393 (Simulation time: 0 hr 1 min 58 sec) 
Heartbeat CPU  0 instructions:   68000000 cycles:   29525378 heartbeat IPC: 2.24887 cumulative IPC: 2.30310 (Simulation time: 0 hr 2 min 0 sec) 
Heartbeat CPU  0 instructions:   69000003 cycles:   29970110 heartbeat IPC: 2.24855 cumulative IPC: 2.30229 (Simulation time: 0 hr 2 min 2 sec) 
Heartbeat CPU  0 instructions:   70000003 cycles:   30414800 heartbeat IPC: 2.24876 cumulative IPC: 2.30151 (Simulation time: 0 hr 2 min 3 sec) 
Heartbeat CPU  0 instructions:   71000003 cycles:   30859503 heartbeat IPC: 2.24869 cumulative IPC: 2.30075 (Simulation time: 0 hr 2 min 5 sec) 
Heartbeat CPU  0 instructions:   72000000 cycles:   31304210 heartbeat IPC: 2.24866 cumulative IPC: 2.30001 (Simulation time: 0 hr 2 min 7 sec) 
Heartbeat CPU  0 instructions:   73000001 cycles:   31748940 heartbeat IPC: 2.24856 cumulative IPC: 2.29929 (Simulation time: 0 hr 2 min 9 sec) 
Heartbeat CPU  0 instructions:   74000002 cycles:   32193644 heartbeat IPC: 2.24869 cumulative IPC: 2.29859 (Simulation time: 0 hr 2 min 11 sec) 
Heartbeat CPU  0 instructions:   75000003 cycles:   32638315 heartbeat IPC: 2.24886 cumulative IPC: 2.29791 (Simulation time: 0 hr 2 min 12 sec) 
Heartbeat CPU  0 instructions:   76000000 cycles:   33083021 heartbeat IPC: 2.24867 cumulative IPC: 2.29725 (Simulation time: 0 hr 2 min 14 sec) 
Heartbeat CPU  0 instructions:   77000003 cycles:   33527741 heartbeat IPC: 2.24861 cumulative IPC: 2.29661 (Simulation time: 0 hr 2 min 16 sec) 
Heartbeat CPU  0 instructions:   78000000 cycles:   33972425 heartbeat IPC: 2.24878 cumulative IPC: 2.29598 (Simulation time: 0 hr 2 min 18 sec) 
Heartbeat CPU  0 instructions:   79000001 cycles:   34417155 heartbeat IPC: 2.24856 cumulative IPC: 2.29537 (Simulation time: 0 hr 2 min 20 sec) 
Heartbeat CPU  0 instructions:   80000000 cycles:   34861826 heartbeat IPC: 2.24885 cumulative IPC: 2.29477 (Simulation time: 0 hr 2 min 21 sec) 
Heartbeat CPU  0 instructions:   81000001 cycles:   35306577 heartbeat IPC: 2.24845 cumulative IPC: 2.29419 (Simulation time: 0 hr 2 min 23 sec) 
Heartbeat CPU  0 instructions:   82000002 cycles:   35751279 heartbeat IPC: 2.24870 cumulative IPC: 2.29362 (Simulation time: 0 hr 2 min 25 sec) 
Heartbeat CPU  0 instructions:   83000003 cycles:   36195969 heartbeat IPC: 2.24876 cumulative IPC: 2.29307 (Simulation time: 0 hr 2 min 27 sec) 
Heartbeat CPU  0 instructions:   84000000 cycles:   36640652 heartbeat IPC: 2.24879 cumulative IPC: 2.29254 (Simulation time: 0 hr 2 min 29 sec) 
Heartbeat CPU  0 instructions:   85000003 cycles:   37085405 heartbeat IPC: 2.24845 cumulative IPC: 2.29201 (Simulation time: 0 hr 2 min 30 sec) 
Heartbeat CPU  0 instructions:   86000002 cycles:   37530096 heartbeat IPC: 2.24875 cumulative IPC: 2.29149 (Simulation time: 0 hr 2 min 32 sec) 
Heartbeat CPU  0 instructions:   87000003 cycles:   37974781 heartbeat IPC: 2.24879 cumulative IPC: 2.29099 (Simulation time: 0 hr 2 min 34 sec) 
Heartbeat CPU  0 instructions:   88000000 cycles:   38419486 heartbeat IPC: 2.24867 cumulative IPC: 2.29050 (Simulation time: 0 hr 2 min 36 sec) 
Heartbeat CPU  0 instructions:   89000001 cycles:   38864221 heartbeat IPC: 2.24853 cumulative IPC: 2.29002 (Simulation time: 0 hr 2 min 37 sec) 
Heartbeat CPU  0 instructions:   90000000 cycles:   39308914 heartbeat IPC: 2.24874 cumulative IPC: 2.28956 (Simulation time: 0 hr 2 min 39 sec) 
Heartbeat CPU  0 instructions:   91000001 cycles:   39753626 heartbeat IPC: 2.24865 cumulative IPC: 2.28910 (Simulation time: 0 hr 2 min 41 sec) 
Heartbeat CPU  0 instructions:   92000000 cycles:   40198273 heartbeat IPC: 2.24897 cumulative IPC: 2.28866 (Simulation time: 0 hr 2 min 43 sec) 
Heartbeat CPU  0 instructions:   93000001 cycles:   40643010 heartbeat IPC: 2.24852 cumulative IPC: 2.28822 (Simulation time: 0 hr 2 min 45 sec) 
Heartbeat CPU  0 instructions:   94000003 cycles:   41083523 heartbeat IPC: 2.27009 cumulative IPC: 2.28802 (Simulation time: 0 hr 2 min 46 sec) 
Heartbeat CPU  0 instructions:   95000001 cycles:   41513534 heartbeat IPC: 2.32552 cumulative IPC: 2.28841 (Simulation time: 0 hr 2 min 48 sec) 
Heartbeat CPU  0 instructions:   96000000 cycles:   41943548 heartbeat IPC: 2.32550 cumulative IPC: 2.28879 (Simulation time: 0 hr 2 min 50 sec) 
Heartbeat CPU  0 instructions:   97000001 cycles:   42373579 heartbeat IPC: 2.32542 cumulative IPC: 2.28916 (Simulation time: 0 hr 2 min 52 sec) 
Heartbeat CPU  0 instructions:   98000000 cycles:   42803588 heartbeat IPC: 2.32553 cumulative IPC: 2.28953 (Simulation time: 0 hr 2 min 54 sec) 
Heartbeat CPU  0 instructions:   99000000 cycles:   43233617 heartbeat IPC: 2.32542 cumulative IPC: 2.28988 (Simulation time: 0 hr 2 min 56 sec) 
Heartbeat CPU  0 instructions:  100000000 cycles:   43663625 heartbeat IPC: 2.32554 cumulative IPC: 2.29024 (Simulation time: 0 hr 2 min 57 sec) 

Warmup complete CPU  0 instructions:  100000001 cycles:   43663626 (Simulation time: 0 hr 2 min 57 sec) 

Heartbeat CPU  0 instructions:  101000002 cycles:   49032054 heartbeat IPC: 0.18627 cumulative IPC: 0.18627 (Simulation time: 0 hr 3 min 2 sec) 
Heartbeat CPU  0 instructions:  102000001 cycles:   52457983 heartbeat IPC: 0.29189 cumulative IPC: 0.22742 (Simulation time: 0 hr 3 min 6 sec) 
Heartbeat CPU  0 instructions:  103000001 cycles:   56076171 heartbeat IPC: 0.27638 cumulative IPC: 0.24169 (Simulation time: 0 hr 3 min 9 sec) 
Heartbeat CPU  0 instructions:  104000000 cycles:   60276233 heartbeat IPC: 0.23809 cumulative IPC: 0.24078 (Simulation time: 0 hr 3 min 13 sec) 
Heartbeat CPU  0 instructions:  105000002 cycles:   64358997 heartbeat IPC: 0.24493 cumulative IPC: 0.24160 (Simulation time: 0 hr 3 min 16 sec) 
Heartbeat CPU  0 instructions:  106000001 cycles:   68492608 heartbeat IPC: 0.24192 cumulative IPC: 0.24165 (Simulation time: 0 hr 3 min 20 sec) 
Heartbeat CPU  0 instructions:  107000002 cycles:   72655280 heartbeat IPC: 0.24023 cumulative IPC: 0.24145 (Simulation time: 0 hr 3 min 23 sec) 
Heartbeat CPU  0 instructions:  108000000 cycles:   76786895 heartbeat IPC: 0.24204 cumulative IPC: 0.24152 (Simulation time: 0 hr 3 min 26 sec) 
Heartbeat CPU  0 instructions:  109000000 cycles:   80909760 heartbeat IPC: 0.24255 cumulative IPC: 0.24164 (Simulation time: 0 hr 3 min 30 sec) 
Heartbeat CPU  0 instructions:  110000001 cycles:   85044321 heartbeat IPC: 0.24186 cumulative IPC: 0.24166 (Simulation time: 0 hr 3 min 33 sec) 
Heartbeat CPU  0 instructions:  111000002 cycles:   89174093 heartbeat IPC: 0.24214 cumulative IPC: 0.24170 (Simulation time: 0 hr 3 min 36 sec) 
Heartbeat CPU  0 instructions:  112000000 cycles:   93278040 heartbeat IPC: 0.24367 cumulative IPC: 0.24187 (Simulation time: 0 hr 3 min 40 sec) 
Heartbeat CPU  0 instructions:  113000000 cycles:   97407520 heartbeat IPC: 0.24216 cumulative IPC: 0.24189 (Simulation time: 0 hr 3 min 43 sec) 
Heartbeat CPU  0 instructions:  114000001 cycles:  101483100 heartbeat IPC: 0.24536 cumulative IPC: 0.24213 (Simulation time: 0 hr 3 min 46 sec) 
Heartbeat CPU  0 instructions:  115000001 cycles:  105690539 heartbeat IPC: 0.23767 cumulative IPC: 0.24183 (Simulation time: 0 hr 3 min 50 sec) 
Heartbeat CPU  0 instructions:  116000000 cycles:  109884423 heartbeat IPC: 0.23844 cumulative IPC: 0.24162 (Simulation time: 0 hr 3 min 53 sec) 
Heartbeat CPU  0 instructions:  117000003 cycles:  114048460 heartbeat IPC: 0.24015 cumulative IPC: 0.24153 (Simulation time: 0 hr 3 min 56 sec) 
Heartbeat CPU  0 instructions:  118000001 cycles:  118251890 heartbeat IPC: 0.23790 cumulative IPC: 0.24132 (Simulation time: 0 hr 4 min 0 sec) 
Heartbeat CPU  0 instructions:  119000000 cycles:  122354137 heartbeat IPC: 0.24377 cumulative IPC: 0.24145 (Simulation time: 0 hr 4 min 3 sec) 
Heartbeat CPU  0 instructions:  120000000 cycles:  126460889 heartbeat IPC: 0.24350 cumulative IPC: 0.24155 (Simulation time: 0 hr 4 min 7 sec) 
Heartbeat CPU  0 instructions:  121000003 cycles:  130663699 heartbeat IPC: 0.23794 cumulative IPC: 0.24138 (Simulation time: 0 hr 4 min 10 sec) 
Heartbeat CPU  0 instructions:  122000001 cycles:  134810110 heartbeat IPC: 0.24117 cumulative IPC: 0.24137 (Simulation time: 0 hr 4 min 13 sec) 
Heartbeat CPU  0 instructions:  123000001 cycles:  138938663 heartbeat IPC: 0.24222 cumulative IPC: 0.24141 (Simulation time: 0 hr 4 min 17 sec) 
Heartbeat CPU  0 instructions:  124000000 cycles:  143068251 heartbeat IPC: 0.24215 cumulative IPC: 0.24144 (Simulation time: 0 hr 4 min 20 sec) 
Heartbeat CPU  0 instructions:  125000003 cycles:  147224084 heartbeat IPC: 0.24063 cumulative IPC: 0.24140 (Simulation time: 0 hr 4 min 24 sec) 
Heartbeat CPU  0 instructions:  126000001 cycles:  151305552 heartbeat IPC: 0.24501 cumulative IPC: 0.24154 (Simulation time: 0 hr 4 min 27 sec) 
Heartbeat CPU  0 instructions:  127000003 cycles:  154829958 heartbeat IPC: 0.28374 cumulative IPC: 0.24288 (Simulation time: 0 hr 4 min 30 sec) 
Heartbeat CPU  0 instructions:  128000000 cycles:  157769800 heartbeat IPC: 0.34015 cumulative IPC: 0.24539 (Simulation time: 0 hr 4 min 34 sec) 
Heartbeat CPU  0 instructions:  129000003 cycles:  161578978 heartbeat IPC: 0.26252 cumulative IPC: 0.24594 (Simulation time: 0 hr 4 min 37 sec) 
Heartbeat CPU  0 instructions:  130000002 cycles:  165636230 heartbeat IPC: 0.24647 cumulative IPC: 0.24596 (Simulation time: 0 hr 4 min 41 sec) 
Heartbeat CPU  0 instructions:  131000000 cycles:  169693810 heartbeat IPC: 0.24645 cumulative IPC: 0.24597 (Simulation time: 0 hr 4 min 44 sec) 
Heartbeat CPU  0 instructions:  132000000 cycles:  173797975 heartbeat IPC: 0.24365 cumulative IPC: 0.24590 (Simulation time: 0 hr 4 min 47 sec) 
Heartbeat CPU  0 instructions:  133000001 cycles:  177883684 heartbeat IPC: 0.24476 cumulative IPC: 0.24586 (Simulation time: 0 hr 4 min 51 sec) 
Heartbeat CPU  0 instructions:  134000002 cycles:  181985968 heartbeat IPC: 0.24377 cumulative IPC: 0.24580 (Simulation time: 0 hr 4 min 54 sec) 
Heartbeat CPU  0 instructions:  135000003 cycles:  186153743 heartbeat IPC: 0.23994 cumulative IPC: 0.24563 (Simulation time: 0 hr 4 min 58 sec) 
Heartbeat CPU  0 instructions:  136000000 cycles:  190272953 heartbeat IPC: 0.24276 cumulative IPC: 0.24555 (Simulation time: 0 hr 5 min 1 sec) 
Heartbeat CPU  0 instructions:  137000003 cycles:  194428508 heartbeat IPC: 0.24064 cumulative IPC: 0.24542 (Simulation time: 0 hr 5 min 4 sec) 
Heartbeat CPU  0 instructions:  138000002 cycles:  198586507 heartbeat IPC: 0.24050 cumulative IPC: 0.24528 (Simulation time: 0 hr 5 min 8 sec) 
Heartbeat CPU  0 instructions:  139000003 cycles:  202693676 heartbeat IPC: 0.24348 cumulative IPC: 0.24524 (Simulation time: 0 hr 5 min 11 sec) 
Heartbeat CPU  0 instructions:  140000000 cycles:  206837232 heartbeat IPC: 0.24134 cumulative IPC: 0.24514 (Simulation time: 0 hr 5 min 15 sec) 
Heartbeat CPU  0 instructions:  141000003 cycles:  210943320 heartbeat IPC: 0.24354 cumulative IPC: 0.24510 (Simulation time: 0 hr 5 min 18 sec) 
Heartbeat CPU  0 instructions:  142000002 cycles:  215077168 heartbeat IPC: 0.24191 cumulative IPC: 0.24502 (Simulation time: 0 hr 5 min 21 sec) 
Heartbeat CPU  0 instructions:  143000002 cycles:  219214205 heartbeat IPC: 0.24172 cumulative IPC: 0.24494 (Simulation time: 0 hr 5 min 25 sec) 
Heartbeat CPU  0 instructions:  144000000 cycles:  223334752 heartbeat IPC: 0.24269 cumulative IPC: 0.24489 (Simulation time: 0 hr 5 min 28 sec) 
Heartbeat CPU  0 instructions:  145000003 cycles:  227447461 heartbeat IPC: 0.24315 cumulative IPC: 0.24485 (Simulation time: 0 hr 5 min 31 sec) 
Heartbeat CPU  0 instructions:  146000001 cycles:  231539622 heartbeat IPC: 0.24437 cumulative IPC: 0.24484 (Simulation time: 0 hr 5 min 35 sec) 
Heartbeat CPU  0 instructions:  147000002 cycles:  235669294 heartbeat IPC: 0.24215 cumulative IPC: 0.24478 (Simulation time: 0 hr 5 min 38 sec) 
Heartbeat CPU  0 instructions:  148000000 cycles:  239813103 heartbeat IPC: 0.24132 cumulative IPC: 0.24471 (Simulation time: 0 hr 5 min 42 sec) 
Heartbeat CPU  0 instructions:  149000003 cycles:  243908969 heartbeat IPC: 0.24415 cumulative IPC: 0.24470 (Simulation time: 0 hr 5 min 45 sec) 
Heartbeat CPU  0 instructions:  150000002 cycles:  248070773 heartbeat IPC: 0.24028 cumulative IPC: 0.24461 (Simulation time: 0 hr 5 min 48 sec) 
Heartbeat CPU  0 instructions:  151000002 cycles:  252164540 heartbeat IPC: 0.24427 cumulative IPC: 0.24460 (Simulation time: 0 hr 5 min 52 sec) 
Heartbeat CPU  0 instructions:  152000000 cycles:  256286906 heartbeat IPC: 0.24258 cumulative IPC: 0.24456 (Simulation time: 0 hr 5 min 55 sec) 
Heartbeat CPU  0 instructions:  153000003 cycles:  258300274 heartbeat IPC: 0.49668 cumulative IPC: 0.24693 (Simulation time: 0 hr 5 min 58 sec) 
Heartbeat CPU  0 instructions:  154000003 cycles:  260201797 heartbeat IPC: 0.52589 cumulative IPC: 0.24938 (Simulation time: 0 hr 6 min 0 sec) 
Heartbeat CPU  0 instructions:  155000003 cycles:  262046052 heartbeat IPC: 0.54222 cumulative IPC: 0.25185 (Simulation time: 0 hr 6 min 3 sec) 
Heartbeat CPU  0 instructions:  156000000 cycles:  263875202 heartbeat IPC: 0.54670 cumulative IPC: 0.25430 (Simulation time: 0 hr 6 min 5 sec) 
Heartbeat CPU  0 instructions:  157000000 cycles:  265710289 heartbeat IPC: 0.54493 cumulative IPC: 0.25670 (Simulation time: 0 hr 6 min 8 sec) 
Heartbeat CPU  0 instructions:  158000000 cycles:  267546352 heartbeat IPC: 0.54464 cumulative IPC: 0.25906 (Simulation time: 0 hr 6 min 10 sec) 
Heartbeat CPU  0 instructions:  159000001 cycles:  269377250 heartbeat IPC: 0.54618 cumulative IPC: 0.26139 (Simulation time: 0 hr 6 min 13 sec) 
Heartbeat CPU  0 instructions:  160000000 cycles:  271220461 heartbeat IPC: 0.54253 cumulative IPC: 0.26367 (Simulation time: 0 hr 6 min 15 sec) 
Heartbeat CPU  0 instructions:  161000001 cycles:  273052579 heartbeat IPC: 0.54582 cumulative IPC: 0.26592 (Simulation time: 0 hr 6 min 18 sec) 
Heartbeat CPU  0 instructions:  162000003 cycles:  274886886 heartbeat IPC: 0.54517 cumulative IPC: 0.26814 (Simulation time: 0 hr 6 min 20 sec) 
Heartbeat CPU  0 instructions:  163000003 cycles:  276725676 heartbeat IPC: 0.54384 cumulative IPC: 0.27031 (Simulation time: 0 hr 6 min 23 sec) 
Heartbeat CPU  0 instructions:  164000000 cycles:  278559284 heartbeat IPC: 0.54537 cumulative IPC: 0.27246 (Simulation time: 0 hr 6 min 25 sec) 
Heartbeat CPU  0 instructions:  165000001 cycles:  280393531 heartbeat IPC: 0.54518 cumulative IPC: 0.27457 (Simulation time: 0 hr 6 min 28 sec) 
Heartbeat CPU  0 instructions:  166000003 cycles:  282228645 heartbeat IPC: 0.54493 cumulative IPC: 0.27665 (Simulation time: 0 hr 6 min 30 sec) 
Heartbeat CPU  0 instructions:  167000001 cycles:  284059478 heartbeat IPC: 0.54620 cumulative IPC: 0.27871 (Simulation time: 0 hr 6 min 33 sec) 
Heartbeat CPU  0 instructions:  168000000 cycles:  285893574 heartbeat IPC: 0.54523 cumulative IPC: 0.28072 (Simulation time: 0 hr 6 min 35 sec) 
Heartbeat CPU  0 instructions:  169000001 cycles:  287725288 heartbeat IPC: 0.54594 cumulative IPC: 0.28272 (Simulation time: 0 hr 6 min 38 sec) 
Heartbeat CPU  0 instructions:  170000001 cycles:  289559567 heartbeat IPC: 0.54517 cumulative IPC: 0.28467 (Simulation time: 0 hr 6 min 40 sec) 
Heartbeat CPU  0 instructions:  171000001 cycles:  291392254 heartbeat IPC: 0.54565 cumulative IPC: 0.28660 (Simulation time: 0 hr 6 min 43 sec) 
Heartbeat CPU  0 instructions:  172000000 cycles:  293226148 heartbeat IPC: 0.54529 cumulative IPC: 0.28850 (Simulation time: 0 hr 6 min 45 sec) 
Heartbeat CPU  0 instructions:  173000001 cycles:  295058060 heartbeat IPC: 0.54588 cumulative IPC: 0.29038 (Simulation time: 0 hr 6 min 48 sec) 
Heartbeat CPU  0 instructions:  174000001 cycles:  296890471 heartbeat IPC: 0.54573 cumulative IPC: 0.29223 (Simulation time: 0 hr 6 min 50 sec) 
Heartbeat CPU  0 instructions:  175000000 cycles:  298721724 heartbeat IPC: 0.54607 cumulative IPC: 0.29405 (Simulation time: 0 hr 6 min 53 sec) 
Heartbeat CPU  0 instructions:  176000000 cycles:  300551328 heartbeat IPC: 0.54657 cumulative IPC: 0.29585 (Simulation time: 0 hr 6 min 55 sec) 
Heartbeat CPU  0 instructions:  177000003 cycles:  302384422 heartbeat IPC: 0.54553 cumulative IPC: 0.29762 (Simulation time: 0 hr 6 min 58 sec) 
Heartbeat CPU  0 instructions:  178000003 cycles:  304214104 heartbeat IPC: 0.54654 cumulative IPC: 0.29937 (Simulation time: 0 hr 7 min 0 sec) 
Heartbeat CPU  0 instructions:  179000003 cycles:  306045539 heartbeat IPC: 0.54602 cumulative IPC: 0.30109 (Simulation time: 0 hr 7 min 3 sec) 
Heartbeat CPU  0 instructions:  180000000 cycles:  307876997 heartbeat IPC: 0.54601 cumulative IPC: 0.30279 (Simulation time: 0 hr 7 min 5 sec) 
Heartbeat CPU  0 instructions:  181000003 cycles:  309706518 heartbeat IPC: 0.54659 cumulative IPC: 0.30446 (Simulation time: 0 hr 7 min 8 sec) 
Heartbeat CPU  0 instructions:  182000000 cycles:  311539402 heartbeat IPC: 0.54559 cumulative IPC: 0.30611 (Simulation time: 0 hr 7 min 10 sec) 
Heartbeat CPU  0 instructions:  183000001 cycles:  313374992 heartbeat IPC: 0.54478 cumulative IPC: 0.30774 (Simulation time: 0 hr 7 min 13 sec) 
Heartbeat CPU  0 instructions:  184000000 cycles:  315205685 heartbeat IPC: 0.54624 cumulative IPC: 0.30934 (Simulation time: 0 hr 7 min 15 sec) 
Heartbeat CPU  0 instructions:  185000003 cycles:  317036414 heartbeat IPC: 0.54623 cumulative IPC: 0.31093 (Simulation time: 0 hr 7 min 18 sec) 
Heartbeat CPU  0 instructions:  186000001 cycles:  318863501 heartbeat IPC: 0.54732 cumulative IPC: 0.31250 (Simulation time: 0 hr 7 min 20 sec) 
Heartbeat CPU  0 instructions:  187000003 cycles:  320695341 heartbeat IPC: 0.54590 cumulative IPC: 0.31404 (Simulation time: 0 hr 7 min 23 sec) 
Heartbeat CPU  0 instructions:  188000000 cycles:  322518217 heartbeat IPC: 0.54858 cumulative IPC: 0.31558 (Simulation time: 0 hr 7 min 25 sec) 
Heartbeat CPU  0 instructions:  189000001 cycles:  324343107 heartbeat IPC: 0.54798 cumulative IPC: 0.31709 (Simulation time: 0 hr 7 min 28 sec) 
Heartbeat CPU  0 instructions:  190000002 cycles:  326165487 heartbeat IPC: 0.54873 cumulative IPC: 0.31858 (Simulation time: 0 hr 7 min 30 sec) 
Heartbeat CPU  0 instructions:  191000002 cycles:  327987120 heartbeat IPC: 0.54896 cumulative IPC: 0.32006 (Simulation time: 0 hr 7 min 33 sec) 
Heartbeat CPU  0 instructions:  192000000 cycles:  329805554 heartbeat IPC: 0.54992 cumulative IPC: 0.32152 (Simulation time: 0 hr 7 min 35 sec) 
Heartbeat CPU  0 instructions:  193000001 cycles:  331626671 heartbeat IPC: 0.54911 cumulative IPC: 0.32296 (Simulation time: 0 hr 7 min 38 sec) 
Heartbeat CPU  0 instructions:  194000001 cycles:  333451683 heartbeat IPC: 0.54794 cumulative IPC: 0.32438 (Simulation time: 0 hr 7 min 40 sec) 
Heartbeat CPU  0 instructions:  195000003 cycles:  335266837 heartbeat IPC: 0.55092 cumulative IPC: 0.32579 (Simulation time: 0 hr 7 min 43 sec) 
Heartbeat CPU  0 instructions:  196000000 cycles:  337095332 heartbeat IPC: 0.54690 cumulative IPC: 0.32716 (Simulation time: 0 hr 7 min 46 sec) 
Heartbeat CPU  0 instructions:  197000002 cycles:  338920059 heartbeat IPC: 0.54803 cumulative IPC: 0.32853 (Simulation time: 0 hr 7 min 48 sec) 
Heartbeat CPU  0 instructions:  198000000 cycles:  340728741 heartbeat IPC: 0.55289 cumulative IPC: 0.32989 (Simulation time: 0 hr 7 min 51 sec) 
Heartbeat CPU  0 instructions:  199000001 cycles:  342525485 heartbeat IPC: 0.55656 cumulative IPC: 0.33126 (Simulation time: 0 hr 7 min 53 sec) 
Heartbeat CPU  0 instructions:  200000000 cycles:  344349227 heartbeat IPC: 0.54832 cumulative IPC: 0.33257 (Simulation time: 0 hr 7 min 56 sec) 
Heartbeat CPU  0 instructions:  201000001 cycles:  346144504 heartbeat IPC: 0.55702 cumulative IPC: 0.33391 (Simulation time: 0 hr 7 min 58 sec) 
Heartbeat CPU  0 instructions:  202000000 cycles:  347936823 heartbeat IPC: 0.55794 cumulative IPC: 0.33523 (Simulation time: 0 hr 8 min 1 sec) 
Heartbeat CPU  0 instructions:  203000000 cycles:  349704680 heartbeat IPC: 0.56566 cumulative IPC: 0.33656 (Simulation time: 0 hr 8 min 3 sec) 
Heartbeat CPU  0 instructions:  204000000 cycles:  351488348 heartbeat IPC: 0.56064 cumulative IPC: 0.33785 (Simulation time: 0 hr 8 min 6 sec) 
Heartbeat CPU  0 instructions:  205000001 cycles:  353283076 heartbeat IPC: 0.55719 cumulative IPC: 0.33913 (Simulation time: 0 hr 8 min 8 sec) 
Heartbeat CPU  0 instructions:  206000001 cycles:  355024346 heartbeat IPC: 0.57429 cumulative IPC: 0.34044 (Simulation time: 0 hr 8 min 11 sec) 
Heartbeat CPU  0 instructions:  207000003 cycles:  356783471 heartbeat IPC: 0.56847 cumulative IPC: 0.34172 (Simulation time: 0 hr 8 min 13 sec) 
Heartbeat CPU  0 instructions:  208000000 cycles:  358530955 heartbeat IPC: 0.57225 cumulative IPC: 0.34300 (Simulation time: 0 hr 8 min 16 sec) 
Heartbeat CPU  0 instructions:  209000000 cycles:  360243256 heartbeat IPC: 0.58401 cumulative IPC: 0.34431 (Simulation time: 0 hr 8 min 18 sec) 
Heartbeat CPU  0 instructions:  210000002 cycles:  361955331 heartbeat IPC: 0.58409 cumulative IPC: 0.34559 (Simulation time: 0 hr 8 min 21 sec) 
Heartbeat CPU  0 instructions:  211000003 cycles:  363661876 heartbeat IPC: 0.58598 cumulative IPC: 0.34688 (Simulation time: 0 hr 8 min 23 sec) 
Heartbeat CPU  0 instructions:  212000000 cycles:  365349282 heartbeat IPC: 0.59262 cumulative IPC: 0.34817 (Simulation time: 0 hr 8 min 26 sec) 
Heartbeat CPU  0 instructions:  213000003 cycles:  367023529 heartbeat IPC: 0.59729 cumulative IPC: 0.34946 (Simulation time: 0 hr 8 min 28 sec) 
Heartbeat CPU  0 instructions:  214000000 cycles:  368690260 heartbeat IPC: 0.59998 cumulative IPC: 0.35074 (Simulation time: 0 hr 8 min 31 sec) 
Heartbeat CPU  0 instructions:  215000001 cycles:  370359596 heartbeat IPC: 0.59904 cumulative IPC: 0.35201 (Simulation time: 0 hr 8 min 33 sec) 
Heartbeat CPU  0 instructions:  216000000 cycles:  372023696 heartbeat IPC: 0.60092 cumulative IPC: 0.35327 (Simulation time: 0 hr 8 min 36 sec) 
Heartbeat CPU  0 instructions:  217000001 cycles:  373686442 heartbeat IPC: 0.60142 cumulative IPC: 0.35452 (Simulation time: 0 hr 8 min 38 sec) 
Heartbeat CPU  0 instructions:  218000002 cycles:  375344955 heartbeat IPC: 0.60295 cumulative IPC: 0.35576 (Simulation time: 0 hr 8 min 40 sec) 
Heartbeat CPU  0 instructions:  219000001 cycles:  376999234 heartbeat IPC: 0.60449 cumulative IPC: 0.35700 (Simulation time: 0 hr 8 min 43 sec) 
Heartbeat CPU  0 instructions:  220000000 cycles:  378657698 heartbeat IPC: 0.60297 cumulative IPC: 0.35822 (Simulation time: 0 hr 8 min 45 sec) 
Heartbeat CPU  0 instructions:  221000000 cycles:  380318832 heartbeat IPC: 0.60200 cumulative IPC: 0.35942 (Simulation time: 0 hr 8 min 48 sec) 
Heartbeat CPU  0 instructions:  222000000 cycles:  387304347 heartbeat IPC: 0.14315 cumulative IPC: 0.35502 (Simulation time: 0 hr 8 min 54 sec) 
Heartbeat CPU  0 instructions:  223000000 cycles:  407768215 heartbeat IPC: 0.04887 cumulative IPC: 0.33782 (Simulation time: 0 hr 9 min 10 sec) 
Heartbeat CPU  0 instructions:  224000000 cycles:  412573667 heartbeat IPC: 0.20810 cumulative IPC: 0.33613 (Simulation time: 0 hr 9 min 13 sec) 
Heartbeat CPU  0 instructions:  225000002 cycles:  417088712 heartbeat IPC: 0.22148 cumulative IPC: 0.33474 (Simulation time: 0 hr 9 min 17 sec) 
Heartbeat CPU  0 instructions:  226000001 cycles:  421663383 heartbeat IPC: 0.21859 cumulative IPC: 0.33333 (Simulation time: 0 hr 9 min 20 sec) 
Heartbeat CPU  0 instructions:  227000000 cycles:  426130262 heartbeat IPC: 0.22387 cumulative IPC: 0.33206 (Simulation time: 0 hr 9 min 24 sec) 
Heartbeat CPU  0 instructions:  228000000 cycles:  430610907 heartbeat IPC: 0.22318 cumulative IPC: 0.33079 (Simulation time: 0 hr 9 min 27 sec) 
Heartbeat CPU  0 instructions:  229000002 cycles:  435135816 heartbeat IPC: 0.22100 cumulative IPC: 0.32953 (Simulation time: 0 hr 9 min 31 sec) 
Heartbeat CPU  0 instructions:  230000000 cycles:  439633942 heartbeat IPC: 0.22231 cumulative IPC: 0.32831 (Simulation time: 0 hr 9 min 34 sec) 
Heartbeat CPU  0 instructions:  231000000 cycles:  444145635 heartbeat IPC: 0.22165 cumulative IPC: 0.32711 (Simulation time: 0 hr 9 min 37 sec) 
Heartbeat CPU  0 instructions:  232000000 cycles:  448691639 heartbeat IPC: 0.21997 cumulative IPC: 0.32590 (Simulation time: 0 hr 9 min 41 sec) 
Heartbeat CPU  0 instructions:  233000002 cycles:  453185754 heartbeat IPC: 0.22251 cumulative IPC: 0.32477 (Simulation time: 0 hr 9 min 44 sec) 
Heartbeat CPU  0 instructions:  234000001 cycles:  457707641 heartbeat IPC: 0.22115 cumulative IPC: 0.32364 (Simulation time: 0 hr 9 min 48 sec) 
Heartbeat CPU  0 instructions:  235000000 cycles:  462202966 heartbeat IPC: 0.22245 cumulative IPC: 0.32255 (Simulation time: 0 hr 9 min 51 sec) 
Heartbeat CPU  0 instructions:  236000000 cycles:  466741945 heartbeat IPC: 0.22031 cumulative IPC: 0.32145 (Simulation time: 0 hr 9 min 55 sec) 
Heartbeat CPU  0 instructions:  237000002 cycles:  471241811 heartbeat IPC: 0.22223 cumulative IPC: 0.32041 (Simulation time: 0 hr 9 min 58 sec) 
Heartbeat CPU  0 instructions:  238000001 cycles:  475743479 heartbeat IPC: 0.22214 cumulative IPC: 0.31939 (Simulation time: 0 hr 10 min 2 sec) 
Heartbeat CPU  0 instructions:  239000000 cycles:  480264644 heartbeat IPC: 0.22118 cumulative IPC: 0.31837 (Simulation time: 0 hr 10 min 5 sec) 
Heartbeat CPU  0 instructions:  240000000 cycles:  484796754 heartbeat IPC: 0.22065 cumulative IPC: 0.31736 (Simulation time: 0 hr 10 min 9 sec) 
Heartbeat CPU  0 instructions:  241000001 cycles:  489308691 heartbeat IPC: 0.22163 cumulative IPC: 0.31640 (Simulation time: 0 hr 10 min 12 sec) 
Heartbeat CPU  0 instructions:  242000001 cycles:  493794284 heartbeat IPC: 0.22294 cumulative IPC: 0.31546 (Simulation time: 0 hr 10 min 16 sec) 
Heartbeat CPU  0 instructions:  243000000 cycles:  498341788 heartbeat IPC: 0.21990 cumulative IPC: 0.31451 (Simulation time: 0 hr 10 min 19 sec) 
Heartbeat CPU  0 instructions:  244000000 cycles:  502859507 heartbeat IPC: 0.22135 cumulative IPC: 0.31359 (Simulation time: 0 hr 10 min 23 sec) 
Heartbeat CPU  0 instructions:  245000002 cycles:  507360154 heartbeat IPC: 0.22219 cumulative IPC: 0.31270 (Simulation time: 0 hr 10 min 26 sec) 
Heartbeat CPU  0 instructions:  246000000 cycles:  511674818 heartbeat IPC: 0.23177 cumulative IPC: 0.31196 (Simulation time: 0 hr 10 min 30 sec) 
Heartbeat CPU  0 instructions:  247000000 cycles:  514728074 heartbeat IPC: 0.32752 cumulative IPC: 0.31206 (Simulation time: 0 hr 10 min 33 sec) 
Heartbeat CPU  0 instructions:  248000000 cycles:  521436016 heartbeat IPC: 0.14908 cumulative IPC: 0.30977 (Simulation time: 0 hr 10 min 39 sec) 
Heartbeat CPU  0 instructions:  249000003 cycles:  535339297 heartbeat IPC: 0.07193 cumulative IPC: 0.30305 (Simulation time: 0 hr 10 min 49 sec) 
Heartbeat CPU  0 instructions:  250000001 cycles:  549278889 heartbeat IPC: 0.07174 cumulative IPC: 0.29667 (Simulation time: 0 hr 10 min 58 sec) 
Heartbeat CPU  0 instructions:  251000000 cycles:  559607812 heartbeat IPC: 0.09682 cumulative IPC: 0.29267 (Simulation time: 0 hr 11 min 6 sec) 
Heartbeat CPU  0 instructions:  252000000 cycles:  562836912 heartbeat IPC: 0.30968 cumulative IPC: 0.29277 (Simulation time: 0 hr 11 min 10 sec) 
Heartbeat CPU  0 instructions:  253000001 cycles:  566720218 heartbeat IPC: 0.25751 cumulative IPC: 0.29251 (Simulation time: 0 hr 11 min 13 sec) 
Heartbeat CPU  0 instructions:  254000001 cycles:  570695068 heartbeat IPC: 0.25158 cumulative IPC: 0.29220 (Simulation time: 0 hr 11 min 17 sec) 
Heartbeat CPU  0 instructions:  255000000 cycles:  574763087 heartbeat IPC: 0.24582 cumulative IPC: 0.29185 (Simulation time: 0 hr 11 min 20 sec) 
Heartbeat CPU  0 instructions:  256000000 cycles:  578843650 heartbeat IPC: 0.24506 cumulative IPC: 0.29149 (Simulation time: 0 hr 11 min 23 sec) 
Heartbeat CPU  0 instructions:  257000000 cycles:  582950931 heartbeat IPC: 0.24347 cumulative IPC: 0.29112 (Simulation time: 0 hr 11 min 27 sec) 
Heartbeat CPU  0 instructions:  258000001 cycles:  587003155 heartbeat IPC: 0.24678 cumulative IPC: 0.29079 (Simulation time: 0 hr 11 min 30 sec) 
Heartbeat CPU  0 instructions:  259000000 cycles:  591125708 heartbeat IPC: 0.24257 cumulative IPC: 0.29043 (Simulation time: 0 hr 11 min 33 sec) 
Heartbeat CPU  0 instructions:  260000000 cycles:  595231063 heartbeat IPC: 0.24358 cumulative IPC: 0.29008 (Simulation time: 0 hr 11 min 37 sec) 
Heartbeat CPU  0 instructions:  261000002 cycles:  599325542 heartbeat IPC: 0.24423 cumulative IPC: 0.28974 (Simulation time: 0 hr 11 min 40 sec) 
Heartbeat CPU  0 instructions:  262000001 cycles:  603404746 heartbeat IPC: 0.24515 cumulative IPC: 0.28942 (Simulation time: 0 hr 11 min 44 sec) 
Heartbeat CPU  0 instructions:  263000001 cycles:  607445428 heartbeat IPC: 0.24748 cumulative IPC: 0.28912 (Simulation time: 0 hr 11 min 47 sec) 
Heartbeat CPU  0 instructions:  264000000 cycles:  611506638 heartbeat IPC: 0.24623 cumulative IPC: 0.28881 (Simulation time: 0 hr 11 min 50 sec) 
Heartbeat CPU  0 instructions:  265000002 cycles:  615600843 heartbeat IPC: 0.24425 cumulative IPC: 0.28849 (Simulation time: 0 hr 11 min 54 sec) 
Heartbeat CPU  0 instructions:  266000000 cycles:  619648199 heartbeat IPC: 0.24707 cumulative IPC: 0.28820 (Simulation time: 0 hr 11 min 57 sec) 
Heartbeat CPU  0 instructions:  267000001 cycles:  623806538 heartbeat IPC: 0.24048 cumulative IPC: 0.28786 (Simulation time: 0 hr 12 min 0 sec) 
Heartbeat CPU  0 instructions:  268000000 cycles:  627973371 heartbeat IPC: 0.23999 cumulative IPC: 0.28752 (Simulation time: 0 hr 12 min 4 sec) 
Heartbeat CPU  0 instructions:  269000002 cycles:  632015623 heartbeat IPC: 0.24739 cumulative IPC: 0.28724 (Simulation time: 0 hr 12 min 7 sec) 
Heartbeat CPU  0 instructions:  270000001 cycles:  636070497 heartbeat IPC: 0.24662 cumulative IPC: 0.28696 (Simulation time: 0 hr 12 min 11 sec) 
Heartbeat CPU  0 instructions:  271000001 cycles:  640132528 heartbeat IPC: 0.24618 cumulative IPC: 0.28669 (Simulation time: 0 hr 12 min 14 sec) 
Heartbeat CPU  0 instructions:  272000000 cycles:  644184829 heartbeat IPC: 0.24677 cumulative IPC: 0.28642 (Simulation time: 0 hr 12 min 17 sec) 
Heartbeat CPU  0 instructions:  273000002 cycles:  648299359 heartbeat IPC: 0.24304 cumulative IPC: 0.28612 (Simulation time: 0 hr 12 min 21 sec) 
Heartbeat CPU  0 instructions:  274000001 cycles:  652295416 heartbeat IPC: 0.25025 cumulative IPC: 0.28589 (Simulation time: 0 hr 12 min 24 sec) 
Heartbeat CPU  0 instructions:  275000001 cycles:  656373838 heartbeat IPC: 0.24519 cumulative IPC: 0.28562 (Simulation time: 0 hr 12 min 27 sec) 
Heartbeat CPU  0 instructions:  276000000 cycles:  660435019 heartbeat IPC: 0.24623 cumulative IPC: 0.28536 (Simulation time: 0 hr 12 min 31 sec) 
Heartbeat CPU  0 instructions:  277000002 cycles:  662677851 heartbeat IPC: 0.44587 cumulative IPC: 0.28594 (Simulation time: 0 hr 12 min 33 sec) 
Heartbeat CPU  0 instructions:  278000003 cycles:  664608171 heartbeat IPC: 0.51805 cumulative IPC: 0.28666 (Simulation time: 0 hr 12 min 36 sec) 
Heartbeat CPU  0 instructions:  279000003 cycles:  666447247 heartbeat IPC: 0.54375 cumulative IPC: 0.28742 (Simulation time: 0 hr 12 min 39 sec) 
Heartbeat CPU  0 instructions:  280000000 cycles:  668283602 heartbeat IPC: 0.54456 cumulative IPC: 0.28818 (Simulation time: 0 hr 12 min 41 sec) 
Heartbeat CPU  0 instructions:  281000001 cycles:  670123529 heartbeat IPC: 0.54350 cumulative IPC: 0.28893 (Simulation time: 0 hr 12 min 44 sec) 
Heartbeat CPU  0 instructions:  282000003 cycles:  671962152 heartbeat IPC: 0.54389 cumulative IPC: 0.28967 (Simulation time: 0 hr 12 min 46 sec) 
Heartbeat CPU  0 instructions:  283000001 cycles:  673800075 heartbeat IPC: 0.54409 cumulative IPC: 0.29041 (Simulation time: 0 hr 12 min 49 sec) 
Heartbeat CPU  0 instructions:  284000000 cycles:  675639887 heartbeat IPC: 0.54353 cumulative IPC: 0.29115 (Simulation time: 0 hr 12 min 51 sec) 
Heartbeat CPU  0 instructions:  285000001 cycles:  677479066 heartbeat IPC: 0.54372 cumulative IPC: 0.29188 (Simulation time: 0 hr 12 min 54 sec) 
Heartbeat CPU  0 instructions:  286000001 cycles:  679320288 heartbeat IPC: 0.54312 cumulative IPC: 0.29261 (Simulation time: 0 hr 12 min 56 sec) 
Heartbeat CPU  0 instructions:  287000001 cycles:  681160361 heartbeat IPC: 0.54346 cumulative IPC: 0.29333 (Simulation time: 0 hr 12 min 59 sec) 
Heartbeat CPU  0 instructions:  288000000 cycles:  683000367 heartbeat IPC: 0.54348 cumulative IPC: 0.29405 (Simulation time: 0 hr 13 min 1 sec) 
Heartbeat CPU  0 instructions:  289000001 cycles:  684839903 heartbeat IPC: 0.54362 cumulative IPC: 0.29477 (Simulation time: 0 hr 13 min 4 sec) 
Heartbeat CPU  0 instructions:  290000001 cycles:  686680644 heartbeat IPC: 0.54326 cumulative IPC: 0.29548 (Simulation time: 0 hr 13 min 6 sec) 
Heartbeat CPU  0 instructions:  291000000 cycles:  688519661 heartbeat IPC: 0.54377 cumulative IPC: 0.29619 (Simulation time: 0 hr 13 min 9 sec) 
Heartbeat CPU  0 instructions:  292000000 cycles:  690359763 heartbeat IPC: 0.54345 cumulative IPC: 0.29689 (Simulation time: 0 hr 13 min 11 sec) 
Heartbeat CPU  0 instructions:  293000003 cycles:  692196217 heartbeat IPC: 0.54453 cumulative IPC: 0.29759 (Simulation time: 0 hr 13 min 14 sec) 
Heartbeat CPU  0 instructions:  294000003 cycles:  694037584 heartbeat IPC: 0.54307 cumulative IPC: 0.29829 (Simulation time: 0 hr 13 min 16 sec) 
Heartbeat CPU  0 instructions:  295000003 cycles:  695880220 heartbeat IPC: 0.54270 cumulative IPC: 0.29898 (Simulation time: 0 hr 13 min 19 sec) 
Heartbeat CPU  0 instructions:  296000000 cycles:  697718132 heartbeat IPC: 0.54409 cumulative IPC: 0.29967 (Simulation time: 0 hr 13 min 21 sec) 
Heartbeat CPU  0 instructions:  297000003 cycles:  699557489 heartbeat IPC: 0.54367 cumulative IPC: 0.30035 (Simulation time: 0 hr 13 min 24 sec) 
Heartbeat CPU  0 instructions:  298000000 cycles:  701397403 heartbeat IPC: 0.54350 cumulative IPC: 0.30103 (Simulation time: 0 hr 13 min 27 sec) 
Heartbeat CPU  0 instructions:  299000001 cycles:  703236195 heartbeat IPC: 0.54384 cumulative IPC: 0.30171 (Simulation time: 0 hr 13 min 29 sec) 
Heartbeat CPU  0 instructions:  300000000 cycles:  705072417 heartbeat IPC: 0.54460 cumulative IPC: 0.30238 (Simulation time: 0 hr 13 min 32 sec) 
Heartbeat CPU  0 instructions:  301000003 cycles:  706910537 heartbeat IPC: 0.54404 cumulative IPC: 0.30305 (Simulation time: 0 hr 13 min 34 sec) 
Heartbeat CPU  0 instructions:  302000001 cycles:  708750260 heartbeat IPC: 0.54356 cumulative IPC: 0.30372 (Simulation time: 0 hr 13 min 37 sec) 
Heartbeat CPU  0 instructions:  303000001 cycles:  710587827 heartbeat IPC: 0.54420 cumulative IPC: 0.30438 (Simulation time: 0 hr 13 min 39 sec) 
Heartbeat CPU  0 instructions:  304000000 cycles:  712429149 heartbeat IPC: 0.54309 cumulative IPC: 0.30504 (Simulation time: 0 hr 13 min 42 sec) 
Heartbeat CPU  0 instructions:  305000000 cycles:  714268333 heartbeat IPC: 0.54372 cumulative IPC: 0.30569 (Simulation time: 0 hr 13 min 44 sec) 
Heartbeat CPU  0 instructions:  306000003 cycles:  716107098 heartbeat IPC: 0.54384 cumulative IPC: 0.30635 (Simulation time: 0 hr 13 min 47 sec) 
Heartbeat CPU  0 instructions:  307000003 cycles:  717948313 heartbeat IPC: 0.54312 cumulative IPC: 0.30699 (Simulation time: 0 hr 13 min 49 sec) 
Heartbeat CPU  0 instructions:  308000000 cycles:  719788376 heartbeat IPC: 0.54346 cumulative IPC: 0.30764 (Simulation time: 0 hr 13 min 52 sec) 
Heartbeat CPU  0 instructions:  309000003 cycles:  721629251 heartbeat IPC: 0.54322 cumulative IPC: 0.30828 (Simulation time: 0 hr 13 min 54 sec) 
Heartbeat CPU  0 instructions:  310000003 cycles:  723467137 heartbeat IPC: 0.54410 cumulative IPC: 0.30891 (Simulation time: 0 hr 13 min 57 sec) 
Heartbeat CPU  0 instructions:  311000001 cycles:  725302016 heartbeat IPC: 0.54499 cumulative IPC: 0.30955 (Simulation time: 0 hr 13 min 59 sec) 
Heartbeat CPU  0 instructions:  312000000 cycles:  727129246 heartbeat IPC: 0.54728 cumulative IPC: 0.31018 (Simulation time: 0 hr 14 min 2 sec) 
Heartbeat CPU  0 instructions:  313000002 cycles:  728963134 heartbeat IPC: 0.54529 cumulative IPC: 0.31081 (Simulation time: 0 hr 14 min 4 sec) 
Heartbeat CPU  0 instructions:  314000002 cycles:  730798768 heartbeat IPC: 0.54477 cumulative IPC: 0.31144 (Simulation time: 0 hr 14 min 7 sec) 
Heartbeat CPU  0 instructions:  315000000 cycles:  732625798 heartbeat IPC: 0.54734 cumulative IPC: 0.31206 (Simulation time: 0 hr 14 min 9 sec) 
Heartbeat CPU  0 instructions:  316000000 cycles:  734459626 heartbeat IPC: 0.54531 cumulative IPC: 0.31268 (Simulation time: 0 hr 14 min 12 sec) 
Heartbeat CPU  0 instructions:  317000002 cycles:  736293157 heartbeat IPC: 0.54540 cumulative IPC: 0.31330 (Simulation time: 0 hr 14 min 14 sec) 
Heartbeat CPU  0 instructions:  318000003 cycles:  738123617 heartbeat IPC: 0.54631 cumulative IPC: 0.31391 (Simulation time: 0 hr 14 min 17 sec) 
Heartbeat CPU  0 instructions:  319000002 cycles:  739958965 heartbeat IPC: 0.54486 cumulative IPC: 0.31452 (Simulation time: 0 hr 14 min 20 sec) 
Heartbeat CPU  0 instructions:  320000000 cycles:  741790619 heartbeat IPC: 0.54595 cumulative IPC: 0.31513 (Simulation time: 0 hr 14 min 22 sec) 
Heartbeat CPU  0 instructions:  321000000 cycles:  743623211 heartbeat IPC: 0.54568 cumulative IPC: 0.31573 (Simulation time: 0 hr 14 min 25 sec) 
Heartbeat CPU  0 instructions:  322000001 cycles:  745459933 heartbeat IPC: 0.54445 cumulative IPC: 0.31633 (Simulation time: 0 hr 14 min 27 sec) 
Heartbeat CPU  0 instructions:  323000001 cycles:  747288272 heartbeat IPC: 0.54694 cumulative IPC: 0.31693 (Simulation time: 0 hr 14 min 30 sec) 
Heartbeat CPU  0 instructions:  324000000 cycles:  749121591 heartbeat IPC: 0.54546 cumulative IPC: 0.31752 (Simulation time: 0 hr 14 min 32 sec) 
Heartbeat CPU  0 instructions:  325000002 cycles:  750957063 heartbeat IPC: 0.54482 cumulative IPC: 0.31811 (Simulation time: 0 hr 14 min 35 sec) 
Heartbeat CPU  0 instructions:  326000002 cycles:  752785033 heartbeat IPC: 0.54705 cumulative IPC: 0.31870 (Simulation time: 0 hr 14 min 37 sec) 
Heartbeat CPU  0 instructions:  327000002 cycles:  754612219 heartbeat IPC: 0.54729 cumulative IPC: 0.31929 (Simulation time: 0 hr 14 min 40 sec) 
Heartbeat CPU  0 instructions:  328000000 cycles:  756419568 heartbeat IPC: 0.55330 cumulative IPC: 0.31989 (Simulation time: 0 hr 14 min 42 sec) 
Heartbeat CPU  0 instructions:  329000002 cycles:  758179805 heartbeat IPC: 0.56811 cumulative IPC: 0.32050 (Simulation time: 0 hr 14 min 45 sec) 
Heartbeat CPU  0 instructions:  330000003 cycles:  759913979 heartbeat IPC: 0.57664 cumulative IPC: 0.32112 (Simulation time: 0 hr 14 min 47 sec) 
Heartbeat CPU  0 instructions:  331000001 cycles:  761622425 heartbeat IPC: 0.58533 cumulative IPC: 0.32175 (Simulation time: 0 hr 14 min 50 sec) 
Heartbeat CPU  0 instructions:  332000000 cycles:  763330864 heartbeat IPC: 0.58533 cumulative IPC: 0.32237 (Simulation time: 0 hr 14 min 52 sec) 
Heartbeat CPU  0 instructions:  333000000 cycles:  765008980 heartbeat IPC: 0.59591 cumulative IPC: 0.32301 (Simulation time: 0 hr 14 min 55 sec) 
Heartbeat CPU  0 instructions:  334000002 cycles:  766673139 heartbeat IPC: 0.60091 cumulative IPC: 0.32365 (Simulation time: 0 hr 14 min 57 sec) 
Heartbeat CPU  0 instructions:  335000001 cycles:  768337553 heartbeat IPC: 0.60081 cumulative IPC: 0.32428 (Simulation time: 0 hr 15 min 0 sec) 
Heartbeat CPU  0 instructions:  336000000 cycles:  769998846 heartbeat IPC: 0.60194 cumulative IPC: 0.32492 (Simulation time: 0 hr 15 min 2 sec) 
Heartbeat CPU  0 instructions:  337000003 cycles:  771657254 heartbeat IPC: 0.60299 cumulative IPC: 0.32555 (Simulation time: 0 hr 15 min 5 sec) 
Heartbeat CPU  0 instructions:  338000002 cycles:  773318385 heartbeat IPC: 0.60200 cumulative IPC: 0.32618 (Simulation time: 0 hr 15 min 7 sec) 
Heartbeat CPU  0 instructions:  339000000 cycles:  774975752 heartbeat IPC: 0.60337 cumulative IPC: 0.32681 (Simulation time: 0 hr 15 min 9 sec) 
Heartbeat CPU  0 instructions:  340000000 cycles:  776634900 heartbeat IPC: 0.60272 cumulative IPC: 0.32743 (Simulation time: 0 hr 15 min 12 sec) 
Heartbeat CPU  0 instructions:  341000003 cycles:  778296920 heartbeat IPC: 0.60168 cumulative IPC: 0.32805 (Simulation time: 0 hr 15 min 14 sec) 
Heartbeat CPU  0 instructions:  342000003 cycles:  779955040 heartbeat IPC: 0.60309 cumulative IPC: 0.32867 (Simulation time: 0 hr 15 min 17 sec) 
Heartbeat CPU  0 instructions:  343000001 cycles:  781616044 heartbeat IPC: 0.60204 cumulative IPC: 0.32929 (Simulation time: 0 hr 15 min 19 sec) 
Heartbeat CPU  0 instructions:  344000000 cycles:  783277369 heartbeat IPC: 0.60193 cumulative IPC: 0.32990 (Simulation time: 0 hr 15 min 22 sec) 
Heartbeat CPU  0 instructions:  345000002 cycles:  784936153 heartbeat IPC: 0.60285 cumulative IPC: 0.33051 (Simulation time: 0 hr 15 min 24 sec) 
Heartbeat CPU  0 instructions:  346000001 cycles:  786652942 heartbeat IPC: 0.58248 cumulative IPC: 0.33109 (Simulation time: 0 hr 15 min 27 sec) 
Heartbeat CPU  0 instructions:  347000002 cycles:  789410832 heartbeat IPC: 0.36260 cumulative IPC: 0.33121 (Simulation time: 0 hr 15 min 30 sec) 
Heartbeat CPU  0 instructions:  348000000 cycles:  793214857 heartbeat IPC: 0.26288 cumulative IPC: 0.33086 (Simulation time: 0 hr 15 min 34 sec) 
Heartbeat CPU  0 instructions:  349000002 cycles:  797702081 heartbeat IPC: 0.22286 cumulative IPC: 0.33022 (Simulation time: 0 hr 15 min 37 sec) 
Heartbeat CPU  0 instructions:  350000001 cycles:  802042143 heartbeat IPC: 0.23041 cumulative IPC: 0.32965 (Simulation time: 0 hr 15 min 41 sec) 
Heartbeat CPU  0 instructions:  351000001 cycles:  806485603 heartbeat IPC: 0.22505 cumulative IPC: 0.32904 (Simulation time: 0 hr 15 min 44 sec) 
Heartbeat CPU  0 instructions:  352000000 cycles:  810954168 heartbeat IPC: 0.22379 cumulative IPC: 0.32843 (Simulation time: 0 hr 15 min 48 sec) 
Heartbeat CPU  0 instructions:  353000000 cycles:  815344149 heartbeat IPC: 0.22779 cumulative IPC: 0.32786 (Simulation time: 0 hr 15 min 51 sec) 
Heartbeat CPU  0 instructions:  354000000 cycles:  819757105 heartbeat IPC: 0.22661 cumulative IPC: 0.32728 (Simulation time: 0 hr 15 min 55 sec) 
Heartbeat CPU  0 instructions:  355000001 cycles:  824152518 heartbeat IPC: 0.22751 cumulative IPC: 0.32672 (Simulation time: 0 hr 15 min 58 sec) 
Heartbeat CPU  0 instructions:  356000000 cycles:  828557179 heartbeat IPC: 0.22703 cumulative IPC: 0.32616 (Simulation time: 0 hr 16 min 2 sec) 
Heartbeat CPU  0 instructions:  357000000 cycles:  833010345 heartbeat IPC: 0.22456 cumulative IPC: 0.32559 (Simulation time: 0 hr 16 min 5 sec) 
Heartbeat CPU  0 instructions:  358000001 cycles:  837388577 heartbeat IPC: 0.22840 cumulative IPC: 0.32505 (Simulation time: 0 hr 16 min 8 sec) 
Heartbeat CPU  0 instructions:  359000001 cycles:  841804116 heartbeat IPC: 0.22647 cumulative IPC: 0.32450 (Simulation time: 0 hr 16 min 12 sec) 
Heartbeat CPU  0 instructions:  360000000 cycles:  846229254 heartbeat IPC: 0.22598 cumulative IPC: 0.32396 (Simulation time: 0 hr 16 min 15 sec) 
Heartbeat CPU  0 instructions:  361000000 cycles:  850642024 heartbeat IPC: 0.22662 cumulative IPC: 0.32343 (Simulation time: 0 hr 16 min 19 sec) 
Heartbeat CPU  0 instructions:  362000001 cycles:  855001802 heartbeat IPC: 0.22937 cumulative IPC: 0.32292 (Simulation time: 0 hr 16 min 22 sec) 
Heartbeat CPU  0 instructions:  363000000 cycles:  859438191 heartbeat IPC: 0.22541 cumulative IPC: 0.32239 (Simulation time: 0 hr 16 min 26 sec) 
Heartbeat CPU  0 instructions:  364000000 cycles:  863793891 heartbeat IPC: 0.22958 cumulative IPC: 0.32190 (Simulation time: 0 hr 16 min 29 sec) 
Heartbeat CPU  0 instructions:  365000000 cycles:  868217301 heartbeat IPC: 0.22607 cumulative IPC: 0.32139 (Simulation time: 0 hr 16 min 33 sec) 
Heartbeat CPU  0 instructions:  366000001 cycles:  872592553 heartbeat IPC: 0.22856 cumulative IPC: 0.32090 (Simulation time: 0 hr 16 min 36 sec) 
Heartbeat CPU  0 instructions:  367000001 cycles:  877003805 heartbeat IPC: 0.22669 cumulative IPC: 0.32040 (Simulation time: 0 hr 16 min 39 sec) 
Heartbeat CPU  0 instructions:  368000000 cycles:  881378060 heartbeat IPC: 0.22861 cumulative IPC: 0.31992 (Simulation time: 0 hr 16 min 43 sec) 
Heartbeat CPU  0 instructions:  369000000 cycles:  885759535 heartbeat IPC: 0.22823 cumulative IPC: 0.31944 (Simulation time: 0 hr 16 min 46 sec) 
Heartbeat CPU  0 instructions:  370000001 cycles:  890147754 heartbeat IPC: 0.22788 cumulative IPC: 0.31897 (Simulation time: 0 hr 16 min 50 sec) 
Heartbeat CPU  0 instructions:  371000001 cycles:  894541846 heartbeat IPC: 0.22758 cumulative IPC: 0.31849 (Simulation time: 0 hr 16 min 53 sec) 
Heartbeat CPU  0 instructions:  372000000 cycles:  897133444 heartbeat IPC: 0.38586 cumulative IPC: 0.31870 (Simulation time: 0 hr 16 min 56 sec) 
Heartbeat CPU  0 instructions:  373000001 cycles:  899073545 heartbeat IPC: 0.51544 cumulative IPC: 0.31915 (Simulation time: 0 hr 16 min 59 sec) 
Heartbeat CPU  0 instructions:  374000001 cycles:  900957134 heartbeat IPC: 0.53090 cumulative IPC: 0.31961 (Simulation time: 0 hr 17 min 1 sec) 
Heartbeat CPU  0 instructions:  375000000 cycles:  902801751 heartbeat IPC: 0.54212 cumulative IPC: 0.32009 (Simulation time: 0 hr 17 min 4 sec) 
Heartbeat CPU  0 instructions:  376000000 cycles:  904649494 heartbeat IPC: 0.54120 cumulative IPC: 0.32056 (Simulation time: 0 hr 17 min 6 sec) 
Heartbeat CPU  0 instructions:  377000000 cycles:  906496755 heartbeat IPC: 0.54134 cumulative IPC: 0.32104 (Simulation time: 0 hr 17 min 9 sec) 
Heartbeat CPU  0 instructions:  378000000 cycles:  908343726 heartbeat IPC: 0.54143 cumulative IPC: 0.32151 (Simulation time: 0 hr 17 min 11 sec) 
Heartbeat CPU  0 instructions:  379000000 cycles:  910193598 heartbeat IPC: 0.54058 cumulative IPC: 0.32197 (Simulation time: 0 hr 17 min 14 sec) 
Heartbeat CPU  0 instructions:  380000000 cycles:  912037742 heartbeat IPC: 0.54226 cumulative IPC: 0.32244 (Simulation time: 0 hr 17 min 16 sec) 
Heartbeat CPU  0 instructions:  381000003 cycles:  913888968 heartbeat IPC: 0.54018 cumulative IPC: 0.32290 (Simulation time: 0 hr 17 min 19 sec) 
Heartbeat CPU  0 instructions:  382000003 cycles:  915737336 heartbeat IPC: 0.54102 cumulative IPC: 0.32337 (Simulation time: 0 hr 17 min 22 sec) 
Heartbeat CPU  0 instructions:  383000002 cycles:  917586203 heartbeat IPC: 0.54087 cumulative IPC: 0.32383 (Simulation time: 0 hr 17 min 24 sec) 
Heartbeat CPU  0 instructions:  384000000 cycles:  919436111 heartbeat IPC: 0.54057 cumulative IPC: 0.32429 (Simulation time: 0 hr 17 min 27 sec) 
Heartbeat CPU  0 instructions:  385000000 cycles:  921289081 heartbeat IPC: 0.53967 cumulative IPC: 0.32474 (Simulation time: 0 hr 17 min 29 sec) 
Heartbeat CPU  0 instructions:  386000000 cycles:  923137389 heartbeat IPC: 0.54104 cumulative IPC: 0.32519 (Simulation time: 0 hr 17 min 32 sec) 
Heartbeat CPU  0 instructions:  387000000 cycles:  924990235 heartbeat IPC: 0.53971 cumulative IPC: 0.32565 (Simulation time: 0 hr 17 min 34 sec) 
Heartbeat CPU  0 instructions:  388000000 cycles:  926839623 heartbeat IPC: 0.54072 cumulative IPC: 0.32610 (Simulation time: 0 hr 17 min 37 sec) 
Heartbeat CPU  0 instructions:  389000000 cycles:  928691480 heartbeat IPC: 0.54000 cumulative IPC: 0.32654 (Simulation time: 0 hr 17 min 39 sec) 
Heartbeat CPU  0 instructions:  390000000 cycles:  930542735 heartbeat IPC: 0.54017 cumulative IPC: 0.32699 (Simulation time: 0 hr 17 min 42 sec) 
Heartbeat CPU  0 instructions:  391000002 cycles:  932391637 heartbeat IPC: 0.54086 cumulative IPC: 0.32743 (Simulation time: 0 hr 17 min 44 sec) 
Heartbeat CPU  0 instructions:  392000000 cycles:  934245677 heartbeat IPC: 0.53936 cumulative IPC: 0.32788 (Simulation time: 0 hr 17 min 47 sec) 
Heartbeat CPU  0 instructions:  393000002 cycles:  936095740 heartbeat IPC: 0.54052 cumulative IPC: 0.32832 (Simulation time: 0 hr 17 min 50 sec) 
Heartbeat CPU  0 instructions:  394000002 cycles:  937946882 heartbeat IPC: 0.54021 cumulative IPC: 0.32875 (Simulation time: 0 hr 17 min 52 sec) 
Heartbeat CPU  0 instructions:  395000003 cycles:  939797235 heartbeat IPC: 0.54044 cumulative IPC: 0.32919 (Simulation time: 0 hr 17 min 55 sec) 
Heartbeat CPU  0 instructions:  396000000 cycles:  941647764 heartbeat IPC: 0.54038 cumulative IPC: 0.32963 (Simulation time: 0 hr 17 min 57 sec) 
Heartbeat CPU  0 instructions:  397000002 cycles:  943498305 heartbeat IPC: 0.54038 cumulative IPC: 0.33006 (Simulation time: 0 hr 18 min 0 sec) 
Heartbeat CPU  0 instructions:  398000001 cycles:  945347284 heartbeat IPC: 0.54084 cumulative IPC: 0.33049 (Simulation time: 0 hr 18 min 2 sec) 
Heartbeat CPU  0 instructions:  399000000 cycles:  947201253 heartbeat IPC: 0.53938 cumulative IPC: 0.33092 (Simulation time: 0 hr 18 min 5 sec) 
Heartbeat CPU  0 instructions:  400000000 cycles:  949050408 heartbeat IPC: 0.54079 cumulative IPC: 0.33135 (Simulation time: 0 hr 18 min 8 sec) 
Heartbeat CPU  0 instructions:  401000001 cycles:  950899765 heartbeat IPC: 0.54073 cumulative IPC: 0.33178 (Simulation time: 0 hr 18 min 10 sec) 
Heartbeat CPU  0 instructions:  402000000 cycles:  952751189 heartbeat IPC: 0.54012 cumulative IPC: 0.33220 (Simulation time: 0 hr 18 min 13 sec) 
Heartbeat CPU  0 instructions:  403000002 cycles:  954602368 heartbeat IPC: 0.54020 cumulative IPC: 0.33262 (Simulation time: 0 hr 18 min 15 sec) 
Heartbeat CPU  0 instructions:  404000000 cycles:  956454605 heartbeat IPC: 0.53989 cumulative IPC: 0.33304 (Simulation time: 0 hr 18 min 18 sec) 
Heartbeat CPU  0 instructions:  405000002 cycles:  958305335 heartbeat IPC: 0.54033 cumulative IPC: 0.33346 (Simulation time: 0 hr 18 min 20 sec) 
Heartbeat CPU  0 instructions:  406000002 cycles:  960158112 heartbeat IPC: 0.53973 cumulative IPC: 0.33388 (Simulation time: 0 hr 18 min 23 sec) 
Heartbeat CPU  0 instructions:  407000001 cycles:  961989567 heartbeat IPC: 0.54601 cumulative IPC: 0.33430 (Simulation time: 0 hr 18 min 25 sec) 
Heartbeat CPU  0 instructions:  408000000 cycles:  963822259 heartbeat IPC: 0.54564 cumulative IPC: 0.33472 (Simulation time: 0 hr 18 min 28 sec) 
Heartbeat CPU  0 instructions:  409000000 cycles:  965649870 heartbeat IPC: 0.54716 cumulative IPC: 0.33515 (Simulation time: 0 hr 18 min 30 sec) 
Heartbeat CPU  0 instructions:  410000002 cycles:  967482746 heartbeat IPC: 0.54559 cumulative IPC: 0.33556 (Simulation time: 0 hr 18 min 33 sec) 
Heartbeat CPU  0 instructions:  411000001 cycles:  969315022 heartbeat IPC: 0.54577 cumulative IPC: 0.33598 (Simulation time: 0 hr 18 min 35 sec) 
Heartbeat CPU  0 instructions:  412000000 cycles:  971141732 heartbeat IPC: 0.54743 cumulative IPC: 0.33640 (Simulation time: 0 hr 18 min 38 sec) 
Heartbeat CPU  0 instructions:  413000003 cycles:  972977371 heartbeat IPC: 0.54477 cumulative IPC: 0.33681 (Simulation time: 0 hr 18 min 40 sec) 
Heartbeat CPU  0 instructions:  414000000 cycles:  974807833 heartbeat IPC: 0.54631 cumulative IPC: 0.33722 (Simulation time: 0 hr 18 min 43 sec) 
Heartbeat CPU  0 instructions:  415000001 cycles:  976640039 heartbeat IPC: 0.54579 cumulative IPC: 0.33763 (Simulation time: 0 hr 18 min 46 sec) 
Heartbeat CPU  0 instructions:  416000000 cycles:  978477791 heartbeat IPC: 0.54414 cumulative IPC: 0.33804 (Simulation time: 0 hr 18 min 48 sec) 
Heartbeat CPU  0 instructions:  417000003 cycles:  980306073 heartbeat IPC: 0.54696 cumulative IPC: 0.33844 (Simulation time: 0 hr 18 min 51 sec) 
Heartbeat CPU  0 instructions:  418000002 cycles:  982140551 heartbeat IPC: 0.54511 cumulative IPC: 0.33885 (Simulation time: 0 hr 18 min 53 sec) 
Heartbeat CPU  0 instructions:  419000001 cycles:  983974355 heartbeat IPC: 0.54531 cumulative IPC: 0.33925 (Simulation time: 0 hr 18 min 56 sec) 
Heartbeat CPU  0 instructions:  420000000 cycles:  985802821 heartbeat IPC: 0.54691 cumulative IPC: 0.33965 (Simulation time: 0 hr 18 min 58 sec) 
Heartbeat CPU  0 instructions:  421000003 cycles:  987626588 heartbeat IPC: 0.54832 cumulative IPC: 0.34006 (Simulation time: 0 hr 19 min 1 sec) 
Heartbeat CPU  0 instructions:  422000002 cycles:  989439670 heartbeat IPC: 0.55155 cumulative IPC: 0.34046 (Simulation time: 0 hr 19 min 3 sec) 
Heartbeat CPU  0 instructions:  423000003 cycles:  991198039 heartbeat IPC: 0.56871 cumulative IPC: 0.34088 (Simulation time: 0 hr 19 min 6 sec) 
Heartbeat CPU  0 instructions:  424000000 cycles:  992973486 heartbeat IPC: 0.56324 cumulative IPC: 0.34130 (Simulation time: 0 hr 19 min 8 sec) 
Heartbeat CPU  0 instructions:  425000001 cycles:  994671618 heartbeat IPC: 0.58888 cumulative IPC: 0.34174 (Simulation time: 0 hr 19 min 11 sec) 
Heartbeat CPU  0 instructions:  426000000 cycles:  996367838 heartbeat IPC: 0.58955 cumulative IPC: 0.34218 (Simulation time: 0 hr 19 min 13 sec) 
Heartbeat CPU  0 instructions:  427000002 cycles:  998059717 heartbeat IPC: 0.59106 cumulative IPC: 0.34263 (Simulation time: 0 hr 19 min 15 sec) 
Heartbeat CPU  0 instructions:  428000000 cycles:  999726012 heartbeat IPC: 0.60013 cumulative IPC: 0.34307 (Simulation time: 0 hr 19 min 18 sec) 
Heartbeat CPU  0 instructions:  429000001 cycles: 1001398068 heartbeat IPC: 0.59807 cumulative IPC: 0.34352 (Simulation time: 0 hr 19 min 20 sec) 
Heartbeat CPU  0 instructions:  430000002 cycles: 1003063979 heartbeat IPC: 0.60027 cumulative IPC: 0.34396 (Simulation time: 0 hr 19 min 23 sec) 
Heartbeat CPU  0 instructions:  431000001 cycles: 1004725394 heartbeat IPC: 0.60190 cumulative IPC: 0.34441 (Simulation time: 0 hr 19 min 25 sec) 
Heartbeat CPU  0 instructions:  432000000 cycles: 1006390711 heartbeat IPC: 0.60049 cumulative IPC: 0.34485 (Simulation time: 0 hr 19 min 28 sec) 
Heartbeat CPU  0 instructions:  433000000 cycles: 1008052581 heartbeat IPC: 0.60173 cumulative IPC: 0.34530 (Simulation time: 0 hr 19 min 30 sec) 
Heartbeat CPU  0 instructions:  434000002 cycles: 1009716815 heartbeat IPC: 0.60088 cumulative IPC: 0.34574 (Simulation time: 0 hr 19 min 33 sec) 
Heartbeat CPU  0 instructions:  435000001 cycles: 1011381539 heartbeat IPC: 0.60070 cumulative IPC: 0.34618 (Simulation time: 0 hr 19 min 35 sec) 
Heartbeat CPU  0 instructions:  436000000 cycles: 1013043447 heartbeat IPC: 0.60172 cumulative IPC: 0.34661 (Simulation time: 0 hr 19 min 37 sec) 
Heartbeat CPU  0 instructions:  437000003 cycles: 1014708722 heartbeat IPC: 0.60050 cumulative IPC: 0.34705 (Simulation time: 0 hr 19 min 40 sec) 
Heartbeat CPU  0 instructions:  438000000 cycles: 1016374273 heartbeat IPC: 0.60040 cumulative IPC: 0.34748 (Simulation time: 0 hr 19 min 42 sec) 
Heartbeat CPU  0 instructions:  439000001 cycles: 1018048542 heartbeat IPC: 0.59728 cumulative IPC: 0.34791 (Simulation time: 0 hr 19 min 45 sec) 
Heartbeat CPU  0 instructions:  440000000 cycles: 1019714097 heartbeat IPC: 0.60040 cumulative IPC: 0.34834 (Simulation time: 0 hr 19 min 47 sec) 
Heartbeat CPU  0 instructions:  441000002 cycles: 1021546499 heartbeat IPC: 0.54573 cumulative IPC: 0.34871 (Simulation time: 0 hr 19 min 50 sec) 
Heartbeat CPU  0 instructions:  442000002 cycles: 1026657895 heartbeat IPC: 0.19564 cumulative IPC: 0.34792 (Simulation time: 0 hr 19 min 54 sec) 
Heartbeat CPU  0 instructions:  443000002 cycles: 1032011908 heartbeat IPC: 0.18678 cumulative IPC: 0.34704 (Simulation time: 0 hr 19 min 58 sec) 
Heartbeat CPU  0 instructions:  444000000 cycles: 1037426702 heartbeat IPC: 0.18468 cumulative IPC: 0.34616 (Simulation time: 0 hr 20 min 3 sec) 
Heartbeat CPU  0 instructions:  445000000 cycles: 1042816741 heartbeat IPC: 0.18553 cumulative IPC: 0.34529 (Simulation time: 0 hr 20 min 7 sec) 
Heartbeat CPU  0 instructions:  446000000 cycles: 1048238844 heartbeat IPC: 0.18443 cumulative IPC: 0.34442 (Simulation time: 0 hr 20 min 11 sec) 
Heartbeat CPU  0 instructions:  447000002 cycles: 1053613256 heartbeat IPC: 0.18607 cumulative IPC: 0.34358 (Simulation time: 0 hr 20 min 16 sec) 
Heartbeat CPU  0 instructions:  448000000 cycles: 1059032027 heartbeat IPC: 0.18454 cumulative IPC: 0.34273 (Simulation time: 0 hr 20 min 20 sec) 
Heartbeat CPU  0 instructions:  449000001 cycles: 1063116887 heartbeat IPC: 0.24481 cumulative IPC: 0.34234 (Simulation time: 0 hr 20 min 24 sec) 
Heartbeat CPU  0 instructions:  450000000 cycles: 1066308883 heartbeat IPC: 0.31328 cumulative IPC: 0.34225 (Simulation time: 0 hr 20 min 28 sec) 
Heartbeat CPU  0 instructions:  451000003 cycles: 1070553010 heartbeat IPC: 0.23562 cumulative IPC: 0.34181 (Simulation time: 0 hr 20 min 32 sec) 
Heartbeat CPU  0 instructions:  452000000 cycles: 1074816904 heartbeat IPC: 0.23453 cumulative IPC: 0.34137 (Simulation time: 0 hr 20 min 35 sec) 
Heartbeat CPU  0 instructions:  453000002 cycles: 1079117635 heartbeat IPC: 0.23252 cumulative IPC: 0.34091 (Simulation time: 0 hr 20 min 38 sec) 
Heartbeat CPU  0 instructions:  454000001 cycles: 1083484881 heartbeat IPC: 0.22898 cumulative IPC: 0.34044 (Simulation time: 0 hr 20 min 42 sec) 
Heartbeat CPU  0 instructions:  455000003 cycles: 1087889399 heartbeat IPC: 0.22704 cumulative IPC: 0.33996 (Simulation time: 0 hr 20 min 45 sec) 
Heartbeat CPU  0 instructions:  456000000 cycles: 1092262926 heartbeat IPC: 0.22865 cumulative IPC: 0.33950 (Simulation time: 0 hr 20 min 49 sec) 
Heartbeat CPU  0 instructions:  457000002 cycles: 1096649183 heartbeat IPC: 0.22799 cumulative IPC: 0.33904 (Simulation time: 0 hr 20 min 52 sec) 
Heartbeat CPU  0 instructions:  458000000 cycles: 1100994026 heartbeat IPC: 0.23016 cumulative IPC: 0.33859 (Simulation time: 0 hr 20 min 55 sec) 
Heartbeat CPU  0 instructions:  459000003 cycles: 1105370795 heartbeat IPC: 0.22848 cumulative IPC: 0.33813 (Simulation time: 0 hr 20 min 59 sec) 
Heartbeat CPU  0 instructions:  460000000 cycles: 1109757648 heartbeat IPC: 0.22795 cumulative IPC: 0.33768 (Simulation time: 0 hr 21 min 2 sec) 
Heartbeat CPU  0 instructions:  461000002 cycles: 1114102772 heartbeat IPC: 0.23014 cumulative IPC: 0.33724 (Simulation time: 0 hr 21 min 6 sec) 
Heartbeat CPU  0 instructions:  462000002 cycles: 1118467491 heartbeat IPC: 0.22911 cumulative IPC: 0.33681 (Simulation time: 0 hr 21 min 9 sec) 
Heartbeat CPU  0 instructions:  463000003 cycles: 1122777615 heartbeat IPC: 0.23201 cumulative IPC: 0.33639 (Simulation time: 0 hr 21 min 12 sec) 
Heartbeat CPU  0 instructions:  464000000 cycles: 1127155522 heartbeat IPC: 0.22842 cumulative IPC: 0.33595 (Simulation time: 0 hr 21 min 16 sec) 
Heartbeat CPU  0 instructions:  465000002 cycles: 1131503638 heartbeat IPC: 0.22999 cumulative IPC: 0.33553 (Simulation time: 0 hr 21 min 19 sec) 
Heartbeat CPU  0 instructions:  466000002 cycles: 1135830955 heartbeat IPC: 0.23109 cumulative IPC: 0.33511 (Simulation time: 0 hr 21 min 23 sec) 
Heartbeat CPU  0 instructions:  467000003 cycles: 1140223922 heartbeat IPC: 0.22764 cumulative IPC: 0.33468 (Simulation time: 0 hr 21 min 26 sec) 
Heartbeat CPU  0 instructions:  468000000 cycles: 1144580313 heartbeat IPC: 0.22955 cumulative IPC: 0.33427 (Simulation time: 0 hr 21 min 30 sec) 
Heartbeat CPU  0 instructions:  469000002 cycles: 1148927850 heartbeat IPC: 0.23002 cumulative IPC: 0.33386 (Simulation time: 0 hr 21 min 33 sec) 
Heartbeat CPU  0 instructions:  470000002 cycles: 1153264219 heartbeat IPC: 0.23061 cumulative IPC: 0.33345 (Simulation time: 0 hr 21 min 36 sec) 
Heartbeat CPU  0 instructions:  471000003 cycles: 1157612750 heartbeat IPC: 0.22996 cumulative IPC: 0.33305 (Simulation time: 0 hr 21 min 40 sec) 
Heartbeat CPU  0 instructions:  472000000 cycles: 1161951501 heartbeat IPC: 0.23048 cumulative IPC: 0.33265 (Simulation time: 0 hr 21 min 43 sec) 
Heartbeat CPU  0 instructions:  473000002 cycles: 1166352980 heartbeat IPC: 0.22720 cumulative IPC: 0.33224 (Simulation time: 0 hr 21 min 47 sec) 
Heartbeat CPU  0 instructions:  474000003 cycles: 1170490729 heartbeat IPC: 0.24168 cumulative IPC: 0.33191 (Simulation time: 0 hr 21 min 50 sec) 
Heartbeat CPU  0 instructions:  475000002 cycles: 1173476899 heartbeat IPC: 0.33488 cumulative IPC: 0.33191 (Simulation time: 0 hr 21 min 54 sec) 
Heartbeat CPU  0 instructions:  476000000 cycles: 1177113846 heartbeat IPC: 0.27496 cumulative IPC: 0.33173 (Simulation time: 0 hr 21 min 57 sec) 
Heartbeat CPU  0 instructions:  477000003 cycles: 1181121740 heartbeat IPC: 0.24951 cumulative IPC: 0.33144 (Simulation time: 0 hr 22 min 1 sec) 
Heartbeat CPU  0 instructions:  478000000 cycles: 1185159055 heartbeat IPC: 0.24769 cumulative IPC: 0.33114 (Simulation time: 0 hr 22 min 4 sec) 
Heartbeat CPU  0 instructions:  479000003 cycles: 1189238330 heartbeat IPC: 0.24514 cumulative IPC: 0.33084 (Simulation time: 0 hr 22 min 7 sec) 
Heartbeat CPU  0 instructions:  480000000 cycles: 1193308773 heartbeat IPC: 0.24567 cumulative IPC: 0.33054 (Simulation time: 0 hr 22 min 11 sec) 
Heartbeat CPU  0 instructions:  481000003 cycles: 1197417188 heartbeat IPC: 0.24340 cumulative IPC: 0.33023 (Simulation time: 0 hr 22 min 14 sec) 
Heartbeat CPU  0 instructions:  482000001 cycles: 1201533403 heartbeat IPC: 0.24294 cumulative IPC: 0.32992 (Simulation time: 0 hr 22 min 18 sec) 
Heartbeat CPU  0 instructions:  483000000 cycles: 1205654298 heartbeat IPC: 0.24267 cumulative IPC: 0.32961 (Simulation time: 0 hr 22 min 21 sec) 
Heartbeat CPU  0 instructions:  484000000 cycles: 1209741350 heartbeat IPC: 0.24468 cumulative IPC: 0.32931 (Simulation time: 0 hr 22 min 25 sec) 
Heartbeat CPU  0 instructions:  485000003 cycles: 1213786055 heartbeat IPC: 0.24724 cumulative IPC: 0.32903 (Simulation time: 0 hr 22 min 28 sec) 
Heartbeat CPU  0 instructions:  486000001 cycles: 1217841778 heartbeat IPC: 0.24656 cumulative IPC: 0.32874 (Simulation time: 0 hr 22 min 31 sec) 
Heartbeat CPU  0 instructions:  487000000 cycles: 1221915922 heartbeat IPC: 0.24545 cumulative IPC: 0.32845 (Simulation time: 0 hr 22 min 35 sec) 
Heartbeat CPU  0 instructions:  488000000 cycles: 1226024287 heartbeat IPC: 0.24341 cumulative IPC: 0.32816 (Simulation time: 0 hr 22 min 38 sec) 
Heartbeat CPU  0 instructions:  489000001 cycles: 1230125796 heartbeat IPC: 0.24381 cumulative IPC: 0.32787 (Simulation time: 0 hr 22 min 42 sec) 
Heartbeat CPU  0 instructions:  490000000 cycles: 1234192609 heartbeat IPC: 0.24589 cumulative IPC: 0.32759 (Simulation time: 0 hr 22 min 45 sec) 
Heartbeat CPU  0 instructions:  491000003 cycles: 1238345552 heartbeat IPC: 0.24079 cumulative IPC: 0.32728 (Simulation time: 0 hr 22 min 49 sec) 
Heartbeat CPU  0 instructions:  492000000 cycles: 1242357388 heartbeat IPC: 0.24926 cumulative IPC: 0.32702 (Simulation time: 0 hr 22 min 52 sec) 
Heartbeat CPU  0 instructions:  493000003 cycles: 1246436913 heartbeat IPC: 0.24513 cumulative IPC: 0.32674 (Simulation time: 0 hr 22 min 55 sec) 
Heartbeat CPU  0 instructions:  494000001 cycles: 1250493171 heartbeat IPC: 0.24653 cumulative IPC: 0.32648 (Simulation time: 0 hr 22 min 59 sec) 
Heartbeat CPU  0 instructions:  495000002 cycles: 1254590130 heartbeat IPC: 0.24408 cumulative IPC: 0.32620 (Simulation time: 0 hr 23 min 2 sec) 
Heartbeat CPU  0 instructions:  496000000 cycles: 1258687944 heartbeat IPC: 0.24403 cumulative IPC: 0.32592 (Simulation time: 0 hr 23 min 6 sec) 
Heartbeat CPU  0 instructions:  497000003 cycles: 1262738977 heartbeat IPC: 0.24685 cumulative IPC: 0.32566 (Simulation time: 0 hr 23 min 9 sec) 
Heartbeat CPU  0 instructions:  498000002 cycles: 1266875654 heartbeat IPC: 0.24174 cumulative IPC: 0.32537 (Simulation time: 0 hr 23 min 13 sec) 
Heartbeat CPU  0 instructions:  499000002 cycles: 1270917275 heartbeat IPC: 0.24743 cumulative IPC: 0.32512 (Simulation time: 0 hr 23 min 16 sec) 
Heartbeat CPU  0 instructions:  500000000 cycles: 1273603904 heartbeat IPC: 0.37221 cumulative IPC: 0.32522 (Simulation time: 0 hr 23 min 19 sec) 
Heartbeat CPU  0 instructions:  501000000 cycles: 1275551174 heartbeat IPC: 0.51354 cumulative IPC: 0.32552 (Simulation time: 0 hr 23 min 21 sec) 
Heartbeat CPU  0 instructions:  502000002 cycles: 1277410653 heartbeat IPC: 0.53779 cumulative IPC: 0.32584 (Simulation time: 0 hr 23 min 24 sec) 
Heartbeat CPU  0 instructions:  503000002 cycles: 1279260260 heartbeat IPC: 0.54066 cumulative IPC: 0.32616 (Simulation time: 0 hr 23 min 27 sec) 
Heartbeat CPU  0 instructions:  504000000 cycles: 1281110117 heartbeat IPC: 0.54058 cumulative IPC: 0.32648 (Simulation time: 0 hr 23 min 29 sec) 
Heartbeat CPU  0 instructions:  505000000 cycles: 1282959962 heartbeat IPC: 0.54059 cumulative IPC: 0.32680 (Simulation time: 0 hr 23 min 32 sec) 
Heartbeat CPU  0 instructions:  506000000 cycles: 1284811243 heartbeat IPC: 0.54017 cumulative IPC: 0.32712 (Simulation time: 0 hr 23 min 34 sec) 
Heartbeat CPU  0 instructions:  507000001 cycles: 1286661001 heartbeat IPC: 0.54061 cumulative IPC: 0.32743 (Simulation time: 0 hr 23 min 37 sec) 
Heartbeat CPU  0 instructions:  508000000 cycles: 1288511600 heartbeat IPC: 0.54037 cumulative IPC: 0.32775 (Simulation time: 0 hr 23 min 39 sec) 
Heartbeat CPU  0 instructions:  509000000 cycles: 1290362459 heartbeat IPC: 0.54029 cumulative IPC: 0.32807 (Simulation time: 0 hr 23 min 42 sec) 
Heartbeat CPU  0 instructions:  510000000 cycles: 1292214253 heartbeat IPC: 0.54002 cumulative IPC: 0.32838 (Simulation time: 0 hr 23 min 44 sec) 
Heartbeat CPU  0 instructions:  511000003 cycles: 1294066451 heartbeat IPC: 0.53990 cumulative IPC: 0.32869 (Simulation time: 0 hr 23 min 47 sec) 
Heartbeat CPU  0 instructions:  512000000 cycles: 1295916776 heartbeat IPC: 0.54044 cumulative IPC: 0.32901 (Simulation time: 0 hr 23 min 49 sec) 
Heartbeat CPU  0 instructions:  513000001 cycles: 1297769264 heartbeat IPC: 0.53982 cumulative IPC: 0.32932 (Simulation time: 0 hr 23 min 52 sec) 
Heartbeat CPU  0 instructions:  514000001 cycles: 1299618728 heartbeat IPC: 0.54070 cumulative IPC: 0.32963 (Simulation time: 0 hr 23 min 54 sec) 
Heartbeat CPU  0 instructions:  515000002 cycles: 1301470063 heartbeat IPC: 0.54015 cumulative IPC: 0.32994 (Simulation time: 0 hr 23 min 57 sec) 
Heartbeat CPU  0 instructions:  516000000 cycles: 1303319600 heartbeat IPC: 0.54067 cumulative IPC: 0.33025 (Simulation time: 0 hr 24 min 0 sec) 
Heartbeat CPU  0 instructions:  517000002 cycles: 1305171985 heartbeat IPC: 0.53985 cumulative IPC: 0.33056 (Simulation time: 0 hr 24 min 2 sec) 
Heartbeat CPU  0 instructions:  518000002 cycles: 1307025765 heartbeat IPC: 0.53944 cumulative IPC: 0.33086 (Simulation time: 0 hr 24 min 5 sec) 
Heartbeat CPU  0 instructions:  519000002 cycles: 1308874791 heartbeat IPC: 0.54083 cumulative IPC: 0.33117 (Simulation time: 0 hr 24 min 7 sec) 
Heartbeat CPU  0 instructions:  520000000 cycles: 1310725464 heartbeat IPC: 0.54034 cumulative IPC: 0.33148 (Simulation time: 0 hr 24 min 10 sec) 
Heartbeat CPU  0 instructions:  521000001 cycles: 1312576016 heartbeat IPC: 0.54038 cumulative IPC: 0.33178 (Simulation time: 0 hr 24 min 12 sec) 
Heartbeat CPU  0 instructions:  522000000 cycles: 1314426431 heartbeat IPC: 0.54042 cumulative IPC: 0.33208 (Simulation time: 0 hr 24 min 15 sec) 
Heartbeat CPU  0 instructions:  523000000 cycles: 1316277134 heartbeat IPC: 0.54034 cumulative IPC: 0.33239 (Simulation time: 0 hr 24 min 17 sec) 
Heartbeat CPU  0 instructions:  524000000 cycles: 1318122808 heartbeat IPC: 0.54181 cumulative IPC: 0.33269 (Simulation time: 0 hr 24 min 20 sec) 
Heartbeat CPU  0 instructions:  525000002 cycles: 1319969667 heartbeat IPC: 0.54146 cumulative IPC: 0.33299 (Simulation time: 0 hr 24 min 22 sec) 
Heartbeat CPU  0 instructions:  526000002 cycles: 1321819525 heartbeat IPC: 0.54058 cumulative IPC: 0.33329 (Simulation time: 0 hr 24 min 25 sec) 
Heartbeat CPU  0 instructions:  527000003 cycles: 1323670071 heartbeat IPC: 0.54038 cumulative IPC: 0.33359 (Simulation time: 0 hr 24 min 27 sec) 
Heartbeat CPU  0 instructions:  528000000 cycles: 1325514834 heartbeat IPC: 0.54207 cumulative IPC: 0.33389 (Simulation time: 0 hr 24 min 30 sec) 
Heartbeat CPU  0 instructions:  529000002 cycles: 1327365587 heartbeat IPC: 0.54032 cumulative IPC: 0.33419 (Simulation time: 0 hr 24 min 32 sec) 
Heartbeat CPU  0 instructions:  530000002 cycles: 1329217419 heartbeat IPC: 0.54001 cumulative IPC: 0.33449 (Simulation time: 0 hr 24 min 35 sec) 
Heartbeat CPU  0 instructions:  531000001 cycles: 1331068499 heartbeat IPC: 0.54022 cumulative IPC: 0.33478 (Simulation time: 0 hr 24 min 38 sec) 
Heartbeat CPU  0 instructions:  532000000 cycles: 1332920532 heartbeat IPC: 0.53995 cumulative IPC: 0.33508 (Simulation time: 0 hr 24 min 40 sec) 
Heartbeat CPU  0 instructions:  533000000 cycles: 1334771473 heartbeat IPC: 0.54027 cumulative IPC: 0.33537 (Simulation time: 0 hr 24 min 43 sec) 
Heartbeat CPU  0 instructions:  534000000 cycles: 1336620619 heartbeat IPC: 0.54079 cumulative IPC: 0.33566 (Simulation time: 0 hr 24 min 45 sec) 
Heartbeat CPU  0 instructions:  535000003 cycles: 1338451086 heartbeat IPC: 0.54631 cumulative IPC: 0.33596 (Simulation time: 0 hr 24 min 48 sec) 
Heartbeat CPU  0 instructions:  536000000 cycles: 1340276767 heartbeat IPC: 0.54774 cumulative IPC: 0.33626 (Simulation time: 0 hr 24 min 50 sec) 
Heartbeat CPU  0 instructions:  537000003 cycles: 1342107833 heartbeat IPC: 0.54613 cumulative IPC: 0.33656 (Simulation time: 0 hr 24 min 53 sec) 
Heartbeat CPU  0 instructions:  538000003 cycles: 1343937813 heartbeat IPC: 0.54645 cumulative IPC: 0.33685 (Simulation time: 0 hr 24 min 55 sec) 
Heartbeat CPU  0 instructions:  539000001 cycles: 1345761446 heartbeat IPC: 0.54835 cumulative IPC: 0.33715 (Simulation time: 0 hr 24 min 58 sec) 
Heartbeat CPU  0 instructions:  540000000 cycles: 1347591457 heartbeat IPC: 0.54644 cumulative IPC: 0.33744 (Simulation time: 0 hr 25 min 0 sec) 
Heartbeat CPU  0 instructions:  541000000 cycles: 1349421804 heartbeat IPC: 0.54634 cumulative IPC: 0.33773 (Simulation time: 0 hr 25 min 3 sec) 
Heartbeat CPU  0 instructions:  542000000 cycles: 1351250744 heartbeat IPC: 0.54676 cumulative IPC: 0.33803 (Simulation time: 0 hr 25 min 5 sec) 
Heartbeat CPU  0 instructions:  543000002 cycles: 1353079462 heartbeat IPC: 0.54683 cumulative IPC: 0.33832 (Simulation time: 0 hr 25 min 8 sec) 
Heartbeat CPU  0 instructions:  544000000 cycles: 1354906644 heartbeat IPC: 0.54729 cumulative IPC: 0.33861 (Simulation time: 0 hr 25 min 10 sec) 
Heartbeat CPU  0 instructions:  545000001 cycles: 1356739458 heartbeat IPC: 0.54561 cumulative IPC: 0.33890 (Simulation time: 0 hr 25 min 13 sec) 
Heartbeat CPU  0 instructions:  546000003 cycles: 1358571296 heartbeat IPC: 0.54590 cumulative IPC: 0.33919 (Simulation time: 0 hr 25 min 15 sec) 
Heartbeat CPU  0 instructions:  547000002 cycles: 1360395500 heartbeat IPC: 0.54818 cumulative IPC: 0.33948 (Simulation time: 0 hr 25 min 18 sec) 
Heartbeat CPU  0 instructions:  548000000 cycles: 1362227180 heartbeat IPC: 0.54595 cumulative IPC: 0.33976 (Simulation time: 0 hr 25 min 20 sec) 
Heartbeat CPU  0 instructions:  549000000 cycles: 1364057653 heartbeat IPC: 0.54631 cumulative IPC: 0.34005 (Simulation time: 0 hr 25 min 23 sec) 
Heartbeat CPU  0 instructions:  550000003 cycles: 1365883648 heartbeat IPC: 0.54765 cumulative IPC: 0.34034 (Simulation time: 0 hr 25 min 26 sec) 
Heartbeat CPU  0 instructions:  551000001 cycles: 1367688009 heartbeat IPC: 0.55421 cumulative IPC: 0.34063 (Simulation time: 0 hr 25 min 28 sec) 
Heartbeat CPU  0 instructions:  552000000 cycles: 1369460234 heartbeat IPC: 0.56426 cumulative IPC: 0.34093 (Simulation time: 0 hr 25 min 31 sec) 
Heartbeat CPU  0 instructions:  553000000 cycles: 1371207806 heartbeat IPC: 0.57222 cumulative IPC: 0.34123 (Simulation time: 0 hr 25 min 33 sec) 
Heartbeat CPU  0 instructions:  554000000 cycles: 1372929130 heartbeat IPC: 0.58095 cumulative IPC: 0.34154 (Simulation time: 0 hr 25 min 35 sec) 
Heartbeat CPU  0 instructions:  555000002 cycles: 1374646090 heartbeat IPC: 0.58243 cumulative IPC: 0.34185 (Simulation time: 0 hr 25 min 38 sec) 
Heartbeat CPU  0 instructions:  556000000 cycles: 1376329772 heartbeat IPC: 0.59394 cumulative IPC: 0.34217 (Simulation time: 0 hr 25 min 40 sec) 
Heartbeat CPU  0 instructions:  557000001 cycles: 1378000058 heartbeat IPC: 0.59870 cumulative IPC: 0.34249 (Simulation time: 0 hr 25 min 43 sec) 
Heartbeat CPU  0 instructions:  558000003 cycles: 1379666156 heartbeat IPC: 0.60021 cumulative IPC: 0.34281 (Simulation time: 0 hr 25 min 46 sec) 
Heartbeat CPU  0 instructions:  559000002 cycles: 1381329088 heartbeat IPC: 0.60135 cumulative IPC: 0.34314 (Simulation time: 0 hr 25 min 48 sec) 
Heartbeat CPU  0 instructions:  560000000 cycles: 1382991295 heartbeat IPC: 0.60161 cumulative IPC: 0.34346 (Simulation time: 0 hr 25 min 51 sec) 
Heartbeat CPU  0 instructions:  561000000 cycles: 1384654239 heartbeat IPC: 0.60134 cumulative IPC: 0.34378 (Simulation time: 0 hr 25 min 53 sec) 
Heartbeat CPU  0 instructions:  562000003 cycles: 1386316018 heartbeat IPC: 0.60177 cumulative IPC: 0.34410 (Simulation time: 0 hr 25 min 56 sec) 
Heartbeat CPU  0 instructions:  563000003 cycles: 1387975237 heartbeat IPC: 0.60269 cumulative IPC: 0.34441 (Simulation time: 0 hr 25 min 58 sec) 
Heartbeat CPU  0 instructions:  564000000 cycles: 1389638938 heartbeat IPC: 0.60107 cumulative IPC: 0.34473 (Simulation time: 0 hr 26 min 0 sec) 
Heartbeat CPU  0 instructions:  565000000 cycles: 1391302334 heartbeat IPC: 0.60118 cumulative IPC: 0.34505 (Simulation time: 0 hr 26 min 3 sec) 
Heartbeat CPU  0 instructions:  566000000 cycles: 1392961620 heartbeat IPC: 0.60267 cumulative IPC: 0.34536 (Simulation time: 0 hr 26 min 5 sec) 
Heartbeat CPU  0 instructions:  567000002 cycles: 1394624205 heartbeat IPC: 0.60147 cumulative IPC: 0.34568 (Simulation time: 0 hr 26 min 8 sec) 
Heartbeat CPU  0 instructions:  568000000 cycles: 1396287916 heartbeat IPC: 0.60106 cumulative IPC: 0.34599 (Simulation time: 0 hr 26 min 10 sec) 
Heartbeat CPU  0 instructions:  569000000 cycles: 1397949569 heartbeat IPC: 0.60181 cumulative IPC: 0.34631 (Simulation time: 0 hr 26 min 13 sec) 
Heartbeat CPU  0 instructions:  570000003 cycles: 1417753986 heartbeat IPC: 0.05049 cumulative IPC: 0.34204 (Simulation time: 0 hr 26 min 28 sec) 
Heartbeat CPU  0 instructions:  571000000 cycles: 1427845986 heartbeat IPC: 0.09909 cumulative IPC: 0.34027 (Simulation time: 0 hr 26 min 35 sec) 
Heartbeat CPU  0 instructions:  572000000 cycles: 1432365242 heartbeat IPC: 0.22128 cumulative IPC: 0.33989 (Simulation time: 0 hr 26 min 39 sec) 
Heartbeat CPU  0 instructions:  573000002 cycles: 1436910512 heartbeat IPC: 0.22001 cumulative IPC: 0.33949 (Simulation time: 0 hr 26 min 42 sec) 
Heartbeat CPU  0 instructions:  574000001 cycles: 1441357506 heartbeat IPC: 0.22487 cumulative IPC: 0.33913 (Simulation time: 0 hr 26 min 46 sec) 
Heartbeat CPU  0 instructions:  575000003 cycles: 1445879990 heartbeat IPC: 0.22112 cumulative IPC: 0.33875 (Simulation time: 0 hr 26 min 49 sec) 
Heartbeat CPU  0 instructions:  576000000 cycles: 1450364643 heartbeat IPC: 0.22298 cumulative IPC: 0.33838 (Simulation time: 0 hr 26 min 53 sec) 
Heartbeat CPU  0 instructions:  577000002 cycles: 1454872475 heartbeat IPC: 0.22184 cumulative IPC: 0.33801 (Simulation time: 0 hr 26 min 56 sec) 
Heartbeat CPU  0 instructions:  578000001 cycles: 1459362381 heartbeat IPC: 0.22272 cumulative IPC: 0.33764 (Simulation time: 0 hr 27 min 0 sec) 
Heartbeat CPU  0 instructions:  579000000 cycles: 1463879460 heartbeat IPC: 0.22138 cumulative IPC: 0.33727 (Simulation time: 0 hr 27 min 3 sec) 
Heartbeat CPU  0 instructions:  580000000 cycles: 1468392634 heartbeat IPC: 0.22157 cumulative IPC: 0.33691 (Simulation time: 0 hr 27 min 7 sec) 
Heartbeat CPU  0 instructions:  581000002 cycles: 1472919728 heartbeat IPC: 0.22089 cumulative IPC: 0.33654 (Simulation time: 0 hr 27 min 10 sec) 
Heartbeat CPU  0 instructions:  582000001 cycles: 1477420453 heartbeat IPC: 0.22219 cumulative IPC: 0.33618 (Simulation time: 0 hr 27 min 14 sec) 
Heartbeat CPU  0 instructions:  583000000 cycles: 1481880470 heartbeat IPC: 0.22421 cumulative IPC: 0.33583 (Simulation time: 0 hr 27 min 17 sec) 
Heartbeat CPU  0 instructions:  584000000 cycles: 1486431420 heartbeat IPC: 0.21973 cumulative IPC: 0.33547 (Simulation time: 0 hr 27 min 21 sec) 
Heartbeat CPU  0 instructions:  585000001 cycles: 1490853218 heartbeat IPC: 0.22615 cumulative IPC: 0.33513 (Simulation time: 0 hr 27 min 24 sec) 
Heartbeat CPU  0 instructions:  586000000 cycles: 1495462064 heartbeat IPC: 0.21697 cumulative IPC: 0.33476 (Simulation time: 0 hr 27 min 28 sec) 
Heartbeat CPU  0 instructions:  587000002 cycles: 1499936701 heartbeat IPC: 0.22348 cumulative IPC: 0.33442 (Simulation time: 0 hr 27 min 31 sec) 
Heartbeat CPU  0 instructions:  588000000 cycles: 1504448671 heartbeat IPC: 0.22163 cumulative IPC: 0.33407 (Simulation time: 0 hr 27 min 35 sec) 
Heartbeat CPU  0 instructions:  589000000 cycles: 1508961328 heartbeat IPC: 0.22160 cumulative IPC: 0.33372 (Simulation time: 0 hr 27 min 38 sec) 
Heartbeat CPU  0 instructions:  590000003 cycles: 1513462213 heartbeat IPC: 0.22218 cumulative IPC: 0.33338 (Simulation time: 0 hr 27 min 41 sec) 
Heartbeat CPU  0 instructions:  591000002 cycles: 1517942373 heartbeat IPC: 0.22321 cumulative IPC: 0.33304 (Simulation time: 0 hr 27 min 45 sec) 
Heartbeat CPU  0 instructions:  592000000 cycles: 1522482356 heartbeat IPC: 0.22026 cumulative IPC: 0.33270 (Simulation time: 0 hr 27 min 48 sec) 
Heartbeat CPU  0 instructions:  593000000 cycles: 1526966602 heartbeat IPC: 0.22300 cumulative IPC: 0.33237 (Simulation time: 0 hr 27 min 52 sec) 
Heartbeat CPU  0 instructions:  594000002 cycles: 1530264194 heartbeat IPC: 0.30325 cumulative IPC: 0.33230 (Simulation time: 0 hr 27 min 55 sec) 
Heartbeat CPU  0 instructions:  595000001 cycles: 1533764874 heartbeat IPC: 0.28566 cumulative IPC: 0.33219 (Simulation time: 0 hr 27 min 59 sec) 
Heartbeat CPU  0 instructions:  596000000 cycles: 1547505182 heartbeat IPC: 0.07278 cumulative IPC: 0.32982 (Simulation time: 0 hr 28 min 9 sec) 
Heartbeat CPU  0 instructions:  597000002 cycles: 1561338745 heartbeat IPC: 0.07229 cumulative IPC: 0.32747 (Simulation time: 0 hr 28 min 18 sec) 
Heartbeat CPU  0 instructions:  598000002 cycles: 1575291433 heartbeat IPC: 0.07167 cumulative IPC: 0.32514 (Simulation time: 0 hr 28 min 28 sec) 
Heartbeat CPU  0 instructions:  599000000 cycles: 1577368548 heartbeat IPC: 0.48144 cumulative IPC: 0.32536 (Simulation time: 0 hr 28 min 30 sec) 
Heartbeat CPU  0 instructions:  600000000 cycles: 1579314144 heartbeat IPC: 0.51398 cumulative IPC: 0.32559 (Simulation time: 0 hr 28 min 33 sec) 
Finished CPU 0 instructions: 500000002 cycles: 1535650527 cumulative IPC: 0.32559 (Simulation time: 0 hr 28 min 33 sec) 

ChampSim completed all CPUs

[ROI Statistics]
Core_0_instructions 500000002
Core_0_cycles 1535650527
Core_0_IPC 0.32559

Core_0_branch_prediction_accuracy 99.99934
Core_0_branch_MPKI 0.00033
Core_0_average_ROB_occupancy_at_mispredict 127.17791

Core_0_L1D_total_access 100980717
Core_0_L1D_total_hit 90923937
Core_0_L1D_total_miss 10056780
Core_0_L1D_loads 51214948
Core_0_L1D_load_hit 42758216
Core_0_L1D_load_miss 8456732
Core_0_L1D_RFOs 49765769
Core_0_L1D_RFO_hit 48165721
Core_0_L1D_RFO_miss 1600048
Core_0_L1D_prefetches 0
Core_0_L1D_prefetch_hit 0
Core_0_L1D_prefetch_miss 0
Core_0_L1D_writebacks 0
Core_0_L1D_writeback_hit 0
Core_0_L1D_writeback_miss 0
Core_0_L1D_prefetch_requested 0
Core_0_L1D_prefetch_dropped 0
Core_0_L1D_prefetch_issued 0
Core_0_L1D_prefetch_filled 0
Core_0_L1D_prefetch_useful 0
Core_0_L1D_prefetch_useless 0
Core_0_L1D_prefetch_late 0
Core_0_L1D_average_miss_latency 521.17287

Core_0_L1D_rq_access 153925614
Core_0_L1D_rq_forward 0
Core_0_L1D_rq_merged 96557573
Core_0_L1D_rq_to_cache 57368041
Core_0_L1D_rq_full 0

Core_0_L1D_wq_access 59520168
Core_0_L1D_wq_forward 0
Core_0_L1D_wq_merged 0
Core_0_L1D_wq_to_cache 59520168
Core_0_L1D_wq_full 51936158

Core_0_L1D_pq_access 0
Core_0_L1D_pq_forward 0
Core_0_L1D_pq_merged 0
Core_0_L1D_pq_to_cache 0
Core_0_L1D_pq_full 0

Core_0_L1D_acc_epochs 1442812
Core_0_L1D_acc_level_0 1442812
Core_0_L1D_acc_level_1 0
Core_0_L1D_acc_level_2 0
Core_0_L1D_acc_level_3 0
Core_0_L1D_acc_level_4 0
Core_0_L1D_acc_level_5 0
Core_0_L1D_acc_level_6 0
Core_0_L1D_acc_level_7 0
Core_0_L1D_acc_level_8 0
Core_0_L1D_acc_level_9 0

Core_0_L1I_total_access 127500769
Core_0_L1I_total_hit 127500722
Core_0_L1I_total_miss 47
Core_0_L1I_loads 127500769
Core_0_L1I_load_hit 127500722
Core_0_L1I_load_miss 47
Core_0_L1I_RFOs 0
Core_0_L1I_RFO_hit 0
Core_0_L1I_RFO_miss 0
Core_0_L1I_prefetches 0
Core_0_L1I_prefetch_hit 0
Core_0_L1I_prefetch_miss 0
Core_0_L1I_writebacks 0
Core_0_L1I_writeback_hit 0
Core_0_L1I_writeback_miss 0
Core_0_L1I_prefetch_requested 0
Core_0_L1I_prefetch_dropped 0
Core_0_L1I_prefetch_issued 0
Core_0_L1I_prefetch_filled 0
Core_0_L1I_prefetch_useful 0
Core_0_L1I_prefetch_useless 0
Core_0_L1I_prefetch_late 0
Core_0_L1I_average_miss_latency 514.87234

Core_0_L1I_rq_access 500000004
Core_0_L1I_rq_forward 0
Core_0_L1I_rq_merged 372499185
Core_0_L1I_rq_to_cache 127500819
Core_0_L1I_rq_full 0

Core_0_L1I_wq_access 0
Core_0_L1I_wq_forward 0
Core_0_L1I_wq_merged 0
Core_0_L1I_wq_to_cache 0
Core_0_L1I_wq_full 0

Core_0_L1I_pq_access 0
Core_0_L1I_pq_forward 0
Core_0_L1I_pq_merged 0
Core_0_L1I_pq_to_cache 0
Core_0_L1I_pq_full 0

Core_0_L1I_acc_epochs 1442812
Core_0_L1I_acc_level_0 1442812
Core_0_L1I_acc_level_1 0
Core_0_L1I_acc_level_2 0
Core_0_L1I_acc_level_3 0
Core_0_L1I_acc_level_4 0
Core_0_L1I_acc_level_5 0
Core_0_L1I_acc_level_6 0
Core_0_L1I_acc_level_7 0
Core_0_L1I_acc_level_8 0
Core_0_L1I_acc_level_9 0

Core_0_L2C_total_access 15730680
Core_0_L2C_total_hit 5671145
Core_0_L2C_total_miss 10059535
Core_0_L2C_loads 8456779
Core_0_L2C_load_hit 2639867
Core_0_L2C_load_miss 5816912
Core_0_L2C_RFOs 1600048
Core_0_L2C_RFO_hit 0
Core_0_L2C_RFO_miss 1600048
Core_0_L2C_prefetches 2646470
Core_0_L2C_prefetch_hit 3959
Core_0_L2C_prefetch_miss 2642511
Core_0_L2C_writebacks 3027383
Core_0_L2C_writeback_hit 3027319
Core_0_L2C_writeback_miss 64
Core_0_L2C_prefetch_requested 7682800
Core_0_L2C_prefetch_dropped 0
Core_0_L2C_prefetch_issued 7682800
Core_0_L2C_prefetch_filled 3536369
Core_0_L2C_prefetch_useful 3533572
Core_0_L2C_prefetch_useless 2779
Core_0_L2C_prefetch_late 1848864
Core_0_L2C_average_miss_latency 1050.90356

Core_0_L2C_rq_access 10056827
Core_0_L2C_rq_forward 0
Core_0_L2C_rq_merged 0
Core_0_L2C_rq_to_cache 10056827
Core_0_L2C_rq_full 0

Core_0_L2C_wq_access 3027383
Core_0_L2C_wq_forward 0
Core_0_L2C_wq_merged 0
Core_0_L2C_wq_to_cache 3027383
Core_0_L2C_wq_full 0

Core_0_L2C_pq_access 7682800
Core_0_L2C_pq_forward 0
Core_0_L2C_pq_merged 0
Core_0_L2C_pq_to_cache 7682800
Core_0_L2C_pq_full 0

Core_0_L2C_acc_epochs 1442812
Core_0_L2C_acc_level_0 723886
Core_0_L2C_acc_level_1 130653
Core_0_L2C_acc_level_2 81858
Core_0_L2C_acc_level_3 56150
Core_0_L2C_acc_level_4 29338
Core_0_L2C_acc_level_5 61292
Core_0_L2C_acc_level_6 25872
Core_0_L2C_acc_level_7 33963
Core_0_L2C_acc_level_8 20410
Core_0_L2C_acc_level_9 279390

Core_0_LLC_total_access 13111540
Core_0_LLC_total_hit 209726
Core_0_LLC_total_miss 12901814
Core_0_LLC_loads 4055193
Core_0_LLC_load_hit 19758
Core_0_LLC_load_miss 4035435
Core_0_LLC_RFOs 1600048
Core_0_LLC_RFO_hit 2960
Core_0_LLC_RFO_miss 1597088
Core_0_LLC_prefetches 4427353
Core_0_LLC_prefetch_hit 125642
Core_0_LLC_prefetch_miss 4301711
Core_0_LLC_writebacks 3028946
Core_0_LLC_writeback_hit 61366
Core_0_LLC_writeback_miss 2967580
Core_0_LLC_prefetch_requested 0
Core_0_LLC_prefetch_dropped 0
Core_0_LLC_prefetch_issued 0
Core_0_LLC_prefetch_filled 5281741
Core_0_LLC_prefetch_useful 13656
Core_0_LLC_prefetch_useless 5266231
Core_0_LLC_prefetch_late 38
Core_0_LLC_average_miss_latency 841.58952

Core_0_LLC_rq_access 5655241
Core_0_LLC_rq_forward 0
Core_0_LLC_rq_merged 0
Core_0_LLC_rq_to_cache 5655241
Core_0_LLC_rq_full 0

Core_0_LLC_wq_access 3028946
Core_0_LLC_wq_forward 0
Core_0_LLC_wq_merged 0
Core_0_LLC_wq_to_cache 3028946
Core_0_LLC_wq_full 639

Core_0_LLC_pq_access 5408394
Core_0_LLC_pq_forward 0
Core_0_LLC_pq_merged 0
Core_0_LLC_pq_to_cache 5408394
Core_0_LLC_pq_full 0

Core_0_LLC_acc_epochs 1542299
Core_0_LLC_acc_level_0 1525231
Core_0_LLC_acc_level_1 12045
Core_0_LLC_acc_level_2 3682
Core_0_LLC_acc_level_3 38
Core_0_LLC_acc_level_4 3
Core_0_LLC_acc_level_5 1266
Core_0_LLC_acc_level_6 3
Core_0_LLC_acc_level_7 6
Core_0_LLC_acc_level_8 3
Core_0_LLC_acc_level_9 22

Core_0_major_page_fault 0
Core_0_minor_page_fault 95964

[Bingo] PHT Access: 2325020
[Bingo] PHT Hit PC+Addr: 4619
[Bingo] PHT Hit PC+Offs: 2319334
[Bingo] PHT Miss: 1067
[Bingo] Prefetch PC+Addr: 0
[Bingo] Prefetch PC+Offs: 0
[Bingo] Useful PC+Addr: 0
[Bingo] Useful PC+Offs: 0
[Bingo] Useless PC+Addr: 0
[Bingo] Useless PC+Offs: 0
[Bingo] L1 Prefetch per Region: 0.00000
[Bingo] L2 Prefetch per Region: 4.30624
[Bingo] L3 Prefetch per Region: 0.01007
[Bingo] No Prefetch per Region: 27.68369
[Bingo] Number of Voters Mean: 15.99678
[Bingo] Number of Voters SD: 0.17916

Channel_0_RQ_row_buffer_hit 4206529
Channel_0_RQ_row_buffer_miss 5727696
Channel_0_WQ_row_buffer_hit 604391
Channel_0_WQ_row_buffer_miss 2425579
Channel_0_WQ_full 109539
Channel_0_dbus_congested 11669505

avg_congested_cycle 98

DRAM_bw_pochs 6169196
DRAM_bw_level_0 1564727
DRAM_bw_level_1 1039518
DRAM_bw_level_2 0
DRAM_bw_level_3 3564951
