*************************************************
   ChampSim Multicore Out-of-Order Simulator
   Last compiled: Dec 11 2024 17:59:53
*************************************************
parsing config file: /home/functionmain/桌面/Pythia/config/spp_dev2.ini

trace_0 /home/functionmain/桌面/Pythia/traces/433.milc-127B.champsimtrace.xz
adding L2C_PREFETCHER: SPP_dev2
Initialize SIGNATURE TABLE
ST_SET: 1
ST_WAY: 256
ST_TAG_BIT: 16
ST_TAG_MASK: ffff

Initialize PATTERN TABLE
PT_SET: 512
PT_WAY: 4
SIG_DELTA_BIT: 7
C_SIG_BIT: 4
C_DELTA_BIT: 4

Initialize PREFETCH FILTER
FILTER_SET: 1024
fill_threshold: 90
pf_threshold: 40

Initialize SHIP state
warmup_instructions 100000000
simulation_instructions 500000000
champsim_seed 220
measure_ipc 0
measure_ipc_epoch 1000
measure_dram_bw 1
measure_dram_bw_epoch 256
measure_cache_acc 1
measure_cache_acc_epoch 1024
l1d_perfect 0
l2c_perfect 0
llc_perfect 0
l1d_semi_perfect 0
l2c_semi_perfect 0
llc_semi_perfect 0
semi_perfect_cache_page_buffer_size 64

num_cpus 1
cpu_freq 4000
dram_io_freq 2400
page_size 4096
block_size 64
max_read_per_cycle 8
max_fill_per_cycle 1
dram_channels 1
log2_dram_channels 0
dram_ranks 1
dram_banks 8
dram_rows 65536
dram_columns 128
dram_row_size 8
dram_size 4096
dram_pages 1048576

fetch_width 6
decode_width 6
exec_width 4
lq_width 2
sq_width 2
retire_width 4
scheduler_size 128
branch_mispredict_penalty 20
rob_size 256
lq_size 72
sq_size 56
num_instr_destinations_sparc 4
num_instr_destinations 2
num_instr_sources 4

itlb_set 16
itlb_way 8
itlb_rq_size 16
itlb_wq_size 16
itlb_pq_size 0
itlb_mshr_size 8
itlb_latency 1

dtlb_set 16
dtlb_way 4
dtlb_rq_size 16
dtlb_wq_size 16
dtlb_pq_size 0
dtlb_mshr_size 8
dtlb_latency 1

stlb_set 128
stlb_way 12
stlb_rq_size 32
stlb_wq_size 32
stlb_pq_size 0
stlb_mshr_size 16
stlb_latency 8

l1i_size 32
l1i_set 64
l1i_way 8
l1i_rq_size 64
l1i_wq_size 64
l1i_pq_size 8
l1i_mshr_size 8
l1i_latency 1

l1d_size 32
l1d_set 64
l1d_way 8
l1d_rq_size 64
l1d_wq_size 64
l1d_pq_size 8
l1d_mshr_size 16
l1d_latency 4

l2c_size 256
l2c_set 512
l2c_way 8
l2c_rq_size 32
l2c_wq_size 32
l2c_pq_size 32
l2c_mshr_size 32
l2c_latency 10

llc_size 2048
llc_set 2048
llc_way 16
llc_rq_size 32
llc_wq_size 32
llc_pq_size 32
llc_mshr_size 64
llc_latency 20

dram_channel_width 8
dram_wq_size 64
dram_rq_size 64
tRP 15
tRCD 15
tCAS 12.5
dram_dbus_turn_around_time 30
dram_write_high_wm 56
dram_write_low_wm 48
min_dram_writes_per_switch 16
dram_mtps 2400
dram_dbus_return_time 13


Heartbeat CPU  0 instructions:    1000001 cycles:     384703 heartbeat IPC: 2.59941 cumulative IPC: 2.59941 (Simulation time: 0 hr 0 min 2 sec) 
Heartbeat CPU  0 instructions:    2000000 cycles:     769336 heartbeat IPC: 2.59988 cumulative IPC: 2.59964 (Simulation time: 0 hr 0 min 4 sec) 
Heartbeat CPU  0 instructions:    3000000 cycles:    1153940 heartbeat IPC: 2.60008 cumulative IPC: 2.59979 (Simulation time: 0 hr 0 min 6 sec) 
Heartbeat CPU  0 instructions:    4000000 cycles:    1538579 heartbeat IPC: 2.59984 cumulative IPC: 2.59980 (Simulation time: 0 hr 0 min 7 sec) 
Heartbeat CPU  0 instructions:    5000001 cycles:    1923204 heartbeat IPC: 2.59994 cumulative IPC: 2.59983 (Simulation time: 0 hr 0 min 9 sec) 
Heartbeat CPU  0 instructions:    6000000 cycles:    2307788 heartbeat IPC: 2.60021 cumulative IPC: 2.59989 (Simulation time: 0 hr 0 min 11 sec) 
Heartbeat CPU  0 instructions:    7000002 cycles:    2692326 heartbeat IPC: 2.60053 cumulative IPC: 2.59998 (Simulation time: 0 hr 0 min 13 sec) 
Heartbeat CPU  0 instructions:    8000000 cycles:    3076909 heartbeat IPC: 2.60021 cumulative IPC: 2.60001 (Simulation time: 0 hr 0 min 15 sec) 
Heartbeat CPU  0 instructions:    9000003 cycles:    3461502 heartbeat IPC: 2.60016 cumulative IPC: 2.60003 (Simulation time: 0 hr 0 min 17 sec) 
Heartbeat CPU  0 instructions:   10000000 cycles:    3846095 heartbeat IPC: 2.60014 cumulative IPC: 2.60004 (Simulation time: 0 hr 0 min 19 sec) 
Heartbeat CPU  0 instructions:   11000002 cycles:    4230651 heartbeat IPC: 2.60041 cumulative IPC: 2.60007 (Simulation time: 0 hr 0 min 21 sec) 
Heartbeat CPU  0 instructions:   12000000 cycles:    4615142 heartbeat IPC: 2.60084 cumulative IPC: 2.60014 (Simulation time: 0 hr 0 min 23 sec) 
Heartbeat CPU  0 instructions:   13000003 cycles:    4999567 heartbeat IPC: 2.60130 cumulative IPC: 2.60023 (Simulation time: 0 hr 0 min 24 sec) 
Heartbeat CPU  0 instructions:   14000000 cycles:    5383968 heartbeat IPC: 2.60144 cumulative IPC: 2.60031 (Simulation time: 0 hr 0 min 26 sec) 
Heartbeat CPU  0 instructions:   15000002 cycles:    5768363 heartbeat IPC: 2.60150 cumulative IPC: 2.60039 (Simulation time: 0 hr 0 min 28 sec) 
Heartbeat CPU  0 instructions:   16000000 cycles:    6152768 heartbeat IPC: 2.60142 cumulative IPC: 2.60046 (Simulation time: 0 hr 0 min 30 sec) 
Heartbeat CPU  0 instructions:   17000001 cycles:    6537197 heartbeat IPC: 2.60126 cumulative IPC: 2.60050 (Simulation time: 0 hr 0 min 32 sec) 
Heartbeat CPU  0 instructions:   18000000 cycles:    6921602 heartbeat IPC: 2.60142 cumulative IPC: 2.60055 (Simulation time: 0 hr 0 min 34 sec) 
Heartbeat CPU  0 instructions:   19000003 cycles:    7305961 heartbeat IPC: 2.60174 cumulative IPC: 2.60062 (Simulation time: 0 hr 0 min 36 sec) 
Heartbeat CPU  0 instructions:   20000000 cycles:    7792972 heartbeat IPC: 2.05334 cumulative IPC: 2.56642 (Simulation time: 0 hr 0 min 38 sec) 
Heartbeat CPU  0 instructions:   21000001 cycles:    8299717 heartbeat IPC: 1.97338 cumulative IPC: 2.53021 (Simulation time: 0 hr 0 min 40 sec) 
Heartbeat CPU  0 instructions:   22000002 cycles:    8849182 heartbeat IPC: 1.81995 cumulative IPC: 2.48611 (Simulation time: 0 hr 0 min 42 sec) 
Heartbeat CPU  0 instructions:   23000001 cycles:    9398610 heartbeat IPC: 1.82007 cumulative IPC: 2.44717 (Simulation time: 0 hr 0 min 45 sec) 
Heartbeat CPU  0 instructions:   24000000 cycles:    9940559 heartbeat IPC: 1.84519 cumulative IPC: 2.41435 (Simulation time: 0 hr 0 min 47 sec) 
Heartbeat CPU  0 instructions:   25000002 cycles:   10384264 heartbeat IPC: 2.25375 cumulative IPC: 2.40749 (Simulation time: 0 hr 0 min 49 sec) 
Heartbeat CPU  0 instructions:   26000000 cycles:   10827940 heartbeat IPC: 2.25389 cumulative IPC: 2.40120 (Simulation time: 0 hr 0 min 51 sec) 
Heartbeat CPU  0 instructions:   27000000 cycles:   11271615 heartbeat IPC: 2.25390 cumulative IPC: 2.39540 (Simulation time: 0 hr 0 min 54 sec) 
Heartbeat CPU  0 instructions:   28000000 cycles:   11715290 heartbeat IPC: 2.25390 cumulative IPC: 2.39004 (Simulation time: 0 hr 0 min 56 sec) 
Heartbeat CPU  0 instructions:   29000000 cycles:   12159002 heartbeat IPC: 2.25371 cumulative IPC: 2.38506 (Simulation time: 0 hr 0 min 58 sec) 
Heartbeat CPU  0 instructions:   30000000 cycles:   12602721 heartbeat IPC: 2.25368 cumulative IPC: 2.38044 (Simulation time: 0 hr 1 min 0 sec) 
Heartbeat CPU  0 instructions:   31000000 cycles:   13046389 heartbeat IPC: 2.25394 cumulative IPC: 2.37614 (Simulation time: 0 hr 1 min 2 sec) 
Heartbeat CPU  0 instructions:   32000000 cycles:   13490062 heartbeat IPC: 2.25391 cumulative IPC: 2.37212 (Simulation time: 0 hr 1 min 4 sec) 
Heartbeat CPU  0 instructions:   33000000 cycles:   13933771 heartbeat IPC: 2.25373 cumulative IPC: 2.36835 (Simulation time: 0 hr 1 min 6 sec) 
Heartbeat CPU  0 instructions:   34000000 cycles:   14377459 heartbeat IPC: 2.25384 cumulative IPC: 2.36481 (Simulation time: 0 hr 1 min 8 sec) 
Heartbeat CPU  0 instructions:   35000000 cycles:   14821130 heartbeat IPC: 2.25392 cumulative IPC: 2.36149 (Simulation time: 0 hr 1 min 10 sec) 
Heartbeat CPU  0 instructions:   36000000 cycles:   15264802 heartbeat IPC: 2.25392 cumulative IPC: 2.35837 (Simulation time: 0 hr 1 min 12 sec) 
Heartbeat CPU  0 instructions:   37000001 cycles:   15708511 heartbeat IPC: 2.25373 cumulative IPC: 2.35541 (Simulation time: 0 hr 1 min 14 sec) 
Heartbeat CPU  0 instructions:   38000001 cycles:   16152193 heartbeat IPC: 2.25387 cumulative IPC: 2.35262 (Simulation time: 0 hr 1 min 16 sec) 
Heartbeat CPU  0 instructions:   39000001 cycles:   16595874 heartbeat IPC: 2.25387 cumulative IPC: 2.34998 (Simulation time: 0 hr 1 min 18 sec) 
Heartbeat CPU  0 instructions:   40000000 cycles:   17039557 heartbeat IPC: 2.25386 cumulative IPC: 2.34748 (Simulation time: 0 hr 1 min 20 sec) 
Heartbeat CPU  0 instructions:   41000000 cycles:   17483277 heartbeat IPC: 2.25367 cumulative IPC: 2.34510 (Simulation time: 0 hr 1 min 23 sec) 
Heartbeat CPU  0 instructions:   42000000 cycles:   17926959 heartbeat IPC: 2.25387 cumulative IPC: 2.34284 (Simulation time: 0 hr 1 min 25 sec) 
Heartbeat CPU  0 instructions:   43000000 cycles:   18370638 heartbeat IPC: 2.25388 cumulative IPC: 2.34069 (Simulation time: 0 hr 1 min 27 sec) 
Heartbeat CPU  0 instructions:   44000000 cycles:   18814313 heartbeat IPC: 2.25390 cumulative IPC: 2.33864 (Simulation time: 0 hr 1 min 29 sec) 
Heartbeat CPU  0 instructions:   45000001 cycles:   19258005 heartbeat IPC: 2.25382 cumulative IPC: 2.33669 (Simulation time: 0 hr 1 min 31 sec) 
Heartbeat CPU  0 instructions:   46000001 cycles:   19701674 heartbeat IPC: 2.25393 cumulative IPC: 2.33483 (Simulation time: 0 hr 1 min 33 sec) 
Heartbeat CPU  0 instructions:   47000001 cycles:   20145294 heartbeat IPC: 2.25418 cumulative IPC: 2.33305 (Simulation time: 0 hr 1 min 35 sec) 
Heartbeat CPU  0 instructions:   48000000 cycles:   20588900 heartbeat IPC: 2.25425 cumulative IPC: 2.33135 (Simulation time: 0 hr 1 min 37 sec) 
Heartbeat CPU  0 instructions:   49000002 cycles:   21032554 heartbeat IPC: 2.25401 cumulative IPC: 2.32972 (Simulation time: 0 hr 1 min 39 sec) 
Heartbeat CPU  0 instructions:   50000001 cycles:   21476240 heartbeat IPC: 2.25384 cumulative IPC: 2.32815 (Simulation time: 0 hr 1 min 41 sec) 
Heartbeat CPU  0 instructions:   51000001 cycles:   21919885 heartbeat IPC: 2.25405 cumulative IPC: 2.32665 (Simulation time: 0 hr 1 min 43 sec) 
Heartbeat CPU  0 instructions:   52000000 cycles:   22363550 heartbeat IPC: 2.25395 cumulative IPC: 2.32521 (Simulation time: 0 hr 1 min 45 sec) 
Heartbeat CPU  0 instructions:   53000002 cycles:   22807138 heartbeat IPC: 2.25435 cumulative IPC: 2.32383 (Simulation time: 0 hr 1 min 47 sec) 
Heartbeat CPU  0 instructions:   54000002 cycles:   23250651 heartbeat IPC: 2.25473 cumulative IPC: 2.32252 (Simulation time: 0 hr 1 min 49 sec) 
Heartbeat CPU  0 instructions:   55000002 cycles:   23694166 heartbeat IPC: 2.25472 cumulative IPC: 2.32125 (Simulation time: 0 hr 1 min 51 sec) 
Heartbeat CPU  0 instructions:   56000000 cycles:   24137693 heartbeat IPC: 2.25465 cumulative IPC: 2.32002 (Simulation time: 0 hr 1 min 53 sec) 
Heartbeat CPU  0 instructions:   57000000 cycles:   24581277 heartbeat IPC: 2.25436 cumulative IPC: 2.31884 (Simulation time: 0 hr 1 min 55 sec) 
Heartbeat CPU  0 instructions:   58000000 cycles:   25024793 heartbeat IPC: 2.25471 cumulative IPC: 2.31770 (Simulation time: 0 hr 1 min 58 sec) 
Heartbeat CPU  0 instructions:   59000003 cycles:   25468617 heartbeat IPC: 2.25315 cumulative IPC: 2.31658 (Simulation time: 0 hr 2 min 0 sec) 
Heartbeat CPU  0 instructions:   60000000 cycles:   25912934 heartbeat IPC: 2.25064 cumulative IPC: 2.31545 (Simulation time: 0 hr 2 min 2 sec) 
Heartbeat CPU  0 instructions:   61000000 cycles:   26357293 heartbeat IPC: 2.25043 cumulative IPC: 2.31435 (Simulation time: 0 hr 2 min 4 sec) 
Heartbeat CPU  0 instructions:   62000002 cycles:   26801682 heartbeat IPC: 2.25029 cumulative IPC: 2.31329 (Simulation time: 0 hr 2 min 6 sec) 
Heartbeat CPU  0 instructions:   63000003 cycles:   27246029 heartbeat IPC: 2.25050 cumulative IPC: 2.31226 (Simulation time: 0 hr 2 min 8 sec) 
Heartbeat CPU  0 instructions:   64000000 cycles:   27690424 heartbeat IPC: 2.25024 cumulative IPC: 2.31127 (Simulation time: 0 hr 2 min 10 sec) 
Heartbeat CPU  0 instructions:   65000003 cycles:   28134815 heartbeat IPC: 2.25028 cumulative IPC: 2.31030 (Simulation time: 0 hr 2 min 12 sec) 
Heartbeat CPU  0 instructions:   66000000 cycles:   28579185 heartbeat IPC: 2.25037 cumulative IPC: 2.30937 (Simulation time: 0 hr 2 min 14 sec) 
Heartbeat CPU  0 instructions:   67000001 cycles:   29023596 heartbeat IPC: 2.25017 cumulative IPC: 2.30847 (Simulation time: 0 hr 2 min 16 sec) 
Heartbeat CPU  0 instructions:   68000000 cycles:   29467929 heartbeat IPC: 2.25056 cumulative IPC: 2.30759 (Simulation time: 0 hr 2 min 18 sec) 
Heartbeat CPU  0 instructions:   69000003 cycles:   29912302 heartbeat IPC: 2.25037 cumulative IPC: 2.30674 (Simulation time: 0 hr 2 min 20 sec) 
Heartbeat CPU  0 instructions:   70000003 cycles:   30356645 heartbeat IPC: 2.25051 cumulative IPC: 2.30592 (Simulation time: 0 hr 2 min 22 sec) 
Heartbeat CPU  0 instructions:   71000003 cycles:   30800879 heartbeat IPC: 2.25107 cumulative IPC: 2.30513 (Simulation time: 0 hr 2 min 24 sec) 
Heartbeat CPU  0 instructions:   72000000 cycles:   31245090 heartbeat IPC: 2.25118 cumulative IPC: 2.30436 (Simulation time: 0 hr 2 min 26 sec) 
Heartbeat CPU  0 instructions:   73000001 cycles:   31689427 heartbeat IPC: 2.25055 cumulative IPC: 2.30361 (Simulation time: 0 hr 2 min 28 sec) 
Heartbeat CPU  0 instructions:   74000002 cycles:   32133762 heartbeat IPC: 2.25056 cumulative IPC: 2.30287 (Simulation time: 0 hr 2 min 30 sec) 
Heartbeat CPU  0 instructions:   75000003 cycles:   32578045 heartbeat IPC: 2.25082 cumulative IPC: 2.30216 (Simulation time: 0 hr 2 min 32 sec) 
Heartbeat CPU  0 instructions:   76000000 cycles:   33022376 heartbeat IPC: 2.25057 cumulative IPC: 2.30147 (Simulation time: 0 hr 2 min 34 sec) 
Heartbeat CPU  0 instructions:   77000003 cycles:   33466711 heartbeat IPC: 2.25056 cumulative IPC: 2.30079 (Simulation time: 0 hr 2 min 37 sec) 
Heartbeat CPU  0 instructions:   78000000 cycles:   33910995 heartbeat IPC: 2.25081 cumulative IPC: 2.30014 (Simulation time: 0 hr 2 min 39 sec) 
Heartbeat CPU  0 instructions:   79000001 cycles:   34355352 heartbeat IPC: 2.25045 cumulative IPC: 2.29950 (Simulation time: 0 hr 2 min 41 sec) 
Heartbeat CPU  0 instructions:   80000000 cycles:   34799640 heartbeat IPC: 2.25079 cumulative IPC: 2.29887 (Simulation time: 0 hr 2 min 43 sec) 
Heartbeat CPU  0 instructions:   81000001 cycles:   35244020 heartbeat IPC: 2.25033 cumulative IPC: 2.29826 (Simulation time: 0 hr 2 min 45 sec) 
Heartbeat CPU  0 instructions:   82000003 cycles:   35688256 heartbeat IPC: 2.25106 cumulative IPC: 2.29767 (Simulation time: 0 hr 2 min 47 sec) 
Heartbeat CPU  0 instructions:   83000003 cycles:   36132479 heartbeat IPC: 2.25112 cumulative IPC: 2.29710 (Simulation time: 0 hr 2 min 49 sec) 
Heartbeat CPU  0 instructions:   84000000 cycles:   36576693 heartbeat IPC: 2.25116 cumulative IPC: 2.29654 (Simulation time: 0 hr 2 min 51 sec) 
Heartbeat CPU  0 instructions:   85000003 cycles:   37020980 heartbeat IPC: 2.25080 cumulative IPC: 2.29600 (Simulation time: 0 hr 2 min 53 sec) 
Heartbeat CPU  0 instructions:   86000002 cycles:   37465165 heartbeat IPC: 2.25131 cumulative IPC: 2.29547 (Simulation time: 0 hr 2 min 55 sec) 
Heartbeat CPU  0 instructions:   87000002 cycles:   37909374 heartbeat IPC: 2.25119 cumulative IPC: 2.29495 (Simulation time: 0 hr 2 min 57 sec) 
Heartbeat CPU  0 instructions:   88000000 cycles:   38353604 heartbeat IPC: 2.25108 cumulative IPC: 2.29444 (Simulation time: 0 hr 2 min 59 sec) 
Heartbeat CPU  0 instructions:   89000001 cycles:   38797865 heartbeat IPC: 2.25093 cumulative IPC: 2.29394 (Simulation time: 0 hr 3 min 1 sec) 
Heartbeat CPU  0 instructions:   90000000 cycles:   39242081 heartbeat IPC: 2.25115 cumulative IPC: 2.29346 (Simulation time: 0 hr 3 min 3 sec) 
Heartbeat CPU  0 instructions:   91000001 cycles:   39686337 heartbeat IPC: 2.25096 cumulative IPC: 2.29298 (Simulation time: 0 hr 3 min 5 sec) 
Heartbeat CPU  0 instructions:   92000000 cycles:   40130519 heartbeat IPC: 2.25133 cumulative IPC: 2.29252 (Simulation time: 0 hr 3 min 8 sec) 
Heartbeat CPU  0 instructions:   93000001 cycles:   40574793 heartbeat IPC: 2.25087 cumulative IPC: 2.29206 (Simulation time: 0 hr 3 min 10 sec) 
Heartbeat CPU  0 instructions:   94000003 cycles:   41013437 heartbeat IPC: 2.27976 cumulative IPC: 2.29193 (Simulation time: 0 hr 3 min 12 sec) 
Heartbeat CPU  0 instructions:   95000001 cycles:   41443026 heartbeat IPC: 2.32780 cumulative IPC: 2.29230 (Simulation time: 0 hr 3 min 14 sec) 
Heartbeat CPU  0 instructions:   96000000 cycles:   41872560 heartbeat IPC: 2.32810 cumulative IPC: 2.29267 (Simulation time: 0 hr 3 min 16 sec) 
Heartbeat CPU  0 instructions:   97000001 cycles:   42302178 heartbeat IPC: 2.32765 cumulative IPC: 2.29303 (Simulation time: 0 hr 3 min 19 sec) 
Heartbeat CPU  0 instructions:   98000000 cycles:   42731732 heartbeat IPC: 2.32799 cumulative IPC: 2.29338 (Simulation time: 0 hr 3 min 21 sec) 
Heartbeat CPU  0 instructions:   99000003 cycles:   43161317 heartbeat IPC: 2.32784 cumulative IPC: 2.29372 (Simulation time: 0 hr 3 min 23 sec) 
Heartbeat CPU  0 instructions:  100000000 cycles:   43590891 heartbeat IPC: 2.32788 cumulative IPC: 2.29406 (Simulation time: 0 hr 3 min 26 sec) 

Warmup complete CPU  0 instructions:  100000001 cycles:   43590892 (Simulation time: 0 hr 3 min 26 sec) 

Heartbeat CPU  0 instructions:  101000002 cycles:   45237437 heartbeat IPC: 0.60733 cumulative IPC: 0.60733 (Simulation time: 0 hr 3 min 29 sec) 
Heartbeat CPU  0 instructions:  102000001 cycles:   46928632 heartbeat IPC: 0.59130 cumulative IPC: 0.59921 (Simulation time: 0 hr 3 min 32 sec) 
Heartbeat CPU  0 instructions:  103000002 cycles:   48734626 heartbeat IPC: 0.55371 cumulative IPC: 0.58323 (Simulation time: 0 hr 3 min 36 sec) 
Heartbeat CPU  0 instructions:  104000000 cycles:   51009205 heartbeat IPC: 0.43964 cumulative IPC: 0.53921 (Simulation time: 0 hr 3 min 39 sec) 
Heartbeat CPU  0 instructions:  105000002 cycles:   53172517 heartbeat IPC: 0.46226 cumulative IPC: 0.52183 (Simulation time: 0 hr 3 min 42 sec) 
Heartbeat CPU  0 instructions:  106000001 cycles:   55299736 heartbeat IPC: 0.47010 cumulative IPC: 0.51243 (Simulation time: 0 hr 3 min 45 sec) 
Heartbeat CPU  0 instructions:  107000002 cycles:   57412665 heartbeat IPC: 0.47328 cumulative IPC: 0.50645 (Simulation time: 0 hr 3 min 48 sec) 
Heartbeat CPU  0 instructions:  108000000 cycles:   59531238 heartbeat IPC: 0.47201 cumulative IPC: 0.50187 (Simulation time: 0 hr 3 min 51 sec) 
Heartbeat CPU  0 instructions:  109000000 cycles:   61634390 heartbeat IPC: 0.47548 cumulative IPC: 0.49879 (Simulation time: 0 hr 3 min 54 sec) 
Heartbeat CPU  0 instructions:  110000001 cycles:   63729543 heartbeat IPC: 0.47729 cumulative IPC: 0.49656 (Simulation time: 0 hr 3 min 57 sec) 
Heartbeat CPU  0 instructions:  111000000 cycles:   65851312 heartbeat IPC: 0.47130 cumulative IPC: 0.49415 (Simulation time: 0 hr 4 min 0 sec) 
Heartbeat CPU  0 instructions:  112000000 cycles:   67967216 heartbeat IPC: 0.47261 cumulative IPC: 0.49228 (Simulation time: 0 hr 4 min 3 sec) 
Heartbeat CPU  0 instructions:  113000000 cycles:   70080793 heartbeat IPC: 0.47313 cumulative IPC: 0.49075 (Simulation time: 0 hr 4 min 6 sec) 
Heartbeat CPU  0 instructions:  114000000 cycles:   72185520 heartbeat IPC: 0.47512 cumulative IPC: 0.48960 (Simulation time: 0 hr 4 min 9 sec) 
Heartbeat CPU  0 instructions:  115000001 cycles:   74288755 heartbeat IPC: 0.47546 cumulative IPC: 0.48863 (Simulation time: 0 hr 4 min 12 sec) 
Heartbeat CPU  0 instructions:  116000000 cycles:   76401532 heartbeat IPC: 0.47331 cumulative IPC: 0.48765 (Simulation time: 0 hr 4 min 15 sec) 
Heartbeat CPU  0 instructions:  117000003 cycles:   78515202 heartbeat IPC: 0.47311 cumulative IPC: 0.48677 (Simulation time: 0 hr 4 min 18 sec) 
Heartbeat CPU  0 instructions:  118000001 cycles:   80618299 heartbeat IPC: 0.47549 cumulative IPC: 0.48613 (Simulation time: 0 hr 4 min 21 sec) 
Heartbeat CPU  0 instructions:  119000000 cycles:   82722545 heartbeat IPC: 0.47523 cumulative IPC: 0.48554 (Simulation time: 0 hr 4 min 24 sec) 
Heartbeat CPU  0 instructions:  120000000 cycles:   84757750 heartbeat IPC: 0.49135 cumulative IPC: 0.48583 (Simulation time: 0 hr 4 min 27 sec) 
Heartbeat CPU  0 instructions:  121000003 cycles:   86836725 heartbeat IPC: 0.48101 cumulative IPC: 0.48560 (Simulation time: 0 hr 4 min 31 sec) 
Heartbeat CPU  0 instructions:  122000000 cycles:   88956125 heartbeat IPC: 0.47183 cumulative IPC: 0.48495 (Simulation time: 0 hr 4 min 34 sec) 
Heartbeat CPU  0 instructions:  123000001 cycles:   91048247 heartbeat IPC: 0.47798 cumulative IPC: 0.48465 (Simulation time: 0 hr 4 min 37 sec) 
Heartbeat CPU  0 instructions:  124000000 cycles:   93136634 heartbeat IPC: 0.47884 cumulative IPC: 0.48440 (Simulation time: 0 hr 4 min 40 sec) 
Heartbeat CPU  0 instructions:  125000003 cycles:   95251810 heartbeat IPC: 0.47278 cumulative IPC: 0.48392 (Simulation time: 0 hr 4 min 43 sec) 
Heartbeat CPU  0 instructions:  126000001 cycles:   97377333 heartbeat IPC: 0.47047 cumulative IPC: 0.48339 (Simulation time: 0 hr 4 min 46 sec) 
Heartbeat CPU  0 instructions:  127000003 cycles:   99312991 heartbeat IPC: 0.51662 cumulative IPC: 0.48455 (Simulation time: 0 hr 4 min 50 sec) 
Heartbeat CPU  0 instructions:  128000000 cycles:  101008308 heartbeat IPC: 0.58986 cumulative IPC: 0.48766 (Simulation time: 0 hr 4 min 53 sec) 
Heartbeat CPU  0 instructions:  129000003 cycles:  102982924 heartbeat IPC: 0.50643 cumulative IPC: 0.48828 (Simulation time: 0 hr 4 min 57 sec) 
Heartbeat CPU  0 instructions:  130000001 cycles:  105032129 heartbeat IPC: 0.48799 cumulative IPC: 0.48827 (Simulation time: 0 hr 5 min 0 sec) 
Heartbeat CPU  0 instructions:  131000000 cycles:  107061465 heartbeat IPC: 0.49277 cumulative IPC: 0.48842 (Simulation time: 0 hr 5 min 3 sec) 
Heartbeat CPU  0 instructions:  132000000 cycles:  109087218 heartbeat IPC: 0.49364 cumulative IPC: 0.48858 (Simulation time: 0 hr 5 min 6 sec) 
Heartbeat CPU  0 instructions:  133000001 cycles:  111120793 heartbeat IPC: 0.49175 cumulative IPC: 0.48867 (Simulation time: 0 hr 5 min 9 sec) 
Heartbeat CPU  0 instructions:  134000002 cycles:  113142711 heartbeat IPC: 0.49458 cumulative IPC: 0.48884 (Simulation time: 0 hr 5 min 12 sec) 
Heartbeat CPU  0 instructions:  135000000 cycles:  115165234 heartbeat IPC: 0.49443 cumulative IPC: 0.48900 (Simulation time: 0 hr 5 min 15 sec) 
Heartbeat CPU  0 instructions:  136000000 cycles:  117195315 heartbeat IPC: 0.49259 cumulative IPC: 0.48910 (Simulation time: 0 hr 5 min 18 sec) 
Heartbeat CPU  0 instructions:  137000003 cycles:  119208337 heartbeat IPC: 0.49677 cumulative IPC: 0.48931 (Simulation time: 0 hr 5 min 21 sec) 
Heartbeat CPU  0 instructions:  138000001 cycles:  121233486 heartbeat IPC: 0.49379 cumulative IPC: 0.48942 (Simulation time: 0 hr 5 min 24 sec) 
Heartbeat CPU  0 instructions:  139000003 cycles:  123254888 heartbeat IPC: 0.49471 cumulative IPC: 0.48956 (Simulation time: 0 hr 5 min 27 sec) 
Heartbeat CPU  0 instructions:  140000000 cycles:  125282149 heartbeat IPC: 0.49327 cumulative IPC: 0.48965 (Simulation time: 0 hr 5 min 30 sec) 
Heartbeat CPU  0 instructions:  141000003 cycles:  127309086 heartbeat IPC: 0.49336 cumulative IPC: 0.48974 (Simulation time: 0 hr 5 min 33 sec) 
Heartbeat CPU  0 instructions:  142000002 cycles:  129346717 heartbeat IPC: 0.49077 cumulative IPC: 0.48976 (Simulation time: 0 hr 5 min 36 sec) 
Heartbeat CPU  0 instructions:  143000000 cycles:  131390018 heartbeat IPC: 0.48940 cumulative IPC: 0.48975 (Simulation time: 0 hr 5 min 39 sec) 
Heartbeat CPU  0 instructions:  144000000 cycles:  133420053 heartbeat IPC: 0.49260 cumulative IPC: 0.48982 (Simulation time: 0 hr 5 min 42 sec) 
Heartbeat CPU  0 instructions:  145000003 cycles:  135454741 heartbeat IPC: 0.49148 cumulative IPC: 0.48986 (Simulation time: 0 hr 5 min 45 sec) 
Heartbeat CPU  0 instructions:  146000001 cycles:  137482054 heartbeat IPC: 0.49326 cumulative IPC: 0.48993 (Simulation time: 0 hr 5 min 48 sec) 
Heartbeat CPU  0 instructions:  147000000 cycles:  139512988 heartbeat IPC: 0.49238 cumulative IPC: 0.48998 (Simulation time: 0 hr 5 min 51 sec) 
Heartbeat CPU  0 instructions:  148000000 cycles:  141545514 heartbeat IPC: 0.49200 cumulative IPC: 0.49002 (Simulation time: 0 hr 5 min 53 sec) 
Heartbeat CPU  0 instructions:  149000003 cycles:  143574980 heartbeat IPC: 0.49274 cumulative IPC: 0.49008 (Simulation time: 0 hr 5 min 56 sec) 
Heartbeat CPU  0 instructions:  150000002 cycles:  145606277 heartbeat IPC: 0.49230 cumulative IPC: 0.49012 (Simulation time: 0 hr 5 min 59 sec) 
Heartbeat CPU  0 instructions:  151000000 cycles:  147629157 heartbeat IPC: 0.49434 cumulative IPC: 0.49020 (Simulation time: 0 hr 6 min 2 sec) 
Heartbeat CPU  0 instructions:  152000000 cycles:  149661445 heartbeat IPC: 0.49206 cumulative IPC: 0.49024 (Simulation time: 0 hr 6 min 5 sec) 
Heartbeat CPU  0 instructions:  153000003 cycles:  150845631 heartbeat IPC: 0.84446 cumulative IPC: 0.49415 (Simulation time: 0 hr 6 min 8 sec) 
Heartbeat CPU  0 instructions:  154000003 cycles:  152004723 heartbeat IPC: 0.86274 cumulative IPC: 0.49809 (Simulation time: 0 hr 6 min 10 sec) 
Heartbeat CPU  0 instructions:  155000002 cycles:  153163134 heartbeat IPC: 0.86325 cumulative IPC: 0.50195 (Simulation time: 0 hr 6 min 13 sec) 
Heartbeat CPU  0 instructions:  156000000 cycles:  154318031 heartbeat IPC: 0.86588 cumulative IPC: 0.50575 (Simulation time: 0 hr 6 min 15 sec) 
Heartbeat CPU  0 instructions:  157000000 cycles:  155473533 heartbeat IPC: 0.86542 cumulative IPC: 0.50946 (Simulation time: 0 hr 6 min 18 sec) 
Heartbeat CPU  0 instructions:  158000003 cycles:  156627715 heartbeat IPC: 0.86642 cumulative IPC: 0.51311 (Simulation time: 0 hr 6 min 20 sec) 
Heartbeat CPU  0 instructions:  159000001 cycles:  157781904 heartbeat IPC: 0.86641 cumulative IPC: 0.51668 (Simulation time: 0 hr 6 min 23 sec) 
Heartbeat CPU  0 instructions:  160000000 cycles:  158932159 heartbeat IPC: 0.86937 cumulative IPC: 0.52020 (Simulation time: 0 hr 6 min 25 sec) 
Heartbeat CPU  0 instructions:  161000001 cycles:  160087349 heartbeat IPC: 0.86566 cumulative IPC: 0.52362 (Simulation time: 0 hr 6 min 28 sec) 
Heartbeat CPU  0 instructions:  162000001 cycles:  161237169 heartbeat IPC: 0.86970 cumulative IPC: 0.52700 (Simulation time: 0 hr 6 min 31 sec) 
Heartbeat CPU  0 instructions:  163000001 cycles:  162389786 heartbeat IPC: 0.86759 cumulative IPC: 0.53031 (Simulation time: 0 hr 6 min 33 sec) 
Heartbeat CPU  0 instructions:  164000000 cycles:  163547852 heartbeat IPC: 0.86351 cumulative IPC: 0.53352 (Simulation time: 0 hr 6 min 36 sec) 
Heartbeat CPU  0 instructions:  165000001 cycles:  164707734 heartbeat IPC: 0.86216 cumulative IPC: 0.53667 (Simulation time: 0 hr 6 min 38 sec) 
Heartbeat CPU  0 instructions:  166000003 cycles:  165869484 heartbeat IPC: 0.86077 cumulative IPC: 0.53975 (Simulation time: 0 hr 6 min 41 sec) 
Heartbeat CPU  0 instructions:  167000001 cycles:  167028152 heartbeat IPC: 0.86306 cumulative IPC: 0.54279 (Simulation time: 0 hr 6 min 43 sec) 
Heartbeat CPU  0 instructions:  168000000 cycles:  168188995 heartbeat IPC: 0.86144 cumulative IPC: 0.54575 (Simulation time: 0 hr 6 min 46 sec) 
Heartbeat CPU  0 instructions:  169000001 cycles:  169351103 heartbeat IPC: 0.86051 cumulative IPC: 0.54866 (Simulation time: 0 hr 6 min 48 sec) 
Heartbeat CPU  0 instructions:  170000001 cycles:  170513341 heartbeat IPC: 0.86041 cumulative IPC: 0.55152 (Simulation time: 0 hr 6 min 51 sec) 
Heartbeat CPU  0 instructions:  171000001 cycles:  171676249 heartbeat IPC: 0.85991 cumulative IPC: 0.55432 (Simulation time: 0 hr 6 min 53 sec) 
Heartbeat CPU  0 instructions:  172000000 cycles:  172835875 heartbeat IPC: 0.86235 cumulative IPC: 0.55708 (Simulation time: 0 hr 6 min 56 sec) 
Heartbeat CPU  0 instructions:  173000001 cycles:  173996730 heartbeat IPC: 0.86143 cumulative IPC: 0.55979 (Simulation time: 0 hr 6 min 58 sec) 
Heartbeat CPU  0 instructions:  174000001 cycles:  175155487 heartbeat IPC: 0.86299 cumulative IPC: 0.56246 (Simulation time: 0 hr 7 min 1 sec) 
Heartbeat CPU  0 instructions:  175000000 cycles:  176317831 heartbeat IPC: 0.86033 cumulative IPC: 0.56507 (Simulation time: 0 hr 7 min 4 sec) 
Heartbeat CPU  0 instructions:  176000000 cycles:  177478368 heartbeat IPC: 0.86167 cumulative IPC: 0.56764 (Simulation time: 0 hr 7 min 6 sec) 
Heartbeat CPU  0 instructions:  177000003 cycles:  178636934 heartbeat IPC: 0.86314 cumulative IPC: 0.57018 (Simulation time: 0 hr 7 min 9 sec) 
Heartbeat CPU  0 instructions:  178000000 cycles:  179797442 heartbeat IPC: 0.86169 cumulative IPC: 0.57266 (Simulation time: 0 hr 7 min 11 sec) 
Heartbeat CPU  0 instructions:  179000003 cycles:  180957283 heartbeat IPC: 0.86219 cumulative IPC: 0.57510 (Simulation time: 0 hr 7 min 14 sec) 
Heartbeat CPU  0 instructions:  180000000 cycles:  182119352 heartbeat IPC: 0.86053 cumulative IPC: 0.57750 (Simulation time: 0 hr 7 min 16 sec) 
Heartbeat CPU  0 instructions:  181000003 cycles:  183359355 heartbeat IPC: 0.80645 cumulative IPC: 0.57953 (Simulation time: 0 hr 7 min 19 sec) 
Heartbeat CPU  0 instructions:  182000002 cycles:  184645641 heartbeat IPC: 0.77743 cumulative IPC: 0.58133 (Simulation time: 0 hr 7 min 21 sec) 
Heartbeat CPU  0 instructions:  183000001 cycles:  185927066 heartbeat IPC: 0.78038 cumulative IPC: 0.58313 (Simulation time: 0 hr 7 min 24 sec) 
Heartbeat CPU  0 instructions:  184000000 cycles:  187203747 heartbeat IPC: 0.78328 cumulative IPC: 0.58491 (Simulation time: 0 hr 7 min 27 sec) 
Heartbeat CPU  0 instructions:  185000003 cycles:  188492171 heartbeat IPC: 0.77614 cumulative IPC: 0.58661 (Simulation time: 0 hr 7 min 29 sec) 
Heartbeat CPU  0 instructions:  186000003 cycles:  189782092 heartbeat IPC: 0.77524 cumulative IPC: 0.58827 (Simulation time: 0 hr 7 min 32 sec) 
Heartbeat CPU  0 instructions:  187000003 cycles:  191060818 heartbeat IPC: 0.78203 cumulative IPC: 0.58995 (Simulation time: 0 hr 7 min 35 sec) 
Heartbeat CPU  0 instructions:  188000000 cycles:  192299809 heartbeat IPC: 0.80711 cumulative IPC: 0.59176 (Simulation time: 0 hr 7 min 37 sec) 
Heartbeat CPU  0 instructions:  189000001 cycles:  193467613 heartbeat IPC: 0.85631 cumulative IPC: 0.59382 (Simulation time: 0 hr 7 min 40 sec) 
Heartbeat CPU  0 instructions:  190000002 cycles:  194688960 heartbeat IPC: 0.81877 cumulative IPC: 0.59564 (Simulation time: 0 hr 7 min 42 sec) 
Heartbeat CPU  0 instructions:  191000002 cycles:  195980451 heartbeat IPC: 0.77430 cumulative IPC: 0.59715 (Simulation time: 0 hr 7 min 45 sec) 
Heartbeat CPU  0 instructions:  192000000 cycles:  197279533 heartbeat IPC: 0.76977 cumulative IPC: 0.59861 (Simulation time: 0 hr 7 min 48 sec) 
Heartbeat CPU  0 instructions:  193000001 cycles:  198566167 heartbeat IPC: 0.77722 cumulative IPC: 0.60010 (Simulation time: 0 hr 7 min 50 sec) 
Heartbeat CPU  0 instructions:  194000001 cycles:  199871125 heartbeat IPC: 0.76631 cumulative IPC: 0.60148 (Simulation time: 0 hr 7 min 53 sec) 
Heartbeat CPU  0 instructions:  195000003 cycles:  201161217 heartbeat IPC: 0.77514 cumulative IPC: 0.60291 (Simulation time: 0 hr 7 min 55 sec) 
Heartbeat CPU  0 instructions:  196000000 cycles:  202439960 heartbeat IPC: 0.78202 cumulative IPC: 0.60435 (Simulation time: 0 hr 7 min 58 sec) 
Heartbeat CPU  0 instructions:  197000002 cycles:  203715599 heartbeat IPC: 0.78392 cumulative IPC: 0.60578 (Simulation time: 0 hr 8 min 1 sec) 
Heartbeat CPU  0 instructions:  198000000 cycles:  204989477 heartbeat IPC: 0.78500 cumulative IPC: 0.60719 (Simulation time: 0 hr 8 min 3 sec) 
Heartbeat CPU  0 instructions:  199000003 cycles:  206232246 heartbeat IPC: 0.80466 cumulative IPC: 0.60870 (Simulation time: 0 hr 8 min 6 sec) 
Heartbeat CPU  0 instructions:  200000000 cycles:  207505841 heartbeat IPC: 0.78518 cumulative IPC: 0.61007 (Simulation time: 0 hr 8 min 8 sec) 
Heartbeat CPU  0 instructions:  201000001 cycles:  208676149 heartbeat IPC: 0.85448 cumulative IPC: 0.61181 (Simulation time: 0 hr 8 min 11 sec) 
Heartbeat CPU  0 instructions:  202000002 cycles:  209833596 heartbeat IPC: 0.86397 cumulative IPC: 0.61356 (Simulation time: 0 hr 8 min 13 sec) 
Heartbeat CPU  0 instructions:  203000000 cycles:  210991030 heartbeat IPC: 0.86398 cumulative IPC: 0.61529 (Simulation time: 0 hr 8 min 16 sec) 
Heartbeat CPU  0 instructions:  204000000 cycles:  212150928 heartbeat IPC: 0.86214 cumulative IPC: 0.61699 (Simulation time: 0 hr 8 min 19 sec) 
Heartbeat CPU  0 instructions:  205000001 cycles:  213308640 heartbeat IPC: 0.86377 cumulative IPC: 0.61867 (Simulation time: 0 hr 8 min 21 sec) 
Heartbeat CPU  0 instructions:  206000001 cycles:  214465530 heartbeat IPC: 0.86439 cumulative IPC: 0.62034 (Simulation time: 0 hr 8 min 24 sec) 
Heartbeat CPU  0 instructions:  207000003 cycles:  215624725 heartbeat IPC: 0.86267 cumulative IPC: 0.62197 (Simulation time: 0 hr 8 min 26 sec) 
Heartbeat CPU  0 instructions:  208000000 cycles:  216782941 heartbeat IPC: 0.86339 cumulative IPC: 0.62359 (Simulation time: 0 hr 8 min 29 sec) 
Heartbeat CPU  0 instructions:  209000000 cycles:  217929679 heartbeat IPC: 0.87204 cumulative IPC: 0.62522 (Simulation time: 0 hr 8 min 31 sec) 
Heartbeat CPU  0 instructions:  210000002 cycles:  219039592 heartbeat IPC: 0.90097 cumulative IPC: 0.62696 (Simulation time: 0 hr 8 min 34 sec) 
Heartbeat CPU  0 instructions:  211000003 cycles:  220150945 heartbeat IPC: 0.89981 cumulative IPC: 0.62868 (Simulation time: 0 hr 8 min 36 sec) 
Heartbeat CPU  0 instructions:  212000000 cycles:  221262317 heartbeat IPC: 0.89979 cumulative IPC: 0.63038 (Simulation time: 0 hr 8 min 39 sec) 
Heartbeat CPU  0 instructions:  213000003 cycles:  222375110 heartbeat IPC: 0.89864 cumulative IPC: 0.63205 (Simulation time: 0 hr 8 min 41 sec) 
Heartbeat CPU  0 instructions:  214000000 cycles:  223487822 heartbeat IPC: 0.89870 cumulative IPC: 0.63370 (Simulation time: 0 hr 8 min 44 sec) 
Heartbeat CPU  0 instructions:  215000001 cycles:  224598010 heartbeat IPC: 0.90075 cumulative IPC: 0.63533 (Simulation time: 0 hr 8 min 46 sec) 
Heartbeat CPU  0 instructions:  216000000 cycles:  225707756 heartbeat IPC: 0.90111 cumulative IPC: 0.63695 (Simulation time: 0 hr 8 min 49 sec) 
Heartbeat CPU  0 instructions:  217000001 cycles:  226817080 heartbeat IPC: 0.90145 cumulative IPC: 0.63855 (Simulation time: 0 hr 8 min 51 sec) 
Heartbeat CPU  0 instructions:  218000002 cycles:  227929964 heartbeat IPC: 0.89857 cumulative IPC: 0.64012 (Simulation time: 0 hr 8 min 54 sec) 
Heartbeat CPU  0 instructions:  219000001 cycles:  229040813 heartbeat IPC: 0.90021 cumulative IPC: 0.64168 (Simulation time: 0 hr 8 min 57 sec) 
Heartbeat CPU  0 instructions:  220000000 cycles:  230151287 heartbeat IPC: 0.90052 cumulative IPC: 0.64322 (Simulation time: 0 hr 8 min 59 sec) 
Heartbeat CPU  0 instructions:  221000000 cycles:  231264583 heartbeat IPC: 0.89823 cumulative IPC: 0.64474 (Simulation time: 0 hr 9 min 2 sec) 
Heartbeat CPU  0 instructions:  222000000 cycles:  232846300 heartbeat IPC: 0.63222 cumulative IPC: 0.64463 (Simulation time: 0 hr 9 min 5 sec) 
Heartbeat CPU  0 instructions:  223000000 cycles:  237269483 heartbeat IPC: 0.22608 cumulative IPC: 0.63507 (Simulation time: 0 hr 9 min 11 sec) 
Heartbeat CPU  0 instructions:  224000000 cycles:  239788198 heartbeat IPC: 0.39703 cumulative IPC: 0.63202 (Simulation time: 0 hr 9 min 14 sec) 
Heartbeat CPU  0 instructions:  225000002 cycles:  242158463 heartbeat IPC: 0.42189 cumulative IPC: 0.62951 (Simulation time: 0 hr 9 min 18 sec) 
Heartbeat CPU  0 instructions:  226000001 cycles:  244531678 heartbeat IPC: 0.42137 cumulative IPC: 0.62705 (Simulation time: 0 hr 9 min 21 sec) 
Heartbeat CPU  0 instructions:  227000000 cycles:  246895588 heartbeat IPC: 0.42303 cumulative IPC: 0.62468 (Simulation time: 0 hr 9 min 24 sec) 
Heartbeat CPU  0 instructions:  228000000 cycles:  249243651 heartbeat IPC: 0.42588 cumulative IPC: 0.62241 (Simulation time: 0 hr 9 min 27 sec) 
Heartbeat CPU  0 instructions:  229000002 cycles:  251556427 heartbeat IPC: 0.43238 cumulative IPC: 0.62030 (Simulation time: 0 hr 9 min 30 sec) 
Heartbeat CPU  0 instructions:  230000000 cycles:  253841442 heartbeat IPC: 0.43763 cumulative IPC: 0.61831 (Simulation time: 0 hr 9 min 33 sec) 
Heartbeat CPU  0 instructions:  231000000 cycles:  256132438 heartbeat IPC: 0.43649 cumulative IPC: 0.61635 (Simulation time: 0 hr 9 min 36 sec) 
Heartbeat CPU  0 instructions:  232000000 cycles:  258434711 heartbeat IPC: 0.43435 cumulative IPC: 0.61440 (Simulation time: 0 hr 9 min 39 sec) 
Heartbeat CPU  0 instructions:  233000002 cycles:  260718222 heartbeat IPC: 0.43792 cumulative IPC: 0.61254 (Simulation time: 0 hr 9 min 42 sec) 
Heartbeat CPU  0 instructions:  234000001 cycles:  262985901 heartbeat IPC: 0.44098 cumulative IPC: 0.61077 (Simulation time: 0 hr 9 min 45 sec) 
Heartbeat CPU  0 instructions:  235000000 cycles:  265249459 heartbeat IPC: 0.44178 cumulative IPC: 0.60904 (Simulation time: 0 hr 9 min 48 sec) 
Heartbeat CPU  0 instructions:  236000000 cycles:  267519565 heartbeat IPC: 0.44051 cumulative IPC: 0.60734 (Simulation time: 0 hr 9 min 51 sec) 
Heartbeat CPU  0 instructions:  237000002 cycles:  269796515 heartbeat IPC: 0.43918 cumulative IPC: 0.60564 (Simulation time: 0 hr 9 min 54 sec) 
Heartbeat CPU  0 instructions:  238000001 cycles:  272081896 heartbeat IPC: 0.43756 cumulative IPC: 0.60396 (Simulation time: 0 hr 9 min 57 sec) 
Heartbeat CPU  0 instructions:  239000000 cycles:  274340351 heartbeat IPC: 0.44278 cumulative IPC: 0.60238 (Simulation time: 0 hr 10 min 0 sec) 
Heartbeat CPU  0 instructions:  240000000 cycles:  276608121 heartbeat IPC: 0.44096 cumulative IPC: 0.60081 (Simulation time: 0 hr 10 min 3 sec) 
Heartbeat CPU  0 instructions:  241000002 cycles:  278872622 heartbeat IPC: 0.44160 cumulative IPC: 0.59928 (Simulation time: 0 hr 10 min 6 sec) 
Heartbeat CPU  0 instructions:  242000001 cycles:  281133548 heartbeat IPC: 0.44230 cumulative IPC: 0.59779 (Simulation time: 0 hr 10 min 9 sec) 
Heartbeat CPU  0 instructions:  243000000 cycles:  283393251 heartbeat IPC: 0.44254 cumulative IPC: 0.59632 (Simulation time: 0 hr 10 min 12 sec) 
Heartbeat CPU  0 instructions:  244000000 cycles:  285656333 heartbeat IPC: 0.44188 cumulative IPC: 0.59488 (Simulation time: 0 hr 10 min 15 sec) 
Heartbeat CPU  0 instructions:  245000002 cycles:  287917479 heartbeat IPC: 0.44225 cumulative IPC: 0.59347 (Simulation time: 0 hr 10 min 18 sec) 
Heartbeat CPU  0 instructions:  246000000 cycles:  290115233 heartbeat IPC: 0.45501 cumulative IPC: 0.59223 (Simulation time: 0 hr 10 min 21 sec) 
Heartbeat CPU  0 instructions:  247000000 cycles:  291815795 heartbeat IPC: 0.58804 cumulative IPC: 0.59220 (Simulation time: 0 hr 10 min 24 sec) 
Heartbeat CPU  0 instructions:  248000000 cycles:  294253795 heartbeat IPC: 0.41017 cumulative IPC: 0.59043 (Simulation time: 0 hr 10 min 28 sec) 
Heartbeat CPU  0 instructions:  249000003 cycles:  297695164 heartbeat IPC: 0.29058 cumulative IPC: 0.58637 (Simulation time: 0 hr 10 min 33 sec) 
Heartbeat CPU  0 instructions:  250000003 cycles:  301120063 heartbeat IPC: 0.29198 cumulative IPC: 0.58246 (Simulation time: 0 hr 10 min 38 sec) 
Heartbeat CPU  0 instructions:  251000000 cycles:  303983378 heartbeat IPC: 0.34924 cumulative IPC: 0.57989 (Simulation time: 0 hr 10 min 42 sec) 
Heartbeat CPU  0 instructions:  252000000 cycles:  305680025 heartbeat IPC: 0.58940 cumulative IPC: 0.57996 (Simulation time: 0 hr 10 min 46 sec) 
Heartbeat CPU  0 instructions:  253000002 cycles:  307763724 heartbeat IPC: 0.47992 cumulative IPC: 0.57917 (Simulation time: 0 hr 10 min 49 sec) 
Heartbeat CPU  0 instructions:  254000000 cycles:  310013185 heartbeat IPC: 0.44455 cumulative IPC: 0.57803 (Simulation time: 0 hr 10 min 52 sec) 
Heartbeat CPU  0 instructions:  255000000 cycles:  312225519 heartbeat IPC: 0.45201 cumulative IPC: 0.57699 (Simulation time: 0 hr 10 min 55 sec) 
Heartbeat CPU  0 instructions:  256000000 cycles:  314441175 heartbeat IPC: 0.45133 cumulative IPC: 0.57596 (Simulation time: 0 hr 10 min 58 sec) 
Heartbeat CPU  0 instructions:  257000000 cycles:  316615697 heartbeat IPC: 0.45987 cumulative IPC: 0.57504 (Simulation time: 0 hr 11 min 1 sec) 
Heartbeat CPU  0 instructions:  258000000 cycles:  318645936 heartbeat IPC: 0.49255 cumulative IPC: 0.57443 (Simulation time: 0 hr 11 min 4 sec) 
Heartbeat CPU  0 instructions:  259000000 cycles:  320685714 heartbeat IPC: 0.49025 cumulative IPC: 0.57381 (Simulation time: 0 hr 11 min 7 sec) 
Heartbeat CPU  0 instructions:  260000000 cycles:  322723038 heartbeat IPC: 0.49084 cumulative IPC: 0.57321 (Simulation time: 0 hr 11 min 10 sec) 
Heartbeat CPU  0 instructions:  261000002 cycles:  324745770 heartbeat IPC: 0.49438 cumulative IPC: 0.57264 (Simulation time: 0 hr 11 min 13 sec) 
Heartbeat CPU  0 instructions:  262000000 cycles:  326771812 heartbeat IPC: 0.49357 cumulative IPC: 0.57207 (Simulation time: 0 hr 11 min 16 sec) 
Heartbeat CPU  0 instructions:  263000001 cycles:  328821549 heartbeat IPC: 0.48787 cumulative IPC: 0.57147 (Simulation time: 0 hr 11 min 19 sec) 
Heartbeat CPU  0 instructions:  264000000 cycles:  330866473 heartbeat IPC: 0.48902 cumulative IPC: 0.57088 (Simulation time: 0 hr 11 min 21 sec) 
Heartbeat CPU  0 instructions:  265000002 cycles:  332912644 heartbeat IPC: 0.48872 cumulative IPC: 0.57030 (Simulation time: 0 hr 11 min 24 sec) 
Heartbeat CPU  0 instructions:  266000003 cycles:  334952327 heartbeat IPC: 0.49027 cumulative IPC: 0.56974 (Simulation time: 0 hr 11 min 27 sec) 
Heartbeat CPU  0 instructions:  267000001 cycles:  337001633 heartbeat IPC: 0.48797 cumulative IPC: 0.56917 (Simulation time: 0 hr 11 min 30 sec) 
Heartbeat CPU  0 instructions:  268000000 cycles:  339037566 heartbeat IPC: 0.49117 cumulative IPC: 0.56863 (Simulation time: 0 hr 11 min 33 sec) 
Heartbeat CPU  0 instructions:  269000002 cycles:  341083403 heartbeat IPC: 0.48880 cumulative IPC: 0.56808 (Simulation time: 0 hr 11 min 36 sec) 
Heartbeat CPU  0 instructions:  270000000 cycles:  343113197 heartbeat IPC: 0.49266 cumulative IPC: 0.56757 (Simulation time: 0 hr 11 min 39 sec) 
Heartbeat CPU  0 instructions:  271000001 cycles:  345143532 heartbeat IPC: 0.49253 cumulative IPC: 0.56707 (Simulation time: 0 hr 11 min 42 sec) 
Heartbeat CPU  0 instructions:  272000000 cycles:  347179027 heartbeat IPC: 0.49128 cumulative IPC: 0.56656 (Simulation time: 0 hr 11 min 45 sec) 
Heartbeat CPU  0 instructions:  273000003 cycles:  349205543 heartbeat IPC: 0.49346 cumulative IPC: 0.56607 (Simulation time: 0 hr 11 min 48 sec) 
Heartbeat CPU  0 instructions:  274000003 cycles:  351224655 heartbeat IPC: 0.49527 cumulative IPC: 0.56561 (Simulation time: 0 hr 11 min 51 sec) 
Heartbeat CPU  0 instructions:  275000001 cycles:  353248232 heartbeat IPC: 0.49417 cumulative IPC: 0.56514 (Simulation time: 0 hr 11 min 54 sec) 
Heartbeat CPU  0 instructions:  276000000 cycles:  355272761 heartbeat IPC: 0.49394 cumulative IPC: 0.56468 (Simulation time: 0 hr 11 min 57 sec) 
Heartbeat CPU  0 instructions:  277000002 cycles:  356534169 heartbeat IPC: 0.79277 cumulative IPC: 0.56560 (Simulation time: 0 hr 11 min 59 sec) 
Heartbeat CPU  0 instructions:  278000000 cycles:  357667082 heartbeat IPC: 0.88268 cumulative IPC: 0.56674 (Simulation time: 0 hr 12 min 2 sec) 
Heartbeat CPU  0 instructions:  279000003 cycles:  358799596 heartbeat IPC: 0.88299 cumulative IPC: 0.56788 (Simulation time: 0 hr 12 min 4 sec) 
Heartbeat CPU  0 instructions:  280000000 cycles:  359930508 heartbeat IPC: 0.88424 cumulative IPC: 0.56901 (Simulation time: 0 hr 12 min 7 sec) 
Heartbeat CPU  0 instructions:  281000001 cycles:  361055873 heartbeat IPC: 0.88860 cumulative IPC: 0.57014 (Simulation time: 0 hr 12 min 9 sec) 
Heartbeat CPU  0 instructions:  282000003 cycles:  362179815 heartbeat IPC: 0.88973 cumulative IPC: 0.57127 (Simulation time: 0 hr 12 min 12 sec) 
Heartbeat CPU  0 instructions:  283000001 cycles:  363303900 heartbeat IPC: 0.88961 cumulative IPC: 0.57239 (Simulation time: 0 hr 12 min 14 sec) 
Heartbeat CPU  0 instructions:  284000000 cycles:  364424575 heartbeat IPC: 0.89232 cumulative IPC: 0.57351 (Simulation time: 0 hr 12 min 17 sec) 
Heartbeat CPU  0 instructions:  285000001 cycles:  365545422 heartbeat IPC: 0.89218 cumulative IPC: 0.57462 (Simulation time: 0 hr 12 min 19 sec) 
Heartbeat CPU  0 instructions:  286000001 cycles:  366662518 heartbeat IPC: 0.89518 cumulative IPC: 0.57572 (Simulation time: 0 hr 12 min 22 sec) 
Heartbeat CPU  0 instructions:  287000001 cycles:  367781961 heartbeat IPC: 0.89330 cumulative IPC: 0.57682 (Simulation time: 0 hr 12 min 24 sec) 
Heartbeat CPU  0 instructions:  288000000 cycles:  368905195 heartbeat IPC: 0.89029 cumulative IPC: 0.57790 (Simulation time: 0 hr 12 min 27 sec) 
Heartbeat CPU  0 instructions:  289000001 cycles:  370028200 heartbeat IPC: 0.89047 cumulative IPC: 0.57898 (Simulation time: 0 hr 12 min 30 sec) 
Heartbeat CPU  0 instructions:  290000001 cycles:  371152944 heartbeat IPC: 0.88909 cumulative IPC: 0.58004 (Simulation time: 0 hr 12 min 32 sec) 
Heartbeat CPU  0 instructions:  291000000 cycles:  372272962 heartbeat IPC: 0.89284 cumulative IPC: 0.58111 (Simulation time: 0 hr 12 min 35 sec) 
Heartbeat CPU  0 instructions:  292000000 cycles:  373394923 heartbeat IPC: 0.89130 cumulative IPC: 0.58216 (Simulation time: 0 hr 12 min 37 sec) 
Heartbeat CPU  0 instructions:  293000001 cycles:  374513747 heartbeat IPC: 0.89380 cumulative IPC: 0.58322 (Simulation time: 0 hr 12 min 40 sec) 
Heartbeat CPU  0 instructions:  294000000 cycles:  375634016 heartbeat IPC: 0.89264 cumulative IPC: 0.58426 (Simulation time: 0 hr 12 min 42 sec) 
Heartbeat CPU  0 instructions:  295000003 cycles:  376754067 heartbeat IPC: 0.89282 cumulative IPC: 0.58530 (Simulation time: 0 hr 12 min 45 sec) 
Heartbeat CPU  0 instructions:  296000000 cycles:  377875780 heartbeat IPC: 0.89149 cumulative IPC: 0.58633 (Simulation time: 0 hr 12 min 47 sec) 
Heartbeat CPU  0 instructions:  297000003 cycles:  378994234 heartbeat IPC: 0.89409 cumulative IPC: 0.58735 (Simulation time: 0 hr 12 min 50 sec) 
Heartbeat CPU  0 instructions:  298000000 cycles:  380115361 heartbeat IPC: 0.89196 cumulative IPC: 0.58837 (Simulation time: 0 hr 12 min 52 sec) 
Heartbeat CPU  0 instructions:  299000001 cycles:  381235337 heartbeat IPC: 0.89288 cumulative IPC: 0.58938 (Simulation time: 0 hr 12 min 55 sec) 
Heartbeat CPU  0 instructions:  300000000 cycles:  382354133 heartbeat IPC: 0.89382 cumulative IPC: 0.59038 (Simulation time: 0 hr 12 min 57 sec) 
Heartbeat CPU  0 instructions:  301000003 cycles:  383475511 heartbeat IPC: 0.89176 cumulative IPC: 0.59138 (Simulation time: 0 hr 13 min 0 sec) 
Heartbeat CPU  0 instructions:  302000001 cycles:  384594380 heartbeat IPC: 0.89376 cumulative IPC: 0.59237 (Simulation time: 0 hr 13 min 3 sec) 
Heartbeat CPU  0 instructions:  303000001 cycles:  385716181 heartbeat IPC: 0.89142 cumulative IPC: 0.59335 (Simulation time: 0 hr 13 min 5 sec) 
Heartbeat CPU  0 instructions:  304000000 cycles:  386890891 heartbeat IPC: 0.85127 cumulative IPC: 0.59423 (Simulation time: 0 hr 13 min 8 sec) 
Heartbeat CPU  0 instructions:  305000000 cycles:  388153693 heartbeat IPC: 0.79189 cumulative IPC: 0.59496 (Simulation time: 0 hr 13 min 10 sec) 
Heartbeat CPU  0 instructions:  306000003 cycles:  389420809 heartbeat IPC: 0.78920 cumulative IPC: 0.59567 (Simulation time: 0 hr 13 min 13 sec) 
Heartbeat CPU  0 instructions:  307000003 cycles:  390676696 heartbeat IPC: 0.79625 cumulative IPC: 0.59639 (Simulation time: 0 hr 13 min 15 sec) 
Heartbeat CPU  0 instructions:  308000000 cycles:  391940328 heartbeat IPC: 0.79137 cumulative IPC: 0.59710 (Simulation time: 0 hr 13 min 18 sec) 
Heartbeat CPU  0 instructions:  309000003 cycles:  393202990 heartbeat IPC: 0.79198 cumulative IPC: 0.59781 (Simulation time: 0 hr 13 min 21 sec) 
Heartbeat CPU  0 instructions:  310000003 cycles:  394453123 heartbeat IPC: 0.79991 cumulative IPC: 0.59853 (Simulation time: 0 hr 13 min 23 sec) 
Heartbeat CPU  0 instructions:  311000001 cycles:  395722368 heartbeat IPC: 0.78787 cumulative IPC: 0.59921 (Simulation time: 0 hr 13 min 26 sec) 
Heartbeat CPU  0 instructions:  312000000 cycles:  396971915 heartbeat IPC: 0.80029 cumulative IPC: 0.59992 (Simulation time: 0 hr 13 min 28 sec) 
Heartbeat CPU  0 instructions:  313000002 cycles:  398184857 heartbeat IPC: 0.82444 cumulative IPC: 0.60069 (Simulation time: 0 hr 13 min 31 sec) 
Heartbeat CPU  0 instructions:  314000002 cycles:  399342969 heartbeat IPC: 0.86347 cumulative IPC: 0.60154 (Simulation time: 0 hr 13 min 34 sec) 
Heartbeat CPU  0 instructions:  315000002 cycles:  400496044 heartbeat IPC: 0.86725 cumulative IPC: 0.60240 (Simulation time: 0 hr 13 min 36 sec) 
Heartbeat CPU  0 instructions:  316000000 cycles:  401648671 heartbeat IPC: 0.86758 cumulative IPC: 0.60325 (Simulation time: 0 hr 13 min 39 sec) 
Heartbeat CPU  0 instructions:  317000002 cycles:  402802662 heartbeat IPC: 0.86656 cumulative IPC: 0.60410 (Simulation time: 0 hr 13 min 41 sec) 
Heartbeat CPU  0 instructions:  318000003 cycles:  403956560 heartbeat IPC: 0.86663 cumulative IPC: 0.60494 (Simulation time: 0 hr 13 min 44 sec) 
Heartbeat CPU  0 instructions:  319000002 cycles:  405111982 heartbeat IPC: 0.86548 cumulative IPC: 0.60577 (Simulation time: 0 hr 13 min 46 sec) 
Heartbeat CPU  0 instructions:  320000000 cycles:  406265422 heartbeat IPC: 0.86697 cumulative IPC: 0.60660 (Simulation time: 0 hr 13 min 49 sec) 
Heartbeat CPU  0 instructions:  321000000 cycles:  407423882 heartbeat IPC: 0.86321 cumulative IPC: 0.60742 (Simulation time: 0 hr 13 min 52 sec) 
Heartbeat CPU  0 instructions:  322000002 cycles:  408667021 heartbeat IPC: 0.80442 cumulative IPC: 0.60809 (Simulation time: 0 hr 13 min 54 sec) 
Heartbeat CPU  0 instructions:  323000001 cycles:  409907251 heartbeat IPC: 0.80630 cumulative IPC: 0.60876 (Simulation time: 0 hr 13 min 57 sec) 
Heartbeat CPU  0 instructions:  324000000 cycles:  411139605 heartbeat IPC: 0.81145 cumulative IPC: 0.60944 (Simulation time: 0 hr 13 min 59 sec) 
Heartbeat CPU  0 instructions:  325000002 cycles:  412380604 heartbeat IPC: 0.80580 cumulative IPC: 0.61010 (Simulation time: 0 hr 14 min 2 sec) 
Heartbeat CPU  0 instructions:  326000002 cycles:  413636687 heartbeat IPC: 0.79613 cumulative IPC: 0.61074 (Simulation time: 0 hr 14 min 4 sec) 
Heartbeat CPU  0 instructions:  327000002 cycles:  414858625 heartbeat IPC: 0.81837 cumulative IPC: 0.61142 (Simulation time: 0 hr 14 min 7 sec) 
Heartbeat CPU  0 instructions:  328000000 cycles:  416080320 heartbeat IPC: 0.81853 cumulative IPC: 0.61210 (Simulation time: 0 hr 14 min 10 sec) 
Heartbeat CPU  0 instructions:  329000002 cycles:  417342631 heartbeat IPC: 0.79220 cumulative IPC: 0.61271 (Simulation time: 0 hr 14 min 12 sec) 
Heartbeat CPU  0 instructions:  330000003 cycles:  418602757 heartbeat IPC: 0.79357 cumulative IPC: 0.61331 (Simulation time: 0 hr 14 min 15 sec) 
Heartbeat CPU  0 instructions:  331000001 cycles:  419867774 heartbeat IPC: 0.79050 cumulative IPC: 0.61391 (Simulation time: 0 hr 14 min 17 sec) 
Heartbeat CPU  0 instructions:  332000000 cycles:  421128613 heartbeat IPC: 0.79312 cumulative IPC: 0.61451 (Simulation time: 0 hr 14 min 20 sec) 
Heartbeat CPU  0 instructions:  333000000 cycles:  422380040 heartbeat IPC: 0.79909 cumulative IPC: 0.61512 (Simulation time: 0 hr 14 min 23 sec) 
Heartbeat CPU  0 instructions:  334000002 cycles:  423636063 heartbeat IPC: 0.79617 cumulative IPC: 0.61572 (Simulation time: 0 hr 14 min 25 sec) 
Heartbeat CPU  0 instructions:  335000001 cycles:  424890922 heartbeat IPC: 0.79690 cumulative IPC: 0.61631 (Simulation time: 0 hr 14 min 28 sec) 
Heartbeat CPU  0 instructions:  336000000 cycles:  426144872 heartbeat IPC: 0.79748 cumulative IPC: 0.61691 (Simulation time: 0 hr 14 min 31 sec) 
Heartbeat CPU  0 instructions:  337000003 cycles:  427403762 heartbeat IPC: 0.79435 cumulative IPC: 0.61749 (Simulation time: 0 hr 14 min 33 sec) 
Heartbeat CPU  0 instructions:  338000000 cycles:  428666615 heartbeat IPC: 0.79186 cumulative IPC: 0.61806 (Simulation time: 0 hr 14 min 36 sec) 
Heartbeat CPU  0 instructions:  339000002 cycles:  429920792 heartbeat IPC: 0.79734 cumulative IPC: 0.61864 (Simulation time: 0 hr 14 min 38 sec) 
Heartbeat CPU  0 instructions:  340000000 cycles:  431173190 heartbeat IPC: 0.79847 cumulative IPC: 0.61922 (Simulation time: 0 hr 14 min 41 sec) 
Heartbeat CPU  0 instructions:  341000003 cycles:  432422917 heartbeat IPC: 0.80018 cumulative IPC: 0.61980 (Simulation time: 0 hr 14 min 44 sec) 
Heartbeat CPU  0 instructions:  342000003 cycles:  433685391 heartbeat IPC: 0.79210 cumulative IPC: 0.62036 (Simulation time: 0 hr 14 min 46 sec) 
Heartbeat CPU  0 instructions:  343000001 cycles:  434929114 heartbeat IPC: 0.80404 cumulative IPC: 0.62095 (Simulation time: 0 hr 14 min 49 sec) 
Heartbeat CPU  0 instructions:  344000000 cycles:  436179377 heartbeat IPC: 0.79983 cumulative IPC: 0.62152 (Simulation time: 0 hr 14 min 51 sec) 
Heartbeat CPU  0 instructions:  345000002 cycles:  437436850 heartbeat IPC: 0.79525 cumulative IPC: 0.62207 (Simulation time: 0 hr 14 min 54 sec) 
Heartbeat CPU  0 instructions:  346000001 cycles:  438781204 heartbeat IPC: 0.74385 cumulative IPC: 0.62248 (Simulation time: 0 hr 14 min 57 sec) 
Heartbeat CPU  0 instructions:  347000000 cycles:  440463303 heartbeat IPC: 0.59449 cumulative IPC: 0.62237 (Simulation time: 0 hr 15 min 0 sec) 
Heartbeat CPU  0 instructions:  348000000 cycles:  442377404 heartbeat IPC: 0.52244 cumulative IPC: 0.62189 (Simulation time: 0 hr 15 min 3 sec) 
Heartbeat CPU  0 instructions:  349000002 cycles:  444482631 heartbeat IPC: 0.47501 cumulative IPC: 0.62112 (Simulation time: 0 hr 15 min 6 sec) 
Heartbeat CPU  0 instructions:  350000001 cycles:  446567850 heartbeat IPC: 0.47957 cumulative IPC: 0.62038 (Simulation time: 0 hr 15 min 9 sec) 
Heartbeat CPU  0 instructions:  351000001 cycles:  448676763 heartbeat IPC: 0.47418 cumulative IPC: 0.61962 (Simulation time: 0 hr 15 min 12 sec) 
Heartbeat CPU  0 instructions:  352000000 cycles:  450774074 heartbeat IPC: 0.47680 cumulative IPC: 0.61889 (Simulation time: 0 hr 15 min 15 sec) 
Heartbeat CPU  0 instructions:  353000000 cycles:  452839079 heartbeat IPC: 0.48426 cumulative IPC: 0.61821 (Simulation time: 0 hr 15 min 18 sec) 
Heartbeat CPU  0 instructions:  354000000 cycles:  454888166 heartbeat IPC: 0.48802 cumulative IPC: 0.61756 (Simulation time: 0 hr 15 min 21 sec) 
Heartbeat CPU  0 instructions:  355000000 cycles:  456966901 heartbeat IPC: 0.48106 cumulative IPC: 0.61687 (Simulation time: 0 hr 15 min 24 sec) 
Heartbeat CPU  0 instructions:  356000000 cycles:  459053736 heartbeat IPC: 0.47919 cumulative IPC: 0.61618 (Simulation time: 0 hr 15 min 27 sec) 
Heartbeat CPU  0 instructions:  357000002 cycles:  461141368 heartbeat IPC: 0.47901 cumulative IPC: 0.61549 (Simulation time: 0 hr 15 min 29 sec) 
Heartbeat CPU  0 instructions:  358000000 cycles:  463199767 heartbeat IPC: 0.48581 cumulative IPC: 0.61486 (Simulation time: 0 hr 15 min 32 sec) 
Heartbeat CPU  0 instructions:  359000001 cycles:  465250438 heartbeat IPC: 0.48765 cumulative IPC: 0.61424 (Simulation time: 0 hr 15 min 35 sec) 
Heartbeat CPU  0 instructions:  360000000 cycles:  467307601 heartbeat IPC: 0.48611 cumulative IPC: 0.61362 (Simulation time: 0 hr 15 min 38 sec) 
Heartbeat CPU  0 instructions:  361000000 cycles:  469408888 heartbeat IPC: 0.47590 cumulative IPC: 0.61294 (Simulation time: 0 hr 15 min 41 sec) 
Heartbeat CPU  0 instructions:  362000000 cycles:  471533237 heartbeat IPC: 0.47073 cumulative IPC: 0.61223 (Simulation time: 0 hr 15 min 44 sec) 
Heartbeat CPU  0 instructions:  363000001 cycles:  473664206 heartbeat IPC: 0.46927 cumulative IPC: 0.61152 (Simulation time: 0 hr 15 min 47 sec) 
Heartbeat CPU  0 instructions:  364000000 cycles:  475717413 heartbeat IPC: 0.48704 cumulative IPC: 0.61093 (Simulation time: 0 hr 15 min 50 sec) 
Heartbeat CPU  0 instructions:  365000002 cycles:  477778817 heartbeat IPC: 0.48511 cumulative IPC: 0.61033 (Simulation time: 0 hr 15 min 53 sec) 
Heartbeat CPU  0 instructions:  366000001 cycles:  479816331 heartbeat IPC: 0.49079 cumulative IPC: 0.60978 (Simulation time: 0 hr 15 min 55 sec) 
Heartbeat CPU  0 instructions:  367000001 cycles:  481877630 heartbeat IPC: 0.48513 cumulative IPC: 0.60919 (Simulation time: 0 hr 15 min 58 sec) 
Heartbeat CPU  0 instructions:  368000000 cycles:  483940175 heartbeat IPC: 0.48484 cumulative IPC: 0.60861 (Simulation time: 0 hr 16 min 1 sec) 
Heartbeat CPU  0 instructions:  369000000 cycles:  485983264 heartbeat IPC: 0.48945 cumulative IPC: 0.60806 (Simulation time: 0 hr 16 min 4 sec) 
Heartbeat CPU  0 instructions:  370000001 cycles:  488039050 heartbeat IPC: 0.48643 cumulative IPC: 0.60749 (Simulation time: 0 hr 16 min 7 sec) 
Heartbeat CPU  0 instructions:  371000000 cycles:  490095674 heartbeat IPC: 0.48623 cumulative IPC: 0.60694 (Simulation time: 0 hr 16 min 10 sec) 
Heartbeat CPU  0 instructions:  372000000 cycles:  491574111 heartbeat IPC: 0.67639 cumulative IPC: 0.60717 (Simulation time: 0 hr 16 min 13 sec) 
Heartbeat CPU  0 instructions:  373000001 cycles:  492852873 heartbeat IPC: 0.78201 cumulative IPC: 0.60766 (Simulation time: 0 hr 16 min 15 sec) 
Heartbeat CPU  0 instructions:  374000001 cycles:  494139815 heartbeat IPC: 0.77704 cumulative IPC: 0.60815 (Simulation time: 0 hr 16 min 18 sec) 
Heartbeat CPU  0 instructions:  375000001 cycles:  495424650 heartbeat IPC: 0.77831 cumulative IPC: 0.60863 (Simulation time: 0 hr 16 min 20 sec) 
Heartbeat CPU  0 instructions:  376000000 cycles:  496703718 heartbeat IPC: 0.78182 cumulative IPC: 0.60912 (Simulation time: 0 hr 16 min 23 sec) 
Heartbeat CPU  0 instructions:  377000000 cycles:  497958074 heartbeat IPC: 0.79722 cumulative IPC: 0.60964 (Simulation time: 0 hr 16 min 26 sec) 
Heartbeat CPU  0 instructions:  378000003 cycles:  499229772 heartbeat IPC: 0.78635 cumulative IPC: 0.61013 (Simulation time: 0 hr 16 min 28 sec) 
Heartbeat CPU  0 instructions:  379000002 cycles:  500509439 heartbeat IPC: 0.78145 cumulative IPC: 0.61061 (Simulation time: 0 hr 16 min 31 sec) 
Heartbeat CPU  0 instructions:  380000000 cycles:  501774370 heartbeat IPC: 0.79056 cumulative IPC: 0.61111 (Simulation time: 0 hr 16 min 33 sec) 
Heartbeat CPU  0 instructions:  381000000 cycles:  503051626 heartbeat IPC: 0.78293 cumulative IPC: 0.61159 (Simulation time: 0 hr 16 min 36 sec) 
Heartbeat CPU  0 instructions:  382000000 cycles:  504327192 heartbeat IPC: 0.78397 cumulative IPC: 0.61206 (Simulation time: 0 hr 16 min 39 sec) 
Heartbeat CPU  0 instructions:  383000002 cycles:  505593725 heartbeat IPC: 0.78956 cumulative IPC: 0.61255 (Simulation time: 0 hr 16 min 41 sec) 
Heartbeat CPU  0 instructions:  384000000 cycles:  506869239 heartbeat IPC: 0.78400 cumulative IPC: 0.61302 (Simulation time: 0 hr 16 min 44 sec) 
Heartbeat CPU  0 instructions:  385000002 cycles:  508152516 heartbeat IPC: 0.77926 cumulative IPC: 0.61348 (Simulation time: 0 hr 16 min 47 sec) 
Heartbeat CPU  0 instructions:  386000002 cycles:  509420002 heartbeat IPC: 0.78896 cumulative IPC: 0.61396 (Simulation time: 0 hr 16 min 49 sec) 
Heartbeat CPU  0 instructions:  387000000 cycles:  510680844 heartbeat IPC: 0.79312 cumulative IPC: 0.61444 (Simulation time: 0 hr 16 min 52 sec) 
Heartbeat CPU  0 instructions:  388000000 cycles:  511961922 heartbeat IPC: 0.78059 cumulative IPC: 0.61490 (Simulation time: 0 hr 16 min 54 sec) 
Heartbeat CPU  0 instructions:  389000000 cycles:  513231605 heartbeat IPC: 0.78760 cumulative IPC: 0.61536 (Simulation time: 0 hr 16 min 57 sec) 
Heartbeat CPU  0 instructions:  390000000 cycles:  514493309 heartbeat IPC: 0.79258 cumulative IPC: 0.61584 (Simulation time: 0 hr 17 min 0 sec) 
Heartbeat CPU  0 instructions:  391000002 cycles:  515770550 heartbeat IPC: 0.78294 cumulative IPC: 0.61629 (Simulation time: 0 hr 17 min 2 sec) 
Heartbeat CPU  0 instructions:  392000000 cycles:  517044919 heartbeat IPC: 0.78470 cumulative IPC: 0.61674 (Simulation time: 0 hr 17 min 5 sec) 
Heartbeat CPU  0 instructions:  393000002 cycles:  518326106 heartbeat IPC: 0.78053 cumulative IPC: 0.61719 (Simulation time: 0 hr 17 min 8 sec) 
Heartbeat CPU  0 instructions:  394000002 cycles:  519598858 heartbeat IPC: 0.78570 cumulative IPC: 0.61764 (Simulation time: 0 hr 17 min 10 sec) 
Heartbeat CPU  0 instructions:  395000003 cycles:  520853974 heartbeat IPC: 0.79674 cumulative IPC: 0.61811 (Simulation time: 0 hr 17 min 13 sec) 
Heartbeat CPU  0 instructions:  396000000 cycles:  522110401 heartbeat IPC: 0.79591 cumulative IPC: 0.61857 (Simulation time: 0 hr 17 min 15 sec) 
Heartbeat CPU  0 instructions:  397000002 cycles:  523360582 heartbeat IPC: 0.79989 cumulative IPC: 0.61905 (Simulation time: 0 hr 17 min 18 sec) 
Heartbeat CPU  0 instructions:  398000001 cycles:  524619694 heartbeat IPC: 0.79421 cumulative IPC: 0.61951 (Simulation time: 0 hr 17 min 21 sec) 
Heartbeat CPU  0 instructions:  399000000 cycles:  525861122 heartbeat IPC: 0.80552 cumulative IPC: 0.61998 (Simulation time: 0 hr 17 min 23 sec) 
Heartbeat CPU  0 instructions:  400000000 cycles:  527128943 heartbeat IPC: 0.78875 cumulative IPC: 0.62043 (Simulation time: 0 hr 17 min 26 sec) 
Heartbeat CPU  0 instructions:  401000001 cycles:  528395641 heartbeat IPC: 0.78945 cumulative IPC: 0.62087 (Simulation time: 0 hr 17 min 28 sec) 
Heartbeat CPU  0 instructions:  402000000 cycles:  529674716 heartbeat IPC: 0.78181 cumulative IPC: 0.62129 (Simulation time: 0 hr 17 min 31 sec) 
Heartbeat CPU  0 instructions:  403000002 cycles:  530930408 heartbeat IPC: 0.79638 cumulative IPC: 0.62174 (Simulation time: 0 hr 17 min 34 sec) 
Heartbeat CPU  0 instructions:  404000000 cycles:  532201913 heartbeat IPC: 0.78647 cumulative IPC: 0.62217 (Simulation time: 0 hr 17 min 36 sec) 
Heartbeat CPU  0 instructions:  405000003 cycles:  533469552 heartbeat IPC: 0.78887 cumulative IPC: 0.62260 (Simulation time: 0 hr 17 min 39 sec) 
Heartbeat CPU  0 instructions:  406000002 cycles:  534740125 heartbeat IPC: 0.78705 cumulative IPC: 0.62303 (Simulation time: 0 hr 17 min 41 sec) 
Heartbeat CPU  0 instructions:  407000001 cycles:  535960821 heartbeat IPC: 0.81920 cumulative IPC: 0.62351 (Simulation time: 0 hr 17 min 44 sec) 
Heartbeat CPU  0 instructions:  408000000 cycles:  537085304 heartbeat IPC: 0.88930 cumulative IPC: 0.62412 (Simulation time: 0 hr 17 min 47 sec) 
Heartbeat CPU  0 instructions:  409000000 cycles:  538207725 heartbeat IPC: 0.89093 cumulative IPC: 0.62473 (Simulation time: 0 hr 17 min 49 sec) 
Heartbeat CPU  0 instructions:  410000002 cycles:  539331707 heartbeat IPC: 0.88970 cumulative IPC: 0.62533 (Simulation time: 0 hr 17 min 52 sec) 
Heartbeat CPU  0 instructions:  411000003 cycles:  540451655 heartbeat IPC: 0.89290 cumulative IPC: 0.62593 (Simulation time: 0 hr 17 min 54 sec) 
Heartbeat CPU  0 instructions:  412000000 cycles:  541575988 heartbeat IPC: 0.88941 cumulative IPC: 0.62652 (Simulation time: 0 hr 17 min 57 sec) 
Heartbeat CPU  0 instructions:  413000003 cycles:  542702042 heartbeat IPC: 0.88806 cumulative IPC: 0.62711 (Simulation time: 0 hr 17 min 59 sec) 
Heartbeat CPU  0 instructions:  414000000 cycles:  543826866 heartbeat IPC: 0.88903 cumulative IPC: 0.62770 (Simulation time: 0 hr 18 min 2 sec) 
Heartbeat CPU  0 instructions:  415000001 cycles:  544947075 heartbeat IPC: 0.89269 cumulative IPC: 0.62830 (Simulation time: 0 hr 18 min 4 sec) 
Heartbeat CPU  0 instructions:  416000000 cycles:  546067932 heartbeat IPC: 0.89217 cumulative IPC: 0.62888 (Simulation time: 0 hr 18 min 7 sec) 
Heartbeat CPU  0 instructions:  417000001 cycles:  547190868 heartbeat IPC: 0.89052 cumulative IPC: 0.62947 (Simulation time: 0 hr 18 min 9 sec) 
Heartbeat CPU  0 instructions:  418000002 cycles:  548311682 heartbeat IPC: 0.89221 cumulative IPC: 0.63005 (Simulation time: 0 hr 18 min 12 sec) 
Heartbeat CPU  0 instructions:  419000001 cycles:  549544095 heartbeat IPC: 0.81142 cumulative IPC: 0.63049 (Simulation time: 0 hr 18 min 15 sec) 
Heartbeat CPU  0 instructions:  420000000 cycles:  550791810 heartbeat IPC: 0.80146 cumulative IPC: 0.63091 (Simulation time: 0 hr 18 min 17 sec) 
Heartbeat CPU  0 instructions:  421000000 cycles:  552074300 heartbeat IPC: 0.77973 cumulative IPC: 0.63129 (Simulation time: 0 hr 18 min 20 sec) 
Heartbeat CPU  0 instructions:  422000002 cycles:  553316730 heartbeat IPC: 0.80488 cumulative IPC: 0.63171 (Simulation time: 0 hr 18 min 22 sec) 
Heartbeat CPU  0 instructions:  423000003 cycles:  554585233 heartbeat IPC: 0.78833 cumulative IPC: 0.63210 (Simulation time: 0 hr 18 min 25 sec) 
Heartbeat CPU  0 instructions:  424000000 cycles:  555873719 heartbeat IPC: 0.77610 cumulative IPC: 0.63246 (Simulation time: 0 hr 18 min 28 sec) 
Heartbeat CPU  0 instructions:  425000001 cycles:  557145347 heartbeat IPC: 0.78639 cumulative IPC: 0.63284 (Simulation time: 0 hr 18 min 30 sec) 
Heartbeat CPU  0 instructions:  426000000 cycles:  558432919 heartbeat IPC: 0.77665 cumulative IPC: 0.63320 (Simulation time: 0 hr 18 min 33 sec) 
Heartbeat CPU  0 instructions:  427000002 cycles:  559715886 heartbeat IPC: 0.77944 cumulative IPC: 0.63357 (Simulation time: 0 hr 18 min 36 sec) 
Heartbeat CPU  0 instructions:  428000000 cycles:  561003060 heartbeat IPC: 0.77689 cumulative IPC: 0.63392 (Simulation time: 0 hr 18 min 38 sec) 
Heartbeat CPU  0 instructions:  429000001 cycles:  562162648 heartbeat IPC: 0.86238 cumulative IPC: 0.63443 (Simulation time: 0 hr 18 min 41 sec) 
Heartbeat CPU  0 instructions:  430000002 cycles:  563319544 heartbeat IPC: 0.86438 cumulative IPC: 0.63495 (Simulation time: 0 hr 18 min 43 sec) 
Heartbeat CPU  0 instructions:  431000001 cycles:  564478286 heartbeat IPC: 0.86300 cumulative IPC: 0.63545 (Simulation time: 0 hr 18 min 46 sec) 
Heartbeat CPU  0 instructions:  432000000 cycles:  565635074 heartbeat IPC: 0.86446 cumulative IPC: 0.63596 (Simulation time: 0 hr 18 min 48 sec) 
Heartbeat CPU  0 instructions:  433000000 cycles:  566790794 heartbeat IPC: 0.86526 cumulative IPC: 0.63647 (Simulation time: 0 hr 18 min 51 sec) 
Heartbeat CPU  0 instructions:  434000002 cycles:  567949681 heartbeat IPC: 0.86290 cumulative IPC: 0.63697 (Simulation time: 0 hr 18 min 54 sec) 
Heartbeat CPU  0 instructions:  435000003 cycles:  569115646 heartbeat IPC: 0.85766 cumulative IPC: 0.63746 (Simulation time: 0 hr 18 min 56 sec) 
Heartbeat CPU  0 instructions:  436000000 cycles:  570373309 heartbeat IPC: 0.79512 cumulative IPC: 0.63783 (Simulation time: 0 hr 18 min 59 sec) 
Heartbeat CPU  0 instructions:  437000003 cycles:  571654762 heartbeat IPC: 0.78037 cumulative IPC: 0.63818 (Simulation time: 0 hr 19 min 1 sec) 
Heartbeat CPU  0 instructions:  438000000 cycles:  572930580 heartbeat IPC: 0.78381 cumulative IPC: 0.63853 (Simulation time: 0 hr 19 min 4 sec) 
Heartbeat CPU  0 instructions:  439000001 cycles:  574223283 heartbeat IPC: 0.77357 cumulative IPC: 0.63886 (Simulation time: 0 hr 19 min 6 sec) 
Heartbeat CPU  0 instructions:  440000000 cycles:  575505828 heartbeat IPC: 0.77970 cumulative IPC: 0.63920 (Simulation time: 0 hr 19 min 9 sec) 
Heartbeat CPU  0 instructions:  441000001 cycles:  576813350 heartbeat IPC: 0.76481 cumulative IPC: 0.63951 (Simulation time: 0 hr 19 min 12 sec) 
Heartbeat CPU  0 instructions:  442000002 cycles:  578178754 heartbeat IPC: 0.73238 cumulative IPC: 0.63975 (Simulation time: 0 hr 19 min 15 sec) 
Heartbeat CPU  0 instructions:  443000002 cycles:  579730447 heartbeat IPC: 0.64446 cumulative IPC: 0.63976 (Simulation time: 0 hr 19 min 18 sec) 
Heartbeat CPU  0 instructions:  444000000 cycles:  581290779 heartbeat IPC: 0.64089 cumulative IPC: 0.63976 (Simulation time: 0 hr 19 min 22 sec) 
Heartbeat CPU  0 instructions:  445000000 cycles:  582862535 heartbeat IPC: 0.63623 cumulative IPC: 0.63975 (Simulation time: 0 hr 19 min 25 sec) 
Heartbeat CPU  0 instructions:  446000000 cycles:  584433117 heartbeat IPC: 0.63671 cumulative IPC: 0.63974 (Simulation time: 0 hr 19 min 28 sec) 
Heartbeat CPU  0 instructions:  447000000 cycles:  585994221 heartbeat IPC: 0.64057 cumulative IPC: 0.63975 (Simulation time: 0 hr 19 min 32 sec) 
Heartbeat CPU  0 instructions:  448000000 cycles:  587564204 heartbeat IPC: 0.63695 cumulative IPC: 0.63974 (Simulation time: 0 hr 19 min 35 sec) 
Heartbeat CPU  0 instructions:  449000003 cycles:  589204802 heartbeat IPC: 0.60954 cumulative IPC: 0.63965 (Simulation time: 0 hr 19 min 38 sec) 
Heartbeat CPU  0 instructions:  450000000 cycles:  590905522 heartbeat IPC: 0.58798 cumulative IPC: 0.63949 (Simulation time: 0 hr 19 min 42 sec) 
Heartbeat CPU  0 instructions:  451000003 cycles:  593059663 heartbeat IPC: 0.46422 cumulative IPC: 0.63880 (Simulation time: 0 hr 19 min 45 sec) 
Heartbeat CPU  0 instructions:  452000000 cycles:  595208648 heartbeat IPC: 0.46533 cumulative IPC: 0.63812 (Simulation time: 0 hr 19 min 48 sec) 
Heartbeat CPU  0 instructions:  453000001 cycles:  597318345 heartbeat IPC: 0.47400 cumulative IPC: 0.63750 (Simulation time: 0 hr 19 min 51 sec) 
Heartbeat CPU  0 instructions:  454000001 cycles:  599431962 heartbeat IPC: 0.47312 cumulative IPC: 0.63687 (Simulation time: 0 hr 19 min 54 sec) 
Heartbeat CPU  0 instructions:  455000002 cycles:  601526299 heartbeat IPC: 0.47748 cumulative IPC: 0.63627 (Simulation time: 0 hr 19 min 57 sec) 
Heartbeat CPU  0 instructions:  456000000 cycles:  603586833 heartbeat IPC: 0.48531 cumulative IPC: 0.63572 (Simulation time: 0 hr 19 min 59 sec) 
Heartbeat CPU  0 instructions:  457000002 cycles:  605659160 heartbeat IPC: 0.48255 cumulative IPC: 0.63515 (Simulation time: 0 hr 20 min 2 sec) 
Heartbeat CPU  0 instructions:  458000000 cycles:  607740291 heartbeat IPC: 0.48051 cumulative IPC: 0.63458 (Simulation time: 0 hr 20 min 5 sec) 
Heartbeat CPU  0 instructions:  459000002 cycles:  609833089 heartbeat IPC: 0.47783 cumulative IPC: 0.63400 (Simulation time: 0 hr 20 min 8 sec) 
Heartbeat CPU  0 instructions:  460000000 cycles:  611871270 heartbeat IPC: 0.49063 cumulative IPC: 0.63349 (Simulation time: 0 hr 20 min 11 sec) 
Heartbeat CPU  0 instructions:  461000001 cycles:  613873929 heartbeat IPC: 0.49934 cumulative IPC: 0.63302 (Simulation time: 0 hr 20 min 14 sec) 
Heartbeat CPU  0 instructions:  462000002 cycles:  615877073 heartbeat IPC: 0.49922 cumulative IPC: 0.63255 (Simulation time: 0 hr 20 min 17 sec) 
Heartbeat CPU  0 instructions:  463000002 cycles:  617884410 heartbeat IPC: 0.49817 cumulative IPC: 0.63208 (Simulation time: 0 hr 20 min 20 sec) 
Heartbeat CPU  0 instructions:  464000000 cycles:  619892498 heartbeat IPC: 0.49799 cumulative IPC: 0.63161 (Simulation time: 0 hr 20 min 22 sec) 
Heartbeat CPU  0 instructions:  465000002 cycles:  621925059 heartbeat IPC: 0.49199 cumulative IPC: 0.63112 (Simulation time: 0 hr 20 min 25 sec) 
Heartbeat CPU  0 instructions:  466000000 cycles:  623953203 heartbeat IPC: 0.49306 cumulative IPC: 0.63064 (Simulation time: 0 hr 20 min 28 sec) 
Heartbeat CPU  0 instructions:  467000001 cycles:  625954279 heartbeat IPC: 0.49973 cumulative IPC: 0.63019 (Simulation time: 0 hr 20 min 31 sec) 
Heartbeat CPU  0 instructions:  468000000 cycles:  628045723 heartbeat IPC: 0.47814 cumulative IPC: 0.62965 (Simulation time: 0 hr 20 min 34 sec) 
Heartbeat CPU  0 instructions:  469000002 cycles:  630129775 heartbeat IPC: 0.47984 cumulative IPC: 0.62911 (Simulation time: 0 hr 20 min 37 sec) 
Heartbeat CPU  0 instructions:  470000002 cycles:  632213294 heartbeat IPC: 0.47996 cumulative IPC: 0.62859 (Simulation time: 0 hr 20 min 40 sec) 
Heartbeat CPU  0 instructions:  471000002 cycles:  634298392 heartbeat IPC: 0.47959 cumulative IPC: 0.62806 (Simulation time: 0 hr 20 min 43 sec) 
Heartbeat CPU  0 instructions:  472000000 cycles:  636379993 heartbeat IPC: 0.48040 cumulative IPC: 0.62754 (Simulation time: 0 hr 20 min 46 sec) 
Heartbeat CPU  0 instructions:  473000002 cycles:  638452164 heartbeat IPC: 0.48259 cumulative IPC: 0.62704 (Simulation time: 0 hr 20 min 48 sec) 
Heartbeat CPU  0 instructions:  474000003 cycles:  640448279 heartbeat IPC: 0.50097 cumulative IPC: 0.62662 (Simulation time: 0 hr 20 min 51 sec) 
Heartbeat CPU  0 instructions:  475000002 cycles:  642144678 heartbeat IPC: 0.58948 cumulative IPC: 0.62651 (Simulation time: 0 hr 20 min 55 sec) 
Heartbeat CPU  0 instructions:  476000000 cycles:  644072341 heartbeat IPC: 0.51876 cumulative IPC: 0.62616 (Simulation time: 0 hr 20 min 58 sec) 
Heartbeat CPU  0 instructions:  477000003 cycles:  646200702 heartbeat IPC: 0.46985 cumulative IPC: 0.62561 (Simulation time: 0 hr 21 min 1 sec) 
Heartbeat CPU  0 instructions:  478000001 cycles:  648291914 heartbeat IPC: 0.47819 cumulative IPC: 0.62510 (Simulation time: 0 hr 21 min 4 sec) 
Heartbeat CPU  0 instructions:  479000000 cycles:  650371382 heartbeat IPC: 0.48089 cumulative IPC: 0.62461 (Simulation time: 0 hr 21 min 7 sec) 
Heartbeat CPU  0 instructions:  480000000 cycles:  652463294 heartbeat IPC: 0.47803 cumulative IPC: 0.62410 (Simulation time: 0 hr 21 min 10 sec) 
Heartbeat CPU  0 instructions:  481000003 cycles:  654535572 heartbeat IPC: 0.48256 cumulative IPC: 0.62362 (Simulation time: 0 hr 21 min 13 sec) 
Heartbeat CPU  0 instructions:  482000000 cycles:  656600129 heartbeat IPC: 0.48436 cumulative IPC: 0.62316 (Simulation time: 0 hr 21 min 16 sec) 
Heartbeat CPU  0 instructions:  483000000 cycles:  658674946 heartbeat IPC: 0.48197 cumulative IPC: 0.62268 (Simulation time: 0 hr 21 min 19 sec) 
Heartbeat CPU  0 instructions:  484000000 cycles:  660749614 heartbeat IPC: 0.48200 cumulative IPC: 0.62221 (Simulation time: 0 hr 21 min 22 sec) 
Heartbeat CPU  0 instructions:  485000001 cycles:  662818546 heartbeat IPC: 0.48334 cumulative IPC: 0.62174 (Simulation time: 0 hr 21 min 25 sec) 
Heartbeat CPU  0 instructions:  486000001 cycles:  664896644 heartbeat IPC: 0.48121 cumulative IPC: 0.62127 (Simulation time: 0 hr 21 min 27 sec) 
Heartbeat CPU  0 instructions:  487000003 cycles:  666968535 heartbeat IPC: 0.48265 cumulative IPC: 0.62081 (Simulation time: 0 hr 21 min 30 sec) 
Heartbeat CPU  0 instructions:  488000000 cycles:  669040328 heartbeat IPC: 0.48267 cumulative IPC: 0.62035 (Simulation time: 0 hr 21 min 33 sec) 
Heartbeat CPU  0 instructions:  489000001 cycles:  671120422 heartbeat IPC: 0.48075 cumulative IPC: 0.61989 (Simulation time: 0 hr 21 min 36 sec) 
Heartbeat CPU  0 instructions:  490000000 cycles:  673203131 heartbeat IPC: 0.48014 cumulative IPC: 0.61943 (Simulation time: 0 hr 21 min 39 sec) 
Heartbeat CPU  0 instructions:  491000001 cycles:  675279477 heartbeat IPC: 0.48162 cumulative IPC: 0.61898 (Simulation time: 0 hr 21 min 42 sec) 
Heartbeat CPU  0 instructions:  492000000 cycles:  677366354 heartbeat IPC: 0.47918 cumulative IPC: 0.61852 (Simulation time: 0 hr 21 min 45 sec) 
Heartbeat CPU  0 instructions:  493000002 cycles:  679434379 heartbeat IPC: 0.48355 cumulative IPC: 0.61808 (Simulation time: 0 hr 21 min 48 sec) 
Heartbeat CPU  0 instructions:  494000001 cycles:  681504857 heartbeat IPC: 0.48298 cumulative IPC: 0.61764 (Simulation time: 0 hr 21 min 51 sec) 
Heartbeat CPU  0 instructions:  495000003 cycles:  683588506 heartbeat IPC: 0.47993 cumulative IPC: 0.61719 (Simulation time: 0 hr 21 min 54 sec) 
Heartbeat CPU  0 instructions:  496000000 cycles:  685662784 heartbeat IPC: 0.48209 cumulative IPC: 0.61675 (Simulation time: 0 hr 21 min 57 sec) 
Heartbeat CPU  0 instructions:  497000003 cycles:  687734011 heartbeat IPC: 0.48281 cumulative IPC: 0.61632 (Simulation time: 0 hr 22 min 0 sec) 
Heartbeat CPU  0 instructions:  498000000 cycles:  689802091 heartbeat IPC: 0.48354 cumulative IPC: 0.61590 (Simulation time: 0 hr 22 min 3 sec) 
Heartbeat CPU  0 instructions:  499000000 cycles:  691879695 heartbeat IPC: 0.48132 cumulative IPC: 0.61547 (Simulation time: 0 hr 22 min 6 sec) 
Heartbeat CPU  0 instructions:  500000000 cycles:  693426638 heartbeat IPC: 0.64644 cumulative IPC: 0.61554 (Simulation time: 0 hr 22 min 8 sec) 
Heartbeat CPU  0 instructions:  501000000 cycles:  694707983 heartbeat IPC: 0.78043 cumulative IPC: 0.61586 (Simulation time: 0 hr 22 min 11 sec) 
Heartbeat CPU  0 instructions:  502000002 cycles:  695984300 heartbeat IPC: 0.78351 cumulative IPC: 0.61619 (Simulation time: 0 hr 22 min 14 sec) 
Heartbeat CPU  0 instructions:  503000002 cycles:  697258506 heartbeat IPC: 0.78480 cumulative IPC: 0.61652 (Simulation time: 0 hr 22 min 16 sec) 
Heartbeat CPU  0 instructions:  504000000 cycles:  698508913 heartbeat IPC: 0.79974 cumulative IPC: 0.61687 (Simulation time: 0 hr 22 min 19 sec) 
Heartbeat CPU  0 instructions:  505000002 cycles:  699793062 heartbeat IPC: 0.77873 cumulative IPC: 0.61719 (Simulation time: 0 hr 22 min 22 sec) 
Heartbeat CPU  0 instructions:  506000002 cycles:  701074257 heartbeat IPC: 0.78052 cumulative IPC: 0.61751 (Simulation time: 0 hr 22 min 24 sec) 
Heartbeat CPU  0 instructions:  507000001 cycles:  702342431 heartbeat IPC: 0.78853 cumulative IPC: 0.61784 (Simulation time: 0 hr 22 min 27 sec) 
Heartbeat CPU  0 instructions:  508000000 cycles:  703620836 heartbeat IPC: 0.78222 cumulative IPC: 0.61815 (Simulation time: 0 hr 22 min 29 sec) 
Heartbeat CPU  0 instructions:  509000000 cycles:  704899073 heartbeat IPC: 0.78233 cumulative IPC: 0.61847 (Simulation time: 0 hr 22 min 32 sec) 
Heartbeat CPU  0 instructions:  510000000 cycles:  706168568 heartbeat IPC: 0.78771 cumulative IPC: 0.61880 (Simulation time: 0 hr 22 min 35 sec) 
Heartbeat CPU  0 instructions:  511000002 cycles:  707446262 heartbeat IPC: 0.78266 cumulative IPC: 0.61911 (Simulation time: 0 hr 22 min 37 sec) 
Heartbeat CPU  0 instructions:  512000000 cycles:  708720737 heartbeat IPC: 0.78464 cumulative IPC: 0.61943 (Simulation time: 0 hr 22 min 40 sec) 
Heartbeat CPU  0 instructions:  513000001 cycles:  710002498 heartbeat IPC: 0.78018 cumulative IPC: 0.61974 (Simulation time: 0 hr 22 min 43 sec) 
Heartbeat CPU  0 instructions:  514000001 cycles:  711270650 heartbeat IPC: 0.78855 cumulative IPC: 0.62006 (Simulation time: 0 hr 22 min 45 sec) 
Heartbeat CPU  0 instructions:  515000002 cycles:  712548864 heartbeat IPC: 0.78234 cumulative IPC: 0.62037 (Simulation time: 0 hr 22 min 48 sec) 
Heartbeat CPU  0 instructions:  516000000 cycles:  713821727 heartbeat IPC: 0.78563 cumulative IPC: 0.62068 (Simulation time: 0 hr 22 min 51 sec) 
Heartbeat CPU  0 instructions:  517000002 cycles:  715089408 heartbeat IPC: 0.78884 cumulative IPC: 0.62100 (Simulation time: 0 hr 22 min 53 sec) 
Heartbeat CPU  0 instructions:  518000001 cycles:  716370207 heartbeat IPC: 0.78076 cumulative IPC: 0.62130 (Simulation time: 0 hr 22 min 56 sec) 
Heartbeat CPU  0 instructions:  519000000 cycles:  717655027 heartbeat IPC: 0.77832 cumulative IPC: 0.62160 (Simulation time: 0 hr 22 min 58 sec) 
Heartbeat CPU  0 instructions:  520000000 cycles:  718926042 heartbeat IPC: 0.78677 cumulative IPC: 0.62191 (Simulation time: 0 hr 23 min 1 sec) 
Heartbeat CPU  0 instructions:  521000001 cycles:  720198360 heartbeat IPC: 0.78597 cumulative IPC: 0.62222 (Simulation time: 0 hr 23 min 4 sec) 
Heartbeat CPU  0 instructions:  522000000 cycles:  721460020 heartbeat IPC: 0.79261 cumulative IPC: 0.62254 (Simulation time: 0 hr 23 min 6 sec) 
Heartbeat CPU  0 instructions:  523000000 cycles:  722712230 heartbeat IPC: 0.79859 cumulative IPC: 0.62286 (Simulation time: 0 hr 23 min 9 sec) 
Heartbeat CPU  0 instructions:  524000000 cycles:  723966383 heartbeat IPC: 0.79735 cumulative IPC: 0.62319 (Simulation time: 0 hr 23 min 11 sec) 
Heartbeat CPU  0 instructions:  525000000 cycles:  725215062 heartbeat IPC: 0.80085 cumulative IPC: 0.62351 (Simulation time: 0 hr 23 min 14 sec) 
Heartbeat CPU  0 instructions:  526000002 cycles:  726473961 heartbeat IPC: 0.79435 cumulative IPC: 0.62383 (Simulation time: 0 hr 23 min 17 sec) 
Heartbeat CPU  0 instructions:  527000002 cycles:  727716218 heartbeat IPC: 0.80499 cumulative IPC: 0.62415 (Simulation time: 0 hr 23 min 19 sec) 
Heartbeat CPU  0 instructions:  528000000 cycles:  728973875 heartbeat IPC: 0.79513 cumulative IPC: 0.62447 (Simulation time: 0 hr 23 min 22 sec) 
Heartbeat CPU  0 instructions:  529000002 cycles:  730234167 heartbeat IPC: 0.79347 cumulative IPC: 0.62478 (Simulation time: 0 hr 23 min 25 sec) 
Heartbeat CPU  0 instructions:  530000002 cycles:  731493980 heartbeat IPC: 0.79377 cumulative IPC: 0.62509 (Simulation time: 0 hr 23 min 27 sec) 
Heartbeat CPU  0 instructions:  531000001 cycles:  732754230 heartbeat IPC: 0.79349 cumulative IPC: 0.62540 (Simulation time: 0 hr 23 min 30 sec) 
Heartbeat CPU  0 instructions:  532000000 cycles:  734017302 heartbeat IPC: 0.79172 cumulative IPC: 0.62570 (Simulation time: 0 hr 23 min 32 sec) 
Heartbeat CPU  0 instructions:  533000000 cycles:  735273798 heartbeat IPC: 0.79586 cumulative IPC: 0.62601 (Simulation time: 0 hr 23 min 35 sec) 
Heartbeat CPU  0 instructions:  534000000 cycles:  736537504 heartbeat IPC: 0.79132 cumulative IPC: 0.62631 (Simulation time: 0 hr 23 min 38 sec) 
Heartbeat CPU  0 instructions:  535000002 cycles:  737780682 heartbeat IPC: 0.80439 cumulative IPC: 0.62663 (Simulation time: 0 hr 23 min 40 sec) 
Heartbeat CPU  0 instructions:  536000000 cycles:  739032167 heartbeat IPC: 0.79905 cumulative IPC: 0.62694 (Simulation time: 0 hr 23 min 43 sec) 
Heartbeat CPU  0 instructions:  537000003 cycles:  740304544 heartbeat IPC: 0.78593 cumulative IPC: 0.62723 (Simulation time: 0 hr 23 min 45 sec) 
Heartbeat CPU  0 instructions:  538000003 cycles:  741577050 heartbeat IPC: 0.78585 cumulative IPC: 0.62752 (Simulation time: 0 hr 23 min 48 sec) 
Heartbeat CPU  0 instructions:  539000001 cycles:  742852735 heartbeat IPC: 0.78389 cumulative IPC: 0.62780 (Simulation time: 0 hr 23 min 51 sec) 
Heartbeat CPU  0 instructions:  540000000 cycles:  744116134 heartbeat IPC: 0.79151 cumulative IPC: 0.62810 (Simulation time: 0 hr 23 min 53 sec) 
Heartbeat CPU  0 instructions:  541000001 cycles:  745395774 heartbeat IPC: 0.78147 cumulative IPC: 0.62838 (Simulation time: 0 hr 23 min 56 sec) 
Heartbeat CPU  0 instructions:  542000000 cycles:  746669900 heartbeat IPC: 0.78485 cumulative IPC: 0.62866 (Simulation time: 0 hr 23 min 59 sec) 
Heartbeat CPU  0 instructions:  543000002 cycles:  747929065 heartbeat IPC: 0.79418 cumulative IPC: 0.62896 (Simulation time: 0 hr 24 min 1 sec) 
Heartbeat CPU  0 instructions:  544000000 cycles:  749192640 heartbeat IPC: 0.79140 cumulative IPC: 0.62925 (Simulation time: 0 hr 24 min 4 sec) 
Heartbeat CPU  0 instructions:  545000001 cycles:  750448568 heartbeat IPC: 0.79622 cumulative IPC: 0.62955 (Simulation time: 0 hr 24 min 6 sec) 
Heartbeat CPU  0 instructions:  546000003 cycles:  751694581 heartbeat IPC: 0.80256 cumulative IPC: 0.62985 (Simulation time: 0 hr 24 min 9 sec) 
Heartbeat CPU  0 instructions:  547000002 cycles:  752922422 heartbeat IPC: 0.81444 cumulative IPC: 0.63017 (Simulation time: 0 hr 24 min 12 sec) 
Heartbeat CPU  0 instructions:  548000000 cycles:  754181200 heartbeat IPC: 0.79442 cumulative IPC: 0.63046 (Simulation time: 0 hr 24 min 14 sec) 
Heartbeat CPU  0 instructions:  549000000 cycles:  755433762 heartbeat IPC: 0.79836 cumulative IPC: 0.63076 (Simulation time: 0 hr 24 min 17 sec) 
Heartbeat CPU  0 instructions:  550000001 cycles:  756692620 heartbeat IPC: 0.79437 cumulative IPC: 0.63105 (Simulation time: 0 hr 24 min 20 sec) 
Heartbeat CPU  0 instructions:  551000001 cycles:  757906876 heartbeat IPC: 0.82355 cumulative IPC: 0.63137 (Simulation time: 0 hr 24 min 22 sec) 
Heartbeat CPU  0 instructions:  552000000 cycles:  759150513 heartbeat IPC: 0.80409 cumulative IPC: 0.63167 (Simulation time: 0 hr 24 min 25 sec) 
Heartbeat CPU  0 instructions:  553000000 cycles:  760397297 heartbeat IPC: 0.80206 cumulative IPC: 0.63197 (Simulation time: 0 hr 24 min 27 sec) 
Heartbeat CPU  0 instructions:  554000000 cycles:  761644843 heartbeat IPC: 0.80157 cumulative IPC: 0.63226 (Simulation time: 0 hr 24 min 30 sec) 
Heartbeat CPU  0 instructions:  555000002 cycles:  762893919 heartbeat IPC: 0.80059 cumulative IPC: 0.63256 (Simulation time: 0 hr 24 min 33 sec) 
Heartbeat CPU  0 instructions:  556000000 cycles:  764144335 heartbeat IPC: 0.79973 cumulative IPC: 0.63285 (Simulation time: 0 hr 24 min 35 sec) 
Heartbeat CPU  0 instructions:  557000001 cycles:  765380791 heartbeat IPC: 0.80876 cumulative IPC: 0.63315 (Simulation time: 0 hr 24 min 38 sec) 
Heartbeat CPU  0 instructions:  558000003 cycles:  766620812 heartbeat IPC: 0.80644 cumulative IPC: 0.63345 (Simulation time: 0 hr 24 min 40 sec) 
Heartbeat CPU  0 instructions:  559000002 cycles:  767875502 heartbeat IPC: 0.79701 cumulative IPC: 0.63373 (Simulation time: 0 hr 24 min 43 sec) 
Heartbeat CPU  0 instructions:  560000000 cycles:  769125238 heartbeat IPC: 0.80017 cumulative IPC: 0.63402 (Simulation time: 0 hr 24 min 46 sec) 
Heartbeat CPU  0 instructions:  561000000 cycles:  770373029 heartbeat IPC: 0.80142 cumulative IPC: 0.63430 (Simulation time: 0 hr 24 min 48 sec) 
Heartbeat CPU  0 instructions:  562000003 cycles:  771614817 heartbeat IPC: 0.80529 cumulative IPC: 0.63459 (Simulation time: 0 hr 24 min 51 sec) 
Heartbeat CPU  0 instructions:  563000003 cycles:  772862477 heartbeat IPC: 0.80150 cumulative IPC: 0.63488 (Simulation time: 0 hr 24 min 54 sec) 
Heartbeat CPU  0 instructions:  564000000 cycles:  774086287 heartbeat IPC: 0.81712 cumulative IPC: 0.63519 (Simulation time: 0 hr 24 min 56 sec) 
Heartbeat CPU  0 instructions:  565000000 cycles:  775338521 heartbeat IPC: 0.79857 cumulative IPC: 0.63546 (Simulation time: 0 hr 24 min 59 sec) 
Heartbeat CPU  0 instructions:  566000000 cycles:  776581635 heartbeat IPC: 0.80443 cumulative IPC: 0.63575 (Simulation time: 0 hr 25 min 1 sec) 
Heartbeat CPU  0 instructions:  567000002 cycles:  777832174 heartbeat IPC: 0.79966 cumulative IPC: 0.63603 (Simulation time: 0 hr 25 min 4 sec) 
Heartbeat CPU  0 instructions:  568000000 cycles:  779082155 heartbeat IPC: 0.80001 cumulative IPC: 0.63631 (Simulation time: 0 hr 25 min 6 sec) 
Heartbeat CPU  0 instructions:  569000000 cycles:  780335877 heartbeat IPC: 0.79763 cumulative IPC: 0.63658 (Simulation time: 0 hr 25 min 9 sec) 
Heartbeat CPU  0 instructions:  570000003 cycles:  784001455 heartbeat IPC: 0.27281 cumulative IPC: 0.63478 (Simulation time: 0 hr 25 min 15 sec) 
Heartbeat CPU  0 instructions:  571000000 cycles:  787376130 heartbeat IPC: 0.29632 cumulative IPC: 0.63325 (Simulation time: 0 hr 25 min 19 sec) 
Heartbeat CPU  0 instructions:  572000000 cycles:  789712566 heartbeat IPC: 0.42800 cumulative IPC: 0.63260 (Simulation time: 0 hr 25 min 22 sec) 
Heartbeat CPU  0 instructions:  573000002 cycles:  792067300 heartbeat IPC: 0.42468 cumulative IPC: 0.63195 (Simulation time: 0 hr 25 min 25 sec) 
Heartbeat CPU  0 instructions:  574000001 cycles:  794401696 heartbeat IPC: 0.42838 cumulative IPC: 0.63132 (Simulation time: 0 hr 25 min 29 sec) 
Heartbeat CPU  0 instructions:  575000003 cycles:  796734181 heartbeat IPC: 0.42873 cumulative IPC: 0.63069 (Simulation time: 0 hr 25 min 32 sec) 
Heartbeat CPU  0 instructions:  576000000 cycles:  799023392 heartbeat IPC: 0.43683 cumulative IPC: 0.63010 (Simulation time: 0 hr 25 min 35 sec) 
Heartbeat CPU  0 instructions:  577000002 cycles:  801249203 heartbeat IPC: 0.44928 cumulative IPC: 0.62957 (Simulation time: 0 hr 25 min 38 sec) 
Heartbeat CPU  0 instructions:  578000001 cycles:  803473046 heartbeat IPC: 0.44967 cumulative IPC: 0.62904 (Simulation time: 0 hr 25 min 41 sec) 
Heartbeat CPU  0 instructions:  579000000 cycles:  805718435 heartbeat IPC: 0.44536 cumulative IPC: 0.62850 (Simulation time: 0 hr 25 min 44 sec) 
Heartbeat CPU  0 instructions:  580000000 cycles:  807991459 heartbeat IPC: 0.43994 cumulative IPC: 0.62794 (Simulation time: 0 hr 25 min 47 sec) 
Heartbeat CPU  0 instructions:  581000002 cycles:  810265874 heartbeat IPC: 0.43967 cumulative IPC: 0.62738 (Simulation time: 0 hr 25 min 50 sec) 
Heartbeat CPU  0 instructions:  582000001 cycles:  812519572 heartbeat IPC: 0.44371 cumulative IPC: 0.62685 (Simulation time: 0 hr 25 min 53 sec) 
Heartbeat CPU  0 instructions:  583000000 cycles:  814773977 heartbeat IPC: 0.44358 cumulative IPC: 0.62631 (Simulation time: 0 hr 25 min 56 sec) 
Heartbeat CPU  0 instructions:  584000000 cycles:  817026482 heartbeat IPC: 0.44395 cumulative IPC: 0.62578 (Simulation time: 0 hr 25 min 59 sec) 
Heartbeat CPU  0 instructions:  585000002 cycles:  819290224 heartbeat IPC: 0.44175 cumulative IPC: 0.62524 (Simulation time: 0 hr 26 min 2 sec) 
Heartbeat CPU  0 instructions:  586000000 cycles:  821565340 heartbeat IPC: 0.43954 cumulative IPC: 0.62470 (Simulation time: 0 hr 26 min 5 sec) 
Heartbeat CPU  0 instructions:  587000000 cycles:  823818690 heartbeat IPC: 0.44378 cumulative IPC: 0.62418 (Simulation time: 0 hr 26 min 8 sec) 
Heartbeat CPU  0 instructions:  588000000 cycles:  826067376 heartbeat IPC: 0.44470 cumulative IPC: 0.62366 (Simulation time: 0 hr 26 min 11 sec) 
Heartbeat CPU  0 instructions:  589000002 cycles:  828320175 heartbeat IPC: 0.44389 cumulative IPC: 0.62314 (Simulation time: 0 hr 26 min 14 sec) 
Heartbeat CPU  0 instructions:  590000003 cycles:  830587212 heartbeat IPC: 0.44110 cumulative IPC: 0.62262 (Simulation time: 0 hr 26 min 17 sec) 
Heartbeat CPU  0 instructions:  591000003 cycles:  832855276 heartbeat IPC: 0.44090 cumulative IPC: 0.62210 (Simulation time: 0 hr 26 min 20 sec) 
Heartbeat CPU  0 instructions:  592000000 cycles:  835117266 heartbeat IPC: 0.44209 cumulative IPC: 0.62158 (Simulation time: 0 hr 26 min 23 sec) 
Heartbeat CPU  0 instructions:  593000000 cycles:  837377082 heartbeat IPC: 0.44251 cumulative IPC: 0.62107 (Simulation time: 0 hr 26 min 26 sec) 
Heartbeat CPU  0 instructions:  594000002 cycles:  839186999 heartbeat IPC: 0.55251 cumulative IPC: 0.62092 (Simulation time: 0 hr 26 min 29 sec) 
Heartbeat CPU  0 instructions:  595000002 cycles:  840970759 heartbeat IPC: 0.56061 cumulative IPC: 0.62078 (Simulation time: 0 hr 26 min 33 sec) 
Heartbeat CPU  0 instructions:  596000000 cycles:  844512087 heartbeat IPC: 0.28238 cumulative IPC: 0.61929 (Simulation time: 0 hr 26 min 38 sec) 
Heartbeat CPU  0 instructions:  597000000 cycles:  847917570 heartbeat IPC: 0.29364 cumulative IPC: 0.61791 (Simulation time: 0 hr 26 min 42 sec) 
Heartbeat CPU  0 instructions:  598000000 cycles:  851338552 heartbeat IPC: 0.29231 cumulative IPC: 0.61653 (Simulation time: 0 hr 26 min 47 sec) 
Heartbeat CPU  0 instructions:  599000000 cycles:  852590735 heartbeat IPC: 0.79861 cumulative IPC: 0.61681 (Simulation time: 0 hr 26 min 50 sec) 
Heartbeat CPU  0 instructions:  600000000 cycles:  853873384 heartbeat IPC: 0.77964 cumulative IPC: 0.61707 (Simulation time: 0 hr 26 min 52 sec) 
Finished CPU 0 instructions: 500000002 cycles: 810282501 cumulative IPC: 0.61707 (Simulation time: 0 hr 26 min 52 sec) 

ChampSim completed all CPUs

[ROI Statistics]
Core_0_instructions 500000002
Core_0_cycles 810282501
Core_0_IPC 0.61707

Core_0_branch_prediction_accuracy 99.99934
Core_0_branch_MPKI 0.00033
Core_0_average_ROB_occupancy_at_mispredict 125.15337

Core_0_L1D_total_access 99955480
Core_0_L1D_total_hit 89898700
Core_0_L1D_total_miss 10056780
Core_0_L1D_loads 49806032
Core_0_L1D_load_hit 41349300
Core_0_L1D_load_miss 8456732
Core_0_L1D_RFOs 50149448
Core_0_L1D_RFO_hit 48549400
Core_0_L1D_RFO_miss 1600048
Core_0_L1D_prefetches 0
Core_0_L1D_prefetch_hit 0
Core_0_L1D_prefetch_miss 0
Core_0_L1D_writebacks 0
Core_0_L1D_writeback_hit 0
Core_0_L1D_writeback_miss 0
Core_0_L1D_prefetch_requested 0
Core_0_L1D_prefetch_dropped 0
Core_0_L1D_prefetch_issued 0
Core_0_L1D_prefetch_filled 0
Core_0_L1D_prefetch_useful 0
Core_0_L1D_prefetch_useless 0
Core_0_L1D_prefetch_late 0
Core_0_L1D_average_miss_latency 163.77228

Core_0_L1D_rq_access 153743224
Core_0_L1D_rq_forward 0
Core_0_L1D_rq_merged 97445506
Core_0_L1D_rq_to_cache 56297718
Core_0_L1D_rq_full 0

Core_0_L1D_wq_access 59520168
Core_0_L1D_wq_forward 0
Core_0_L1D_wq_merged 140195
Core_0_L1D_wq_to_cache 59379973
Core_0_L1D_wq_full 9063469

Core_0_L1D_pq_access 0
Core_0_L1D_pq_forward 0
Core_0_L1D_pq_merged 0
Core_0_L1D_pq_to_cache 0
Core_0_L1D_pq_full 0

Core_0_L1D_acc_epochs 734374
Core_0_L1D_acc_level_0 734374
Core_0_L1D_acc_level_1 0
Core_0_L1D_acc_level_2 0
Core_0_L1D_acc_level_3 0
Core_0_L1D_acc_level_4 0
Core_0_L1D_acc_level_5 0
Core_0_L1D_acc_level_6 0
Core_0_L1D_acc_level_7 0
Core_0_L1D_acc_level_8 0
Core_0_L1D_acc_level_9 0

Core_0_L1I_total_access 124471291
Core_0_L1I_total_hit 124471244
Core_0_L1I_total_miss 47
Core_0_L1I_loads 124471291
Core_0_L1I_load_hit 124471244
Core_0_L1I_load_miss 47
Core_0_L1I_RFOs 0
Core_0_L1I_RFO_hit 0
Core_0_L1I_RFO_miss 0
Core_0_L1I_prefetches 0
Core_0_L1I_prefetch_hit 0
Core_0_L1I_prefetch_miss 0
Core_0_L1I_writebacks 0
Core_0_L1I_writeback_hit 0
Core_0_L1I_writeback_miss 0
Core_0_L1I_prefetch_requested 0
Core_0_L1I_prefetch_dropped 0
Core_0_L1I_prefetch_issued 0
Core_0_L1I_prefetch_filled 0
Core_0_L1I_prefetch_useful 0
Core_0_L1I_prefetch_useless 0
Core_0_L1I_prefetch_late 0
Core_0_L1I_average_miss_latency 238.31915

Core_0_L1I_rq_access 500000004
Core_0_L1I_rq_forward 0
Core_0_L1I_rq_merged 375528676
Core_0_L1I_rq_to_cache 124471328
Core_0_L1I_rq_full 0

Core_0_L1I_wq_access 0
Core_0_L1I_wq_forward 0
Core_0_L1I_wq_merged 0
Core_0_L1I_wq_to_cache 0
Core_0_L1I_wq_full 0

Core_0_L1I_pq_access 0
Core_0_L1I_pq_forward 0
Core_0_L1I_pq_merged 0
Core_0_L1I_pq_to_cache 0
Core_0_L1I_pq_full 0

Core_0_L1I_acc_epochs 734374
Core_0_L1I_acc_level_0 734374
Core_0_L1I_acc_level_1 0
Core_0_L1I_acc_level_2 0
Core_0_L1I_acc_level_3 0
Core_0_L1I_acc_level_4 0
Core_0_L1I_acc_level_5 0
Core_0_L1I_acc_level_6 0
Core_0_L1I_acc_level_7 0
Core_0_L1I_acc_level_8 0
Core_0_L1I_acc_level_9 0

Core_0_L2C_total_access 17063609
Core_0_L2C_total_hit 6461155
Core_0_L2C_total_miss 10602454
Core_0_L2C_loads 8456779
Core_0_L2C_load_hit 1761489
Core_0_L2C_load_miss 6695290
Core_0_L2C_RFOs 1600048
Core_0_L2C_RFO_hit 2
Core_0_L2C_RFO_miss 1600046
Core_0_L2C_prefetches 3979399
Core_0_L2C_prefetch_hit 1684920
Core_0_L2C_prefetch_miss 2294479
Core_0_L2C_writebacks 3027383
Core_0_L2C_writeback_hit 3014744
Core_0_L2C_writeback_miss 12639
Core_0_L2C_prefetch_requested 26334932
Core_0_L2C_prefetch_dropped 0
Core_0_L2C_prefetch_issued 26334932
Core_0_L2C_prefetch_filled 2722237
Core_0_L2C_prefetch_useful 2189223
Core_0_L2C_prefetch_useless 533014
Core_0_L2C_prefetch_late 1086864
Core_0_L2C_average_miss_latency 167.97741

Core_0_L2C_rq_access 10056827
Core_0_L2C_rq_forward 0
Core_0_L2C_rq_merged 0
Core_0_L2C_rq_to_cache 10056827
Core_0_L2C_rq_full 0

Core_0_L2C_wq_access 3027383
Core_0_L2C_wq_forward 0
Core_0_L2C_wq_merged 0
Core_0_L2C_wq_to_cache 3027383
Core_0_L2C_wq_full 0

Core_0_L2C_pq_access 26334932
Core_0_L2C_pq_forward 0
Core_0_L2C_pq_merged 4046772
Core_0_L2C_pq_to_cache 22288160
Core_0_L2C_pq_full 0

Core_0_L2C_acc_epochs 734374
Core_0_L2C_acc_level_0 18439
Core_0_L2C_acc_level_1 13627
Core_0_L2C_acc_level_2 26717
Core_0_L2C_acc_level_3 19120
Core_0_L2C_acc_level_4 37947
Core_0_L2C_acc_level_5 90966
Core_0_L2C_acc_level_6 152504
Core_0_L2C_acc_level_7 76681
Core_0_L2C_acc_level_8 61632
Core_0_L2C_acc_level_9 236741

Core_0_LLC_total_access 21706332
Core_0_LLC_total_hit 8531313
Core_0_LLC_total_miss 13175019
Core_0_LLC_loads 5632188
Core_0_LLC_load_hit 2463757
Core_0_LLC_load_miss 3168431
Core_0_LLC_RFOs 1600046
Core_0_LLC_RFO_hit 5673
Core_0_LLC_RFO_miss 1594373
Core_0_LLC_prefetches 11445137
Core_0_LLC_prefetch_hit 4927108
Core_0_LLC_prefetch_miss 6518029
Core_0_LLC_writebacks 3028961
Core_0_LLC_writeback_hit 1134775
Core_0_LLC_writeback_miss 1894186
Core_0_LLC_prefetch_requested 0
Core_0_LLC_prefetch_dropped 0
Core_0_LLC_prefetch_issued 0
Core_0_LLC_prefetch_filled 7900567
Core_0_LLC_prefetch_useful 3115339
Core_0_LLC_prefetch_useless 4773694
Core_0_LLC_prefetch_late 306666
Core_0_LLC_average_miss_latency 203.40444

Core_0_LLC_rq_access 7232234
Core_0_LLC_rq_forward 0
Core_0_LLC_rq_merged 0
Core_0_LLC_rq_to_cache 7232234
Core_0_LLC_rq_full 0

Core_0_LLC_wq_access 3028961
Core_0_LLC_wq_forward 0
Core_0_LLC_wq_merged 0
Core_0_LLC_wq_to_cache 3028961
Core_0_LLC_wq_full 0

Core_0_LLC_pq_access 18070644
Core_0_LLC_pq_forward 0
Core_0_LLC_pq_merged 475576
Core_0_LLC_pq_to_cache 17595068
Core_0_LLC_pq_full 0

Core_0_LLC_acc_epochs 833861
Core_0_LLC_acc_level_0 16921
Core_0_LLC_acc_level_1 87432
Core_0_LLC_acc_level_2 211671
Core_0_LLC_acc_level_3 120723
Core_0_LLC_acc_level_4 60200
Core_0_LLC_acc_level_5 98568
Core_0_LLC_acc_level_6 124737
Core_0_LLC_acc_level_7 71556
Core_0_LLC_acc_level_8 26830
Core_0_LLC_acc_level_9 15223

Core_0_major_page_fault 0
Core_0_minor_page_fault 95964

spp.pref.total 26334932
spp.pref.at_L2 5615650
spp.pref.at_LLC 20719282

spp.depth.max 11
spp.depth.min 0
spp.depth.avg 2

spp.breadth.max 2
spp.breadth.min 0
spp.breadth.avg 0

delta_1 19876833
delta_30 1286405
delta_-34 1134457
delta_11 964040
delta_-1 771078
delta_31 686644
delta_20 614579
delta_15 613428
delta_-44 462600
delta_-46 419564
delta_18 380043
delta_-42 15717
delta_-30 12498
delta_2 268

depth_1_delta_1 6585898
depth_1_delta_31 651142
depth_1_delta_30 571897
depth_1_delta_-34 551780
depth_1_delta_-1 347858
depth_1_delta_11 283519
depth_1_delta_20 239978
depth_1_delta_-44 168094
depth_1_delta_15 162649
depth_1_delta_18 162279
depth_1_delta_-46 136500
depth_1_delta_-42 15717
depth_1_delta_-30 12489
depth_1_delta_2 136
depth_2_delta_1 5551429
depth_2_delta_30 579801
depth_2_delta_-34 443384
depth_2_delta_11 323536
depth_2_delta_15 253370
depth_2_delta_20 239963
depth_2_delta_-44 168090
depth_2_delta_-1 162607
depth_2_delta_18 162270
depth_2_delta_-46 136367
depth_2_delta_31 35453
depth_2_delta_2 132
depth_2_delta_-30 8
depth_3_delta_1 2049095
depth_3_delta_11 178212
depth_3_delta_-1 125980
depth_3_delta_15 123010
depth_3_delta_-34 89410
depth_3_delta_-46 77770
depth_3_delta_-44 60794
depth_3_delta_20 43250
depth_3_delta_30 2381
depth_3_delta_18 162
depth_3_delta_31 49
depth_3_delta_-30 1
depth_4_delta_1 1434736
depth_4_delta_-1 80090
depth_4_delta_11 62990
depth_4_delta_30 53341
depth_4_delta_-46 29563
depth_4_delta_-34 23189
depth_4_delta_-44 21138
depth_4_delta_20 20118
depth_4_delta_15 18931
depth_4_delta_18 18878
depth_5_delta_1 1268080
depth_5_delta_30 49843
depth_5_delta_11 39052
depth_5_delta_-46 28375
depth_5_delta_15 22631
depth_5_delta_-34 20939
depth_5_delta_-44 20301
depth_5_delta_20 19546
depth_5_delta_18 12644
depth_5_delta_-1 12232
depth_6_delta_1 1043072
depth_6_delta_11 38311
depth_6_delta_30 27463
depth_6_delta_15 20479
depth_6_delta_-1 20386
depth_6_delta_20 19174
depth_6_delta_18 10214
depth_6_delta_-34 156
depth_6_delta_-44 53
depth_6_delta_-46 46
depth_7_delta_1 823059
depth_7_delta_-1 18597
depth_7_delta_20 18501
depth_7_delta_11 18439
depth_7_delta_-44 17952
depth_7_delta_18 9501
depth_7_delta_15 9422
depth_7_delta_-46 9123
depth_7_delta_-34 5570
depth_7_delta_30 1521
depth_8_delta_1 644908
depth_8_delta_11 19112
depth_8_delta_20 14046
depth_8_delta_-44 6178
depth_8_delta_18 4092
depth_8_delta_-1 3323
depth_8_delta_15 2930
depth_8_delta_-46 1819
depth_8_delta_30 148
depth_8_delta_-34 25
depth_9_delta_1 358491
depth_9_delta_11 869
depth_9_delta_30 8
depth_9_delta_15 6
depth_9_delta_-1 5
depth_9_delta_-34 4
depth_9_delta_20 3
depth_9_delta_18 2
depth_9_delta_-46 1
depth_10_delta_1 114674
depth_10_delta_30 2
depth_10_delta_18 1
depth_11_delta_1 3391

Channel_0_RQ_row_buffer_hit 3759416
Channel_0_RQ_row_buffer_miss 7521415
Channel_0_WQ_row_buffer_hit 1307397
Channel_0_WQ_row_buffer_miss 1727884
Channel_0_WQ_full 11114
Channel_0_dbus_congested 6278165

avg_congested_cycle 9

DRAM_bw_pochs 3335443
DRAM_bw_level_0 1158533
DRAM_bw_level_1 1582114
DRAM_bw_level_2 543073
DRAM_bw_level_3 51723
