*************************************************
   ChampSim Multicore Out-of-Order Simulator
   Last compiled: Dec 11 2024 17:59:53
*************************************************
parsing config file: /home/functionmain/桌面/Pythia/config/spp_dev2.ini

trace_0 /home/functionmain/桌面/Pythia/traces/433.milc-127B.champsimtrace.xz
adding L2C_PREFETCHER: SPP_dev2
Initialize SIGNATURE TABLE
ST_SET: 1
ST_WAY: 256
ST_TAG_BIT: 16
ST_TAG_MASK: ffff

Initialize PATTERN TABLE
PT_SET: 512
PT_WAY: 4
SIG_DELTA_BIT: 7
C_SIG_BIT: 4
C_DELTA_BIT: 4

Initialize PREFETCH FILTER
FILTER_SET: 1024
fill_threshold: 90
pf_threshold: 40

Initialize SHIP state
warmup_instructions 100000000
simulation_instructions 500000000
champsim_seed 220
measure_ipc 0
measure_ipc_epoch 1000
measure_dram_bw 1
measure_dram_bw_epoch 256
measure_cache_acc 1
measure_cache_acc_epoch 1024
l1d_perfect 0
l2c_perfect 0
llc_perfect 0
l1d_semi_perfect 0
l2c_semi_perfect 0
llc_semi_perfect 0
semi_perfect_cache_page_buffer_size 64

num_cpus 1
cpu_freq 4000
dram_io_freq 9600
page_size 4096
block_size 64
max_read_per_cycle 8
max_fill_per_cycle 1
dram_channels 1
log2_dram_channels 0
dram_ranks 1
dram_banks 8
dram_rows 65536
dram_columns 128
dram_row_size 8
dram_size 4096
dram_pages 1048576

fetch_width 6
decode_width 6
exec_width 4
lq_width 2
sq_width 2
retire_width 4
scheduler_size 128
branch_mispredict_penalty 20
rob_size 256
lq_size 72
sq_size 56
num_instr_destinations_sparc 4
num_instr_destinations 2
num_instr_sources 4

itlb_set 16
itlb_way 8
itlb_rq_size 16
itlb_wq_size 16
itlb_pq_size 0
itlb_mshr_size 8
itlb_latency 1

dtlb_set 16
dtlb_way 4
dtlb_rq_size 16
dtlb_wq_size 16
dtlb_pq_size 0
dtlb_mshr_size 8
dtlb_latency 1

stlb_set 128
stlb_way 12
stlb_rq_size 32
stlb_wq_size 32
stlb_pq_size 0
stlb_mshr_size 16
stlb_latency 8

l1i_size 32
l1i_set 64
l1i_way 8
l1i_rq_size 64
l1i_wq_size 64
l1i_pq_size 8
l1i_mshr_size 8
l1i_latency 1

l1d_size 32
l1d_set 64
l1d_way 8
l1d_rq_size 64
l1d_wq_size 64
l1d_pq_size 8
l1d_mshr_size 16
l1d_latency 4

l2c_size 256
l2c_set 512
l2c_way 8
l2c_rq_size 32
l2c_wq_size 32
l2c_pq_size 32
l2c_mshr_size 32
l2c_latency 10

llc_size 2048
llc_set 2048
llc_way 16
llc_rq_size 32
llc_wq_size 32
llc_pq_size 32
llc_mshr_size 64
llc_latency 20

dram_channel_width 8
dram_wq_size 64
dram_rq_size 64
tRP 15
tRCD 15
tCAS 12.5
dram_dbus_turn_around_time 30
dram_write_high_wm 56
dram_write_low_wm 48
min_dram_writes_per_switch 16
dram_mtps 9600
dram_dbus_return_time 3


Heartbeat CPU  0 instructions:    1000001 cycles:     384703 heartbeat IPC: 2.59941 cumulative IPC: 2.59941 (Simulation time: 0 hr 0 min 1 sec) 
Heartbeat CPU  0 instructions:    2000000 cycles:     769336 heartbeat IPC: 2.59988 cumulative IPC: 2.59964 (Simulation time: 0 hr 0 min 3 sec) 
Heartbeat CPU  0 instructions:    3000000 cycles:    1153940 heartbeat IPC: 2.60008 cumulative IPC: 2.59979 (Simulation time: 0 hr 0 min 4 sec) 
Heartbeat CPU  0 instructions:    4000000 cycles:    1538579 heartbeat IPC: 2.59984 cumulative IPC: 2.59980 (Simulation time: 0 hr 0 min 6 sec) 
Heartbeat CPU  0 instructions:    5000001 cycles:    1923204 heartbeat IPC: 2.59994 cumulative IPC: 2.59983 (Simulation time: 0 hr 0 min 8 sec) 
Heartbeat CPU  0 instructions:    6000000 cycles:    2307788 heartbeat IPC: 2.60021 cumulative IPC: 2.59989 (Simulation time: 0 hr 0 min 9 sec) 
Heartbeat CPU  0 instructions:    7000002 cycles:    2692326 heartbeat IPC: 2.60053 cumulative IPC: 2.59998 (Simulation time: 0 hr 0 min 11 sec) 
Heartbeat CPU  0 instructions:    8000000 cycles:    3076909 heartbeat IPC: 2.60021 cumulative IPC: 2.60001 (Simulation time: 0 hr 0 min 12 sec) 
Heartbeat CPU  0 instructions:    9000003 cycles:    3461502 heartbeat IPC: 2.60016 cumulative IPC: 2.60003 (Simulation time: 0 hr 0 min 14 sec) 
Heartbeat CPU  0 instructions:   10000000 cycles:    3846095 heartbeat IPC: 2.60014 cumulative IPC: 2.60004 (Simulation time: 0 hr 0 min 16 sec) 
Heartbeat CPU  0 instructions:   11000002 cycles:    4230651 heartbeat IPC: 2.60041 cumulative IPC: 2.60007 (Simulation time: 0 hr 0 min 17 sec) 
Heartbeat CPU  0 instructions:   12000000 cycles:    4615142 heartbeat IPC: 2.60084 cumulative IPC: 2.60014 (Simulation time: 0 hr 0 min 19 sec) 
Heartbeat CPU  0 instructions:   13000003 cycles:    4999567 heartbeat IPC: 2.60130 cumulative IPC: 2.60023 (Simulation time: 0 hr 0 min 20 sec) 
Heartbeat CPU  0 instructions:   14000000 cycles:    5383968 heartbeat IPC: 2.60144 cumulative IPC: 2.60031 (Simulation time: 0 hr 0 min 22 sec) 
Heartbeat CPU  0 instructions:   15000002 cycles:    5768363 heartbeat IPC: 2.60150 cumulative IPC: 2.60039 (Simulation time: 0 hr 0 min 24 sec) 
Heartbeat CPU  0 instructions:   16000000 cycles:    6152768 heartbeat IPC: 2.60142 cumulative IPC: 2.60046 (Simulation time: 0 hr 0 min 25 sec) 
Heartbeat CPU  0 instructions:   17000001 cycles:    6537197 heartbeat IPC: 2.60126 cumulative IPC: 2.60050 (Simulation time: 0 hr 0 min 27 sec) 
Heartbeat CPU  0 instructions:   18000000 cycles:    6921602 heartbeat IPC: 2.60142 cumulative IPC: 2.60055 (Simulation time: 0 hr 0 min 28 sec) 
Heartbeat CPU  0 instructions:   19000003 cycles:    7305961 heartbeat IPC: 2.60174 cumulative IPC: 2.60062 (Simulation time: 0 hr 0 min 30 sec) 
Heartbeat CPU  0 instructions:   20000000 cycles:    7792972 heartbeat IPC: 2.05334 cumulative IPC: 2.56642 (Simulation time: 0 hr 0 min 32 sec) 
Heartbeat CPU  0 instructions:   21000001 cycles:    8299717 heartbeat IPC: 1.97338 cumulative IPC: 2.53021 (Simulation time: 0 hr 0 min 33 sec) 
Heartbeat CPU  0 instructions:   22000002 cycles:    8849182 heartbeat IPC: 1.81995 cumulative IPC: 2.48611 (Simulation time: 0 hr 0 min 35 sec) 
Heartbeat CPU  0 instructions:   23000001 cycles:    9398610 heartbeat IPC: 1.82007 cumulative IPC: 2.44717 (Simulation time: 0 hr 0 min 38 sec) 
Heartbeat CPU  0 instructions:   24000000 cycles:    9940559 heartbeat IPC: 1.84519 cumulative IPC: 2.41435 (Simulation time: 0 hr 0 min 40 sec) 
Heartbeat CPU  0 instructions:   25000002 cycles:   10384264 heartbeat IPC: 2.25375 cumulative IPC: 2.40749 (Simulation time: 0 hr 0 min 41 sec) 
Heartbeat CPU  0 instructions:   26000000 cycles:   10827940 heartbeat IPC: 2.25389 cumulative IPC: 2.40120 (Simulation time: 0 hr 0 min 43 sec) 
Heartbeat CPU  0 instructions:   27000000 cycles:   11271615 heartbeat IPC: 2.25390 cumulative IPC: 2.39540 (Simulation time: 0 hr 0 min 45 sec) 
Heartbeat CPU  0 instructions:   28000000 cycles:   11715290 heartbeat IPC: 2.25390 cumulative IPC: 2.39004 (Simulation time: 0 hr 0 min 47 sec) 
Heartbeat CPU  0 instructions:   29000000 cycles:   12159002 heartbeat IPC: 2.25371 cumulative IPC: 2.38506 (Simulation time: 0 hr 0 min 48 sec) 
Heartbeat CPU  0 instructions:   30000000 cycles:   12602721 heartbeat IPC: 2.25368 cumulative IPC: 2.38044 (Simulation time: 0 hr 0 min 50 sec) 
Heartbeat CPU  0 instructions:   31000000 cycles:   13046389 heartbeat IPC: 2.25394 cumulative IPC: 2.37614 (Simulation time: 0 hr 0 min 52 sec) 
Heartbeat CPU  0 instructions:   32000000 cycles:   13490062 heartbeat IPC: 2.25391 cumulative IPC: 2.37212 (Simulation time: 0 hr 0 min 54 sec) 
Heartbeat CPU  0 instructions:   33000000 cycles:   13933771 heartbeat IPC: 2.25373 cumulative IPC: 2.36835 (Simulation time: 0 hr 0 min 56 sec) 
Heartbeat CPU  0 instructions:   34000000 cycles:   14377459 heartbeat IPC: 2.25384 cumulative IPC: 2.36481 (Simulation time: 0 hr 0 min 57 sec) 
Heartbeat CPU  0 instructions:   35000000 cycles:   14821130 heartbeat IPC: 2.25392 cumulative IPC: 2.36149 (Simulation time: 0 hr 0 min 59 sec) 
Heartbeat CPU  0 instructions:   36000000 cycles:   15264802 heartbeat IPC: 2.25392 cumulative IPC: 2.35837 (Simulation time: 0 hr 1 min 1 sec) 
Heartbeat CPU  0 instructions:   37000001 cycles:   15708511 heartbeat IPC: 2.25373 cumulative IPC: 2.35541 (Simulation time: 0 hr 1 min 3 sec) 
Heartbeat CPU  0 instructions:   38000001 cycles:   16152193 heartbeat IPC: 2.25387 cumulative IPC: 2.35262 (Simulation time: 0 hr 1 min 4 sec) 
Heartbeat CPU  0 instructions:   39000001 cycles:   16595874 heartbeat IPC: 2.25387 cumulative IPC: 2.34998 (Simulation time: 0 hr 1 min 6 sec) 
Heartbeat CPU  0 instructions:   40000000 cycles:   17039557 heartbeat IPC: 2.25386 cumulative IPC: 2.34748 (Simulation time: 0 hr 1 min 8 sec) 
Heartbeat CPU  0 instructions:   41000000 cycles:   17483277 heartbeat IPC: 2.25367 cumulative IPC: 2.34510 (Simulation time: 0 hr 1 min 10 sec) 
Heartbeat CPU  0 instructions:   42000000 cycles:   17926959 heartbeat IPC: 2.25387 cumulative IPC: 2.34284 (Simulation time: 0 hr 1 min 11 sec) 
Heartbeat CPU  0 instructions:   43000000 cycles:   18370638 heartbeat IPC: 2.25388 cumulative IPC: 2.34069 (Simulation time: 0 hr 1 min 13 sec) 
Heartbeat CPU  0 instructions:   44000000 cycles:   18814313 heartbeat IPC: 2.25390 cumulative IPC: 2.33864 (Simulation time: 0 hr 1 min 15 sec) 
Heartbeat CPU  0 instructions:   45000001 cycles:   19258005 heartbeat IPC: 2.25382 cumulative IPC: 2.33669 (Simulation time: 0 hr 1 min 17 sec) 
Heartbeat CPU  0 instructions:   46000001 cycles:   19701674 heartbeat IPC: 2.25393 cumulative IPC: 2.33483 (Simulation time: 0 hr 1 min 18 sec) 
Heartbeat CPU  0 instructions:   47000001 cycles:   20145294 heartbeat IPC: 2.25418 cumulative IPC: 2.33305 (Simulation time: 0 hr 1 min 20 sec) 
Heartbeat CPU  0 instructions:   48000000 cycles:   20588900 heartbeat IPC: 2.25425 cumulative IPC: 2.33135 (Simulation time: 0 hr 1 min 22 sec) 
Heartbeat CPU  0 instructions:   49000002 cycles:   21032554 heartbeat IPC: 2.25401 cumulative IPC: 2.32972 (Simulation time: 0 hr 1 min 24 sec) 
Heartbeat CPU  0 instructions:   50000001 cycles:   21476240 heartbeat IPC: 2.25384 cumulative IPC: 2.32815 (Simulation time: 0 hr 1 min 25 sec) 
Heartbeat CPU  0 instructions:   51000001 cycles:   21919885 heartbeat IPC: 2.25405 cumulative IPC: 2.32665 (Simulation time: 0 hr 1 min 27 sec) 
Heartbeat CPU  0 instructions:   52000000 cycles:   22363550 heartbeat IPC: 2.25395 cumulative IPC: 2.32521 (Simulation time: 0 hr 1 min 29 sec) 
Heartbeat CPU  0 instructions:   53000002 cycles:   22807138 heartbeat IPC: 2.25435 cumulative IPC: 2.32383 (Simulation time: 0 hr 1 min 31 sec) 
Heartbeat CPU  0 instructions:   54000002 cycles:   23250651 heartbeat IPC: 2.25473 cumulative IPC: 2.32252 (Simulation time: 0 hr 1 min 32 sec) 
Heartbeat CPU  0 instructions:   55000002 cycles:   23694166 heartbeat IPC: 2.25472 cumulative IPC: 2.32125 (Simulation time: 0 hr 1 min 34 sec) 
Heartbeat CPU  0 instructions:   56000000 cycles:   24137693 heartbeat IPC: 2.25465 cumulative IPC: 2.32002 (Simulation time: 0 hr 1 min 36 sec) 
Heartbeat CPU  0 instructions:   57000000 cycles:   24581277 heartbeat IPC: 2.25436 cumulative IPC: 2.31884 (Simulation time: 0 hr 1 min 38 sec) 
Heartbeat CPU  0 instructions:   58000000 cycles:   25024793 heartbeat IPC: 2.25471 cumulative IPC: 2.31770 (Simulation time: 0 hr 1 min 39 sec) 
Heartbeat CPU  0 instructions:   59000003 cycles:   25468617 heartbeat IPC: 2.25315 cumulative IPC: 2.31658 (Simulation time: 0 hr 1 min 41 sec) 
Heartbeat CPU  0 instructions:   60000000 cycles:   25912934 heartbeat IPC: 2.25064 cumulative IPC: 2.31545 (Simulation time: 0 hr 1 min 43 sec) 
Heartbeat CPU  0 instructions:   61000000 cycles:   26357293 heartbeat IPC: 2.25043 cumulative IPC: 2.31435 (Simulation time: 0 hr 1 min 45 sec) 
Heartbeat CPU  0 instructions:   62000002 cycles:   26801682 heartbeat IPC: 2.25029 cumulative IPC: 2.31329 (Simulation time: 0 hr 1 min 46 sec) 
Heartbeat CPU  0 instructions:   63000003 cycles:   27246029 heartbeat IPC: 2.25050 cumulative IPC: 2.31226 (Simulation time: 0 hr 1 min 48 sec) 
Heartbeat CPU  0 instructions:   64000000 cycles:   27690424 heartbeat IPC: 2.25024 cumulative IPC: 2.31127 (Simulation time: 0 hr 1 min 50 sec) 
Heartbeat CPU  0 instructions:   65000003 cycles:   28134815 heartbeat IPC: 2.25028 cumulative IPC: 2.31030 (Simulation time: 0 hr 1 min 52 sec) 
Heartbeat CPU  0 instructions:   66000000 cycles:   28579185 heartbeat IPC: 2.25037 cumulative IPC: 2.30937 (Simulation time: 0 hr 1 min 54 sec) 
Heartbeat CPU  0 instructions:   67000001 cycles:   29023596 heartbeat IPC: 2.25017 cumulative IPC: 2.30847 (Simulation time: 0 hr 1 min 55 sec) 
Heartbeat CPU  0 instructions:   68000000 cycles:   29467929 heartbeat IPC: 2.25056 cumulative IPC: 2.30759 (Simulation time: 0 hr 1 min 57 sec) 
Heartbeat CPU  0 instructions:   69000003 cycles:   29912302 heartbeat IPC: 2.25037 cumulative IPC: 2.30674 (Simulation time: 0 hr 1 min 59 sec) 
Heartbeat CPU  0 instructions:   70000003 cycles:   30356645 heartbeat IPC: 2.25051 cumulative IPC: 2.30592 (Simulation time: 0 hr 2 min 1 sec) 
Heartbeat CPU  0 instructions:   71000003 cycles:   30800879 heartbeat IPC: 2.25107 cumulative IPC: 2.30513 (Simulation time: 0 hr 2 min 2 sec) 
Heartbeat CPU  0 instructions:   72000000 cycles:   31245090 heartbeat IPC: 2.25118 cumulative IPC: 2.30436 (Simulation time: 0 hr 2 min 4 sec) 
Heartbeat CPU  0 instructions:   73000001 cycles:   31689427 heartbeat IPC: 2.25055 cumulative IPC: 2.30361 (Simulation time: 0 hr 2 min 6 sec) 
Heartbeat CPU  0 instructions:   74000002 cycles:   32133762 heartbeat IPC: 2.25056 cumulative IPC: 2.30287 (Simulation time: 0 hr 2 min 8 sec) 
Heartbeat CPU  0 instructions:   75000003 cycles:   32578045 heartbeat IPC: 2.25082 cumulative IPC: 2.30216 (Simulation time: 0 hr 2 min 9 sec) 
Heartbeat CPU  0 instructions:   76000000 cycles:   33022376 heartbeat IPC: 2.25057 cumulative IPC: 2.30147 (Simulation time: 0 hr 2 min 11 sec) 
Heartbeat CPU  0 instructions:   77000003 cycles:   33466711 heartbeat IPC: 2.25056 cumulative IPC: 2.30079 (Simulation time: 0 hr 2 min 13 sec) 
Heartbeat CPU  0 instructions:   78000000 cycles:   33910995 heartbeat IPC: 2.25081 cumulative IPC: 2.30014 (Simulation time: 0 hr 2 min 15 sec) 
Heartbeat CPU  0 instructions:   79000001 cycles:   34355352 heartbeat IPC: 2.25045 cumulative IPC: 2.29950 (Simulation time: 0 hr 2 min 17 sec) 
Heartbeat CPU  0 instructions:   80000000 cycles:   34799640 heartbeat IPC: 2.25079 cumulative IPC: 2.29887 (Simulation time: 0 hr 2 min 18 sec) 
Heartbeat CPU  0 instructions:   81000001 cycles:   35244020 heartbeat IPC: 2.25033 cumulative IPC: 2.29826 (Simulation time: 0 hr 2 min 20 sec) 
Heartbeat CPU  0 instructions:   82000003 cycles:   35688256 heartbeat IPC: 2.25106 cumulative IPC: 2.29767 (Simulation time: 0 hr 2 min 22 sec) 
Heartbeat CPU  0 instructions:   83000003 cycles:   36132479 heartbeat IPC: 2.25112 cumulative IPC: 2.29710 (Simulation time: 0 hr 2 min 24 sec) 
Heartbeat CPU  0 instructions:   84000000 cycles:   36576693 heartbeat IPC: 2.25116 cumulative IPC: 2.29654 (Simulation time: 0 hr 2 min 25 sec) 
Heartbeat CPU  0 instructions:   85000003 cycles:   37020980 heartbeat IPC: 2.25080 cumulative IPC: 2.29600 (Simulation time: 0 hr 2 min 27 sec) 
Heartbeat CPU  0 instructions:   86000002 cycles:   37465165 heartbeat IPC: 2.25131 cumulative IPC: 2.29547 (Simulation time: 0 hr 2 min 29 sec) 
Heartbeat CPU  0 instructions:   87000002 cycles:   37909374 heartbeat IPC: 2.25119 cumulative IPC: 2.29495 (Simulation time: 0 hr 2 min 31 sec) 
Heartbeat CPU  0 instructions:   88000000 cycles:   38353604 heartbeat IPC: 2.25108 cumulative IPC: 2.29444 (Simulation time: 0 hr 2 min 32 sec) 
Heartbeat CPU  0 instructions:   89000001 cycles:   38797865 heartbeat IPC: 2.25093 cumulative IPC: 2.29394 (Simulation time: 0 hr 2 min 34 sec) 
Heartbeat CPU  0 instructions:   90000000 cycles:   39242081 heartbeat IPC: 2.25115 cumulative IPC: 2.29346 (Simulation time: 0 hr 2 min 36 sec) 
Heartbeat CPU  0 instructions:   91000001 cycles:   39686337 heartbeat IPC: 2.25096 cumulative IPC: 2.29298 (Simulation time: 0 hr 2 min 38 sec) 
Heartbeat CPU  0 instructions:   92000000 cycles:   40130519 heartbeat IPC: 2.25133 cumulative IPC: 2.29252 (Simulation time: 0 hr 2 min 40 sec) 
Heartbeat CPU  0 instructions:   93000001 cycles:   40574793 heartbeat IPC: 2.25087 cumulative IPC: 2.29206 (Simulation time: 0 hr 2 min 41 sec) 
Heartbeat CPU  0 instructions:   94000003 cycles:   41013437 heartbeat IPC: 2.27976 cumulative IPC: 2.29193 (Simulation time: 0 hr 2 min 43 sec) 
Heartbeat CPU  0 instructions:   95000001 cycles:   41443026 heartbeat IPC: 2.32780 cumulative IPC: 2.29230 (Simulation time: 0 hr 2 min 45 sec) 
Heartbeat CPU  0 instructions:   96000000 cycles:   41872560 heartbeat IPC: 2.32810 cumulative IPC: 2.29267 (Simulation time: 0 hr 2 min 47 sec) 
Heartbeat CPU  0 instructions:   97000001 cycles:   42302178 heartbeat IPC: 2.32765 cumulative IPC: 2.29303 (Simulation time: 0 hr 2 min 49 sec) 
Heartbeat CPU  0 instructions:   98000000 cycles:   42731732 heartbeat IPC: 2.32799 cumulative IPC: 2.29338 (Simulation time: 0 hr 2 min 51 sec) 
Heartbeat CPU  0 instructions:   99000003 cycles:   43161317 heartbeat IPC: 2.32784 cumulative IPC: 2.29372 (Simulation time: 0 hr 2 min 53 sec) 
Heartbeat CPU  0 instructions:  100000000 cycles:   43590891 heartbeat IPC: 2.32788 cumulative IPC: 2.29406 (Simulation time: 0 hr 2 min 55 sec) 

Warmup complete CPU  0 instructions:  100000001 cycles:   43590892 (Simulation time: 0 hr 2 min 55 sec) 

Heartbeat CPU  0 instructions:  101000002 cycles:   45141184 heartbeat IPC: 0.64504 cumulative IPC: 0.64504 (Simulation time: 0 hr 2 min 58 sec) 
Heartbeat CPU  0 instructions:  102000001 cycles:   46820969 heartbeat IPC: 0.59531 cumulative IPC: 0.61918 (Simulation time: 0 hr 3 min 1 sec) 
Heartbeat CPU  0 instructions:  103000002 cycles:   48610312 heartbeat IPC: 0.55886 cumulative IPC: 0.59768 (Simulation time: 0 hr 3 min 3 sec) 
Heartbeat CPU  0 instructions:  104000000 cycles:   50802317 heartbeat IPC: 0.45620 cumulative IPC: 0.55468 (Simulation time: 0 hr 3 min 6 sec) 
Heartbeat CPU  0 instructions:  105000002 cycles:   52910410 heartbeat IPC: 0.47436 cumulative IPC: 0.53651 (Simulation time: 0 hr 3 min 8 sec) 
Heartbeat CPU  0 instructions:  106000001 cycles:   54983930 heartbeat IPC: 0.48227 cumulative IPC: 0.52664 (Simulation time: 0 hr 3 min 11 sec) 
Heartbeat CPU  0 instructions:  107000002 cycles:   57056549 heartbeat IPC: 0.48248 cumulative IPC: 0.51984 (Simulation time: 0 hr 3 min 13 sec) 
Heartbeat CPU  0 instructions:  108000000 cycles:   59132244 heartbeat IPC: 0.48177 cumulative IPC: 0.51476 (Simulation time: 0 hr 3 min 16 sec) 
Heartbeat CPU  0 instructions:  109000000 cycles:   61191322 heartbeat IPC: 0.48565 cumulative IPC: 0.51135 (Simulation time: 0 hr 3 min 18 sec) 
Heartbeat CPU  0 instructions:  110000001 cycles:   63239328 heartbeat IPC: 0.48828 cumulative IPC: 0.50895 (Simulation time: 0 hr 3 min 21 sec) 
Heartbeat CPU  0 instructions:  111000000 cycles:   65312337 heartbeat IPC: 0.48239 cumulative IPC: 0.50641 (Simulation time: 0 hr 3 min 23 sec) 
Heartbeat CPU  0 instructions:  112000000 cycles:   67387826 heartbeat IPC: 0.48181 cumulative IPC: 0.50427 (Simulation time: 0 hr 3 min 26 sec) 
Heartbeat CPU  0 instructions:  113000000 cycles:   69461206 heartbeat IPC: 0.48230 cumulative IPC: 0.50251 (Simulation time: 0 hr 3 min 28 sec) 
Heartbeat CPU  0 instructions:  114000000 cycles:   71528894 heartbeat IPC: 0.48363 cumulative IPC: 0.50111 (Simulation time: 0 hr 3 min 31 sec) 
Heartbeat CPU  0 instructions:  115000001 cycles:   73597510 heartbeat IPC: 0.48342 cumulative IPC: 0.49989 (Simulation time: 0 hr 3 min 33 sec) 
Heartbeat CPU  0 instructions:  116000000 cycles:   75672313 heartbeat IPC: 0.48197 cumulative IPC: 0.49873 (Simulation time: 0 hr 3 min 36 sec) 
Heartbeat CPU  0 instructions:  117000003 cycles:   77746288 heartbeat IPC: 0.48217 cumulative IPC: 0.49773 (Simulation time: 0 hr 3 min 38 sec) 
Heartbeat CPU  0 instructions:  118000001 cycles:   79809909 heartbeat IPC: 0.48458 cumulative IPC: 0.49698 (Simulation time: 0 hr 3 min 41 sec) 
Heartbeat CPU  0 instructions:  119000000 cycles:   81868746 heartbeat IPC: 0.48571 cumulative IPC: 0.49637 (Simulation time: 0 hr 3 min 43 sec) 
Heartbeat CPU  0 instructions:  120000000 cycles:   83745977 heartbeat IPC: 0.53270 cumulative IPC: 0.49807 (Simulation time: 0 hr 3 min 46 sec) 
Heartbeat CPU  0 instructions:  121000003 cycles:   85599725 heartbeat IPC: 0.53945 cumulative IPC: 0.49989 (Simulation time: 0 hr 3 min 48 sec) 
Heartbeat CPU  0 instructions:  122000001 cycles:   87462517 heartbeat IPC: 0.53683 cumulative IPC: 0.50146 (Simulation time: 0 hr 3 min 50 sec) 
Heartbeat CPU  0 instructions:  123000001 cycles:   89319085 heartbeat IPC: 0.53863 cumulative IPC: 0.50297 (Simulation time: 0 hr 3 min 53 sec) 
Heartbeat CPU  0 instructions:  124000000 cycles:   91176236 heartbeat IPC: 0.53846 cumulative IPC: 0.50436 (Simulation time: 0 hr 3 min 55 sec) 
Heartbeat CPU  0 instructions:  125000003 cycles:   93029775 heartbeat IPC: 0.53951 cumulative IPC: 0.50567 (Simulation time: 0 hr 3 min 58 sec) 
Heartbeat CPU  0 instructions:  126000001 cycles:   94890674 heartbeat IPC: 0.53737 cumulative IPC: 0.50682 (Simulation time: 0 hr 4 min 0 sec) 
Heartbeat CPU  0 instructions:  127000003 cycles:   96679292 heartbeat IPC: 0.55909 cumulative IPC: 0.50859 (Simulation time: 0 hr 4 min 3 sec) 
Heartbeat CPU  0 instructions:  128000000 cycles:   98373898 heartbeat IPC: 0.59011 cumulative IPC: 0.51111 (Simulation time: 0 hr 4 min 5 sec) 
Heartbeat CPU  0 instructions:  129000001 cycles:  100198787 heartbeat IPC: 0.54798 cumulative IPC: 0.51230 (Simulation time: 0 hr 4 min 8 sec) 
Heartbeat CPU  0 instructions:  130000001 cycles:  102041687 heartbeat IPC: 0.54262 cumulative IPC: 0.51325 (Simulation time: 0 hr 4 min 10 sec) 
Heartbeat CPU  0 instructions:  131000000 cycles:  103878574 heartbeat IPC: 0.54440 cumulative IPC: 0.51420 (Simulation time: 0 hr 4 min 13 sec) 
Heartbeat CPU  0 instructions:  132000000 cycles:  105713849 heartbeat IPC: 0.54488 cumulative IPC: 0.51511 (Simulation time: 0 hr 4 min 15 sec) 
Heartbeat CPU  0 instructions:  133000001 cycles:  107538370 heartbeat IPC: 0.54809 cumulative IPC: 0.51605 (Simulation time: 0 hr 4 min 18 sec) 
Heartbeat CPU  0 instructions:  134000001 cycles:  109363312 heartbeat IPC: 0.54796 cumulative IPC: 0.51693 (Simulation time: 0 hr 4 min 20 sec) 
Heartbeat CPU  0 instructions:  135000003 cycles:  111193283 heartbeat IPC: 0.54646 cumulative IPC: 0.51773 (Simulation time: 0 hr 4 min 22 sec) 
Heartbeat CPU  0 instructions:  136000000 cycles:  113023197 heartbeat IPC: 0.54647 cumulative IPC: 0.51849 (Simulation time: 0 hr 4 min 25 sec) 
Heartbeat CPU  0 instructions:  137000003 cycles:  114845855 heartbeat IPC: 0.54865 cumulative IPC: 0.51926 (Simulation time: 0 hr 4 min 27 sec) 
Heartbeat CPU  0 instructions:  138000002 cycles:  116848993 heartbeat IPC: 0.49922 cumulative IPC: 0.51871 (Simulation time: 0 hr 4 min 30 sec) 
Heartbeat CPU  0 instructions:  139000003 cycles:  119126201 heartbeat IPC: 0.43913 cumulative IPC: 0.51631 (Simulation time: 0 hr 4 min 32 sec) 
Heartbeat CPU  0 instructions:  140000000 cycles:  121425612 heartbeat IPC: 0.43489 cumulative IPC: 0.51391 (Simulation time: 0 hr 4 min 35 sec) 
Heartbeat CPU  0 instructions:  141000003 cycles:  123726407 heartbeat IPC: 0.43463 cumulative IPC: 0.51163 (Simulation time: 0 hr 4 min 37 sec) 
Heartbeat CPU  0 instructions:  142000002 cycles:  126023954 heartbeat IPC: 0.43525 cumulative IPC: 0.50950 (Simulation time: 0 hr 4 min 40 sec) 
Heartbeat CPU  0 instructions:  143000002 cycles:  128339663 heartbeat IPC: 0.43183 cumulative IPC: 0.50738 (Simulation time: 0 hr 4 min 42 sec) 
Heartbeat CPU  0 instructions:  144000000 cycles:  130651775 heartbeat IPC: 0.43250 cumulative IPC: 0.50539 (Simulation time: 0 hr 4 min 45 sec) 
Heartbeat CPU  0 instructions:  145000003 cycles:  132941572 heartbeat IPC: 0.43672 cumulative IPC: 0.50363 (Simulation time: 0 hr 4 min 47 sec) 
Heartbeat CPU  0 instructions:  146000002 cycles:  135156101 heartbeat IPC: 0.45156 cumulative IPC: 0.50237 (Simulation time: 0 hr 4 min 50 sec) 
Heartbeat CPU  0 instructions:  147000000 cycles:  137367199 heartbeat IPC: 0.45226 cumulative IPC: 0.50119 (Simulation time: 0 hr 4 min 52 sec) 
Heartbeat CPU  0 instructions:  148000000 cycles:  139581946 heartbeat IPC: 0.45152 cumulative IPC: 0.50005 (Simulation time: 0 hr 4 min 55 sec) 
Heartbeat CPU  0 instructions:  149000003 cycles:  141792779 heartbeat IPC: 0.45232 cumulative IPC: 0.49897 (Simulation time: 0 hr 4 min 57 sec) 
Heartbeat CPU  0 instructions:  150000002 cycles:  143998632 heartbeat IPC: 0.45334 cumulative IPC: 0.49797 (Simulation time: 0 hr 5 min 0 sec) 
Heartbeat CPU  0 instructions:  151000002 cycles:  146170655 heartbeat IPC: 0.46040 cumulative IPC: 0.49717 (Simulation time: 0 hr 5 min 2 sec) 
Heartbeat CPU  0 instructions:  152000000 cycles:  148290609 heartbeat IPC: 0.47171 cumulative IPC: 0.49666 (Simulation time: 0 hr 5 min 5 sec) 
Heartbeat CPU  0 instructions:  153000003 cycles:  149470129 heartbeat IPC: 0.84781 cumulative IPC: 0.50057 (Simulation time: 0 hr 5 min 7 sec) 
Heartbeat CPU  0 instructions:  154000003 cycles:  150623363 heartbeat IPC: 0.86713 cumulative IPC: 0.50452 (Simulation time: 0 hr 5 min 9 sec) 
Heartbeat CPU  0 instructions:  155000002 cycles:  151774442 heartbeat IPC: 0.86875 cumulative IPC: 0.50840 (Simulation time: 0 hr 5 min 11 sec) 
Heartbeat CPU  0 instructions:  156000000 cycles:  152924452 heartbeat IPC: 0.86956 cumulative IPC: 0.51219 (Simulation time: 0 hr 5 min 13 sec) 
Heartbeat CPU  0 instructions:  157000000 cycles:  154074318 heartbeat IPC: 0.86967 cumulative IPC: 0.51591 (Simulation time: 0 hr 5 min 15 sec) 
Heartbeat CPU  0 instructions:  158000003 cycles:  155222884 heartbeat IPC: 0.87065 cumulative IPC: 0.51956 (Simulation time: 0 hr 5 min 18 sec) 
Heartbeat CPU  0 instructions:  159000001 cycles:  156370273 heartbeat IPC: 0.87154 cumulative IPC: 0.52315 (Simulation time: 0 hr 5 min 20 sec) 
Heartbeat CPU  0 instructions:  160000000 cycles:  157515610 heartbeat IPC: 0.87310 cumulative IPC: 0.52666 (Simulation time: 0 hr 5 min 22 sec) 
Heartbeat CPU  0 instructions:  161000001 cycles:  158664873 heartbeat IPC: 0.87012 cumulative IPC: 0.53009 (Simulation time: 0 hr 5 min 24 sec) 
Heartbeat CPU  0 instructions:  162000003 cycles:  159810463 heartbeat IPC: 0.87291 cumulative IPC: 0.53347 (Simulation time: 0 hr 5 min 26 sec) 
Heartbeat CPU  0 instructions:  163000001 cycles:  160957015 heartbeat IPC: 0.87218 cumulative IPC: 0.53678 (Simulation time: 0 hr 5 min 28 sec) 
Heartbeat CPU  0 instructions:  164000000 cycles:  162109377 heartbeat IPC: 0.86778 cumulative IPC: 0.54000 (Simulation time: 0 hr 5 min 31 sec) 
Heartbeat CPU  0 instructions:  165000001 cycles:  163265243 heartbeat IPC: 0.86515 cumulative IPC: 0.54314 (Simulation time: 0 hr 5 min 33 sec) 
Heartbeat CPU  0 instructions:  166000003 cycles:  164421327 heartbeat IPC: 0.86499 cumulative IPC: 0.54622 (Simulation time: 0 hr 5 min 35 sec) 
Heartbeat CPU  0 instructions:  167000001 cycles:  165574272 heartbeat IPC: 0.86734 cumulative IPC: 0.54926 (Simulation time: 0 hr 5 min 37 sec) 
Heartbeat CPU  0 instructions:  168000000 cycles:  166728928 heartbeat IPC: 0.86606 cumulative IPC: 0.55223 (Simulation time: 0 hr 5 min 39 sec) 
Heartbeat CPU  0 instructions:  169000001 cycles:  167886877 heartbeat IPC: 0.86360 cumulative IPC: 0.55513 (Simulation time: 0 hr 5 min 42 sec) 
Heartbeat CPU  0 instructions:  170000001 cycles:  169043825 heartbeat IPC: 0.86434 cumulative IPC: 0.55798 (Simulation time: 0 hr 5 min 44 sec) 
Heartbeat CPU  0 instructions:  171000001 cycles:  170201289 heartbeat IPC: 0.86396 cumulative IPC: 0.56078 (Simulation time: 0 hr 5 min 46 sec) 
Heartbeat CPU  0 instructions:  172000000 cycles:  171355513 heartbeat IPC: 0.86638 cumulative IPC: 0.56354 (Simulation time: 0 hr 5 min 48 sec) 
Heartbeat CPU  0 instructions:  173000001 cycles:  172510445 heartbeat IPC: 0.86585 cumulative IPC: 0.56624 (Simulation time: 0 hr 5 min 50 sec) 
Heartbeat CPU  0 instructions:  174000001 cycles:  173664263 heartbeat IPC: 0.86669 cumulative IPC: 0.56891 (Simulation time: 0 hr 5 min 53 sec) 
Heartbeat CPU  0 instructions:  175000000 cycles:  174822585 heartbeat IPC: 0.86332 cumulative IPC: 0.57151 (Simulation time: 0 hr 5 min 55 sec) 
Heartbeat CPU  0 instructions:  176000000 cycles:  175976442 heartbeat IPC: 0.86666 cumulative IPC: 0.57408 (Simulation time: 0 hr 5 min 57 sec) 
Heartbeat CPU  0 instructions:  177000003 cycles:  177129354 heartbeat IPC: 0.86737 cumulative IPC: 0.57661 (Simulation time: 0 hr 5 min 59 sec) 
Heartbeat CPU  0 instructions:  178000000 cycles:  178285585 heartbeat IPC: 0.86488 cumulative IPC: 0.57909 (Simulation time: 0 hr 6 min 1 sec) 
Heartbeat CPU  0 instructions:  179000003 cycles:  179439628 heartbeat IPC: 0.86652 cumulative IPC: 0.58153 (Simulation time: 0 hr 6 min 3 sec) 
Heartbeat CPU  0 instructions:  180000000 cycles:  180596484 heartbeat IPC: 0.86441 cumulative IPC: 0.58392 (Simulation time: 0 hr 6 min 6 sec) 
Heartbeat CPU  0 instructions:  181000003 cycles:  181828236 heartbeat IPC: 0.81185 cumulative IPC: 0.58595 (Simulation time: 0 hr 6 min 8 sec) 
Heartbeat CPU  0 instructions:  182000002 cycles:  183107533 heartbeat IPC: 0.78168 cumulative IPC: 0.58774 (Simulation time: 0 hr 6 min 10 sec) 
Heartbeat CPU  0 instructions:  183000001 cycles:  184380443 heartbeat IPC: 0.78560 cumulative IPC: 0.58953 (Simulation time: 0 hr 6 min 12 sec) 
Heartbeat CPU  0 instructions:  184000000 cycles:  185652544 heartbeat IPC: 0.78610 cumulative IPC: 0.59129 (Simulation time: 0 hr 6 min 15 sec) 
Heartbeat CPU  0 instructions:  185000003 cycles:  186935743 heartbeat IPC: 0.77930 cumulative IPC: 0.59298 (Simulation time: 0 hr 6 min 17 sec) 
Heartbeat CPU  0 instructions:  186000003 cycles:  188218680 heartbeat IPC: 0.77946 cumulative IPC: 0.59463 (Simulation time: 0 hr 6 min 19 sec) 
Heartbeat CPU  0 instructions:  187000003 cycles:  189490075 heartbeat IPC: 0.78654 cumulative IPC: 0.59630 (Simulation time: 0 hr 6 min 21 sec) 
Heartbeat CPU  0 instructions:  188000000 cycles:  190729922 heartbeat IPC: 0.80655 cumulative IPC: 0.59807 (Simulation time: 0 hr 6 min 24 sec) 
Heartbeat CPU  0 instructions:  189000001 cycles:  191888798 heartbeat IPC: 0.86291 cumulative IPC: 0.60014 (Simulation time: 0 hr 6 min 26 sec) 
Heartbeat CPU  0 instructions:  190000002 cycles:  193117775 heartbeat IPC: 0.81369 cumulative IPC: 0.60190 (Simulation time: 0 hr 6 min 28 sec) 
Heartbeat CPU  0 instructions:  191000002 cycles:  194401011 heartbeat IPC: 0.77928 cumulative IPC: 0.60341 (Simulation time: 0 hr 6 min 30 sec) 
Heartbeat CPU  0 instructions:  192000000 cycles:  195676563 heartbeat IPC: 0.78397 cumulative IPC: 0.60492 (Simulation time: 0 hr 6 min 32 sec) 
Heartbeat CPU  0 instructions:  193000001 cycles:  196957568 heartbeat IPC: 0.78064 cumulative IPC: 0.60639 (Simulation time: 0 hr 6 min 35 sec) 
Heartbeat CPU  0 instructions:  194000001 cycles:  198241710 heartbeat IPC: 0.77873 cumulative IPC: 0.60782 (Simulation time: 0 hr 6 min 37 sec) 
Heartbeat CPU  0 instructions:  195000003 cycles:  199516702 heartbeat IPC: 0.78432 cumulative IPC: 0.60926 (Simulation time: 0 hr 6 min 39 sec) 
Heartbeat CPU  0 instructions:  196000000 cycles:  200793497 heartbeat IPC: 0.78321 cumulative IPC: 0.61068 (Simulation time: 0 hr 6 min 41 sec) 
Heartbeat CPU  0 instructions:  197000002 cycles:  202072618 heartbeat IPC: 0.78179 cumulative IPC: 0.61206 (Simulation time: 0 hr 6 min 44 sec) 
Heartbeat CPU  0 instructions:  198000000 cycles:  203362082 heartbeat IPC: 0.77551 cumulative IPC: 0.61338 (Simulation time: 0 hr 6 min 46 sec) 
Heartbeat CPU  0 instructions:  199000003 cycles:  204604626 heartbeat IPC: 0.80480 cumulative IPC: 0.61485 (Simulation time: 0 hr 6 min 48 sec) 
Heartbeat CPU  0 instructions:  200000000 cycles:  205858938 heartbeat IPC: 0.79725 cumulative IPC: 0.61626 (Simulation time: 0 hr 6 min 50 sec) 
Heartbeat CPU  0 instructions:  201000001 cycles:  207022943 heartbeat IPC: 0.85910 cumulative IPC: 0.61799 (Simulation time: 0 hr 6 min 52 sec) 
Heartbeat CPU  0 instructions:  202000002 cycles:  208175456 heartbeat IPC: 0.86767 cumulative IPC: 0.61974 (Simulation time: 0 hr 6 min 55 sec) 
Heartbeat CPU  0 instructions:  203000000 cycles:  209327581 heartbeat IPC: 0.86796 cumulative IPC: 0.62147 (Simulation time: 0 hr 6 min 57 sec) 
Heartbeat CPU  0 instructions:  204000000 cycles:  210482737 heartbeat IPC: 0.86568 cumulative IPC: 0.62316 (Simulation time: 0 hr 6 min 59 sec) 
Heartbeat CPU  0 instructions:  205000001 cycles:  211634219 heartbeat IPC: 0.86845 cumulative IPC: 0.62484 (Simulation time: 0 hr 7 min 1 sec) 
Heartbeat CPU  0 instructions:  206000001 cycles:  212786054 heartbeat IPC: 0.86818 cumulative IPC: 0.62650 (Simulation time: 0 hr 7 min 3 sec) 
Heartbeat CPU  0 instructions:  207000003 cycles:  213939487 heartbeat IPC: 0.86698 cumulative IPC: 0.62812 (Simulation time: 0 hr 7 min 6 sec) 
Heartbeat CPU  0 instructions:  208000000 cycles:  215093897 heartbeat IPC: 0.86624 cumulative IPC: 0.62973 (Simulation time: 0 hr 7 min 8 sec) 
Heartbeat CPU  0 instructions:  209000000 cycles:  216233467 heartbeat IPC: 0.87752 cumulative IPC: 0.63136 (Simulation time: 0 hr 7 min 10 sec) 
Heartbeat CPU  0 instructions:  210000002 cycles:  217338010 heartbeat IPC: 0.90535 cumulative IPC: 0.63310 (Simulation time: 0 hr 7 min 12 sec) 
Heartbeat CPU  0 instructions:  211000003 cycles:  218443289 heartbeat IPC: 0.90475 cumulative IPC: 0.63482 (Simulation time: 0 hr 7 min 14 sec) 
Heartbeat CPU  0 instructions:  212000000 cycles:  219545949 heartbeat IPC: 0.90690 cumulative IPC: 0.63653 (Simulation time: 0 hr 7 min 16 sec) 
Heartbeat CPU  0 instructions:  213000003 cycles:  220650892 heartbeat IPC: 0.90503 cumulative IPC: 0.63820 (Simulation time: 0 hr 7 min 19 sec) 
Heartbeat CPU  0 instructions:  214000000 cycles:  221757547 heartbeat IPC: 0.90362 cumulative IPC: 0.63985 (Simulation time: 0 hr 7 min 21 sec) 
Heartbeat CPU  0 instructions:  215000001 cycles:  222861219 heartbeat IPC: 0.90607 cumulative IPC: 0.64149 (Simulation time: 0 hr 7 min 23 sec) 
Heartbeat CPU  0 instructions:  216000000 cycles:  223964767 heartbeat IPC: 0.90617 cumulative IPC: 0.64311 (Simulation time: 0 hr 7 min 25 sec) 
Heartbeat CPU  0 instructions:  217000001 cycles:  225067798 heartbeat IPC: 0.90659 cumulative IPC: 0.64471 (Simulation time: 0 hr 7 min 27 sec) 
Heartbeat CPU  0 instructions:  218000002 cycles:  226174617 heartbeat IPC: 0.90349 cumulative IPC: 0.64628 (Simulation time: 0 hr 7 min 29 sec) 
Heartbeat CPU  0 instructions:  219000001 cycles:  227280173 heartbeat IPC: 0.90452 cumulative IPC: 0.64783 (Simulation time: 0 hr 7 min 31 sec) 
Heartbeat CPU  0 instructions:  220000000 cycles:  228384392 heartbeat IPC: 0.90562 cumulative IPC: 0.64937 (Simulation time: 0 hr 7 min 34 sec) 
Heartbeat CPU  0 instructions:  221000000 cycles:  229487676 heartbeat IPC: 0.90638 cumulative IPC: 0.65090 (Simulation time: 0 hr 7 min 36 sec) 
Heartbeat CPU  0 instructions:  222000001 cycles:  230868838 heartbeat IPC: 0.72403 cumulative IPC: 0.65144 (Simulation time: 0 hr 7 min 38 sec) 
Heartbeat CPU  0 instructions:  223000000 cycles:  233933681 heartbeat IPC: 0.32628 cumulative IPC: 0.64620 (Simulation time: 0 hr 7 min 43 sec) 
Heartbeat CPU  0 instructions:  224000000 cycles:  236349198 heartbeat IPC: 0.41399 cumulative IPC: 0.64329 (Simulation time: 0 hr 7 min 45 sec) 
Heartbeat CPU  0 instructions:  225000002 cycles:  238641064 heartbeat IPC: 0.43633 cumulative IPC: 0.64086 (Simulation time: 0 hr 7 min 48 sec) 
Heartbeat CPU  0 instructions:  226000001 cycles:  240940493 heartbeat IPC: 0.43489 cumulative IPC: 0.63846 (Simulation time: 0 hr 7 min 50 sec) 
Heartbeat CPU  0 instructions:  227000000 cycles:  243226717 heartbeat IPC: 0.43740 cumulative IPC: 0.63616 (Simulation time: 0 hr 7 min 53 sec) 
Heartbeat CPU  0 instructions:  228000000 cycles:  245508417 heartbeat IPC: 0.43827 cumulative IPC: 0.63392 (Simulation time: 0 hr 7 min 56 sec) 
Heartbeat CPU  0 instructions:  229000002 cycles:  247750700 heartbeat IPC: 0.44597 cumulative IPC: 0.63186 (Simulation time: 0 hr 7 min 58 sec) 
Heartbeat CPU  0 instructions:  230000000 cycles:  249960237 heartbeat IPC: 0.45258 cumulative IPC: 0.62994 (Simulation time: 0 hr 8 min 1 sec) 
Heartbeat CPU  0 instructions:  231000000 cycles:  252179621 heartbeat IPC: 0.45058 cumulative IPC: 0.62803 (Simulation time: 0 hr 8 min 3 sec) 
Heartbeat CPU  0 instructions:  232000000 cycles:  254408663 heartbeat IPC: 0.44862 cumulative IPC: 0.62613 (Simulation time: 0 hr 8 min 6 sec) 
Heartbeat CPU  0 instructions:  233000002 cycles:  256636142 heartbeat IPC: 0.44894 cumulative IPC: 0.62428 (Simulation time: 0 hr 8 min 8 sec) 
Heartbeat CPU  0 instructions:  234000001 cycles:  258841816 heartbeat IPC: 0.45338 cumulative IPC: 0.62253 (Simulation time: 0 hr 8 min 11 sec) 
Heartbeat CPU  0 instructions:  235000000 cycles:  261047873 heartbeat IPC: 0.45330 cumulative IPC: 0.62081 (Simulation time: 0 hr 8 min 13 sec) 
Heartbeat CPU  0 instructions:  236000000 cycles:  263255131 heartbeat IPC: 0.45305 cumulative IPC: 0.61913 (Simulation time: 0 hr 8 min 16 sec) 
Heartbeat CPU  0 instructions:  237000002 cycles:  265464891 heartbeat IPC: 0.45254 cumulative IPC: 0.61747 (Simulation time: 0 hr 8 min 18 sec) 
Heartbeat CPU  0 instructions:  238000001 cycles:  267690013 heartbeat IPC: 0.44941 cumulative IPC: 0.61580 (Simulation time: 0 hr 8 min 21 sec) 
Heartbeat CPU  0 instructions:  239000000 cycles:  269892284 heartbeat IPC: 0.45408 cumulative IPC: 0.61423 (Simulation time: 0 hr 8 min 23 sec) 
Heartbeat CPU  0 instructions:  240000000 cycles:  272101658 heartbeat IPC: 0.45262 cumulative IPC: 0.61266 (Simulation time: 0 hr 8 min 26 sec) 
Heartbeat CPU  0 instructions:  241000002 cycles:  274308680 heartbeat IPC: 0.45310 cumulative IPC: 0.61114 (Simulation time: 0 hr 8 min 28 sec) 
Heartbeat CPU  0 instructions:  242000001 cycles:  276513514 heartbeat IPC: 0.45355 cumulative IPC: 0.60964 (Simulation time: 0 hr 8 min 31 sec) 
Heartbeat CPU  0 instructions:  243000000 cycles:  278715331 heartbeat IPC: 0.45417 cumulative IPC: 0.60819 (Simulation time: 0 hr 8 min 33 sec) 
Heartbeat CPU  0 instructions:  244000000 cycles:  280925528 heartbeat IPC: 0.45245 cumulative IPC: 0.60674 (Simulation time: 0 hr 8 min 36 sec) 
Heartbeat CPU  0 instructions:  245000002 cycles:  283128700 heartbeat IPC: 0.45389 cumulative IPC: 0.60533 (Simulation time: 0 hr 8 min 38 sec) 
Heartbeat CPU  0 instructions:  246000000 cycles:  285283458 heartbeat IPC: 0.46409 cumulative IPC: 0.60407 (Simulation time: 0 hr 8 min 41 sec) 
Heartbeat CPU  0 instructions:  247000000 cycles:  286981669 heartbeat IPC: 0.58885 cumulative IPC: 0.60397 (Simulation time: 0 hr 8 min 43 sec) 
Heartbeat CPU  0 instructions:  248000000 cycles:  289182766 heartbeat IPC: 0.45432 cumulative IPC: 0.60263 (Simulation time: 0 hr 8 min 47 sec) 
Heartbeat CPU  0 instructions:  249000003 cycles:  292093352 heartbeat IPC: 0.34357 cumulative IPC: 0.59959 (Simulation time: 0 hr 8 min 51 sec) 
Heartbeat CPU  0 instructions:  250000000 cycles:  294977600 heartbeat IPC: 0.34671 cumulative IPC: 0.59669 (Simulation time: 0 hr 8 min 54 sec) 
Heartbeat CPU  0 instructions:  251000000 cycles:  297489778 heartbeat IPC: 0.39806 cumulative IPC: 0.59472 (Simulation time: 0 hr 8 min 58 sec) 
Heartbeat CPU  0 instructions:  252000000 cycles:  299183075 heartbeat IPC: 0.59056 cumulative IPC: 0.59470 (Simulation time: 0 hr 9 min 1 sec) 
Heartbeat CPU  0 instructions:  253000001 cycles:  301224524 heartbeat IPC: 0.48985 cumulative IPC: 0.59387 (Simulation time: 0 hr 9 min 3 sec) 
Heartbeat CPU  0 instructions:  254000000 cycles:  303423374 heartbeat IPC: 0.45478 cumulative IPC: 0.59269 (Simulation time: 0 hr 9 min 6 sec) 
Heartbeat CPU  0 instructions:  255000002 cycles:  305617502 heartbeat IPC: 0.45576 cumulative IPC: 0.59154 (Simulation time: 0 hr 9 min 8 sec) 
Heartbeat CPU  0 instructions:  256000000 cycles:  307876557 heartbeat IPC: 0.44266 cumulative IPC: 0.59027 (Simulation time: 0 hr 9 min 11 sec) 
Heartbeat CPU  0 instructions:  257000000 cycles:  310161278 heartbeat IPC: 0.43769 cumulative IPC: 0.58896 (Simulation time: 0 hr 9 min 13 sec) 
Heartbeat CPU  0 instructions:  258000001 cycles:  312386008 heartbeat IPC: 0.44949 cumulative IPC: 0.58781 (Simulation time: 0 hr 9 min 16 sec) 
Heartbeat CPU  0 instructions:  259000003 cycles:  314648039 heartbeat IPC: 0.44208 cumulative IPC: 0.58659 (Simulation time: 0 hr 9 min 18 sec) 
Heartbeat CPU  0 instructions:  260000000 cycles:  316924292 heartbeat IPC: 0.43932 cumulative IPC: 0.58537 (Simulation time: 0 hr 9 min 21 sec) 
Heartbeat CPU  0 instructions:  261000002 cycles:  319129871 heartbeat IPC: 0.45340 cumulative IPC: 0.58431 (Simulation time: 0 hr 9 min 23 sec) 
Heartbeat CPU  0 instructions:  262000000 cycles:  321333251 heartbeat IPC: 0.45385 cumulative IPC: 0.58327 (Simulation time: 0 hr 9 min 26 sec) 
Heartbeat CPU  0 instructions:  263000000 cycles:  323512440 heartbeat IPC: 0.45889 cumulative IPC: 0.58231 (Simulation time: 0 hr 9 min 28 sec) 
Heartbeat CPU  0 instructions:  264000000 cycles:  325646433 heartbeat IPC: 0.46861 cumulative IPC: 0.58145 (Simulation time: 0 hr 9 min 31 sec) 
Heartbeat CPU  0 instructions:  265000002 cycles:  327797772 heartbeat IPC: 0.46483 cumulative IPC: 0.58056 (Simulation time: 0 hr 9 min 33 sec) 
Heartbeat CPU  0 instructions:  266000000 cycles:  330017924 heartbeat IPC: 0.45042 cumulative IPC: 0.57955 (Simulation time: 0 hr 9 min 36 sec) 
Heartbeat CPU  0 instructions:  267000001 cycles:  332227071 heartbeat IPC: 0.45266 cumulative IPC: 0.57858 (Simulation time: 0 hr 9 min 38 sec) 
Heartbeat CPU  0 instructions:  268000000 cycles:  334410233 heartbeat IPC: 0.45805 cumulative IPC: 0.57768 (Simulation time: 0 hr 9 min 40 sec) 
Heartbeat CPU  0 instructions:  269000002 cycles:  336592363 heartbeat IPC: 0.45827 cumulative IPC: 0.57679 (Simulation time: 0 hr 9 min 43 sec) 
Heartbeat CPU  0 instructions:  270000003 cycles:  338742088 heartbeat IPC: 0.46518 cumulative IPC: 0.57598 (Simulation time: 0 hr 9 min 45 sec) 
Heartbeat CPU  0 instructions:  271000001 cycles:  340908004 heartbeat IPC: 0.46170 cumulative IPC: 0.57514 (Simulation time: 0 hr 9 min 48 sec) 
Heartbeat CPU  0 instructions:  272000000 cycles:  343152387 heartbeat IPC: 0.44556 cumulative IPC: 0.57417 (Simulation time: 0 hr 9 min 50 sec) 
Heartbeat CPU  0 instructions:  273000002 cycles:  345368772 heartbeat IPC: 0.45119 cumulative IPC: 0.57327 (Simulation time: 0 hr 9 min 53 sec) 
Heartbeat CPU  0 instructions:  274000000 cycles:  347580469 heartbeat IPC: 0.45214 cumulative IPC: 0.57239 (Simulation time: 0 hr 9 min 55 sec) 
Heartbeat CPU  0 instructions:  275000002 cycles:  349828984 heartbeat IPC: 0.44474 cumulative IPC: 0.57145 (Simulation time: 0 hr 9 min 58 sec) 
Heartbeat CPU  0 instructions:  276000000 cycles:  352108255 heartbeat IPC: 0.43874 cumulative IPC: 0.57047 (Simulation time: 0 hr 10 min 0 sec) 
Heartbeat CPU  0 instructions:  277000002 cycles:  353413941 heartbeat IPC: 0.76588 cumulative IPC: 0.57129 (Simulation time: 0 hr 10 min 2 sec) 
Heartbeat CPU  0 instructions:  278000000 cycles:  354536690 heartbeat IPC: 0.89067 cumulative IPC: 0.57245 (Simulation time: 0 hr 10 min 5 sec) 
Heartbeat CPU  0 instructions:  279000003 cycles:  355660694 heartbeat IPC: 0.88968 cumulative IPC: 0.57359 (Simulation time: 0 hr 10 min 7 sec) 
Heartbeat CPU  0 instructions:  280000000 cycles:  356783696 heartbeat IPC: 0.89047 cumulative IPC: 0.57473 (Simulation time: 0 hr 10 min 9 sec) 
Heartbeat CPU  0 instructions:  281000001 cycles:  357902425 heartbeat IPC: 0.89387 cumulative IPC: 0.57586 (Simulation time: 0 hr 10 min 11 sec) 
Heartbeat CPU  0 instructions:  282000003 cycles:  359017990 heartbeat IPC: 0.89641 cumulative IPC: 0.57700 (Simulation time: 0 hr 10 min 13 sec) 
Heartbeat CPU  0 instructions:  283000001 cycles:  360133302 heartbeat IPC: 0.89661 cumulative IPC: 0.57812 (Simulation time: 0 hr 10 min 16 sec) 
Heartbeat CPU  0 instructions:  284000000 cycles:  361245408 heartbeat IPC: 0.89919 cumulative IPC: 0.57925 (Simulation time: 0 hr 10 min 18 sec) 
Heartbeat CPU  0 instructions:  285000001 cycles:  362361512 heartbeat IPC: 0.89597 cumulative IPC: 0.58035 (Simulation time: 0 hr 10 min 20 sec) 
Heartbeat CPU  0 instructions:  286000001 cycles:  363476835 heartbeat IPC: 0.89660 cumulative IPC: 0.58146 (Simulation time: 0 hr 10 min 22 sec) 
Heartbeat CPU  0 instructions:  287000001 cycles:  364590193 heartbeat IPC: 0.89818 cumulative IPC: 0.58256 (Simulation time: 0 hr 10 min 24 sec) 
Heartbeat CPU  0 instructions:  288000000 cycles:  365706945 heartbeat IPC: 0.89545 cumulative IPC: 0.58364 (Simulation time: 0 hr 10 min 26 sec) 
Heartbeat CPU  0 instructions:  289000001 cycles:  366821402 heartbeat IPC: 0.89730 cumulative IPC: 0.58472 (Simulation time: 0 hr 10 min 29 sec) 
Heartbeat CPU  0 instructions:  290000001 cycles:  367938159 heartbeat IPC: 0.89545 cumulative IPC: 0.58579 (Simulation time: 0 hr 10 min 31 sec) 
Heartbeat CPU  0 instructions:  291000003 cycles:  369052468 heartbeat IPC: 0.89742 cumulative IPC: 0.58686 (Simulation time: 0 hr 10 min 33 sec) 
Heartbeat CPU  0 instructions:  292000000 cycles:  370169520 heartbeat IPC: 0.89521 cumulative IPC: 0.58791 (Simulation time: 0 hr 10 min 35 sec) 
Heartbeat CPU  0 instructions:  293000003 cycles:  371284205 heartbeat IPC: 0.89712 cumulative IPC: 0.58897 (Simulation time: 0 hr 10 min 37 sec) 
Heartbeat CPU  0 instructions:  294000000 cycles:  372398602 heartbeat IPC: 0.89734 cumulative IPC: 0.59001 (Simulation time: 0 hr 10 min 39 sec) 
Heartbeat CPU  0 instructions:  295000003 cycles:  373513347 heartbeat IPC: 0.89707 cumulative IPC: 0.59105 (Simulation time: 0 hr 10 min 42 sec) 
Heartbeat CPU  0 instructions:  296000000 cycles:  374628935 heartbeat IPC: 0.89639 cumulative IPC: 0.59208 (Simulation time: 0 hr 10 min 44 sec) 
Heartbeat CPU  0 instructions:  297000003 cycles:  375744304 heartbeat IPC: 0.89657 cumulative IPC: 0.59310 (Simulation time: 0 hr 10 min 46 sec) 
Heartbeat CPU  0 instructions:  298000000 cycles:  376858947 heartbeat IPC: 0.89715 cumulative IPC: 0.59412 (Simulation time: 0 hr 10 min 48 sec) 
Heartbeat CPU  0 instructions:  299000001 cycles:  377972393 heartbeat IPC: 0.89811 cumulative IPC: 0.59513 (Simulation time: 0 hr 10 min 50 sec) 
Heartbeat CPU  0 instructions:  300000000 cycles:  379084063 heartbeat IPC: 0.89955 cumulative IPC: 0.59614 (Simulation time: 0 hr 10 min 52 sec) 
Heartbeat CPU  0 instructions:  301000003 cycles:  380196745 heartbeat IPC: 0.89873 cumulative IPC: 0.59714 (Simulation time: 0 hr 10 min 55 sec) 
Heartbeat CPU  0 instructions:  302000001 cycles:  381309294 heartbeat IPC: 0.89884 cumulative IPC: 0.59813 (Simulation time: 0 hr 10 min 57 sec) 
Heartbeat CPU  0 instructions:  303000001 cycles:  382424624 heartbeat IPC: 0.89660 cumulative IPC: 0.59911 (Simulation time: 0 hr 10 min 59 sec) 
Heartbeat CPU  0 instructions:  304000000 cycles:  383593993 heartbeat IPC: 0.85516 cumulative IPC: 0.59999 (Simulation time: 0 hr 11 min 1 sec) 
Heartbeat CPU  0 instructions:  305000000 cycles:  384840411 heartbeat IPC: 0.80230 cumulative IPC: 0.60073 (Simulation time: 0 hr 11 min 3 sec) 
Heartbeat CPU  0 instructions:  306000003 cycles:  386090416 heartbeat IPC: 0.80000 cumulative IPC: 0.60146 (Simulation time: 0 hr 11 min 6 sec) 
Heartbeat CPU  0 instructions:  307000003 cycles:  387328140 heartbeat IPC: 0.80793 cumulative IPC: 0.60220 (Simulation time: 0 hr 11 min 8 sec) 
Heartbeat CPU  0 instructions:  308000000 cycles:  388576424 heartbeat IPC: 0.80110 cumulative IPC: 0.60292 (Simulation time: 0 hr 11 min 10 sec) 
Heartbeat CPU  0 instructions:  309000003 cycles:  389816066 heartbeat IPC: 0.80669 cumulative IPC: 0.60365 (Simulation time: 0 hr 11 min 12 sec) 
Heartbeat CPU  0 instructions:  310000003 cycles:  391050206 heartbeat IPC: 0.81028 cumulative IPC: 0.60439 (Simulation time: 0 hr 11 min 14 sec) 
Heartbeat CPU  0 instructions:  311000002 cycles:  392291886 heartbeat IPC: 0.80536 cumulative IPC: 0.60510 (Simulation time: 0 hr 11 min 17 sec) 
Heartbeat CPU  0 instructions:  312000000 cycles:  393534891 heartbeat IPC: 0.80450 cumulative IPC: 0.60581 (Simulation time: 0 hr 11 min 19 sec) 
Heartbeat CPU  0 instructions:  313000002 cycles:  394781787 heartbeat IPC: 0.80199 cumulative IPC: 0.60651 (Simulation time: 0 hr 11 min 21 sec) 
Heartbeat CPU  0 instructions:  314000002 cycles:  396047879 heartbeat IPC: 0.78983 cumulative IPC: 0.60717 (Simulation time: 0 hr 11 min 23 sec) 
Heartbeat CPU  0 instructions:  315000002 cycles:  397320591 heartbeat IPC: 0.78572 cumulative IPC: 0.60781 (Simulation time: 0 hr 11 min 26 sec) 
Heartbeat CPU  0 instructions:  316000000 cycles:  398578743 heartbeat IPC: 0.79481 cumulative IPC: 0.60847 (Simulation time: 0 hr 11 min 28 sec) 
Heartbeat CPU  0 instructions:  317000002 cycles:  399843593 heartbeat IPC: 0.79061 cumulative IPC: 0.60912 (Simulation time: 0 hr 11 min 30 sec) 
Heartbeat CPU  0 instructions:  318000003 cycles:  401115282 heartbeat IPC: 0.78636 cumulative IPC: 0.60975 (Simulation time: 0 hr 11 min 32 sec) 
Heartbeat CPU  0 instructions:  319000002 cycles:  402382786 heartbeat IPC: 0.78895 cumulative IPC: 0.61038 (Simulation time: 0 hr 11 min 35 sec) 
Heartbeat CPU  0 instructions:  320000000 cycles:  403641072 heartbeat IPC: 0.79473 cumulative IPC: 0.61103 (Simulation time: 0 hr 11 min 37 sec) 
Heartbeat CPU  0 instructions:  321000000 cycles:  404904730 heartbeat IPC: 0.79135 cumulative IPC: 0.61166 (Simulation time: 0 hr 11 min 39 sec) 
Heartbeat CPU  0 instructions:  322000002 cycles:  406145643 heartbeat IPC: 0.80586 cumulative IPC: 0.61232 (Simulation time: 0 hr 11 min 41 sec) 
Heartbeat CPU  0 instructions:  323000001 cycles:  407367319 heartbeat IPC: 0.81855 cumulative IPC: 0.61301 (Simulation time: 0 hr 11 min 43 sec) 
Heartbeat CPU  0 instructions:  324000000 cycles:  408515508 heartbeat IPC: 0.87094 cumulative IPC: 0.61383 (Simulation time: 0 hr 11 min 46 sec) 
Heartbeat CPU  0 instructions:  325000002 cycles:  409666122 heartbeat IPC: 0.86910 cumulative IPC: 0.61463 (Simulation time: 0 hr 11 min 48 sec) 
Heartbeat CPU  0 instructions:  326000002 cycles:  410813246 heartbeat IPC: 0.87175 cumulative IPC: 0.61543 (Simulation time: 0 hr 11 min 50 sec) 
Heartbeat CPU  0 instructions:  327000002 cycles:  411958926 heartbeat IPC: 0.87284 cumulative IPC: 0.61623 (Simulation time: 0 hr 11 min 52 sec) 
Heartbeat CPU  0 instructions:  328000000 cycles:  413110181 heartbeat IPC: 0.86862 cumulative IPC: 0.61702 (Simulation time: 0 hr 11 min 54 sec) 
Heartbeat CPU  0 instructions:  329000002 cycles:  414265063 heartbeat IPC: 0.86589 cumulative IPC: 0.61779 (Simulation time: 0 hr 11 min 57 sec) 
Heartbeat CPU  0 instructions:  330000003 cycles:  415416404 heartbeat IPC: 0.86855 cumulative IPC: 0.61857 (Simulation time: 0 hr 11 min 59 sec) 
Heartbeat CPU  0 instructions:  331000001 cycles:  416569615 heartbeat IPC: 0.86714 cumulative IPC: 0.61934 (Simulation time: 0 hr 12 min 1 sec) 
Heartbeat CPU  0 instructions:  332000000 cycles:  417724962 heartbeat IPC: 0.86554 cumulative IPC: 0.62010 (Simulation time: 0 hr 12 min 3 sec) 
Heartbeat CPU  0 instructions:  333000000 cycles:  418875586 heartbeat IPC: 0.86909 cumulative IPC: 0.62086 (Simulation time: 0 hr 12 min 5 sec) 
Heartbeat CPU  0 instructions:  334000002 cycles:  420025410 heartbeat IPC: 0.86970 cumulative IPC: 0.62162 (Simulation time: 0 hr 12 min 8 sec) 
Heartbeat CPU  0 instructions:  335000001 cycles:  421176965 heartbeat IPC: 0.86839 cumulative IPC: 0.62237 (Simulation time: 0 hr 12 min 10 sec) 
Heartbeat CPU  0 instructions:  336000000 cycles:  422329640 heartbeat IPC: 0.86755 cumulative IPC: 0.62312 (Simulation time: 0 hr 12 min 12 sec) 
Heartbeat CPU  0 instructions:  337000003 cycles:  423480515 heartbeat IPC: 0.86891 cumulative IPC: 0.62387 (Simulation time: 0 hr 12 min 14 sec) 
Heartbeat CPU  0 instructions:  338000000 cycles:  424632938 heartbeat IPC: 0.86773 cumulative IPC: 0.62460 (Simulation time: 0 hr 12 min 16 sec) 
Heartbeat CPU  0 instructions:  339000002 cycles:  425781080 heartbeat IPC: 0.87097 cumulative IPC: 0.62534 (Simulation time: 0 hr 12 min 19 sec) 
Heartbeat CPU  0 instructions:  340000000 cycles:  426927586 heartbeat IPC: 0.87221 cumulative IPC: 0.62608 (Simulation time: 0 hr 12 min 21 sec) 
Heartbeat CPU  0 instructions:  341000003 cycles:  428076578 heartbeat IPC: 0.87033 cumulative IPC: 0.62681 (Simulation time: 0 hr 12 min 23 sec) 
Heartbeat CPU  0 instructions:  342000003 cycles:  429229159 heartbeat IPC: 0.86762 cumulative IPC: 0.62753 (Simulation time: 0 hr 12 min 25 sec) 
Heartbeat CPU  0 instructions:  343000001 cycles:  430377483 heartbeat IPC: 0.87083 cumulative IPC: 0.62825 (Simulation time: 0 hr 12 min 27 sec) 
Heartbeat CPU  0 instructions:  344000000 cycles:  431527505 heartbeat IPC: 0.86955 cumulative IPC: 0.62897 (Simulation time: 0 hr 12 min 29 sec) 
Heartbeat CPU  0 instructions:  345000002 cycles:  432679542 heartbeat IPC: 0.86803 cumulative IPC: 0.62968 (Simulation time: 0 hr 12 min 32 sec) 
Heartbeat CPU  0 instructions:  346000001 cycles:  433937672 heartbeat IPC: 0.79483 cumulative IPC: 0.63021 (Simulation time: 0 hr 12 min 34 sec) 
Heartbeat CPU  0 instructions:  347000000 cycles:  435619200 heartbeat IPC: 0.59470 cumulative IPC: 0.63006 (Simulation time: 0 hr 12 min 37 sec) 
Heartbeat CPU  0 instructions:  348000000 cycles:  437499874 heartbeat IPC: 0.53172 cumulative IPC: 0.62959 (Simulation time: 0 hr 12 min 39 sec) 
Heartbeat CPU  0 instructions:  349000002 cycles:  439545752 heartbeat IPC: 0.48879 cumulative IPC: 0.62886 (Simulation time: 0 hr 12 min 42 sec) 
Heartbeat CPU  0 instructions:  350000001 cycles:  441575905 heartbeat IPC: 0.49257 cumulative IPC: 0.62816 (Simulation time: 0 hr 12 min 44 sec) 
Heartbeat CPU  0 instructions:  351000000 cycles:  443625904 heartbeat IPC: 0.48780 cumulative IPC: 0.62745 (Simulation time: 0 hr 12 min 47 sec) 
Heartbeat CPU  0 instructions:  352000000 cycles:  445663852 heartbeat IPC: 0.49069 cumulative IPC: 0.62675 (Simulation time: 0 hr 12 min 49 sec) 
Heartbeat CPU  0 instructions:  353000001 cycles:  447691467 heartbeat IPC: 0.49319 cumulative IPC: 0.62608 (Simulation time: 0 hr 12 min 52 sec) 
Heartbeat CPU  0 instructions:  354000000 cycles:  449698058 heartbeat IPC: 0.49836 cumulative IPC: 0.62545 (Simulation time: 0 hr 12 min 54 sec) 
Heartbeat CPU  0 instructions:  355000000 cycles:  451721848 heartbeat IPC: 0.49412 cumulative IPC: 0.62480 (Simulation time: 0 hr 12 min 57 sec) 
Heartbeat CPU  0 instructions:  356000000 cycles:  453732311 heartbeat IPC: 0.49740 cumulative IPC: 0.62417 (Simulation time: 0 hr 12 min 59 sec) 
Heartbeat CPU  0 instructions:  357000002 cycles:  455755649 heartbeat IPC: 0.49423 cumulative IPC: 0.62354 (Simulation time: 0 hr 13 min 1 sec) 
Heartbeat CPU  0 instructions:  358000001 cycles:  457699001 heartbeat IPC: 0.51457 cumulative IPC: 0.62303 (Simulation time: 0 hr 13 min 4 sec) 
Heartbeat CPU  0 instructions:  359000001 cycles:  459649840 heartbeat IPC: 0.51260 cumulative IPC: 0.62251 (Simulation time: 0 hr 13 min 6 sec) 
Heartbeat CPU  0 instructions:  360000000 cycles:  461576919 heartbeat IPC: 0.51892 cumulative IPC: 0.62203 (Simulation time: 0 hr 13 min 8 sec) 
Heartbeat CPU  0 instructions:  361000000 cycles:  463503573 heartbeat IPC: 0.51903 cumulative IPC: 0.62156 (Simulation time: 0 hr 13 min 11 sec) 
Heartbeat CPU  0 instructions:  362000000 cycles:  465492850 heartbeat IPC: 0.50270 cumulative IPC: 0.62100 (Simulation time: 0 hr 13 min 13 sec) 
Heartbeat CPU  0 instructions:  363000001 cycles:  467497519 heartbeat IPC: 0.49884 cumulative IPC: 0.62042 (Simulation time: 0 hr 13 min 16 sec) 
Heartbeat CPU  0 instructions:  364000000 cycles:  469391556 heartbeat IPC: 0.52797 cumulative IPC: 0.62001 (Simulation time: 0 hr 13 min 18 sec) 
Heartbeat CPU  0 instructions:  365000002 cycles:  471284745 heartbeat IPC: 0.52821 cumulative IPC: 0.61960 (Simulation time: 0 hr 13 min 20 sec) 
Heartbeat CPU  0 instructions:  366000001 cycles:  473176938 heartbeat IPC: 0.52849 cumulative IPC: 0.61920 (Simulation time: 0 hr 13 min 23 sec) 
Heartbeat CPU  0 instructions:  367000000 cycles:  475076202 heartbeat IPC: 0.52652 cumulative IPC: 0.61879 (Simulation time: 0 hr 13 min 25 sec) 
Heartbeat CPU  0 instructions:  368000000 cycles:  476957216 heartbeat IPC: 0.53163 cumulative IPC: 0.61841 (Simulation time: 0 hr 13 min 28 sec) 
Heartbeat CPU  0 instructions:  369000000 cycles:  478930114 heartbeat IPC: 0.50687 cumulative IPC: 0.61791 (Simulation time: 0 hr 13 min 30 sec) 
Heartbeat CPU  0 instructions:  370000000 cycles:  480954553 heartbeat IPC: 0.49396 cumulative IPC: 0.61734 (Simulation time: 0 hr 13 min 33 sec) 
Heartbeat CPU  0 instructions:  371000000 cycles:  482985425 heartbeat IPC: 0.49240 cumulative IPC: 0.61676 (Simulation time: 0 hr 13 min 35 sec) 
Heartbeat CPU  0 instructions:  372000000 cycles:  484444870 heartbeat IPC: 0.68519 cumulative IPC: 0.61698 (Simulation time: 0 hr 13 min 37 sec) 
Heartbeat CPU  0 instructions:  373000001 cycles:  485729040 heartbeat IPC: 0.77871 cumulative IPC: 0.61745 (Simulation time: 0 hr 13 min 39 sec) 
Heartbeat CPU  0 instructions:  374000001 cycles:  487019015 heartbeat IPC: 0.77521 cumulative IPC: 0.61791 (Simulation time: 0 hr 13 min 42 sec) 
Heartbeat CPU  0 instructions:  375000001 cycles:  488298695 heartbeat IPC: 0.78145 cumulative IPC: 0.61838 (Simulation time: 0 hr 13 min 44 sec) 
Heartbeat CPU  0 instructions:  376000000 cycles:  489581103 heartbeat IPC: 0.77978 cumulative IPC: 0.61885 (Simulation time: 0 hr 13 min 46 sec) 
Heartbeat CPU  0 instructions:  377000000 cycles:  490830620 heartbeat IPC: 0.80031 cumulative IPC: 0.61935 (Simulation time: 0 hr 13 min 48 sec) 
Heartbeat CPU  0 instructions:  378000003 cycles:  492120998 heartbeat IPC: 0.77497 cumulative IPC: 0.61980 (Simulation time: 0 hr 13 min 51 sec) 
Heartbeat CPU  0 instructions:  379000002 cycles:  493403205 heartbeat IPC: 0.77990 cumulative IPC: 0.62026 (Simulation time: 0 hr 13 min 53 sec) 
Heartbeat CPU  0 instructions:  380000000 cycles:  494656546 heartbeat IPC: 0.79787 cumulative IPC: 0.62075 (Simulation time: 0 hr 13 min 55 sec) 
Heartbeat CPU  0 instructions:  381000000 cycles:  495920474 heartbeat IPC: 0.79118 cumulative IPC: 0.62123 (Simulation time: 0 hr 13 min 57 sec) 
Heartbeat CPU  0 instructions:  382000000 cycles:  497192440 heartbeat IPC: 0.78618 cumulative IPC: 0.62169 (Simulation time: 0 hr 14 min 0 sec) 
Heartbeat CPU  0 instructions:  383000002 cycles:  498471321 heartbeat IPC: 0.78194 cumulative IPC: 0.62214 (Simulation time: 0 hr 14 min 2 sec) 
Heartbeat CPU  0 instructions:  384000000 cycles:  499741807 heartbeat IPC: 0.78710 cumulative IPC: 0.62260 (Simulation time: 0 hr 14 min 4 sec) 
Heartbeat CPU  0 instructions:  385000002 cycles:  501024831 heartbeat IPC: 0.77941 cumulative IPC: 0.62304 (Simulation time: 0 hr 14 min 6 sec) 
Heartbeat CPU  0 instructions:  386000002 cycles:  502300877 heartbeat IPC: 0.78367 cumulative IPC: 0.62349 (Simulation time: 0 hr 14 min 9 sec) 
Heartbeat CPU  0 instructions:  387000001 cycles:  503579541 heartbeat IPC: 0.78207 cumulative IPC: 0.62393 (Simulation time: 0 hr 14 min 11 sec) 
Heartbeat CPU  0 instructions:  388000000 cycles:  504866219 heartbeat IPC: 0.77719 cumulative IPC: 0.62436 (Simulation time: 0 hr 14 min 13 sec) 
Heartbeat CPU  0 instructions:  389000000 cycles:  506127779 heartbeat IPC: 0.79267 cumulative IPC: 0.62482 (Simulation time: 0 hr 14 min 15 sec) 
Heartbeat CPU  0 instructions:  390000000 cycles:  507393300 heartbeat IPC: 0.79019 cumulative IPC: 0.62527 (Simulation time: 0 hr 14 min 17 sec) 
Heartbeat CPU  0 instructions:  391000002 cycles:  508670165 heartbeat IPC: 0.78317 cumulative IPC: 0.62570 (Simulation time: 0 hr 14 min 20 sec) 
Heartbeat CPU  0 instructions:  392000000 cycles:  509946271 heartbeat IPC: 0.78363 cumulative IPC: 0.62613 (Simulation time: 0 hr 14 min 22 sec) 
Heartbeat CPU  0 instructions:  393000002 cycles:  511233219 heartbeat IPC: 0.77703 cumulative IPC: 0.62655 (Simulation time: 0 hr 14 min 24 sec) 
Heartbeat CPU  0 instructions:  394000002 cycles:  512506624 heartbeat IPC: 0.78530 cumulative IPC: 0.62698 (Simulation time: 0 hr 14 min 26 sec) 
Heartbeat CPU  0 instructions:  395000003 cycles:  513763486 heartbeat IPC: 0.79563 cumulative IPC: 0.62743 (Simulation time: 0 hr 14 min 29 sec) 
Heartbeat CPU  0 instructions:  396000000 cycles:  515030968 heartbeat IPC: 0.78896 cumulative IPC: 0.62786 (Simulation time: 0 hr 14 min 31 sec) 
Heartbeat CPU  0 instructions:  397000002 cycles:  516284371 heartbeat IPC: 0.79783 cumulative IPC: 0.62831 (Simulation time: 0 hr 14 min 33 sec) 
Heartbeat CPU  0 instructions:  398000001 cycles:  517556499 heartbeat IPC: 0.78608 cumulative IPC: 0.62874 (Simulation time: 0 hr 14 min 35 sec) 
Heartbeat CPU  0 instructions:  399000000 cycles:  518805074 heartbeat IPC: 0.80091 cumulative IPC: 0.62919 (Simulation time: 0 hr 14 min 37 sec) 
Heartbeat CPU  0 instructions:  400000000 cycles:  520061117 heartbeat IPC: 0.79615 cumulative IPC: 0.62963 (Simulation time: 0 hr 14 min 40 sec) 
Heartbeat CPU  0 instructions:  401000001 cycles:  521300964 heartbeat IPC: 0.80655 cumulative IPC: 0.63009 (Simulation time: 0 hr 14 min 42 sec) 
Heartbeat CPU  0 instructions:  402000000 cycles:  522545858 heartbeat IPC: 0.80328 cumulative IPC: 0.63054 (Simulation time: 0 hr 14 min 44 sec) 
Heartbeat CPU  0 instructions:  403000002 cycles:  523799039 heartbeat IPC: 0.79797 cumulative IPC: 0.63098 (Simulation time: 0 hr 14 min 46 sec) 
Heartbeat CPU  0 instructions:  404000000 cycles:  525047026 heartbeat IPC: 0.80129 cumulative IPC: 0.63142 (Simulation time: 0 hr 14 min 49 sec) 
Heartbeat CPU  0 instructions:  405000003 cycles:  526295783 heartbeat IPC: 0.80080 cumulative IPC: 0.63186 (Simulation time: 0 hr 14 min 51 sec) 
Heartbeat CPU  0 instructions:  406000002 cycles:  527541801 heartbeat IPC: 0.80256 cumulative IPC: 0.63230 (Simulation time: 0 hr 14 min 53 sec) 
Heartbeat CPU  0 instructions:  407000001 cycles:  528753569 heartbeat IPC: 0.82524 cumulative IPC: 0.63278 (Simulation time: 0 hr 14 min 55 sec) 
Heartbeat CPU  0 instructions:  408000000 cycles:  529905838 heartbeat IPC: 0.86785 cumulative IPC: 0.63333 (Simulation time: 0 hr 14 min 57 sec) 
Heartbeat CPU  0 instructions:  409000000 cycles:  531061226 heartbeat IPC: 0.86551 cumulative IPC: 0.63388 (Simulation time: 0 hr 15 min 0 sec) 
Heartbeat CPU  0 instructions:  410000002 cycles:  532214669 heartbeat IPC: 0.86697 cumulative IPC: 0.63443 (Simulation time: 0 hr 15 min 2 sec) 
Heartbeat CPU  0 instructions:  411000003 cycles:  533367027 heartbeat IPC: 0.86779 cumulative IPC: 0.63498 (Simulation time: 0 hr 15 min 4 sec) 
Heartbeat CPU  0 instructions:  412000000 cycles:  534517813 heartbeat IPC: 0.86897 cumulative IPC: 0.63553 (Simulation time: 0 hr 15 min 6 sec) 
Heartbeat CPU  0 instructions:  413000003 cycles:  535670349 heartbeat IPC: 0.86765 cumulative IPC: 0.63608 (Simulation time: 0 hr 15 min 8 sec) 
Heartbeat CPU  0 instructions:  414000000 cycles:  536828022 heartbeat IPC: 0.86380 cumulative IPC: 0.63661 (Simulation time: 0 hr 15 min 11 sec) 
Heartbeat CPU  0 instructions:  415000001 cycles:  537978975 heartbeat IPC: 0.86885 cumulative IPC: 0.63715 (Simulation time: 0 hr 15 min 13 sec) 
Heartbeat CPU  0 instructions:  416000000 cycles:  539131576 heartbeat IPC: 0.86760 cumulative IPC: 0.63769 (Simulation time: 0 hr 15 min 15 sec) 
Heartbeat CPU  0 instructions:  417000003 cycles:  540379560 heartbeat IPC: 0.80129 cumulative IPC: 0.63810 (Simulation time: 0 hr 15 min 17 sec) 
Heartbeat CPU  0 instructions:  418000002 cycles:  541646324 heartbeat IPC: 0.78941 cumulative IPC: 0.63848 (Simulation time: 0 hr 15 min 19 sec) 
Heartbeat CPU  0 instructions:  419000001 cycles:  542884943 heartbeat IPC: 0.80735 cumulative IPC: 0.63890 (Simulation time: 0 hr 15 min 22 sec) 
Heartbeat CPU  0 instructions:  420000000 cycles:  544130259 heartbeat IPC: 0.80301 cumulative IPC: 0.63931 (Simulation time: 0 hr 15 min 24 sec) 
Heartbeat CPU  0 instructions:  421000000 cycles:  545399270 heartbeat IPC: 0.78802 cumulative IPC: 0.63969 (Simulation time: 0 hr 15 min 26 sec) 
Heartbeat CPU  0 instructions:  422000002 cycles:  546633055 heartbeat IPC: 0.81052 cumulative IPC: 0.64011 (Simulation time: 0 hr 15 min 28 sec) 
Heartbeat CPU  0 instructions:  423000003 cycles:  547891295 heartbeat IPC: 0.79476 cumulative IPC: 0.64049 (Simulation time: 0 hr 15 min 30 sec) 
Heartbeat CPU  0 instructions:  424000000 cycles:  549170339 heartbeat IPC: 0.78183 cumulative IPC: 0.64085 (Simulation time: 0 hr 15 min 33 sec) 
Heartbeat CPU  0 instructions:  425000001 cycles:  550438654 heartbeat IPC: 0.78845 cumulative IPC: 0.64122 (Simulation time: 0 hr 15 min 35 sec) 
Heartbeat CPU  0 instructions:  426000000 cycles:  551714824 heartbeat IPC: 0.78359 cumulative IPC: 0.64158 (Simulation time: 0 hr 15 min 37 sec) 
Heartbeat CPU  0 instructions:  427000002 cycles:  552982365 heartbeat IPC: 0.78893 cumulative IPC: 0.64194 (Simulation time: 0 hr 15 min 39 sec) 
Heartbeat CPU  0 instructions:  428000000 cycles:  554261947 heartbeat IPC: 0.78150 cumulative IPC: 0.64229 (Simulation time: 0 hr 15 min 42 sec) 
Heartbeat CPU  0 instructions:  429000003 cycles:  555416256 heartbeat IPC: 0.86632 cumulative IPC: 0.64280 (Simulation time: 0 hr 15 min 44 sec) 
Heartbeat CPU  0 instructions:  430000002 cycles:  556570458 heartbeat IPC: 0.86640 cumulative IPC: 0.64330 (Simulation time: 0 hr 15 min 46 sec) 
Heartbeat CPU  0 instructions:  431000001 cycles:  557722926 heartbeat IPC: 0.86770 cumulative IPC: 0.64380 (Simulation time: 0 hr 15 min 48 sec) 
Heartbeat CPU  0 instructions:  432000000 cycles:  558874351 heartbeat IPC: 0.86849 cumulative IPC: 0.64431 (Simulation time: 0 hr 15 min 50 sec) 
Heartbeat CPU  0 instructions:  433000000 cycles:  560026551 heartbeat IPC: 0.86790 cumulative IPC: 0.64480 (Simulation time: 0 hr 15 min 53 sec) 
Heartbeat CPU  0 instructions:  434000002 cycles:  561180589 heartbeat IPC: 0.86652 cumulative IPC: 0.64530 (Simulation time: 0 hr 15 min 55 sec) 
Heartbeat CPU  0 instructions:  435000003 cycles:  562338637 heartbeat IPC: 0.86352 cumulative IPC: 0.64579 (Simulation time: 0 hr 15 min 57 sec) 
Heartbeat CPU  0 instructions:  436000000 cycles:  563605549 heartbeat IPC: 0.78932 cumulative IPC: 0.64614 (Simulation time: 0 hr 15 min 59 sec) 
Heartbeat CPU  0 instructions:  437000003 cycles:  564894215 heartbeat IPC: 0.77600 cumulative IPC: 0.64646 (Simulation time: 0 hr 16 min 1 sec) 
Heartbeat CPU  0 instructions:  438000000 cycles:  566166990 heartbeat IPC: 0.78568 cumulative IPC: 0.64680 (Simulation time: 0 hr 16 min 4 sec) 
Heartbeat CPU  0 instructions:  439000001 cycles:  567468608 heartbeat IPC: 0.76828 cumulative IPC: 0.64710 (Simulation time: 0 hr 16 min 6 sec) 
Heartbeat CPU  0 instructions:  440000000 cycles:  568749433 heartbeat IPC: 0.78075 cumulative IPC: 0.64742 (Simulation time: 0 hr 16 min 8 sec) 
Heartbeat CPU  0 instructions:  441000001 cycles:  570058964 heartbeat IPC: 0.76363 cumulative IPC: 0.64771 (Simulation time: 0 hr 16 min 10 sec) 
Heartbeat CPU  0 instructions:  442000002 cycles:  571413816 heartbeat IPC: 0.73809 cumulative IPC: 0.64794 (Simulation time: 0 hr 16 min 13 sec) 
Heartbeat CPU  0 instructions:  443000002 cycles:  572848737 heartbeat IPC: 0.69690 cumulative IPC: 0.64808 (Simulation time: 0 hr 16 min 16 sec) 
Heartbeat CPU  0 instructions:  444000000 cycles:  574292642 heartbeat IPC: 0.69256 cumulative IPC: 0.64820 (Simulation time: 0 hr 16 min 19 sec) 
Heartbeat CPU  0 instructions:  445000000 cycles:  575727964 heartbeat IPC: 0.69671 cumulative IPC: 0.64833 (Simulation time: 0 hr 16 min 22 sec) 
Heartbeat CPU  0 instructions:  446000000 cycles:  577172158 heartbeat IPC: 0.69243 cumulative IPC: 0.64845 (Simulation time: 0 hr 16 min 24 sec) 
Heartbeat CPU  0 instructions:  447000000 cycles:  578608909 heartbeat IPC: 0.69601 cumulative IPC: 0.64858 (Simulation time: 0 hr 16 min 27 sec) 
Heartbeat CPU  0 instructions:  448000000 cycles:  580053928 heartbeat IPC: 0.69203 cumulative IPC: 0.64869 (Simulation time: 0 hr 16 min 30 sec) 
Heartbeat CPU  0 instructions:  449000001 cycles:  581634785 heartbeat IPC: 0.63257 cumulative IPC: 0.64865 (Simulation time: 0 hr 16 min 33 sec) 
Heartbeat CPU  0 instructions:  450000000 cycles:  583332970 heartbeat IPC: 0.58886 cumulative IPC: 0.64846 (Simulation time: 0 hr 16 min 36 sec) 
Heartbeat CPU  0 instructions:  451000003 cycles:  585457982 heartbeat IPC: 0.47059 cumulative IPC: 0.64776 (Simulation time: 0 hr 16 min 38 sec) 
Heartbeat CPU  0 instructions:  452000000 cycles:  587590342 heartbeat IPC: 0.46896 cumulative IPC: 0.64706 (Simulation time: 0 hr 16 min 41 sec) 
Heartbeat CPU  0 instructions:  453000001 cycles:  589694985 heartbeat IPC: 0.47514 cumulative IPC: 0.64640 (Simulation time: 0 hr 16 min 43 sec) 
Heartbeat CPU  0 instructions:  454000001 cycles:  591803020 heartbeat IPC: 0.47438 cumulative IPC: 0.64574 (Simulation time: 0 hr 16 min 46 sec) 
Heartbeat CPU  0 instructions:  455000002 cycles:  593901229 heartbeat IPC: 0.47660 cumulative IPC: 0.64509 (Simulation time: 0 hr 16 min 48 sec) 
Heartbeat CPU  0 instructions:  456000000 cycles:  595978504 heartbeat IPC: 0.48140 cumulative IPC: 0.64447 (Simulation time: 0 hr 16 min 51 sec) 
Heartbeat CPU  0 instructions:  457000002 cycles:  598065139 heartbeat IPC: 0.47924 cumulative IPC: 0.64385 (Simulation time: 0 hr 16 min 53 sec) 
Heartbeat CPU  0 instructions:  458000003 cycles:  600140888 heartbeat IPC: 0.48175 cumulative IPC: 0.64325 (Simulation time: 0 hr 16 min 56 sec) 
Heartbeat CPU  0 instructions:  459000002 cycles:  602342485 heartbeat IPC: 0.45422 cumulative IPC: 0.64250 (Simulation time: 0 hr 16 min 58 sec) 
Heartbeat CPU  0 instructions:  460000000 cycles:  604405595 heartbeat IPC: 0.48470 cumulative IPC: 0.64192 (Simulation time: 0 hr 17 min 1 sec) 
Heartbeat CPU  0 instructions:  461000001 cycles:  606372853 heartbeat IPC: 0.50832 cumulative IPC: 0.64146 (Simulation time: 0 hr 17 min 3 sec) 
Heartbeat CPU  0 instructions:  462000002 cycles:  608338000 heartbeat IPC: 0.50887 cumulative IPC: 0.64099 (Simulation time: 0 hr 17 min 6 sec) 
Heartbeat CPU  0 instructions:  463000002 cycles:  610301417 heartbeat IPC: 0.50932 cumulative IPC: 0.64054 (Simulation time: 0 hr 17 min 8 sec) 
Heartbeat CPU  0 instructions:  464000000 cycles:  612265577 heartbeat IPC: 0.50912 cumulative IPC: 0.64008 (Simulation time: 0 hr 17 min 10 sec) 
Heartbeat CPU  0 instructions:  465000002 cycles:  614262588 heartbeat IPC: 0.50075 cumulative IPC: 0.63960 (Simulation time: 0 hr 17 min 13 sec) 
Heartbeat CPU  0 instructions:  466000000 cycles:  616320831 heartbeat IPC: 0.48585 cumulative IPC: 0.63904 (Simulation time: 0 hr 17 min 15 sec) 
Heartbeat CPU  0 instructions:  467000001 cycles:  618314056 heartbeat IPC: 0.50170 cumulative IPC: 0.63857 (Simulation time: 0 hr 17 min 18 sec) 
Heartbeat CPU  0 instructions:  468000000 cycles:  620406259 heartbeat IPC: 0.47796 cumulative IPC: 0.63799 (Simulation time: 0 hr 17 min 20 sec) 
Heartbeat CPU  0 instructions:  469000002 cycles:  622502426 heartbeat IPC: 0.47706 cumulative IPC: 0.63740 (Simulation time: 0 hr 17 min 22 sec) 
Heartbeat CPU  0 instructions:  470000002 cycles:  624615313 heartbeat IPC: 0.47329 cumulative IPC: 0.63681 (Simulation time: 0 hr 17 min 25 sec) 
Heartbeat CPU  0 instructions:  471000002 cycles:  626720757 heartbeat IPC: 0.47496 cumulative IPC: 0.63622 (Simulation time: 0 hr 17 min 27 sec) 
Heartbeat CPU  0 instructions:  472000000 cycles:  628831424 heartbeat IPC: 0.47378 cumulative IPC: 0.63564 (Simulation time: 0 hr 17 min 30 sec) 
Heartbeat CPU  0 instructions:  473000002 cycles:  630898963 heartbeat IPC: 0.48367 cumulative IPC: 0.63510 (Simulation time: 0 hr 17 min 32 sec) 
Heartbeat CPU  0 instructions:  474000003 cycles:  632892221 heartbeat IPC: 0.50169 cumulative IPC: 0.63465 (Simulation time: 0 hr 17 min 35 sec) 
Heartbeat CPU  0 instructions:  475000002 cycles:  634586383 heartbeat IPC: 0.59026 cumulative IPC: 0.63452 (Simulation time: 0 hr 17 min 37 sec) 
Heartbeat CPU  0 instructions:  476000000 cycles:  636508252 heartbeat IPC: 0.52033 cumulative IPC: 0.63415 (Simulation time: 0 hr 17 min 40 sec) 
Heartbeat CPU  0 instructions:  477000003 cycles:  638730813 heartbeat IPC: 0.44993 cumulative IPC: 0.63346 (Simulation time: 0 hr 17 min 43 sec) 
Heartbeat CPU  0 instructions:  478000000 cycles:  640928806 heartbeat IPC: 0.45496 cumulative IPC: 0.63281 (Simulation time: 0 hr 17 min 45 sec) 
Heartbeat CPU  0 instructions:  479000000 cycles:  643137065 heartbeat IPC: 0.45285 cumulative IPC: 0.63214 (Simulation time: 0 hr 17 min 48 sec) 
Heartbeat CPU  0 instructions:  480000000 cycles:  645357313 heartbeat IPC: 0.45040 cumulative IPC: 0.63147 (Simulation time: 0 hr 17 min 50 sec) 
Heartbeat CPU  0 instructions:  481000003 cycles:  647504254 heartbeat IPC: 0.46578 cumulative IPC: 0.63089 (Simulation time: 0 hr 17 min 53 sec) 
Heartbeat CPU  0 instructions:  482000000 cycles:  649655307 heartbeat IPC: 0.46489 cumulative IPC: 0.63030 (Simulation time: 0 hr 17 min 55 sec) 
Heartbeat CPU  0 instructions:  483000003 cycles:  651837490 heartbeat IPC: 0.45826 cumulative IPC: 0.62968 (Simulation time: 0 hr 17 min 57 sec) 
Heartbeat CPU  0 instructions:  484000000 cycles:  654022806 heartbeat IPC: 0.45760 cumulative IPC: 0.62906 (Simulation time: 0 hr 18 min 0 sec) 
Heartbeat CPU  0 instructions:  485000003 cycles:  656199402 heartbeat IPC: 0.45943 cumulative IPC: 0.62846 (Simulation time: 0 hr 18 min 2 sec) 
Heartbeat CPU  0 instructions:  486000001 cycles:  658361572 heartbeat IPC: 0.46250 cumulative IPC: 0.62788 (Simulation time: 0 hr 18 min 5 sec) 
Heartbeat CPU  0 instructions:  487000002 cycles:  660540100 heartbeat IPC: 0.45903 cumulative IPC: 0.62728 (Simulation time: 0 hr 18 min 7 sec) 
Heartbeat CPU  0 instructions:  488000000 cycles:  662674705 heartbeat IPC: 0.46847 cumulative IPC: 0.62673 (Simulation time: 0 hr 18 min 10 sec) 
Heartbeat CPU  0 instructions:  489000001 cycles:  664716137 heartbeat IPC: 0.48985 cumulative IPC: 0.62628 (Simulation time: 0 hr 18 min 12 sec) 
Heartbeat CPU  0 instructions:  490000000 cycles:  666749764 heartbeat IPC: 0.49173 cumulative IPC: 0.62584 (Simulation time: 0 hr 18 min 15 sec) 
Heartbeat CPU  0 instructions:  491000001 cycles:  668788013 heartbeat IPC: 0.49062 cumulative IPC: 0.62540 (Simulation time: 0 hr 18 min 17 sec) 
Heartbeat CPU  0 instructions:  492000000 cycles:  670851089 heartbeat IPC: 0.48471 cumulative IPC: 0.62494 (Simulation time: 0 hr 18 min 20 sec) 
Heartbeat CPU  0 instructions:  493000002 cycles:  672890871 heartbeat IPC: 0.49025 cumulative IPC: 0.62450 (Simulation time: 0 hr 18 min 22 sec) 
Heartbeat CPU  0 instructions:  494000001 cycles:  674934018 heartbeat IPC: 0.48944 cumulative IPC: 0.62407 (Simulation time: 0 hr 18 min 25 sec) 
Heartbeat CPU  0 instructions:  495000003 cycles:  676988482 heartbeat IPC: 0.48675 cumulative IPC: 0.62362 (Simulation time: 0 hr 18 min 27 sec) 
Heartbeat CPU  0 instructions:  496000000 cycles:  679034683 heartbeat IPC: 0.48871 cumulative IPC: 0.62319 (Simulation time: 0 hr 18 min 30 sec) 
Heartbeat CPU  0 instructions:  497000003 cycles:  681078213 heartbeat IPC: 0.48935 cumulative IPC: 0.62276 (Simulation time: 0 hr 18 min 32 sec) 
Heartbeat CPU  0 instructions:  498000000 cycles:  683120146 heartbeat IPC: 0.48973 cumulative IPC: 0.62233 (Simulation time: 0 hr 18 min 35 sec) 
Heartbeat CPU  0 instructions:  499000000 cycles:  685165487 heartbeat IPC: 0.48892 cumulative IPC: 0.62191 (Simulation time: 0 hr 18 min 37 sec) 
Heartbeat CPU  0 instructions:  500000000 cycles:  686633772 heartbeat IPC: 0.68107 cumulative IPC: 0.62204 (Simulation time: 0 hr 18 min 39 sec) 
Heartbeat CPU  0 instructions:  501000000 cycles:  687797597 heartbeat IPC: 0.85924 cumulative IPC: 0.62247 (Simulation time: 0 hr 18 min 42 sec) 
Heartbeat CPU  0 instructions:  502000002 cycles:  688958674 heartbeat IPC: 0.86127 cumulative IPC: 0.62290 (Simulation time: 0 hr 18 min 44 sec) 
Heartbeat CPU  0 instructions:  503000002 cycles:  690115711 heartbeat IPC: 0.86428 cumulative IPC: 0.62333 (Simulation time: 0 hr 18 min 46 sec) 
Heartbeat CPU  0 instructions:  504000000 cycles:  691295545 heartbeat IPC: 0.84758 cumulative IPC: 0.62374 (Simulation time: 0 hr 18 min 48 sec) 
Heartbeat CPU  0 instructions:  505000000 cycles:  692468338 heartbeat IPC: 0.85267 cumulative IPC: 0.62415 (Simulation time: 0 hr 18 min 50 sec) 
Heartbeat CPU  0 instructions:  506000000 cycles:  693636777 heartbeat IPC: 0.85584 cumulative IPC: 0.62457 (Simulation time: 0 hr 18 min 53 sec) 
Heartbeat CPU  0 instructions:  507000001 cycles:  694796673 heartbeat IPC: 0.86215 cumulative IPC: 0.62499 (Simulation time: 0 hr 18 min 55 sec) 
Heartbeat CPU  0 instructions:  508000000 cycles:  695957618 heartbeat IPC: 0.86137 cumulative IPC: 0.62542 (Simulation time: 0 hr 18 min 57 sec) 
Heartbeat CPU  0 instructions:  509000000 cycles:  697120214 heartbeat IPC: 0.86014 cumulative IPC: 0.62583 (Simulation time: 0 hr 18 min 59 sec) 
Heartbeat CPU  0 instructions:  510000000 cycles:  698280217 heartbeat IPC: 0.86207 cumulative IPC: 0.62625 (Simulation time: 0 hr 19 min 1 sec) 
Heartbeat CPU  0 instructions:  511000002 cycles:  699439561 heartbeat IPC: 0.86256 cumulative IPC: 0.62667 (Simulation time: 0 hr 19 min 4 sec) 
Heartbeat CPU  0 instructions:  512000000 cycles:  700600527 heartbeat IPC: 0.86135 cumulative IPC: 0.62708 (Simulation time: 0 hr 19 min 6 sec) 
Heartbeat CPU  0 instructions:  513000001 cycles:  701764054 heartbeat IPC: 0.85946 cumulative IPC: 0.62749 (Simulation time: 0 hr 19 min 8 sec) 
Heartbeat CPU  0 instructions:  514000001 cycles:  702921165 heartbeat IPC: 0.86422 cumulative IPC: 0.62791 (Simulation time: 0 hr 19 min 10 sec) 
Heartbeat CPU  0 instructions:  515000002 cycles:  704085359 heartbeat IPC: 0.85896 cumulative IPC: 0.62832 (Simulation time: 0 hr 19 min 12 sec) 
Heartbeat CPU  0 instructions:  516000000 cycles:  705243465 heartbeat IPC: 0.86348 cumulative IPC: 0.62873 (Simulation time: 0 hr 19 min 15 sec) 
Heartbeat CPU  0 instructions:  517000002 cycles:  706403337 heartbeat IPC: 0.86217 cumulative IPC: 0.62914 (Simulation time: 0 hr 19 min 17 sec) 
Heartbeat CPU  0 instructions:  518000002 cycles:  707568444 heartbeat IPC: 0.85829 cumulative IPC: 0.62954 (Simulation time: 0 hr 19 min 19 sec) 
Heartbeat CPU  0 instructions:  519000000 cycles:  708729574 heartbeat IPC: 0.86123 cumulative IPC: 0.62994 (Simulation time: 0 hr 19 min 21 sec) 
Heartbeat CPU  0 instructions:  520000000 cycles:  709886031 heartbeat IPC: 0.86471 cumulative IPC: 0.63035 (Simulation time: 0 hr 19 min 23 sec) 
Heartbeat CPU  0 instructions:  521000001 cycles:  711045044 heartbeat IPC: 0.86280 cumulative IPC: 0.63075 (Simulation time: 0 hr 19 min 26 sec) 
Heartbeat CPU  0 instructions:  522000000 cycles:  712200305 heartbeat IPC: 0.86560 cumulative IPC: 0.63116 (Simulation time: 0 hr 19 min 28 sec) 
Heartbeat CPU  0 instructions:  523000000 cycles:  713351511 heartbeat IPC: 0.86865 cumulative IPC: 0.63157 (Simulation time: 0 hr 19 min 30 sec) 
Heartbeat CPU  0 instructions:  524000000 cycles:  714500992 heartbeat IPC: 0.86996 cumulative IPC: 0.63198 (Simulation time: 0 hr 19 min 32 sec) 
Heartbeat CPU  0 instructions:  525000002 cycles:  715649583 heartbeat IPC: 0.87063 cumulative IPC: 0.63239 (Simulation time: 0 hr 19 min 34 sec) 
Heartbeat CPU  0 instructions:  526000002 cycles:  716799823 heartbeat IPC: 0.86938 cumulative IPC: 0.63279 (Simulation time: 0 hr 19 min 37 sec) 
Heartbeat CPU  0 instructions:  527000002 cycles:  717944599 heartbeat IPC: 0.87353 cumulative IPC: 0.63320 (Simulation time: 0 hr 19 min 39 sec) 
Heartbeat CPU  0 instructions:  528000000 cycles:  719092248 heartbeat IPC: 0.87134 cumulative IPC: 0.63360 (Simulation time: 0 hr 19 min 41 sec) 
Heartbeat CPU  0 instructions:  529000002 cycles:  720241442 heartbeat IPC: 0.87018 cumulative IPC: 0.63401 (Simulation time: 0 hr 19 min 43 sec) 
Heartbeat CPU  0 instructions:  530000002 cycles:  721387583 heartbeat IPC: 0.87249 cumulative IPC: 0.63441 (Simulation time: 0 hr 19 min 45 sec) 
Heartbeat CPU  0 instructions:  531000001 cycles:  722533580 heartbeat IPC: 0.87260 cumulative IPC: 0.63481 (Simulation time: 0 hr 19 min 47 sec) 
Heartbeat CPU  0 instructions:  532000000 cycles:  723680946 heartbeat IPC: 0.87156 cumulative IPC: 0.63521 (Simulation time: 0 hr 19 min 50 sec) 
Heartbeat CPU  0 instructions:  533000000 cycles:  724827163 heartbeat IPC: 0.87244 cumulative IPC: 0.63561 (Simulation time: 0 hr 19 min 52 sec) 
Heartbeat CPU  0 instructions:  534000000 cycles:  725971154 heartbeat IPC: 0.87413 cumulative IPC: 0.63601 (Simulation time: 0 hr 19 min 54 sec) 
Heartbeat CPU  0 instructions:  535000002 cycles:  727119435 heartbeat IPC: 0.87087 cumulative IPC: 0.63640 (Simulation time: 0 hr 19 min 56 sec) 
Heartbeat CPU  0 instructions:  536000000 cycles:  728268280 heartbeat IPC: 0.87044 cumulative IPC: 0.63680 (Simulation time: 0 hr 19 min 58 sec) 
Heartbeat CPU  0 instructions:  537000003 cycles:  729494513 heartbeat IPC: 0.81551 cumulative IPC: 0.63712 (Simulation time: 0 hr 20 min 1 sec) 
Heartbeat CPU  0 instructions:  538000003 cycles:  730756127 heartbeat IPC: 0.79264 cumulative IPC: 0.63740 (Simulation time: 0 hr 20 min 3 sec) 
Heartbeat CPU  0 instructions:  539000001 cycles:  732020849 heartbeat IPC: 0.79069 cumulative IPC: 0.63768 (Simulation time: 0 hr 20 min 5 sec) 
Heartbeat CPU  0 instructions:  540000000 cycles:  733270873 heartbeat IPC: 0.79998 cumulative IPC: 0.63798 (Simulation time: 0 hr 20 min 7 sec) 
Heartbeat CPU  0 instructions:  541000001 cycles:  734541828 heartbeat IPC: 0.78681 cumulative IPC: 0.63825 (Simulation time: 0 hr 20 min 10 sec) 
Heartbeat CPU  0 instructions:  542000000 cycles:  735794487 heartbeat IPC: 0.79830 cumulative IPC: 0.63854 (Simulation time: 0 hr 20 min 12 sec) 
Heartbeat CPU  0 instructions:  543000002 cycles:  737054075 heartbeat IPC: 0.79391 cumulative IPC: 0.63882 (Simulation time: 0 hr 20 min 14 sec) 
Heartbeat CPU  0 instructions:  544000000 cycles:  738286800 heartbeat IPC: 0.81121 cumulative IPC: 0.63913 (Simulation time: 0 hr 20 min 16 sec) 
Heartbeat CPU  0 instructions:  545000001 cycles:  739436612 heartbeat IPC: 0.86971 cumulative IPC: 0.63951 (Simulation time: 0 hr 20 min 18 sec) 
Heartbeat CPU  0 instructions:  546000003 cycles:  740579885 heartbeat IPC: 0.87468 cumulative IPC: 0.63990 (Simulation time: 0 hr 20 min 21 sec) 
Heartbeat CPU  0 instructions:  547000002 cycles:  741757100 heartbeat IPC: 0.84946 cumulative IPC: 0.64025 (Simulation time: 0 hr 20 min 23 sec) 
Heartbeat CPU  0 instructions:  548000000 cycles:  742999114 heartbeat IPC: 0.80514 cumulative IPC: 0.64054 (Simulation time: 0 hr 20 min 25 sec) 
Heartbeat CPU  0 instructions:  549000000 cycles:  744251964 heartbeat IPC: 0.79818 cumulative IPC: 0.64082 (Simulation time: 0 hr 20 min 27 sec) 
Heartbeat CPU  0 instructions:  550000001 cycles:  745494617 heartbeat IPC: 0.80473 cumulative IPC: 0.64111 (Simulation time: 0 hr 20 min 30 sec) 
Heartbeat CPU  0 instructions:  551000001 cycles:  746645873 heartbeat IPC: 0.86862 cumulative IPC: 0.64149 (Simulation time: 0 hr 20 min 32 sec) 
Heartbeat CPU  0 instructions:  552000000 cycles:  747794748 heartbeat IPC: 0.87042 cumulative IPC: 0.64186 (Simulation time: 0 hr 20 min 34 sec) 
Heartbeat CPU  0 instructions:  553000000 cycles:  748943248 heartbeat IPC: 0.87070 cumulative IPC: 0.64223 (Simulation time: 0 hr 20 min 36 sec) 
Heartbeat CPU  0 instructions:  554000000 cycles:  750090199 heartbeat IPC: 0.87188 cumulative IPC: 0.64261 (Simulation time: 0 hr 20 min 39 sec) 
Heartbeat CPU  0 instructions:  555000002 cycles:  751239780 heartbeat IPC: 0.86988 cumulative IPC: 0.64297 (Simulation time: 0 hr 20 min 41 sec) 
Heartbeat CPU  0 instructions:  556000000 cycles:  752385239 heartbeat IPC: 0.87301 cumulative IPC: 0.64335 (Simulation time: 0 hr 20 min 43 sec) 
Heartbeat CPU  0 instructions:  557000001 cycles:  753530666 heartbeat IPC: 0.87304 cumulative IPC: 0.64372 (Simulation time: 0 hr 20 min 45 sec) 
Heartbeat CPU  0 instructions:  558000003 cycles:  754676976 heartbeat IPC: 0.87237 cumulative IPC: 0.64409 (Simulation time: 0 hr 20 min 47 sec) 
Heartbeat CPU  0 instructions:  559000002 cycles:  755824004 heartbeat IPC: 0.87182 cumulative IPC: 0.64445 (Simulation time: 0 hr 20 min 49 sec) 
Heartbeat CPU  0 instructions:  560000000 cycles:  756968911 heartbeat IPC: 0.87343 cumulative IPC: 0.64482 (Simulation time: 0 hr 20 min 52 sec) 
Heartbeat CPU  0 instructions:  561000000 cycles:  758118444 heartbeat IPC: 0.86992 cumulative IPC: 0.64518 (Simulation time: 0 hr 20 min 54 sec) 
Heartbeat CPU  0 instructions:  562000003 cycles:  759262147 heartbeat IPC: 0.87436 cumulative IPC: 0.64555 (Simulation time: 0 hr 20 min 56 sec) 
Heartbeat CPU  0 instructions:  563000003 cycles:  760403715 heartbeat IPC: 0.87599 cumulative IPC: 0.64591 (Simulation time: 0 hr 20 min 58 sec) 
Heartbeat CPU  0 instructions:  564000000 cycles:  761549593 heartbeat IPC: 0.87269 cumulative IPC: 0.64628 (Simulation time: 0 hr 21 min 0 sec) 
Heartbeat CPU  0 instructions:  565000000 cycles:  762695532 heartbeat IPC: 0.87265 cumulative IPC: 0.64664 (Simulation time: 0 hr 21 min 3 sec) 
Heartbeat CPU  0 instructions:  566000000 cycles:  763840097 heartbeat IPC: 0.87369 cumulative IPC: 0.64700 (Simulation time: 0 hr 21 min 5 sec) 
Heartbeat CPU  0 instructions:  567000002 cycles:  764983911 heartbeat IPC: 0.87427 cumulative IPC: 0.64736 (Simulation time: 0 hr 21 min 7 sec) 
Heartbeat CPU  0 instructions:  568000000 cycles:  766130927 heartbeat IPC: 0.87183 cumulative IPC: 0.64771 (Simulation time: 0 hr 21 min 9 sec) 
Heartbeat CPU  0 instructions:  569000000 cycles:  767276685 heartbeat IPC: 0.87278 cumulative IPC: 0.64807 (Simulation time: 0 hr 21 min 11 sec) 
Heartbeat CPU  0 instructions:  570000003 cycles:  769926119 heartbeat IPC: 0.37744 cumulative IPC: 0.64708 (Simulation time: 0 hr 21 min 15 sec) 
Heartbeat CPU  0 instructions:  571000000 cycles:  772704259 heartbeat IPC: 0.35995 cumulative IPC: 0.64599 (Simulation time: 0 hr 21 min 18 sec) 
Heartbeat CPU  0 instructions:  572000000 cycles:  774992659 heartbeat IPC: 0.43699 cumulative IPC: 0.64534 (Simulation time: 0 hr 21 min 21 sec) 
Heartbeat CPU  0 instructions:  573000002 cycles:  777289089 heartbeat IPC: 0.43546 cumulative IPC: 0.64468 (Simulation time: 0 hr 21 min 24 sec) 
Heartbeat CPU  0 instructions:  574000001 cycles:  779571441 heartbeat IPC: 0.43814 cumulative IPC: 0.64404 (Simulation time: 0 hr 21 min 26 sec) 
Heartbeat CPU  0 instructions:  575000000 cycles:  781851542 heartbeat IPC: 0.43858 cumulative IPC: 0.64340 (Simulation time: 0 hr 21 min 29 sec) 
Heartbeat CPU  0 instructions:  576000000 cycles:  784102402 heartbeat IPC: 0.44427 cumulative IPC: 0.64280 (Simulation time: 0 hr 21 min 31 sec) 
Heartbeat CPU  0 instructions:  577000002 cycles:  786286258 heartbeat IPC: 0.45791 cumulative IPC: 0.64226 (Simulation time: 0 hr 21 min 34 sec) 
Heartbeat CPU  0 instructions:  578000001 cycles:  788463440 heartbeat IPC: 0.45931 cumulative IPC: 0.64172 (Simulation time: 0 hr 21 min 36 sec) 
Heartbeat CPU  0 instructions:  579000000 cycles:  790668401 heartbeat IPC: 0.45352 cumulative IPC: 0.64117 (Simulation time: 0 hr 21 min 39 sec) 
Heartbeat CPU  0 instructions:  580000000 cycles:  792896168 heartbeat IPC: 0.44888 cumulative IPC: 0.64059 (Simulation time: 0 hr 21 min 41 sec) 
Heartbeat CPU  0 instructions:  581000002 cycles:  795107765 heartbeat IPC: 0.45216 cumulative IPC: 0.64004 (Simulation time: 0 hr 21 min 44 sec) 
Heartbeat CPU  0 instructions:  582000001 cycles:  797304080 heartbeat IPC: 0.45531 cumulative IPC: 0.63950 (Simulation time: 0 hr 21 min 46 sec) 
Heartbeat CPU  0 instructions:  583000000 cycles:  799497532 heartbeat IPC: 0.45590 cumulative IPC: 0.63897 (Simulation time: 0 hr 21 min 49 sec) 
Heartbeat CPU  0 instructions:  584000000 cycles:  801689803 heartbeat IPC: 0.45615 cumulative IPC: 0.63844 (Simulation time: 0 hr 21 min 51 sec) 
Heartbeat CPU  0 instructions:  585000002 cycles:  803894162 heartbeat IPC: 0.45365 cumulative IPC: 0.63790 (Simulation time: 0 hr 21 min 54 sec) 
Heartbeat CPU  0 instructions:  586000000 cycles:  806113799 heartbeat IPC: 0.45052 cumulative IPC: 0.63736 (Simulation time: 0 hr 21 min 56 sec) 
Heartbeat CPU  0 instructions:  587000000 cycles:  808312340 heartbeat IPC: 0.45485 cumulative IPC: 0.63683 (Simulation time: 0 hr 21 min 59 sec) 
Heartbeat CPU  0 instructions:  588000000 cycles:  810515829 heartbeat IPC: 0.45383 cumulative IPC: 0.63631 (Simulation time: 0 hr 22 min 1 sec) 
Heartbeat CPU  0 instructions:  589000002 cycles:  812718256 heartbeat IPC: 0.45405 cumulative IPC: 0.63579 (Simulation time: 0 hr 22 min 4 sec) 
Heartbeat CPU  0 instructions:  590000003 cycles:  814926656 heartbeat IPC: 0.45282 cumulative IPC: 0.63526 (Simulation time: 0 hr 22 min 6 sec) 
Heartbeat CPU  0 instructions:  591000003 cycles:  817144327 heartbeat IPC: 0.45092 cumulative IPC: 0.63473 (Simulation time: 0 hr 22 min 9 sec) 
Heartbeat CPU  0 instructions:  592000000 cycles:  819357008 heartbeat IPC: 0.45194 cumulative IPC: 0.63421 (Simulation time: 0 hr 22 min 11 sec) 
Heartbeat CPU  0 instructions:  593000003 cycles:  821586036 heartbeat IPC: 0.44863 cumulative IPC: 0.63368 (Simulation time: 0 hr 22 min 14 sec) 
Heartbeat CPU  0 instructions:  594000002 cycles:  823386273 heartbeat IPC: 0.55548 cumulative IPC: 0.63350 (Simulation time: 0 hr 22 min 16 sec) 
Heartbeat CPU  0 instructions:  595000001 cycles:  825145049 heartbeat IPC: 0.56858 cumulative IPC: 0.63335 (Simulation time: 0 hr 22 min 19 sec) 
Heartbeat CPU  0 instructions:  596000000 cycles:  828120621 heartbeat IPC: 0.33607 cumulative IPC: 0.63223 (Simulation time: 0 hr 22 min 23 sec) 
Heartbeat CPU  0 instructions:  597000000 cycles:  831002380 heartbeat IPC: 0.34701 cumulative IPC: 0.63118 (Simulation time: 0 hr 22 min 27 sec) 
Heartbeat CPU  0 instructions:  598000002 cycles:  833906846 heartbeat IPC: 0.34430 cumulative IPC: 0.63013 (Simulation time: 0 hr 22 min 31 sec) 
Heartbeat CPU  0 instructions:  599000000 cycles:  835149146 heartbeat IPC: 0.80496 cumulative IPC: 0.63040 (Simulation time: 0 hr 22 min 33 sec) 
Heartbeat CPU  0 instructions:  600000000 cycles:  836426385 heartbeat IPC: 0.78294 cumulative IPC: 0.63065 (Simulation time: 0 hr 22 min 35 sec) 
Finished CPU 0 instructions: 500000002 cycles: 792835502 cumulative IPC: 0.63065 (Simulation time: 0 hr 22 min 35 sec) 

ChampSim completed all CPUs

[ROI Statistics]
Core_0_instructions 500000002
Core_0_cycles 792835502
Core_0_IPC 0.63065

Core_0_branch_prediction_accuracy 99.99934
Core_0_branch_MPKI 0.00033
Core_0_average_ROB_occupancy_at_mispredict 125.94479

Core_0_L1D_total_access 99812931
Core_0_L1D_total_hit 89756151
Core_0_L1D_total_miss 10056780
Core_0_L1D_loads 49420094
Core_0_L1D_load_hit 40963362
Core_0_L1D_load_miss 8456732
Core_0_L1D_RFOs 50392837
Core_0_L1D_RFO_hit 48792789
Core_0_L1D_RFO_miss 1600048
Core_0_L1D_prefetches 0
Core_0_L1D_prefetch_hit 0
Core_0_L1D_prefetch_miss 0
Core_0_L1D_writebacks 0
Core_0_L1D_writeback_hit 0
Core_0_L1D_writeback_miss 0
Core_0_L1D_prefetch_requested 0
Core_0_L1D_prefetch_dropped 0
Core_0_L1D_prefetch_issued 0
Core_0_L1D_prefetch_filled 0
Core_0_L1D_prefetch_useful 0
Core_0_L1D_prefetch_useless 0
Core_0_L1D_prefetch_late 0
Core_0_L1D_average_miss_latency 149.77162

Core_0_L1D_rq_access 153742990
Core_0_L1D_rq_forward 0
Core_0_L1D_rq_merged 97644826
Core_0_L1D_rq_to_cache 56098164
Core_0_L1D_rq_full 0

Core_0_L1D_wq_access 59520168
Core_0_L1D_wq_forward 0
Core_0_L1D_wq_merged 139992
Core_0_L1D_wq_to_cache 59380176
Core_0_L1D_wq_full 5723499

Core_0_L1D_pq_access 0
Core_0_L1D_pq_forward 0
Core_0_L1D_pq_merged 0
Core_0_L1D_pq_to_cache 0
Core_0_L1D_pq_full 0

Core_0_L1D_acc_epochs 717336
Core_0_L1D_acc_level_0 717336
Core_0_L1D_acc_level_1 0
Core_0_L1D_acc_level_2 0
Core_0_L1D_acc_level_3 0
Core_0_L1D_acc_level_4 0
Core_0_L1D_acc_level_5 0
Core_0_L1D_acc_level_6 0
Core_0_L1D_acc_level_7 0
Core_0_L1D_acc_level_8 0
Core_0_L1D_acc_level_9 0

Core_0_L1I_total_access 123152386
Core_0_L1I_total_hit 123152339
Core_0_L1I_total_miss 47
Core_0_L1I_loads 123152386
Core_0_L1I_load_hit 123152339
Core_0_L1I_load_miss 47
Core_0_L1I_RFOs 0
Core_0_L1I_RFO_hit 0
Core_0_L1I_RFO_miss 0
Core_0_L1I_prefetches 0
Core_0_L1I_prefetch_hit 0
Core_0_L1I_prefetch_miss 0
Core_0_L1I_writebacks 0
Core_0_L1I_writeback_hit 0
Core_0_L1I_writeback_miss 0
Core_0_L1I_prefetch_requested 0
Core_0_L1I_prefetch_dropped 0
Core_0_L1I_prefetch_issued 0
Core_0_L1I_prefetch_filled 0
Core_0_L1I_prefetch_useful 0
Core_0_L1I_prefetch_useless 0
Core_0_L1I_prefetch_late 0
Core_0_L1I_average_miss_latency 223.68085

Core_0_L1I_rq_access 500000004
Core_0_L1I_rq_forward 0
Core_0_L1I_rq_merged 376847579
Core_0_L1I_rq_to_cache 123152425
Core_0_L1I_rq_full 0

Core_0_L1I_wq_access 0
Core_0_L1I_wq_forward 0
Core_0_L1I_wq_merged 0
Core_0_L1I_wq_to_cache 0
Core_0_L1I_wq_full 0

Core_0_L1I_pq_access 0
Core_0_L1I_pq_forward 0
Core_0_L1I_pq_merged 0
Core_0_L1I_pq_to_cache 0
Core_0_L1I_pq_full 0

Core_0_L1I_acc_epochs 717336
Core_0_L1I_acc_level_0 717336
Core_0_L1I_acc_level_1 0
Core_0_L1I_acc_level_2 0
Core_0_L1I_acc_level_3 0
Core_0_L1I_acc_level_4 0
Core_0_L1I_acc_level_5 0
Core_0_L1I_acc_level_6 0
Core_0_L1I_acc_level_7 0
Core_0_L1I_acc_level_8 0
Core_0_L1I_acc_level_9 0

Core_0_L2C_total_access 16845084
Core_0_L2C_total_hit 6418890
Core_0_L2C_total_miss 10426194
Core_0_L2C_loads 8456779
Core_0_L2C_load_hit 1573037
Core_0_L2C_load_miss 6883742
Core_0_L2C_RFOs 1600048
Core_0_L2C_RFO_hit 2
Core_0_L2C_RFO_miss 1600046
Core_0_L2C_prefetches 3760874
Core_0_L2C_prefetch_hit 1827102
Core_0_L2C_prefetch_miss 1933772
Core_0_L2C_writebacks 3027383
Core_0_L2C_writeback_hit 3018749
Core_0_L2C_writeback_miss 8634
Core_0_L2C_prefetch_requested 28621693
Core_0_L2C_prefetch_dropped 0
Core_0_L2C_prefetch_issued 28621693
Core_0_L2C_prefetch_filled 2361530
Core_0_L2C_prefetch_useful 2000771
Core_0_L2C_prefetch_useless 360759
Core_0_L2C_prefetch_late 887175
Core_0_L2C_average_miss_latency 150.80844

Core_0_L2C_rq_access 10056827
Core_0_L2C_rq_forward 0
Core_0_L2C_rq_merged 0
Core_0_L2C_rq_to_cache 10056827
Core_0_L2C_rq_full 0

Core_0_L2C_wq_access 3027383
Core_0_L2C_wq_forward 0
Core_0_L2C_wq_merged 0
Core_0_L2C_wq_to_cache 3027383
Core_0_L2C_wq_full 0

Core_0_L2C_pq_access 28621693
Core_0_L2C_pq_forward 0
Core_0_L2C_pq_merged 4887290
Core_0_L2C_pq_to_cache 23734403
Core_0_L2C_pq_full 0

Core_0_L2C_acc_epochs 717336
Core_0_L2C_acc_level_0 19650
Core_0_L2C_acc_level_1 23677
Core_0_L2C_acc_level_2 36492
Core_0_L2C_acc_level_3 28839
Core_0_L2C_acc_level_4 35109
Core_0_L2C_acc_level_5 69471
Core_0_L2C_acc_level_6 115197
Core_0_L2C_acc_level_7 69582
Core_0_L2C_acc_level_8 63608
Core_0_L2C_acc_level_9 255711

Core_0_LLC_total_access 23022824
Core_0_LLC_total_hit 9538930
Core_0_LLC_total_miss 13483894
Core_0_LLC_loads 6020329
Core_0_LLC_load_hit 2753407
Core_0_LLC_load_miss 3266922
Core_0_LLC_RFOs 1600046
Core_0_LLC_RFO_hit 5268
Core_0_LLC_RFO_miss 1594778
Core_0_LLC_prefetches 12373488
Core_0_LLC_prefetch_hit 5672544
Core_0_LLC_prefetch_miss 6700944
Core_0_LLC_writebacks 3028961
Core_0_LLC_writeback_hit 1107711
Core_0_LLC_writeback_miss 1921250
Core_0_LLC_prefetch_requested 0
Core_0_LLC_prefetch_dropped 0
Core_0_LLC_prefetch_issued 0
Core_0_LLC_prefetch_filled 8083482
Core_0_LLC_prefetch_useful 3404366
Core_0_LLC_prefetch_useless 4667628
Core_0_LLC_prefetch_late 387259
Core_0_LLC_average_miss_latency 181.11267

Core_0_LLC_rq_access 7620375
Core_0_LLC_rq_forward 0
Core_0_LLC_rq_merged 0
Core_0_LLC_rq_to_cache 7620375
Core_0_LLC_rq_full 0

Core_0_LLC_wq_access 3028961
Core_0_LLC_wq_forward 0
Core_0_LLC_wq_merged 0
Core_0_LLC_wq_to_cache 3028961
Core_0_LLC_wq_full 0

Core_0_LLC_pq_access 19034863
Core_0_LLC_pq_forward 0
Core_0_LLC_pq_merged 527979
Core_0_LLC_pq_to_cache 18506884
Core_0_LLC_pq_full 0

Core_0_LLC_acc_epochs 816823
Core_0_LLC_acc_level_0 11244
Core_0_LLC_acc_level_1 47212
Core_0_LLC_acc_level_2 157906
Core_0_LLC_acc_level_3 140517
Core_0_LLC_acc_level_4 103423
Core_0_LLC_acc_level_5 128676
Core_0_LLC_acc_level_6 126828
Core_0_LLC_acc_level_7 64311
Core_0_LLC_acc_level_8 23038
Core_0_LLC_acc_level_9 13668

Core_0_major_page_fault 0
Core_0_minor_page_fault 95964

spp.pref.total 28621693
spp.pref.at_L2 4964563
spp.pref.at_LLC 23657130

spp.depth.max 11
spp.depth.min 0
spp.depth.avg 3

spp.breadth.max 2
spp.breadth.min 0
spp.breadth.avg 0

delta_1 22387642
delta_30 1219785
delta_11 1174791
delta_-34 1046170
delta_-1 782389
delta_-44 697126
delta_20 644457
delta_15 611166
delta_31 468800
delta_-46 435019
delta_18 380604
delta_-30 12505
delta_-42 7346
delta_2 159
delta_7 1

depth_1_delta_1 7014080
depth_1_delta_31 433786
depth_1_delta_30 427653
depth_1_delta_-34 423499
depth_1_delta_-1 347798
depth_1_delta_11 283594
depth_1_delta_20 239976
depth_1_delta_-44 168094
depth_1_delta_15 162656
depth_1_delta_18 162272
depth_1_delta_-46 136501
depth_1_delta_-30 12491
depth_1_delta_-42 7346
depth_1_delta_2 81
depth_1_delta_7 1
depth_2_delta_1 5595413
depth_2_delta_30 431713
depth_2_delta_-34 378053
depth_2_delta_11 362338
depth_2_delta_15 253545
depth_2_delta_20 239899
depth_2_delta_-44 168091
depth_2_delta_-1 162629
depth_2_delta_18 162266
depth_2_delta_-46 136280
depth_2_delta_31 34429
depth_2_delta_2 78
depth_2_delta_-30 8
depth_3_delta_1 2758189
depth_3_delta_11 296159
depth_3_delta_-34 166070
depth_3_delta_-44 129513
depth_3_delta_-1 126024
depth_3_delta_15 120174
depth_3_delta_-46 73354
depth_3_delta_30 56677
depth_3_delta_20 43295
depth_3_delta_31 428
depth_3_delta_18 160
depth_3_delta_-30 6
depth_4_delta_1 1986621
depth_4_delta_30 115935
depth_4_delta_-44 103788
depth_4_delta_-1 91684
depth_4_delta_11 89172
depth_4_delta_-46 39709
depth_4_delta_20 33207
depth_4_delta_-34 22391
depth_4_delta_18 20158
depth_4_delta_15 20136
depth_4_delta_31 157
depth_5_delta_1 1570262
depth_5_delta_-44 102534
depth_5_delta_30 100240
depth_5_delta_11 56412
depth_5_delta_-46 38186
depth_5_delta_20 27895
depth_5_delta_15 21818
depth_5_delta_-34 17427
depth_5_delta_-1 11943
depth_5_delta_18 11938
depth_6_delta_1 1258463
depth_6_delta_30 84711
depth_6_delta_11 54461
depth_6_delta_20 27152
depth_6_delta_15 20479
depth_6_delta_-1 20386
depth_6_delta_18 10214
depth_6_delta_-34 300
depth_6_delta_-44 175
depth_6_delta_-46 46
depth_7_delta_1 981833
depth_7_delta_-34 34045
depth_7_delta_11 25166
depth_7_delta_20 23627
depth_7_delta_-44 22438
depth_7_delta_-1 18597
depth_7_delta_18 9501
depth_7_delta_15 9422
depth_7_delta_-46 9123
depth_7_delta_30 2686
depth_8_delta_1 713485
depth_8_delta_20 9404
depth_8_delta_11 7468
depth_8_delta_18 4092
depth_8_delta_-34 3525
depth_8_delta_-1 3323
depth_8_delta_15 2930
depth_8_delta_-44 2493
depth_8_delta_-46 1819
depth_8_delta_30 160
depth_9_delta_1 385217
depth_9_delta_-34 860
depth_9_delta_11 21
depth_9_delta_30 8
depth_9_delta_15 6
depth_9_delta_-1 5
depth_9_delta_20 2
depth_9_delta_18 2
depth_9_delta_-46 1
depth_10_delta_1 120546
depth_10_delta_30 2
depth_10_delta_18 1
depth_11_delta_1 3533

Channel_0_RQ_row_buffer_hit 3877733
Channel_0_RQ_row_buffer_miss 7684907
Channel_0_WQ_row_buffer_hit 1186975
Channel_0_WQ_row_buffer_miss 1848275
Channel_0_WQ_full 74189
Channel_0_dbus_congested 3524234

avg_congested_cycle 1

DRAM_bw_pochs 3267291
DRAM_bw_level_0 3254418
DRAM_bw_level_1 12482
DRAM_bw_level_2 391
DRAM_bw_level_3 0
