*************************************************
   ChampSim Multicore Out-of-Order Simulator
   Last compiled: Dec 11 2024 17:59:53
*************************************************
parsing config file: /home/functionmain/桌面/Pythia/config/bingo.ini

trace_0 /home/functionmain/桌面/Pythia/traces/436.cactusADM-1804B.champsimtrace.xz
adding L2C_PREFETCHER: Bingo
Initialize SHIP state
warmup_instructions 100000000
simulation_instructions 500000000
champsim_seed 271
measure_ipc 0
measure_ipc_epoch 1000
measure_dram_bw 1
measure_dram_bw_epoch 256
measure_cache_acc 1
measure_cache_acc_epoch 1024
l1d_perfect 0
l2c_perfect 0
llc_perfect 0
l1d_semi_perfect 0
l2c_semi_perfect 0
llc_semi_perfect 0
semi_perfect_cache_page_buffer_size 64

num_cpus 1
cpu_freq 4000
dram_io_freq 300
page_size 4096
block_size 64
max_read_per_cycle 8
max_fill_per_cycle 1
dram_channels 1
log2_dram_channels 0
dram_ranks 1
dram_banks 8
dram_rows 65536
dram_columns 128
dram_row_size 8
dram_size 4096
dram_pages 1048576

fetch_width 6
decode_width 6
exec_width 4
lq_width 2
sq_width 2
retire_width 4
scheduler_size 128
branch_mispredict_penalty 20
rob_size 256
lq_size 72
sq_size 56
num_instr_destinations_sparc 4
num_instr_destinations 2
num_instr_sources 4

itlb_set 16
itlb_way 8
itlb_rq_size 16
itlb_wq_size 16
itlb_pq_size 0
itlb_mshr_size 8
itlb_latency 1

dtlb_set 16
dtlb_way 4
dtlb_rq_size 16
dtlb_wq_size 16
dtlb_pq_size 0
dtlb_mshr_size 8
dtlb_latency 1

stlb_set 128
stlb_way 12
stlb_rq_size 32
stlb_wq_size 32
stlb_pq_size 0
stlb_mshr_size 16
stlb_latency 8

l1i_size 32
l1i_set 64
l1i_way 8
l1i_rq_size 64
l1i_wq_size 64
l1i_pq_size 8
l1i_mshr_size 8
l1i_latency 1

l1d_size 32
l1d_set 64
l1d_way 8
l1d_rq_size 64
l1d_wq_size 64
l1d_pq_size 8
l1d_mshr_size 16
l1d_latency 4

l2c_size 256
l2c_set 512
l2c_way 8
l2c_rq_size 32
l2c_wq_size 32
l2c_pq_size 32
l2c_mshr_size 32
l2c_latency 10

llc_size 2048
llc_set 2048
llc_way 16
llc_rq_size 32
llc_wq_size 32
llc_pq_size 32
llc_mshr_size 64
llc_latency 20

dram_channel_width 8
dram_wq_size 64
dram_rq_size 64
tRP 15
tRCD 15
tCAS 12.5
dram_dbus_turn_around_time 30
dram_write_high_wm 56
dram_write_low_wm 48
min_dram_writes_per_switch 16
dram_mtps 300
dram_dbus_return_time 106

bingo_region_size 2048
bingo_pattern_len 32
bingo_pc_width 16
bingo_min_addr_width 5
bingo_max_addr_width 16
bingo_ft_size 64
bingo_at_size 128
bingo_pht_size 4096
bingo_pht_ways 16
bingo_pf_streamer_size 128
bingo_debug_level 0
bingo_l1d_thresh 1.01
bingo_l2c_thresh 0.8
bingo_llc_thresh 0.05
bingo_pc_address_fill_level L2


Heartbeat CPU  0 instructions:    1000003 cycles:     702358 heartbeat IPC: 1.42378 cumulative IPC: 1.42378 (Simulation time: 0 hr 0 min 2 sec) 
Heartbeat CPU  0 instructions:    2000000 cycles:    1404565 heartbeat IPC: 1.42408 cumulative IPC: 1.42393 (Simulation time: 0 hr 0 min 5 sec) 
Heartbeat CPU  0 instructions:    3000000 cycles:    2106905 heartbeat IPC: 1.42381 cumulative IPC: 1.42389 (Simulation time: 0 hr 0 min 7 sec) 
Heartbeat CPU  0 instructions:    4000000 cycles:    2809245 heartbeat IPC: 1.42381 cumulative IPC: 1.42387 (Simulation time: 0 hr 0 min 9 sec) 
Heartbeat CPU  0 instructions:    5000000 cycles:    3511433 heartbeat IPC: 1.42412 cumulative IPC: 1.42392 (Simulation time: 0 hr 0 min 12 sec) 
Heartbeat CPU  0 instructions:    6000000 cycles:    4213768 heartbeat IPC: 1.42382 cumulative IPC: 1.42390 (Simulation time: 0 hr 0 min 14 sec) 
Heartbeat CPU  0 instructions:    7000001 cycles:    4916154 heartbeat IPC: 1.42372 cumulative IPC: 1.42388 (Simulation time: 0 hr 0 min 17 sec) 
Heartbeat CPU  0 instructions:    8000000 cycles:    5618263 heartbeat IPC: 1.42428 cumulative IPC: 1.42393 (Simulation time: 0 hr 0 min 19 sec) 
Heartbeat CPU  0 instructions:    9000001 cycles:    6320730 heartbeat IPC: 1.42356 cumulative IPC: 1.42389 (Simulation time: 0 hr 0 min 21 sec) 
Heartbeat CPU  0 instructions:   10000000 cycles:    7022899 heartbeat IPC: 1.42416 cumulative IPC: 1.42391 (Simulation time: 0 hr 0 min 24 sec) 
Heartbeat CPU  0 instructions:   11000002 cycles:    7725101 heartbeat IPC: 1.42409 cumulative IPC: 1.42393 (Simulation time: 0 hr 0 min 26 sec) 
Heartbeat CPU  0 instructions:   12000000 cycles:    8427233 heartbeat IPC: 1.42423 cumulative IPC: 1.42395 (Simulation time: 0 hr 0 min 28 sec) 
Heartbeat CPU  0 instructions:   13000000 cycles:    9129800 heartbeat IPC: 1.42335 cumulative IPC: 1.42391 (Simulation time: 0 hr 0 min 31 sec) 
Heartbeat CPU  0 instructions:   14000002 cycles:    9832042 heartbeat IPC: 1.42401 cumulative IPC: 1.42392 (Simulation time: 0 hr 0 min 33 sec) 
Heartbeat CPU  0 instructions:   15000002 cycles:   10533965 heartbeat IPC: 1.42466 cumulative IPC: 1.42397 (Simulation time: 0 hr 0 min 35 sec) 
Heartbeat CPU  0 instructions:   16000000 cycles:   11236496 heartbeat IPC: 1.42342 cumulative IPC: 1.42393 (Simulation time: 0 hr 0 min 38 sec) 
Heartbeat CPU  0 instructions:   17000000 cycles:   11939027 heartbeat IPC: 1.42342 cumulative IPC: 1.42390 (Simulation time: 0 hr 0 min 40 sec) 
Heartbeat CPU  0 instructions:   18000001 cycles:   12600714 heartbeat IPC: 1.51129 cumulative IPC: 1.42849 (Simulation time: 0 hr 0 min 42 sec) 
Heartbeat CPU  0 instructions:   19000000 cycles:   13234770 heartbeat IPC: 1.57715 cumulative IPC: 1.43561 (Simulation time: 0 hr 0 min 45 sec) 
Heartbeat CPU  0 instructions:   20000000 cycles:   13937334 heartbeat IPC: 1.42336 cumulative IPC: 1.43499 (Simulation time: 0 hr 0 min 47 sec) 
Heartbeat CPU  0 instructions:   21000000 cycles:   14639716 heartbeat IPC: 1.42373 cumulative IPC: 1.43445 (Simulation time: 0 hr 0 min 49 sec) 
Heartbeat CPU  0 instructions:   22000002 cycles:   15342019 heartbeat IPC: 1.42389 cumulative IPC: 1.43397 (Simulation time: 0 hr 0 min 52 sec) 
Heartbeat CPU  0 instructions:   23000001 cycles:   16044381 heartbeat IPC: 1.42377 cumulative IPC: 1.43352 (Simulation time: 0 hr 0 min 54 sec) 
Heartbeat CPU  0 instructions:   24000000 cycles:   16746500 heartbeat IPC: 1.42426 cumulative IPC: 1.43314 (Simulation time: 0 hr 0 min 56 sec) 
Heartbeat CPU  0 instructions:   25000001 cycles:   17448797 heartbeat IPC: 1.42390 cumulative IPC: 1.43276 (Simulation time: 0 hr 0 min 59 sec) 
Heartbeat CPU  0 instructions:   26000003 cycles:   18151425 heartbeat IPC: 1.42323 cumulative IPC: 1.43239 (Simulation time: 0 hr 1 min 1 sec) 
Heartbeat CPU  0 instructions:   27000003 cycles:   18853640 heartbeat IPC: 1.42407 cumulative IPC: 1.43208 (Simulation time: 0 hr 1 min 4 sec) 
Heartbeat CPU  0 instructions:   28000000 cycles:   19555783 heartbeat IPC: 1.42421 cumulative IPC: 1.43180 (Simulation time: 0 hr 1 min 6 sec) 
Heartbeat CPU  0 instructions:   29000000 cycles:   20258224 heartbeat IPC: 1.42361 cumulative IPC: 1.43152 (Simulation time: 0 hr 1 min 8 sec) 
Heartbeat CPU  0 instructions:   30000003 cycles:   20960607 heartbeat IPC: 1.42373 cumulative IPC: 1.43126 (Simulation time: 0 hr 1 min 11 sec) 
Heartbeat CPU  0 instructions:   31000003 cycles:   21662566 heartbeat IPC: 1.42458 cumulative IPC: 1.43104 (Simulation time: 0 hr 1 min 13 sec) 
Heartbeat CPU  0 instructions:   32000000 cycles:   22364632 heartbeat IPC: 1.42436 cumulative IPC: 1.43083 (Simulation time: 0 hr 1 min 15 sec) 
Heartbeat CPU  0 instructions:   33000001 cycles:   23067342 heartbeat IPC: 1.42306 cumulative IPC: 1.43059 (Simulation time: 0 hr 1 min 18 sec) 
Heartbeat CPU  0 instructions:   34000000 cycles:   23769451 heartbeat IPC: 1.42428 cumulative IPC: 1.43041 (Simulation time: 0 hr 1 min 20 sec) 
Heartbeat CPU  0 instructions:   35000001 cycles:   24471706 heartbeat IPC: 1.42399 cumulative IPC: 1.43022 (Simulation time: 0 hr 1 min 22 sec) 
Heartbeat CPU  0 instructions:   36000000 cycles:   25173970 heartbeat IPC: 1.42396 cumulative IPC: 1.43005 (Simulation time: 0 hr 1 min 25 sec) 
Heartbeat CPU  0 instructions:   37000000 cycles:   25876514 heartbeat IPC: 1.42340 cumulative IPC: 1.42987 (Simulation time: 0 hr 1 min 27 sec) 
Heartbeat CPU  0 instructions:   38000001 cycles:   26578708 heartbeat IPC: 1.42411 cumulative IPC: 1.42972 (Simulation time: 0 hr 1 min 29 sec) 
Heartbeat CPU  0 instructions:   39000000 cycles:   27280970 heartbeat IPC: 1.42397 cumulative IPC: 1.42957 (Simulation time: 0 hr 1 min 32 sec) 
Heartbeat CPU  0 instructions:   40000000 cycles:   27983255 heartbeat IPC: 1.42392 cumulative IPC: 1.42943 (Simulation time: 0 hr 1 min 34 sec) 
Heartbeat CPU  0 instructions:   41000000 cycles:   28587298 heartbeat IPC: 1.65551 cumulative IPC: 1.43420 (Simulation time: 0 hr 1 min 37 sec) 
Heartbeat CPU  0 instructions:   42000002 cycles:   29278408 heartbeat IPC: 1.44695 cumulative IPC: 1.43450 (Simulation time: 0 hr 1 min 39 sec) 
Heartbeat CPU  0 instructions:   43000002 cycles:   29980814 heartbeat IPC: 1.42368 cumulative IPC: 1.43425 (Simulation time: 0 hr 1 min 41 sec) 
Heartbeat CPU  0 instructions:   44000000 cycles:   30683245 heartbeat IPC: 1.42362 cumulative IPC: 1.43401 (Simulation time: 0 hr 1 min 44 sec) 
Heartbeat CPU  0 instructions:   45000003 cycles:   31385530 heartbeat IPC: 1.42393 cumulative IPC: 1.43378 (Simulation time: 0 hr 1 min 46 sec) 
Heartbeat CPU  0 instructions:   46000003 cycles:   32087715 heartbeat IPC: 1.42413 cumulative IPC: 1.43357 (Simulation time: 0 hr 1 min 48 sec) 
Heartbeat CPU  0 instructions:   47000000 cycles:   32789882 heartbeat IPC: 1.42416 cumulative IPC: 1.43337 (Simulation time: 0 hr 1 min 51 sec) 
Heartbeat CPU  0 instructions:   48000000 cycles:   33492504 heartbeat IPC: 1.42324 cumulative IPC: 1.43316 (Simulation time: 0 hr 1 min 53 sec) 
Heartbeat CPU  0 instructions:   49000000 cycles:   34194517 heartbeat IPC: 1.42448 cumulative IPC: 1.43298 (Simulation time: 0 hr 1 min 55 sec) 
Heartbeat CPU  0 instructions:   50000000 cycles:   34896851 heartbeat IPC: 1.42382 cumulative IPC: 1.43279 (Simulation time: 0 hr 1 min 58 sec) 
Heartbeat CPU  0 instructions:   51000000 cycles:   35599367 heartbeat IPC: 1.42346 cumulative IPC: 1.43261 (Simulation time: 0 hr 2 min 0 sec) 
Heartbeat CPU  0 instructions:   52000000 cycles:   36301555 heartbeat IPC: 1.42412 cumulative IPC: 1.43245 (Simulation time: 0 hr 2 min 3 sec) 
Heartbeat CPU  0 instructions:   53000000 cycles:   37003992 heartbeat IPC: 1.42362 cumulative IPC: 1.43228 (Simulation time: 0 hr 2 min 5 sec) 
Heartbeat CPU  0 instructions:   54000001 cycles:   37706084 heartbeat IPC: 1.42432 cumulative IPC: 1.43213 (Simulation time: 0 hr 2 min 7 sec) 
Heartbeat CPU  0 instructions:   55000001 cycles:   38408371 heartbeat IPC: 1.42392 cumulative IPC: 1.43198 (Simulation time: 0 hr 2 min 10 sec) 
Heartbeat CPU  0 instructions:   56000000 cycles:   39110857 heartbeat IPC: 1.42351 cumulative IPC: 1.43183 (Simulation time: 0 hr 2 min 12 sec) 
Heartbeat CPU  0 instructions:   57000000 cycles:   39813341 heartbeat IPC: 1.42352 cumulative IPC: 1.43168 (Simulation time: 0 hr 2 min 14 sec) 
Heartbeat CPU  0 instructions:   58000003 cycles:   40515663 heartbeat IPC: 1.42385 cumulative IPC: 1.43155 (Simulation time: 0 hr 2 min 17 sec) 
Heartbeat CPU  0 instructions:   59000000 cycles:   41217798 heartbeat IPC: 1.42422 cumulative IPC: 1.43142 (Simulation time: 0 hr 2 min 19 sec) 
Heartbeat CPU  0 instructions:   60000000 cycles:   41920222 heartbeat IPC: 1.42364 cumulative IPC: 1.43129 (Simulation time: 0 hr 2 min 21 sec) 
Heartbeat CPU  0 instructions:   61000000 cycles:   42622419 heartbeat IPC: 1.42410 cumulative IPC: 1.43117 (Simulation time: 0 hr 2 min 24 sec) 
Heartbeat CPU  0 instructions:   62000002 cycles:   43324676 heartbeat IPC: 1.42398 cumulative IPC: 1.43106 (Simulation time: 0 hr 2 min 26 sec) 
Heartbeat CPU  0 instructions:   63000000 cycles:   43971272 heartbeat IPC: 1.54656 cumulative IPC: 1.43275 (Simulation time: 0 hr 2 min 29 sec) 
Heartbeat CPU  0 instructions:   64000000 cycles:   44621419 heartbeat IPC: 1.53811 cumulative IPC: 1.43429 (Simulation time: 0 hr 2 min 31 sec) 
Heartbeat CPU  0 instructions:   65000000 cycles:   45323503 heartbeat IPC: 1.42433 cumulative IPC: 1.43413 (Simulation time: 0 hr 2 min 33 sec) 
Heartbeat CPU  0 instructions:   66000001 cycles:   46025597 heartbeat IPC: 1.42431 cumulative IPC: 1.43398 (Simulation time: 0 hr 2 min 36 sec) 
Heartbeat CPU  0 instructions:   67000002 cycles:   46727722 heartbeat IPC: 1.42425 cumulative IPC: 1.43384 (Simulation time: 0 hr 2 min 38 sec) 
Heartbeat CPU  0 instructions:   68000000 cycles:   47430107 heartbeat IPC: 1.42372 cumulative IPC: 1.43369 (Simulation time: 0 hr 2 min 40 sec) 
Heartbeat CPU  0 instructions:   69000000 cycles:   48132271 heartbeat IPC: 1.42417 cumulative IPC: 1.43355 (Simulation time: 0 hr 2 min 43 sec) 
Heartbeat CPU  0 instructions:   70000002 cycles:   48834372 heartbeat IPC: 1.42430 cumulative IPC: 1.43342 (Simulation time: 0 hr 2 min 45 sec) 
Heartbeat CPU  0 instructions:   71000003 cycles:   49537006 heartbeat IPC: 1.42322 cumulative IPC: 1.43327 (Simulation time: 0 hr 2 min 47 sec) 
Heartbeat CPU  0 instructions:   72000000 cycles:   50239092 heartbeat IPC: 1.42432 cumulative IPC: 1.43315 (Simulation time: 0 hr 2 min 50 sec) 
Heartbeat CPU  0 instructions:   73000001 cycles:   50941224 heartbeat IPC: 1.42423 cumulative IPC: 1.43302 (Simulation time: 0 hr 2 min 52 sec) 
Heartbeat CPU  0 instructions:   74000003 cycles:   51643543 heartbeat IPC: 1.42386 cumulative IPC: 1.43290 (Simulation time: 0 hr 2 min 55 sec) 
Heartbeat CPU  0 instructions:   75000002 cycles:   52346219 heartbeat IPC: 1.42313 cumulative IPC: 1.43277 (Simulation time: 0 hr 2 min 57 sec) 
Heartbeat CPU  0 instructions:   76000000 cycles:   53048418 heartbeat IPC: 1.42409 cumulative IPC: 1.43265 (Simulation time: 0 hr 2 min 59 sec) 
Heartbeat CPU  0 instructions:   77000003 cycles:   53751047 heartbeat IPC: 1.42323 cumulative IPC: 1.43253 (Simulation time: 0 hr 3 min 2 sec) 
Heartbeat CPU  0 instructions:   78000001 cycles:   54453549 heartbeat IPC: 1.42348 cumulative IPC: 1.43241 (Simulation time: 0 hr 3 min 4 sec) 
Heartbeat CPU  0 instructions:   79000001 cycles:   55155481 heartbeat IPC: 1.42464 cumulative IPC: 1.43231 (Simulation time: 0 hr 3 min 6 sec) 
Heartbeat CPU  0 instructions:   80000000 cycles:   55857549 heartbeat IPC: 1.42436 cumulative IPC: 1.43221 (Simulation time: 0 hr 3 min 9 sec) 
Heartbeat CPU  0 instructions:   81000002 cycles:   56559921 heartbeat IPC: 1.42375 cumulative IPC: 1.43211 (Simulation time: 0 hr 3 min 11 sec) 
Heartbeat CPU  0 instructions:   82000003 cycles:   57262171 heartbeat IPC: 1.42400 cumulative IPC: 1.43201 (Simulation time: 0 hr 3 min 13 sec) 
Heartbeat CPU  0 instructions:   83000001 cycles:   57964438 heartbeat IPC: 1.42396 cumulative IPC: 1.43191 (Simulation time: 0 hr 3 min 16 sec) 
Heartbeat CPU  0 instructions:   84000000 cycles:   58666670 heartbeat IPC: 1.42403 cumulative IPC: 1.43182 (Simulation time: 0 hr 3 min 18 sec) 
Heartbeat CPU  0 instructions:   85000000 cycles:   59355247 heartbeat IPC: 1.45227 cumulative IPC: 1.43206 (Simulation time: 0 hr 3 min 21 sec) 
Heartbeat CPU  0 instructions:   86000002 cycles:   59962630 heartbeat IPC: 1.64641 cumulative IPC: 1.43423 (Simulation time: 0 hr 3 min 23 sec) 
Heartbeat CPU  0 instructions:   87000002 cycles:   60665108 heartbeat IPC: 1.42353 cumulative IPC: 1.43410 (Simulation time: 0 hr 3 min 25 sec) 
Heartbeat CPU  0 instructions:   88000000 cycles:   61367738 heartbeat IPC: 1.42322 cumulative IPC: 1.43398 (Simulation time: 0 hr 3 min 28 sec) 
Heartbeat CPU  0 instructions:   89000001 cycles:   62069762 heartbeat IPC: 1.42445 cumulative IPC: 1.43387 (Simulation time: 0 hr 3 min 30 sec) 
Heartbeat CPU  0 instructions:   90000003 cycles:   62772084 heartbeat IPC: 1.42385 cumulative IPC: 1.43376 (Simulation time: 0 hr 3 min 32 sec) 
Heartbeat CPU  0 instructions:   91000003 cycles:   63474473 heartbeat IPC: 1.42371 cumulative IPC: 1.43365 (Simulation time: 0 hr 3 min 35 sec) 
Heartbeat CPU  0 instructions:   92000000 cycles:   64176670 heartbeat IPC: 1.42410 cumulative IPC: 1.43354 (Simulation time: 0 hr 3 min 37 sec) 
Heartbeat CPU  0 instructions:   93000002 cycles:   64879055 heartbeat IPC: 1.42372 cumulative IPC: 1.43344 (Simulation time: 0 hr 3 min 39 sec) 
Heartbeat CPU  0 instructions:   94000002 cycles:   65581076 heartbeat IPC: 1.42446 cumulative IPC: 1.43334 (Simulation time: 0 hr 3 min 42 sec) 
Heartbeat CPU  0 instructions:   95000003 cycles:   66283238 heartbeat IPC: 1.42417 cumulative IPC: 1.43324 (Simulation time: 0 hr 3 min 44 sec) 
Heartbeat CPU  0 instructions:   96000000 cycles:   66985485 heartbeat IPC: 1.42400 cumulative IPC: 1.43315 (Simulation time: 0 hr 3 min 47 sec) 
Heartbeat CPU  0 instructions:   97000000 cycles:   67687829 heartbeat IPC: 1.42380 cumulative IPC: 1.43305 (Simulation time: 0 hr 3 min 49 sec) 
Heartbeat CPU  0 instructions:   98000002 cycles:   68390019 heartbeat IPC: 1.42412 cumulative IPC: 1.43296 (Simulation time: 0 hr 3 min 51 sec) 
Heartbeat CPU  0 instructions:   99000003 cycles:   69092236 heartbeat IPC: 1.42406 cumulative IPC: 1.43287 (Simulation time: 0 hr 3 min 54 sec) 
Heartbeat CPU  0 instructions:  100000000 cycles:   69794613 heartbeat IPC: 1.42373 cumulative IPC: 1.43278 (Simulation time: 0 hr 3 min 56 sec) 

Warmup complete CPU  0 instructions:  100000001 cycles:   69794633 (Simulation time: 0 hr 3 min 56 sec) 

Heartbeat CPU  0 instructions:  101000000 cycles:   71721620 heartbeat IPC: 0.51894 cumulative IPC: 0.51894 (Simulation time: 0 hr 3 min 59 sec) 
Heartbeat CPU  0 instructions:  102000003 cycles:   73474206 heartbeat IPC: 0.57059 cumulative IPC: 0.54354 (Simulation time: 0 hr 4 min 2 sec) 
Heartbeat CPU  0 instructions:  103000003 cycles:   75340813 heartbeat IPC: 0.53573 cumulative IPC: 0.54091 (Simulation time: 0 hr 4 min 4 sec) 
Heartbeat CPU  0 instructions:  104000000 cycles:   77259663 heartbeat IPC: 0.52114 cumulative IPC: 0.53583 (Simulation time: 0 hr 4 min 7 sec) 
Heartbeat CPU  0 instructions:  105000002 cycles:   79092214 heartbeat IPC: 0.54569 cumulative IPC: 0.53777 (Simulation time: 0 hr 4 min 10 sec) 
Heartbeat CPU  0 instructions:  106000000 cycles:   80885189 heartbeat IPC: 0.55773 cumulative IPC: 0.54100 (Simulation time: 0 hr 4 min 13 sec) 
Heartbeat CPU  0 instructions:  107000003 cycles:   82797049 heartbeat IPC: 0.52305 cumulative IPC: 0.53836 (Simulation time: 0 hr 4 min 15 sec) 
Heartbeat CPU  0 instructions:  108000000 cycles:   94684099 heartbeat IPC: 0.08412 cumulative IPC: 0.32142 (Simulation time: 0 hr 4 min 20 sec) 
Heartbeat CPU  0 instructions:  109000003 cycles:  102062198 heartbeat IPC: 0.13554 cumulative IPC: 0.27892 (Simulation time: 0 hr 4 min 23 sec) 
Heartbeat CPU  0 instructions:  110000001 cycles:  103999453 heartbeat IPC: 0.51619 cumulative IPC: 0.29236 (Simulation time: 0 hr 4 min 26 sec) 
Heartbeat CPU  0 instructions:  111000000 cycles:  105954910 heartbeat IPC: 0.51139 cumulative IPC: 0.30420 (Simulation time: 0 hr 4 min 29 sec) 
Heartbeat CPU  0 instructions:  112000000 cycles:  107750540 heartbeat IPC: 0.55691 cumulative IPC: 0.31616 (Simulation time: 0 hr 4 min 31 sec) 
Heartbeat CPU  0 instructions:  113000000 cycles:  109642263 heartbeat IPC: 0.52862 cumulative IPC: 0.32624 (Simulation time: 0 hr 4 min 34 sec) 
Heartbeat CPU  0 instructions:  114000000 cycles:  111589884 heartbeat IPC: 0.51345 cumulative IPC: 0.33497 (Simulation time: 0 hr 4 min 37 sec) 
Heartbeat CPU  0 instructions:  115000001 cycles:  113436373 heartbeat IPC: 0.54157 cumulative IPC: 0.34371 (Simulation time: 0 hr 4 min 40 sec) 
Heartbeat CPU  0 instructions:  116000000 cycles:  115243059 heartbeat IPC: 0.55350 cumulative IPC: 0.35205 (Simulation time: 0 hr 4 min 42 sec) 
Heartbeat CPU  0 instructions:  117000003 cycles:  117173756 heartbeat IPC: 0.51795 cumulative IPC: 0.35881 (Simulation time: 0 hr 4 min 45 sec) 
Heartbeat CPU  0 instructions:  118000002 cycles:  119080596 heartbeat IPC: 0.52443 cumulative IPC: 0.36522 (Simulation time: 0 hr 4 min 48 sec) 
Heartbeat CPU  0 instructions:  119000002 cycles:  120829042 heartbeat IPC: 0.57194 cumulative IPC: 0.37230 (Simulation time: 0 hr 4 min 51 sec) 
Heartbeat CPU  0 instructions:  120000000 cycles:  122750583 heartbeat IPC: 0.52041 cumulative IPC: 0.37767 (Simulation time: 0 hr 4 min 53 sec) 
Heartbeat CPU  0 instructions:  121000003 cycles:  124668254 heartbeat IPC: 0.52147 cumulative IPC: 0.38270 (Simulation time: 0 hr 4 min 56 sec) 
Heartbeat CPU  0 instructions:  122000000 cycles:  126456189 heartbeat IPC: 0.55930 cumulative IPC: 0.38827 (Simulation time: 0 hr 4 min 59 sec) 
Heartbeat CPU  0 instructions:  123000002 cycles:  128312827 heartbeat IPC: 0.53861 cumulative IPC: 0.39304 (Simulation time: 0 hr 5 min 2 sec) 
Heartbeat CPU  0 instructions:  124000000 cycles:  130236529 heartbeat IPC: 0.51983 cumulative IPC: 0.39708 (Simulation time: 0 hr 5 min 5 sec) 
Heartbeat CPU  0 instructions:  125000000 cycles:  132107796 heartbeat IPC: 0.53440 cumulative IPC: 0.40120 (Simulation time: 0 hr 5 min 7 sec) 
Heartbeat CPU  0 instructions:  126000002 cycles:  133902372 heartbeat IPC: 0.55724 cumulative IPC: 0.40557 (Simulation time: 0 hr 5 min 10 sec) 
Heartbeat CPU  0 instructions:  127000002 cycles:  135943504 heartbeat IPC: 0.48992 cumulative IPC: 0.40817 (Simulation time: 0 hr 5 min 13 sec) 
Heartbeat CPU  0 instructions:  128000000 cycles:  137852518 heartbeat IPC: 0.52383 cumulative IPC: 0.41141 (Simulation time: 0 hr 5 min 16 sec) 
Heartbeat CPU  0 instructions:  129000001 cycles:  139591537 heartbeat IPC: 0.57504 cumulative IPC: 0.41549 (Simulation time: 0 hr 5 min 18 sec) 
Heartbeat CPU  0 instructions:  130000000 cycles:  145572615 heartbeat IPC: 0.16719 cumulative IPC: 0.39589 (Simulation time: 0 hr 5 min 22 sec) 
Heartbeat CPU  0 instructions:  131000003 cycles:  158800327 heartbeat IPC: 0.07560 cumulative IPC: 0.34829 (Simulation time: 0 hr 5 min 26 sec) 
Heartbeat CPU  0 instructions:  132000000 cycles:  160612299 heartbeat IPC: 0.55188 cumulative IPC: 0.35235 (Simulation time: 0 hr 5 min 29 sec) 
Heartbeat CPU  0 instructions:  133000000 cycles:  162478827 heartbeat IPC: 0.53575 cumulative IPC: 0.35605 (Simulation time: 0 hr 5 min 32 sec) 
Heartbeat CPU  0 instructions:  134000000 cycles:  164421322 heartbeat IPC: 0.51480 cumulative IPC: 0.35931 (Simulation time: 0 hr 5 min 34 sec) 
Heartbeat CPU  0 instructions:  135000000 cycles:  166291633 heartbeat IPC: 0.53467 cumulative IPC: 0.36271 (Simulation time: 0 hr 5 min 37 sec) 
Heartbeat CPU  0 instructions:  136000000 cycles:  168084180 heartbeat IPC: 0.55787 cumulative IPC: 0.36626 (Simulation time: 0 hr 5 min 40 sec) 
Heartbeat CPU  0 instructions:  137000002 cycles:  170010961 heartbeat IPC: 0.51900 cumulative IPC: 0.36920 (Simulation time: 0 hr 5 min 43 sec) 
Heartbeat CPU  0 instructions:  138000001 cycles:  171921340 heartbeat IPC: 0.52346 cumulative IPC: 0.37209 (Simulation time: 0 hr 5 min 45 sec) 
Heartbeat CPU  0 instructions:  139000001 cycles:  173666040 heartbeat IPC: 0.57316 cumulative IPC: 0.37546 (Simulation time: 0 hr 5 min 48 sec) 
Heartbeat CPU  0 instructions:  140000000 cycles:  175574464 heartbeat IPC: 0.52399 cumulative IPC: 0.37814 (Simulation time: 0 hr 5 min 51 sec) 
Heartbeat CPU  0 instructions:  141000000 cycles:  177492269 heartbeat IPC: 0.52143 cumulative IPC: 0.38070 (Simulation time: 0 hr 5 min 54 sec) 
Heartbeat CPU  0 instructions:  142000001 cycles:  179290225 heartbeat IPC: 0.55619 cumulative IPC: 0.38358 (Simulation time: 0 hr 5 min 56 sec) 
Heartbeat CPU  0 instructions:  143000001 cycles:  181133278 heartbeat IPC: 0.54258 cumulative IPC: 0.38621 (Simulation time: 0 hr 5 min 59 sec) 
Heartbeat CPU  0 instructions:  144000000 cycles:  183061362 heartbeat IPC: 0.51865 cumulative IPC: 0.38846 (Simulation time: 0 hr 6 min 2 sec) 
Heartbeat CPU  0 instructions:  145000000 cycles:  184940352 heartbeat IPC: 0.53220 cumulative IPC: 0.39081 (Simulation time: 0 hr 6 min 5 sec) 
Heartbeat CPU  0 instructions:  146000002 cycles:  186706236 heartbeat IPC: 0.56629 cumulative IPC: 0.39346 (Simulation time: 0 hr 6 min 7 sec) 
Heartbeat CPU  0 instructions:  147000003 cycles:  188625960 heartbeat IPC: 0.52091 cumulative IPC: 0.39552 (Simulation time: 0 hr 6 min 10 sec) 
Heartbeat CPU  0 instructions:  148000000 cycles:  190536762 heartbeat IPC: 0.52334 cumulative IPC: 0.39754 (Simulation time: 0 hr 6 min 13 sec) 
Heartbeat CPU  0 instructions:  149000002 cycles:  192292085 heartbeat IPC: 0.56970 cumulative IPC: 0.40001 (Simulation time: 0 hr 6 min 16 sec) 
Heartbeat CPU  0 instructions:  150000003 cycles:  194186792 heartbeat IPC: 0.52779 cumulative IPC: 0.40195 (Simulation time: 0 hr 6 min 18 sec) 
Heartbeat CPU  0 instructions:  151000003 cycles:  196102893 heartbeat IPC: 0.52189 cumulative IPC: 0.40377 (Simulation time: 0 hr 6 min 21 sec) 
Heartbeat CPU  0 instructions:  152000000 cycles:  197927877 heartbeat IPC: 0.54795 cumulative IPC: 0.40583 (Simulation time: 0 hr 6 min 24 sec) 
Heartbeat CPU  0 instructions:  153000003 cycles:  211777066 heartbeat IPC: 0.07221 cumulative IPC: 0.37329 (Simulation time: 0 hr 6 min 28 sec) 
Heartbeat CPU  0 instructions:  154000000 cycles:  217154822 heartbeat IPC: 0.18595 cumulative IPC: 0.36645 (Simulation time: 0 hr 6 min 32 sec) 
Heartbeat CPU  0 instructions:  155000000 cycles:  219050765 heartbeat IPC: 0.52744 cumulative IPC: 0.36849 (Simulation time: 0 hr 6 min 34 sec) 
Heartbeat CPU  0 instructions:  156000000 cycles:  220824884 heartbeat IPC: 0.56366 cumulative IPC: 0.37079 (Simulation time: 0 hr 6 min 37 sec) 
Heartbeat CPU  0 instructions:  157000001 cycles:  222751575 heartbeat IPC: 0.51903 cumulative IPC: 0.37265 (Simulation time: 0 hr 6 min 40 sec) 
Heartbeat CPU  0 instructions:  158000001 cycles:  224676959 heartbeat IPC: 0.51938 cumulative IPC: 0.37448 (Simulation time: 0 hr 6 min 43 sec) 
Heartbeat CPU  0 instructions:  159000000 cycles:  226428915 heartbeat IPC: 0.57079 cumulative IPC: 0.37667 (Simulation time: 0 hr 6 min 45 sec) 
Heartbeat CPU  0 instructions:  160000000 cycles:  228329420 heartbeat IPC: 0.52618 cumulative IPC: 0.37847 (Simulation time: 0 hr 6 min 48 sec) 
Heartbeat CPU  0 instructions:  161000003 cycles:  230254458 heartbeat IPC: 0.51947 cumulative IPC: 0.38016 (Simulation time: 0 hr 6 min 51 sec) 
Heartbeat CPU  0 instructions:  162000000 cycles:  232074575 heartbeat IPC: 0.54941 cumulative IPC: 0.38206 (Simulation time: 0 hr 6 min 54 sec) 
Heartbeat CPU  0 instructions:  163000003 cycles:  233897009 heartbeat IPC: 0.54872 cumulative IPC: 0.38391 (Simulation time: 0 hr 6 min 56 sec) 
Heartbeat CPU  0 instructions:  164000000 cycles:  235817913 heartbeat IPC: 0.52059 cumulative IPC: 0.38549 (Simulation time: 0 hr 6 min 59 sec) 
Heartbeat CPU  0 instructions:  165000000 cycles:  237719649 heartbeat IPC: 0.52584 cumulative IPC: 0.38708 (Simulation time: 0 hr 7 min 2 sec) 
Heartbeat CPU  0 instructions:  166000001 cycles:  239465043 heartbeat IPC: 0.57294 cumulative IPC: 0.38899 (Simulation time: 0 hr 7 min 5 sec) 
Heartbeat CPU  0 instructions:  167000000 cycles:  241379781 heartbeat IPC: 0.52226 cumulative IPC: 0.39048 (Simulation time: 0 hr 7 min 7 sec) 
Heartbeat CPU  0 instructions:  168000000 cycles:  243296814 heartbeat IPC: 0.52164 cumulative IPC: 0.39193 (Simulation time: 0 hr 7 min 10 sec) 
Heartbeat CPU  0 instructions:  169000001 cycles:  245061248 heartbeat IPC: 0.56675 cumulative IPC: 0.39369 (Simulation time: 0 hr 7 min 13 sec) 
Heartbeat CPU  0 instructions:  170000002 cycles:  246937773 heartbeat IPC: 0.53290 cumulative IPC: 0.39516 (Simulation time: 0 hr 7 min 16 sec) 
Heartbeat CPU  0 instructions:  171000001 cycles:  248858200 heartbeat IPC: 0.52072 cumulative IPC: 0.39651 (Simulation time: 0 hr 7 min 18 sec) 
Heartbeat CPU  0 instructions:  172000000 cycles:  250690617 heartbeat IPC: 0.54573 cumulative IPC: 0.39802 (Simulation time: 0 hr 7 min 21 sec) 
Heartbeat CPU  0 instructions:  173000000 cycles:  252491663 heartbeat IPC: 0.55523 cumulative IPC: 0.39957 (Simulation time: 0 hr 7 min 24 sec) 
Heartbeat CPU  0 instructions:  174000003 cycles:  254415810 heartbeat IPC: 0.51971 cumulative IPC: 0.40082 (Simulation time: 0 hr 7 min 27 sec) 
Heartbeat CPU  0 instructions:  175000000 cycles:  262303192 heartbeat IPC: 0.12678 cumulative IPC: 0.38959 (Simulation time: 0 hr 7 min 30 sec) 
Heartbeat CPU  0 instructions:  176000000 cycles:  273484134 heartbeat IPC: 0.08944 cumulative IPC: 0.37312 (Simulation time: 0 hr 7 min 34 sec) 
Heartbeat CPU  0 instructions:  177000001 cycles:  275491395 heartbeat IPC: 0.49819 cumulative IPC: 0.37434 (Simulation time: 0 hr 7 min 37 sec) 
Heartbeat CPU  0 instructions:  178000003 cycles:  277569207 heartbeat IPC: 0.48128 cumulative IPC: 0.37541 (Simulation time: 0 hr 7 min 40 sec) 
Heartbeat CPU  0 instructions:  179000002 cycles:  279512946 heartbeat IPC: 0.51447 cumulative IPC: 0.37670 (Simulation time: 0 hr 7 min 43 sec) 
Heartbeat CPU  0 instructions:  180000000 cycles:  281432779 heartbeat IPC: 0.52088 cumulative IPC: 0.37800 (Simulation time: 0 hr 7 min 45 sec) 
Heartbeat CPU  0 instructions:  181000003 cycles:  283379851 heartbeat IPC: 0.51359 cumulative IPC: 0.37924 (Simulation time: 0 hr 7 min 48 sec) 
Heartbeat CPU  0 instructions:  182000003 cycles:  285241302 heartbeat IPC: 0.53722 cumulative IPC: 0.38060 (Simulation time: 0 hr 7 min 51 sec) 
Heartbeat CPU  0 instructions:  183000000 cycles:  287079401 heartbeat IPC: 0.54404 cumulative IPC: 0.38199 (Simulation time: 0 hr 7 min 54 sec) 
Heartbeat CPU  0 instructions:  184000000 cycles:  289015229 heartbeat IPC: 0.51657 cumulative IPC: 0.38318 (Simulation time: 0 hr 7 min 56 sec) 
Heartbeat CPU  0 instructions:  185000002 cycles:  290935710 heartbeat IPC: 0.52070 cumulative IPC: 0.38437 (Simulation time: 0 hr 7 min 59 sec) 
Heartbeat CPU  0 instructions:  186000001 cycles:  292717964 heartbeat IPC: 0.56109 cumulative IPC: 0.38578 (Simulation time: 0 hr 8 min 2 sec) 
Heartbeat CPU  0 instructions:  187000000 cycles:  294646091 heartbeat IPC: 0.51864 cumulative IPC: 0.38692 (Simulation time: 0 hr 8 min 6 sec) 
Heartbeat CPU  0 instructions:  188000000 cycles:  296582319 heartbeat IPC: 0.51647 cumulative IPC: 0.38803 (Simulation time: 0 hr 8 min 9 sec) 
Heartbeat CPU  0 instructions:  189000000 cycles:  298378186 heartbeat IPC: 0.55683 cumulative IPC: 0.38935 (Simulation time: 0 hr 8 min 12 sec) 
Heartbeat CPU  0 instructions:  190000000 cycles:  300267208 heartbeat IPC: 0.52937 cumulative IPC: 0.39050 (Simulation time: 0 hr 8 min 15 sec) 
Heartbeat CPU  0 instructions:  191000000 cycles:  302200098 heartbeat IPC: 0.51736 cumulative IPC: 0.39156 (Simulation time: 0 hr 8 min 19 sec) 
Heartbeat CPU  0 instructions:  192000000 cycles:  304064832 heartbeat IPC: 0.53627 cumulative IPC: 0.39271 (Simulation time: 0 hr 8 min 22 sec) 
Heartbeat CPU  0 instructions:  193000001 cycles:  305879381 heartbeat IPC: 0.55110 cumulative IPC: 0.39393 (Simulation time: 0 hr 8 min 25 sec) 
Heartbeat CPU  0 instructions:  194000000 cycles:  307816551 heartbeat IPC: 0.51622 cumulative IPC: 0.39492 (Simulation time: 0 hr 8 min 28 sec) 
Heartbeat CPU  0 instructions:  195000002 cycles:  309740791 heartbeat IPC: 0.51969 cumulative IPC: 0.39592 (Simulation time: 0 hr 8 min 31 sec) 
Heartbeat CPU  0 instructions:  196000000 cycles:  311517591 heartbeat IPC: 0.56281 cumulative IPC: 0.39715 (Simulation time: 0 hr 8 min 34 sec) 
Heartbeat CPU  0 instructions:  197000000 cycles:  313579626 heartbeat IPC: 0.48496 cumulative IPC: 0.39789 (Simulation time: 0 hr 8 min 37 sec) 
Heartbeat CPU  0 instructions:  198000003 cycles:  329313131 heartbeat IPC: 0.06356 cumulative IPC: 0.37762 (Simulation time: 0 hr 8 min 42 sec) 
Heartbeat CPU  0 instructions:  199000001 cycles:  332674087 heartbeat IPC: 0.29753 cumulative IPC: 0.37660 (Simulation time: 0 hr 8 min 45 sec) 
Heartbeat CPU  0 instructions:  200000000 cycles:  334590158 heartbeat IPC: 0.52190 cumulative IPC: 0.37765 (Simulation time: 0 hr 8 min 48 sec) 
Heartbeat CPU  0 instructions:  201000002 cycles:  336551401 heartbeat IPC: 0.50988 cumulative IPC: 0.37862 (Simulation time: 0 hr 8 min 51 sec) 
Heartbeat CPU  0 instructions:  202000003 cycles:  338437904 heartbeat IPC: 0.53008 cumulative IPC: 0.37969 (Simulation time: 0 hr 8 min 54 sec) 
Heartbeat CPU  0 instructions:  203000002 cycles:  340267864 heartbeat IPC: 0.54646 cumulative IPC: 0.38081 (Simulation time: 0 hr 8 min 57 sec) 
Heartbeat CPU  0 instructions:  204000000 cycles:  342220716 heartbeat IPC: 0.51207 cumulative IPC: 0.38175 (Simulation time: 0 hr 9 min 0 sec) 
Heartbeat CPU  0 instructions:  205000002 cycles:  344148089 heartbeat IPC: 0.51884 cumulative IPC: 0.38272 (Simulation time: 0 hr 9 min 2 sec) 
Heartbeat CPU  0 instructions:  206000000 cycles:  345954795 heartbeat IPC: 0.55349 cumulative IPC: 0.38384 (Simulation time: 0 hr 9 min 5 sec) 
Heartbeat CPU  0 instructions:  207000002 cycles:  347878872 heartbeat IPC: 0.51973 cumulative IPC: 0.38478 (Simulation time: 0 hr 9 min 8 sec) 
Heartbeat CPU  0 instructions:  208000000 cycles:  349807497 heartbeat IPC: 0.51850 cumulative IPC: 0.38570 (Simulation time: 0 hr 9 min 11 sec) 
Heartbeat CPU  0 instructions:  209000002 cycles:  351619114 heartbeat IPC: 0.55199 cumulative IPC: 0.38677 (Simulation time: 0 hr 9 min 14 sec) 
Heartbeat CPU  0 instructions:  210000000 cycles:  353501290 heartbeat IPC: 0.53130 cumulative IPC: 0.38772 (Simulation time: 0 hr 9 min 17 sec) 
Heartbeat CPU  0 instructions:  211000003 cycles:  355435472 heartbeat IPC: 0.51702 cumulative IPC: 0.38860 (Simulation time: 0 hr 9 min 20 sec) 
Heartbeat CPU  0 instructions:  212000000 cycles:  357324980 heartbeat IPC: 0.52924 cumulative IPC: 0.38952 (Simulation time: 0 hr 9 min 23 sec) 
Heartbeat CPU  0 instructions:  213000003 cycles:  359121793 heartbeat IPC: 0.55654 cumulative IPC: 0.39056 (Simulation time: 0 hr 9 min 26 sec) 
Heartbeat CPU  0 instructions:  214000003 cycles:  361059922 heartbeat IPC: 0.51596 cumulative IPC: 0.39140 (Simulation time: 0 hr 9 min 29 sec) 
Heartbeat CPU  0 instructions:  215000003 cycles:  362988568 heartbeat IPC: 0.51850 cumulative IPC: 0.39223 (Simulation time: 0 hr 9 min 32 sec) 
Heartbeat CPU  0 instructions:  216000000 cycles:  364774132 heartbeat IPC: 0.56005 cumulative IPC: 0.39325 (Simulation time: 0 hr 9 min 35 sec) 
Heartbeat CPU  0 instructions:  217000002 cycles:  366689564 heartbeat IPC: 0.52208 cumulative IPC: 0.39408 (Simulation time: 0 hr 9 min 37 sec) 
Heartbeat CPU  0 instructions:  218000001 cycles:  368622830 heartbeat IPC: 0.51726 cumulative IPC: 0.39488 (Simulation time: 0 hr 9 min 40 sec) 
Heartbeat CPU  0 instructions:  219000002 cycles:  370445337 heartbeat IPC: 0.54870 cumulative IPC: 0.39581 (Simulation time: 0 hr 9 min 43 sec) 
Heartbeat CPU  0 instructions:  220000000 cycles:  380167208 heartbeat IPC: 0.10286 cumulative IPC: 0.38663 (Simulation time: 0 hr 9 min 47 sec) 
Heartbeat CPU  0 instructions:  221000000 cycles:  389578853 heartbeat IPC: 0.10625 cumulative IPC: 0.37838 (Simulation time: 0 hr 9 min 51 sec) 
Heartbeat CPU  0 instructions:  222000000 cycles:  391493052 heartbeat IPC: 0.52241 cumulative IPC: 0.37924 (Simulation time: 0 hr 9 min 54 sec) 
Heartbeat CPU  0 instructions:  223000001 cycles:  393305513 heartbeat IPC: 0.55174 cumulative IPC: 0.38020 (Simulation time: 0 hr 9 min 57 sec) 
Heartbeat CPU  0 instructions:  224000000 cycles:  395253347 heartbeat IPC: 0.51339 cumulative IPC: 0.38100 (Simulation time: 0 hr 10 min 1 sec) 
Heartbeat CPU  0 instructions:  225000002 cycles:  397194492 heartbeat IPC: 0.51516 cumulative IPC: 0.38180 (Simulation time: 0 hr 10 min 4 sec) 
Heartbeat CPU  0 instructions:  226000002 cycles:  398982842 heartbeat IPC: 0.55917 cumulative IPC: 0.38276 (Simulation time: 0 hr 10 min 7 sec) 
Heartbeat CPU  0 instructions:  227000003 cycles:  400898260 heartbeat IPC: 0.52208 cumulative IPC: 0.38357 (Simulation time: 0 hr 10 min 10 sec) 
Heartbeat CPU  0 instructions:  228000000 cycles:  402834289 heartbeat IPC: 0.51652 cumulative IPC: 0.38434 (Simulation time: 0 hr 10 min 12 sec) 
Heartbeat CPU  0 instructions:  229000003 cycles:  404809885 heartbeat IPC: 0.50618 cumulative IPC: 0.38506 (Simulation time: 0 hr 10 min 15 sec) 
Heartbeat CPU  0 instructions:  230000001 cycles:  406668430 heartbeat IPC: 0.53805 cumulative IPC: 0.38590 (Simulation time: 0 hr 10 min 18 sec) 
Heartbeat CPU  0 instructions:  231000003 cycles:  408604552 heartbeat IPC: 0.51650 cumulative IPC: 0.38665 (Simulation time: 0 hr 10 min 21 sec) 
Heartbeat CPU  0 instructions:  232000000 cycles:  410504783 heartbeat IPC: 0.52625 cumulative IPC: 0.38743 (Simulation time: 0 hr 10 min 24 sec) 
Heartbeat CPU  0 instructions:  233000002 cycles:  412298588 heartbeat IPC: 0.55748 cumulative IPC: 0.38832 (Simulation time: 0 hr 10 min 27 sec) 
Heartbeat CPU  0 instructions:  234000001 cycles:  414227837 heartbeat IPC: 0.51834 cumulative IPC: 0.38904 (Simulation time: 0 hr 10 min 30 sec) 
Heartbeat CPU  0 instructions:  235000003 cycles:  416162595 heartbeat IPC: 0.51686 cumulative IPC: 0.38976 (Simulation time: 0 hr 10 min 33 sec) 
Heartbeat CPU  0 instructions:  236000000 cycles:  417948345 heartbeat IPC: 0.55999 cumulative IPC: 0.39063 (Simulation time: 0 hr 10 min 36 sec) 
Heartbeat CPU  0 instructions:  237000002 cycles:  419861263 heartbeat IPC: 0.52276 cumulative IPC: 0.39135 (Simulation time: 0 hr 10 min 39 sec) 
Heartbeat CPU  0 instructions:  238000002 cycles:  421795264 heartbeat IPC: 0.51706 cumulative IPC: 0.39204 (Simulation time: 0 hr 10 min 42 sec) 
Heartbeat CPU  0 instructions:  239000001 cycles:  423642892 heartbeat IPC: 0.54123 cumulative IPC: 0.39282 (Simulation time: 0 hr 10 min 45 sec) 
Heartbeat CPU  0 instructions:  240000000 cycles:  425477617 heartbeat IPC: 0.54504 cumulative IPC: 0.39361 (Simulation time: 0 hr 10 min 47 sec) 
Heartbeat CPU  0 instructions:  241000003 cycles:  427416242 heartbeat IPC: 0.51583 cumulative IPC: 0.39427 (Simulation time: 0 hr 10 min 50 sec) 
Heartbeat CPU  0 instructions:  242000002 cycles:  431370895 heartbeat IPC: 0.25287 cumulative IPC: 0.39272 (Simulation time: 0 hr 10 min 54 sec) 
Heartbeat CPU  0 instructions:  243000003 cycles:  446708920 heartbeat IPC: 0.06520 cumulative IPC: 0.37940 (Simulation time: 0 hr 10 min 58 sec) 
Heartbeat CPU  0 instructions:  244000000 cycles:  448707421 heartbeat IPC: 0.50037 cumulative IPC: 0.38003 (Simulation time: 0 hr 11 min 1 sec) 
Heartbeat CPU  0 instructions:  245000000 cycles:  450657331 heartbeat IPC: 0.51284 cumulative IPC: 0.38071 (Simulation time: 0 hr 11 min 4 sec) 
Heartbeat CPU  0 instructions:  246000000 cycles:  452460598 heartbeat IPC: 0.55455 cumulative IPC: 0.38153 (Simulation time: 0 hr 11 min 7 sec) 
Heartbeat CPU  0 instructions:  247000000 cycles:  454380681 heartbeat IPC: 0.52081 cumulative IPC: 0.38223 (Simulation time: 0 hr 11 min 10 sec) 
Heartbeat CPU  0 instructions:  248000000 cycles:  456325274 heartbeat IPC: 0.51425 cumulative IPC: 0.38289 (Simulation time: 0 hr 11 min 14 sec) 
Heartbeat CPU  0 instructions:  249000001 cycles:  458187862 heartbeat IPC: 0.53689 cumulative IPC: 0.38363 (Simulation time: 0 hr 11 min 18 sec) 
Heartbeat CPU  0 instructions:  250000003 cycles:  460040698 heartbeat IPC: 0.53971 cumulative IPC: 0.38437 (Simulation time: 0 hr 11 min 21 sec) 
Heartbeat CPU  0 instructions:  251000002 cycles:  461983787 heartbeat IPC: 0.51464 cumulative IPC: 0.38502 (Simulation time: 0 hr 11 min 25 sec) 
Heartbeat CPU  0 instructions:  252000000 cycles:  463902590 heartbeat IPC: 0.52116 cumulative IPC: 0.38568 (Simulation time: 0 hr 11 min 28 sec) 
Heartbeat CPU  0 instructions:  253000000 cycles:  465689912 heartbeat IPC: 0.55950 cumulative IPC: 0.38647 (Simulation time: 0 hr 11 min 31 sec) 
Heartbeat CPU  0 instructions:  254000002 cycles:  467615684 heartbeat IPC: 0.51927 cumulative IPC: 0.38711 (Simulation time: 0 hr 11 min 35 sec) 
Heartbeat CPU  0 instructions:  255000000 cycles:  469556236 heartbeat IPC: 0.51532 cumulative IPC: 0.38773 (Simulation time: 0 hr 11 min 38 sec) 
Heartbeat CPU  0 instructions:  256000000 cycles:  471340494 heartbeat IPC: 0.56046 cumulative IPC: 0.38850 (Simulation time: 0 hr 11 min 41 sec) 
Heartbeat CPU  0 instructions:  257000000 cycles:  473240157 heartbeat IPC: 0.52641 cumulative IPC: 0.38915 (Simulation time: 0 hr 11 min 44 sec) 
Heartbeat CPU  0 instructions:  258000003 cycles:  475180860 heartbeat IPC: 0.51528 cumulative IPC: 0.38975 (Simulation time: 0 hr 11 min 47 sec) 
Heartbeat CPU  0 instructions:  259000000 cycles:  477051754 heartbeat IPC: 0.53450 cumulative IPC: 0.39042 (Simulation time: 0 hr 11 min 50 sec) 
Heartbeat CPU  0 instructions:  260000000 cycles:  478882329 heartbeat IPC: 0.54628 cumulative IPC: 0.39111 (Simulation time: 0 hr 11 min 53 sec) 
Heartbeat CPU  0 instructions:  261000000 cycles:  480812129 heartbeat IPC: 0.51819 cumulative IPC: 0.39171 (Simulation time: 0 hr 11 min 56 sec) 
Heartbeat CPU  0 instructions:  262000002 cycles:  482738167 heartbeat IPC: 0.51920 cumulative IPC: 0.39231 (Simulation time: 0 hr 11 min 59 sec) 
Heartbeat CPU  0 instructions:  263000001 cycles:  484519162 heartbeat IPC: 0.56148 cumulative IPC: 0.39303 (Simulation time: 0 hr 12 min 3 sec) 
Heartbeat CPU  0 instructions:  264000000 cycles:  486443104 heartbeat IPC: 0.51977 cumulative IPC: 0.39362 (Simulation time: 0 hr 12 min 6 sec) 
Heartbeat CPU  0 instructions:  265000002 cycles:  498360687 heartbeat IPC: 0.08391 cumulative IPC: 0.38500 (Simulation time: 0 hr 12 min 10 sec) 
Heartbeat CPU  0 instructions:  266000001 cycles:  505711433 heartbeat IPC: 0.13604 cumulative IPC: 0.38081 (Simulation time: 0 hr 12 min 15 sec) 
Heartbeat CPU  0 instructions:  267000002 cycles:  507629481 heartbeat IPC: 0.52136 cumulative IPC: 0.38142 (Simulation time: 0 hr 12 min 18 sec) 
Heartbeat CPU  0 instructions:  268000000 cycles:  509593609 heartbeat IPC: 0.50913 cumulative IPC: 0.38199 (Simulation time: 0 hr 12 min 21 sec) 
Heartbeat CPU  0 instructions:  269000000 cycles:  511489509 heartbeat IPC: 0.52745 cumulative IPC: 0.38262 (Simulation time: 0 hr 12 min 25 sec) 
Heartbeat CPU  0 instructions:  270000003 cycles:  513349733 heartbeat IPC: 0.53757 cumulative IPC: 0.38327 (Simulation time: 0 hr 12 min 28 sec) 
Heartbeat CPU  0 instructions:  271000002 cycles:  515307393 heartbeat IPC: 0.51081 cumulative IPC: 0.38383 (Simulation time: 0 hr 12 min 31 sec) 
Heartbeat CPU  0 instructions:  272000000 cycles:  517239580 heartbeat IPC: 0.51755 cumulative IPC: 0.38440 (Simulation time: 0 hr 12 min 34 sec) 
Heartbeat CPU  0 instructions:  273000002 cycles:  519027331 heartbeat IPC: 0.55936 cumulative IPC: 0.38510 (Simulation time: 0 hr 12 min 37 sec) 
Heartbeat CPU  0 instructions:  274000000 cycles:  520945246 heartbeat IPC: 0.52140 cumulative IPC: 0.38568 (Simulation time: 0 hr 12 min 41 sec) 
Heartbeat CPU  0 instructions:  275000000 cycles:  522874003 heartbeat IPC: 0.51847 cumulative IPC: 0.38625 (Simulation time: 0 hr 12 min 44 sec) 
Heartbeat CPU  0 instructions:  276000000 cycles:  524684232 heartbeat IPC: 0.55242 cumulative IPC: 0.38691 (Simulation time: 0 hr 12 min 47 sec) 
Heartbeat CPU  0 instructions:  277000001 cycles:  526568870 heartbeat IPC: 0.53061 cumulative IPC: 0.38750 (Simulation time: 0 hr 12 min 50 sec) 
Heartbeat CPU  0 instructions:  278000000 cycles:  528508634 heartbeat IPC: 0.51553 cumulative IPC: 0.38804 (Simulation time: 0 hr 12 min 53 sec) 
Heartbeat CPU  0 instructions:  279000003 cycles:  530516600 heartbeat IPC: 0.49802 cumulative IPC: 0.38852 (Simulation time: 0 hr 12 min 57 sec) 
Heartbeat CPU  0 instructions:  280000000 cycles:  532431789 heartbeat IPC: 0.52214 cumulative IPC: 0.38907 (Simulation time: 0 hr 12 min 59 sec) 
Heartbeat CPU  0 instructions:  281000002 cycles:  534479914 heartbeat IPC: 0.48825 cumulative IPC: 0.38951 (Simulation time: 0 hr 13 min 3 sec) 
Heartbeat CPU  0 instructions:  282000002 cycles:  536405724 heartbeat IPC: 0.51926 cumulative IPC: 0.39005 (Simulation time: 0 hr 13 min 6 sec) 
Heartbeat CPU  0 instructions:  283000000 cycles:  538178747 heartbeat IPC: 0.56401 cumulative IPC: 0.39070 (Simulation time: 0 hr 13 min 9 sec) 
Heartbeat CPU  0 instructions:  284000000 cycles:  540093202 heartbeat IPC: 0.52234 cumulative IPC: 0.39124 (Simulation time: 0 hr 13 min 12 sec) 
Heartbeat CPU  0 instructions:  285000001 cycles:  542028248 heartbeat IPC: 0.51678 cumulative IPC: 0.39176 (Simulation time: 0 hr 13 min 15 sec) 
Heartbeat CPU  0 instructions:  286000003 cycles:  543850061 heartbeat IPC: 0.54890 cumulative IPC: 0.39236 (Simulation time: 0 hr 13 min 18 sec) 
Heartbeat CPU  0 instructions:  287000002 cycles:  549826666 heartbeat IPC: 0.16732 cumulative IPC: 0.38956 (Simulation time: 0 hr 13 min 22 sec) 
Heartbeat CPU  0 instructions:  288000000 cycles:  562853749 heartbeat IPC: 0.07676 cumulative IPC: 0.38129 (Simulation time: 0 hr 13 min 27 sec) 
Heartbeat CPU  0 instructions:  289000003 cycles:  564777613 heartbeat IPC: 0.51979 cumulative IPC: 0.38183 (Simulation time: 0 hr 13 min 30 sec) 
Heartbeat CPU  0 instructions:  290000003 cycles:  566602630 heartbeat IPC: 0.54794 cumulative IPC: 0.38244 (Simulation time: 0 hr 13 min 34 sec) 
Heartbeat CPU  0 instructions:  291000002 cycles:  568554557 heartbeat IPC: 0.51231 cumulative IPC: 0.38295 (Simulation time: 0 hr 13 min 37 sec) 
Heartbeat CPU  0 instructions:  292000000 cycles:  570491521 heartbeat IPC: 0.51627 cumulative IPC: 0.38347 (Simulation time: 0 hr 13 min 40 sec) 
Heartbeat CPU  0 instructions:  293000001 cycles:  572292416 heartbeat IPC: 0.55528 cumulative IPC: 0.38408 (Simulation time: 0 hr 13 min 43 sec) 
Heartbeat CPU  0 instructions:  294000000 cycles:  574208669 heartbeat IPC: 0.52185 cumulative IPC: 0.38460 (Simulation time: 0 hr 13 min 46 sec) 
Heartbeat CPU  0 instructions:  295000002 cycles:  576153409 heartbeat IPC: 0.51421 cumulative IPC: 0.38510 (Simulation time: 0 hr 13 min 50 sec) 
Heartbeat CPU  0 instructions:  296000000 cycles:  577985076 heartbeat IPC: 0.54595 cumulative IPC: 0.38568 (Simulation time: 0 hr 13 min 53 sec) 
Heartbeat CPU  0 instructions:  297000001 cycles:  579850145 heartbeat IPC: 0.53617 cumulative IPC: 0.38623 (Simulation time: 0 hr 13 min 56 sec) 
Heartbeat CPU  0 instructions:  298000003 cycles:  581788120 heartbeat IPC: 0.51600 cumulative IPC: 0.38672 (Simulation time: 0 hr 13 min 59 sec) 
Heartbeat CPU  0 instructions:  299000000 cycles:  583685395 heartbeat IPC: 0.52707 cumulative IPC: 0.38724 (Simulation time: 0 hr 14 min 3 sec) 
Heartbeat CPU  0 instructions:  300000000 cycles:  585476016 heartbeat IPC: 0.55847 cumulative IPC: 0.38784 (Simulation time: 0 hr 14 min 6 sec) 
Heartbeat CPU  0 instructions:  301000003 cycles:  587405097 heartbeat IPC: 0.51838 cumulative IPC: 0.38832 (Simulation time: 0 hr 14 min 9 sec) 
Heartbeat CPU  0 instructions:  302000000 cycles:  589338071 heartbeat IPC: 0.51734 cumulative IPC: 0.38880 (Simulation time: 0 hr 14 min 12 sec) 
Heartbeat CPU  0 instructions:  303000000 cycles:  591127199 heartbeat IPC: 0.55893 cumulative IPC: 0.38939 (Simulation time: 0 hr 14 min 14 sec) 
Heartbeat CPU  0 instructions:  304000000 cycles:  593036465 heartbeat IPC: 0.52376 cumulative IPC: 0.38988 (Simulation time: 0 hr 14 min 17 sec) 
Heartbeat CPU  0 instructions:  305000000 cycles:  594975821 heartbeat IPC: 0.51564 cumulative IPC: 0.39034 (Simulation time: 0 hr 14 min 20 sec) 
Heartbeat CPU  0 instructions:  306000002 cycles:  596808720 heartbeat IPC: 0.54558 cumulative IPC: 0.39088 (Simulation time: 0 hr 14 min 23 sec) 
Heartbeat CPU  0 instructions:  307000003 cycles:  598651279 heartbeat IPC: 0.54272 cumulative IPC: 0.39141 (Simulation time: 0 hr 14 min 26 sec) 
Heartbeat CPU  0 instructions:  308000000 cycles:  600583227 heartbeat IPC: 0.51761 cumulative IPC: 0.39187 (Simulation time: 0 hr 14 min 30 sec) 
Heartbeat CPU  0 instructions:  309000003 cycles:  602493265 heartbeat IPC: 0.52355 cumulative IPC: 0.39234 (Simulation time: 0 hr 14 min 32 sec) 
Heartbeat CPU  0 instructions:  310000002 cycles:  616265088 heartbeat IPC: 0.07261 cumulative IPC: 0.38428 (Simulation time: 0 hr 14 min 37 sec) 
Heartbeat CPU  0 instructions:  311000000 cycles:  621537964 heartbeat IPC: 0.18965 cumulative IPC: 0.38242 (Simulation time: 0 hr 14 min 40 sec) 
Heartbeat CPU  0 instructions:  312000000 cycles:  623488359 heartbeat IPC: 0.51272 cumulative IPC: 0.38288 (Simulation time: 0 hr 14 min 43 sec) 
Heartbeat CPU  0 instructions:  313000003 cycles:  625281874 heartbeat IPC: 0.55757 cumulative IPC: 0.38345 (Simulation time: 0 hr 14 min 45 sec) 
Heartbeat CPU  0 instructions:  314000003 cycles:  627198189 heartbeat IPC: 0.52183 cumulative IPC: 0.38392 (Simulation time: 0 hr 14 min 48 sec) 
Heartbeat CPU  0 instructions:  315000000 cycles:  629144042 heartbeat IPC: 0.51391 cumulative IPC: 0.38438 (Simulation time: 0 hr 14 min 51 sec) 
Heartbeat CPU  0 instructions:  316000000 cycles:  630983466 heartbeat IPC: 0.54365 cumulative IPC: 0.38490 (Simulation time: 0 hr 14 min 54 sec) 
Heartbeat CPU  0 instructions:  317000001 cycles:  632826539 heartbeat IPC: 0.54257 cumulative IPC: 0.38541 (Simulation time: 0 hr 14 min 57 sec) 
Heartbeat CPU  0 instructions:  318000002 cycles:  634770512 heartbeat IPC: 0.51441 cumulative IPC: 0.38586 (Simulation time: 0 hr 14 min 59 sec) 
Heartbeat CPU  0 instructions:  319000001 cycles:  636694346 heartbeat IPC: 0.51979 cumulative IPC: 0.38631 (Simulation time: 0 hr 15 min 2 sec) 
Heartbeat CPU  0 instructions:  320000000 cycles:  638475445 heartbeat IPC: 0.56145 cumulative IPC: 0.38686 (Simulation time: 0 hr 15 min 5 sec) 
Heartbeat CPU  0 instructions:  321000002 cycles:  640400750 heartbeat IPC: 0.51940 cumulative IPC: 0.38731 (Simulation time: 0 hr 15 min 8 sec) 
Heartbeat CPU  0 instructions:  322000001 cycles:  642337019 heartbeat IPC: 0.51646 cumulative IPC: 0.38774 (Simulation time: 0 hr 15 min 10 sec) 
Heartbeat CPU  0 instructions:  323000002 cycles:  644120855 heartbeat IPC: 0.56059 cumulative IPC: 0.38828 (Simulation time: 0 hr 15 min 13 sec) 
Heartbeat CPU  0 instructions:  324000000 cycles:  646017306 heartbeat IPC: 0.52730 cumulative IPC: 0.38874 (Simulation time: 0 hr 15 min 16 sec) 
Heartbeat CPU  0 instructions:  325000001 cycles:  647958754 heartbeat IPC: 0.51508 cumulative IPC: 0.38916 (Simulation time: 0 hr 15 min 18 sec) 
Heartbeat CPU  0 instructions:  326000002 cycles:  649815430 heartbeat IPC: 0.53860 cumulative IPC: 0.38964 (Simulation time: 0 hr 15 min 21 sec) 
Heartbeat CPU  0 instructions:  327000002 cycles:  651638213 heartbeat IPC: 0.54861 cumulative IPC: 0.39014 (Simulation time: 0 hr 15 min 24 sec) 
Heartbeat CPU  0 instructions:  328000000 cycles:  653572148 heartbeat IPC: 0.51708 cumulative IPC: 0.39056 (Simulation time: 0 hr 15 min 27 sec) 
Heartbeat CPU  0 instructions:  329000002 cycles:  655491303 heartbeat IPC: 0.52106 cumulative IPC: 0.39099 (Simulation time: 0 hr 15 min 30 sec) 
Heartbeat CPU  0 instructions:  330000001 cycles:  657276356 heartbeat IPC: 0.56021 cumulative IPC: 0.39150 (Simulation time: 0 hr 15 min 33 sec) 
Heartbeat CPU  0 instructions:  331000002 cycles:  659312735 heartbeat IPC: 0.49107 cumulative IPC: 0.39185 (Simulation time: 0 hr 15 min 36 sec) 
Heartbeat CPU  0 instructions:  332000000 cycles:  667406526 heartbeat IPC: 0.12355 cumulative IPC: 0.38821 (Simulation time: 0 hr 15 min 39 sec) 
Heartbeat CPU  0 instructions:  333000000 cycles:  678461441 heartbeat IPC: 0.09046 cumulative IPC: 0.38280 (Simulation time: 0 hr 15 min 43 sec) 
Heartbeat CPU  0 instructions:  334000001 cycles:  680406330 heartbeat IPC: 0.51417 cumulative IPC: 0.38322 (Simulation time: 0 hr 15 min 46 sec) 
Heartbeat CPU  0 instructions:  335000001 cycles:  682357943 heartbeat IPC: 0.51240 cumulative IPC: 0.38363 (Simulation time: 0 hr 15 min 49 sec) 
Heartbeat CPU  0 instructions:  336000000 cycles:  684226054 heartbeat IPC: 0.53530 cumulative IPC: 0.38409 (Simulation time: 0 hr 15 min 51 sec) 
Heartbeat CPU  0 instructions:  337000003 cycles:  686061034 heartbeat IPC: 0.54497 cumulative IPC: 0.38457 (Simulation time: 0 hr 15 min 54 sec) 
Heartbeat CPU  0 instructions:  338000002 cycles:  688005575 heartbeat IPC: 0.51426 cumulative IPC: 0.38498 (Simulation time: 0 hr 15 min 57 sec) 
Heartbeat CPU  0 instructions:  339000000 cycles:  689935312 heartbeat IPC: 0.51820 cumulative IPC: 0.38540 (Simulation time: 0 hr 16 min 0 sec) 
Heartbeat CPU  0 instructions:  340000000 cycles:  691717663 heartbeat IPC: 0.56106 cumulative IPC: 0.38590 (Simulation time: 0 hr 16 min 3 sec) 
Heartbeat CPU  0 instructions:  341000000 cycles:  693644034 heartbeat IPC: 0.51911 cumulative IPC: 0.38631 (Simulation time: 0 hr 16 min 6 sec) 
Heartbeat CPU  0 instructions:  342000001 cycles:  695576228 heartbeat IPC: 0.51755 cumulative IPC: 0.38672 (Simulation time: 0 hr 16 min 8 sec) 
Heartbeat CPU  0 instructions:  343000000 cycles:  697373978 heartbeat IPC: 0.55625 cumulative IPC: 0.38720 (Simulation time: 0 hr 16 min 11 sec) 
Heartbeat CPU  0 instructions:  344000000 cycles:  699264380 heartbeat IPC: 0.52899 cumulative IPC: 0.38763 (Simulation time: 0 hr 16 min 14 sec) 
Heartbeat CPU  0 instructions:  345000000 cycles:  701195764 heartbeat IPC: 0.51776 cumulative IPC: 0.38803 (Simulation time: 0 hr 16 min 17 sec) 
Heartbeat CPU  0 instructions:  346000001 cycles:  703069700 heartbeat IPC: 0.53364 cumulative IPC: 0.38846 (Simulation time: 0 hr 16 min 19 sec) 
Heartbeat CPU  0 instructions:  347000000 cycles:  704876382 heartbeat IPC: 0.55350 cumulative IPC: 0.38893 (Simulation time: 0 hr 16 min 22 sec) 
Heartbeat CPU  0 instructions:  348000000 cycles:  706806193 heartbeat IPC: 0.51819 cumulative IPC: 0.38932 (Simulation time: 0 hr 16 min 25 sec) 
Heartbeat CPU  0 instructions:  349000001 cycles:  708730510 heartbeat IPC: 0.51967 cumulative IPC: 0.38971 (Simulation time: 0 hr 16 min 27 sec) 
Heartbeat CPU  0 instructions:  350000003 cycles:  710509689 heartbeat IPC: 0.56206 cumulative IPC: 0.39019 (Simulation time: 0 hr 16 min 30 sec) 
Heartbeat CPU  0 instructions:  351000003 cycles:  712418226 heartbeat IPC: 0.52396 cumulative IPC: 0.39059 (Simulation time: 0 hr 16 min 33 sec) 
Heartbeat CPU  0 instructions:  352000000 cycles:  714356114 heartbeat IPC: 0.51602 cumulative IPC: 0.39096 (Simulation time: 0 hr 16 min 36 sec) 
Heartbeat CPU  0 instructions:  353000001 cycles:  716170469 heartbeat IPC: 0.55116 cumulative IPC: 0.39141 (Simulation time: 0 hr 16 min 38 sec) 
Heartbeat CPU  0 instructions:  354000003 cycles:  718268672 heartbeat IPC: 0.47660 cumulative IPC: 0.39169 (Simulation time: 0 hr 16 min 41 sec) 
Heartbeat CPU  0 instructions:  355000003 cycles:  733887328 heartbeat IPC: 0.06403 cumulative IPC: 0.38398 (Simulation time: 0 hr 16 min 46 sec) 
Heartbeat CPU  0 instructions:  356000000 cycles:  737194265 heartbeat IPC: 0.30239 cumulative IPC: 0.38358 (Simulation time: 0 hr 16 min 49 sec) 
Heartbeat CPU  0 instructions:  357000003 cycles:  739038722 heartbeat IPC: 0.54217 cumulative IPC: 0.38402 (Simulation time: 0 hr 16 min 51 sec) 
Heartbeat CPU  0 instructions:  358000002 cycles:  740987501 heartbeat IPC: 0.51314 cumulative IPC: 0.38439 (Simulation time: 0 hr 16 min 54 sec) 
Heartbeat CPU  0 instructions:  359000003 cycles:  742930736 heartbeat IPC: 0.51461 cumulative IPC: 0.38477 (Simulation time: 0 hr 16 min 57 sec) 
Heartbeat CPU  0 instructions:  360000000 cycles:  744722311 heartbeat IPC: 0.55817 cumulative IPC: 0.38523 (Simulation time: 0 hr 17 min 0 sec) 
Heartbeat CPU  0 instructions:  361000003 cycles:  746645688 heartbeat IPC: 0.51992 cumulative IPC: 0.38561 (Simulation time: 0 hr 17 min 2 sec) 
Heartbeat CPU  0 instructions:  362000000 cycles:  748590837 heartbeat IPC: 0.51410 cumulative IPC: 0.38598 (Simulation time: 0 hr 17 min 5 sec) 
Heartbeat CPU  0 instructions:  363000000 cycles:  750411742 heartbeat IPC: 0.54918 cumulative IPC: 0.38641 (Simulation time: 0 hr 17 min 8 sec) 
Heartbeat CPU  0 instructions:  364000000 cycles:  752277063 heartbeat IPC: 0.53610 cumulative IPC: 0.38682 (Simulation time: 0 hr 17 min 11 sec) 
Heartbeat CPU  0 instructions:  365000000 cycles:  754217952 heartbeat IPC: 0.51523 cumulative IPC: 0.38719 (Simulation time: 0 hr 17 min 13 sec) 
Heartbeat CPU  0 instructions:  366000001 cycles:  756107123 heartbeat IPC: 0.52933 cumulative IPC: 0.38758 (Simulation time: 0 hr 17 min 16 sec) 
Heartbeat CPU  0 instructions:  367000001 cycles:  757905042 heartbeat IPC: 0.55620 cumulative IPC: 0.38802 (Simulation time: 0 hr 17 min 19 sec) 
Heartbeat CPU  0 instructions:  368000000 cycles:  759834837 heartbeat IPC: 0.51819 cumulative IPC: 0.38838 (Simulation time: 0 hr 17 min 22 sec) 
Heartbeat CPU  0 instructions:  369000003 cycles:  761772764 heartbeat IPC: 0.51602 cumulative IPC: 0.38874 (Simulation time: 0 hr 17 min 24 sec) 
Heartbeat CPU  0 instructions:  370000000 cycles:  763546658 heartbeat IPC: 0.56373 cumulative IPC: 0.38919 (Simulation time: 0 hr 17 min 27 sec) 
Heartbeat CPU  0 instructions:  371000001 cycles:  765455330 heartbeat IPC: 0.52393 cumulative IPC: 0.38956 (Simulation time: 0 hr 17 min 30 sec) 
Heartbeat CPU  0 instructions:  372000000 cycles:  767387592 heartbeat IPC: 0.51753 cumulative IPC: 0.38991 (Simulation time: 0 hr 17 min 33 sec) 
Heartbeat CPU  0 instructions:  373000003 cycles:  769221986 heartbeat IPC: 0.54514 cumulative IPC: 0.39032 (Simulation time: 0 hr 17 min 35 sec) 
Heartbeat CPU  0 instructions:  374000001 cycles:  771070343 heartbeat IPC: 0.54102 cumulative IPC: 0.39072 (Simulation time: 0 hr 17 min 38 sec) 
Heartbeat CPU  0 instructions:  375000001 cycles:  773003044 heartbeat IPC: 0.51741 cumulative IPC: 0.39106 (Simulation time: 0 hr 17 min 41 sec) 
Heartbeat CPU  0 instructions:  376000000 cycles:  774914215 heartbeat IPC: 0.52324 cumulative IPC: 0.39142 (Simulation time: 0 hr 17 min 44 sec) 
Heartbeat CPU  0 instructions:  377000002 cycles:  784777854 heartbeat IPC: 0.10138 cumulative IPC: 0.38742 (Simulation time: 0 hr 17 min 47 sec) 
Heartbeat CPU  0 instructions:  378000003 cycles:  794063129 heartbeat IPC: 0.10770 cumulative IPC: 0.38384 (Simulation time: 0 hr 17 min 51 sec) 
Heartbeat CPU  0 instructions:  379000001 cycles:  796016945 heartbeat IPC: 0.51182 cumulative IPC: 0.38418 (Simulation time: 0 hr 17 min 54 sec) 
Heartbeat CPU  0 instructions:  380000000 cycles:  797812347 heartbeat IPC: 0.55698 cumulative IPC: 0.38461 (Simulation time: 0 hr 17 min 57 sec) 
Heartbeat CPU  0 instructions:  381000002 cycles:  799780224 heartbeat IPC: 0.50816 cumulative IPC: 0.38494 (Simulation time: 0 hr 18 min 0 sec) 
Heartbeat CPU  0 instructions:  382000002 cycles:  801879795 heartbeat IPC: 0.47629 cumulative IPC: 0.38520 (Simulation time: 0 hr 18 min 2 sec) 
Heartbeat CPU  0 instructions:  383000002 cycles:  803878494 heartbeat IPC: 0.50033 cumulative IPC: 0.38551 (Simulation time: 0 hr 18 min 5 sec) 
Heartbeat CPU  0 instructions:  384000000 cycles:  805732068 heartbeat IPC: 0.53950 cumulative IPC: 0.38590 (Simulation time: 0 hr 18 min 8 sec) 
Heartbeat CPU  0 instructions:  385000003 cycles:  807675348 heartbeat IPC: 0.51460 cumulative IPC: 0.38624 (Simulation time: 0 hr 18 min 11 sec) 
Heartbeat CPU  0 instructions:  386000002 cycles:  809597268 heartbeat IPC: 0.52031 cumulative IPC: 0.38659 (Simulation time: 0 hr 18 min 13 sec) 
Heartbeat CPU  0 instructions:  387000001 cycles:  811377961 heartbeat IPC: 0.56158 cumulative IPC: 0.38701 (Simulation time: 0 hr 18 min 16 sec) 
Heartbeat CPU  0 instructions:  388000000 cycles:  813307191 heartbeat IPC: 0.51834 cumulative IPC: 0.38735 (Simulation time: 0 hr 18 min 19 sec) 
Heartbeat CPU  0 instructions:  389000003 cycles:  815240637 heartbeat IPC: 0.51721 cumulative IPC: 0.38769 (Simulation time: 0 hr 18 min 22 sec) 
Heartbeat CPU  0 instructions:  390000003 cycles:  817031076 heartbeat IPC: 0.55852 cumulative IPC: 0.38810 (Simulation time: 0 hr 18 min 24 sec) 
Heartbeat CPU  0 instructions:  391000001 cycles:  818937425 heartbeat IPC: 0.52456 cumulative IPC: 0.38844 (Simulation time: 0 hr 18 min 27 sec) 
Heartbeat CPU  0 instructions:  392000000 cycles:  820876832 heartbeat IPC: 0.51562 cumulative IPC: 0.38877 (Simulation time: 0 hr 18 min 30 sec) 
Heartbeat CPU  0 instructions:  393000000 cycles:  822728106 heartbeat IPC: 0.54017 cumulative IPC: 0.38914 (Simulation time: 0 hr 18 min 32 sec) 
Heartbeat CPU  0 instructions:  394000000 cycles:  824553542 heartbeat IPC: 0.54781 cumulative IPC: 0.38953 (Simulation time: 0 hr 18 min 35 sec) 
Heartbeat CPU  0 instructions:  395000002 cycles:  826499700 heartbeat IPC: 0.51383 cumulative IPC: 0.38985 (Simulation time: 0 hr 18 min 38 sec) 
Heartbeat CPU  0 instructions:  396000000 cycles:  828419938 heartbeat IPC: 0.52077 cumulative IPC: 0.39018 (Simulation time: 0 hr 18 min 41 sec) 
Heartbeat CPU  0 instructions:  397000001 cycles:  830192925 heartbeat IPC: 0.56402 cumulative IPC: 0.39058 (Simulation time: 0 hr 18 min 43 sec) 
Heartbeat CPU  0 instructions:  398000003 cycles:  832113554 heartbeat IPC: 0.52066 cumulative IPC: 0.39091 (Simulation time: 0 hr 18 min 46 sec) 
Heartbeat CPU  0 instructions:  399000001 cycles:  836201113 heartbeat IPC: 0.24464 cumulative IPC: 0.39013 (Simulation time: 0 hr 18 min 49 sec) 
Heartbeat CPU  0 instructions:  400000000 cycles:  851256380 heartbeat IPC: 0.06642 cumulative IPC: 0.38390 (Simulation time: 0 hr 18 min 54 sec) 
Heartbeat CPU  0 instructions:  401000002 cycles:  853204861 heartbeat IPC: 0.51322 cumulative IPC: 0.38422 (Simulation time: 0 hr 18 min 57 sec) 
Heartbeat CPU  0 instructions:  402000001 cycles:  855160722 heartbeat IPC: 0.51128 cumulative IPC: 0.38453 (Simulation time: 0 hr 19 min 0 sec) 
Heartbeat CPU  0 instructions:  403000003 cycles:  857024034 heartbeat IPC: 0.53668 cumulative IPC: 0.38489 (Simulation time: 0 hr 19 min 2 sec) 
Heartbeat CPU  0 instructions:  404000000 cycles:  858862016 heartbeat IPC: 0.54407 cumulative IPC: 0.38526 (Simulation time: 0 hr 19 min 5 sec) 
Heartbeat CPU  0 instructions:  405000001 cycles:  860808533 heartbeat IPC: 0.51374 cumulative IPC: 0.38558 (Simulation time: 0 hr 19 min 8 sec) 
Heartbeat CPU  0 instructions:  406000002 cycles:  862733615 heartbeat IPC: 0.51946 cumulative IPC: 0.38591 (Simulation time: 0 hr 19 min 11 sec) 
Heartbeat CPU  0 instructions:  407000001 cycles:  864509500 heartbeat IPC: 0.56310 cumulative IPC: 0.38630 (Simulation time: 0 hr 19 min 13 sec) 
Heartbeat CPU  0 instructions:  408000000 cycles:  866440840 heartbeat IPC: 0.51777 cumulative IPC: 0.38662 (Simulation time: 0 hr 19 min 16 sec) 
Heartbeat CPU  0 instructions:  409000001 cycles:  868370948 heartbeat IPC: 0.51811 cumulative IPC: 0.38694 (Simulation time: 0 hr 19 min 19 sec) 
Heartbeat CPU  0 instructions:  410000003 cycles:  870167648 heartbeat IPC: 0.55658 cumulative IPC: 0.38732 (Simulation time: 0 hr 19 min 22 sec) 
Heartbeat CPU  0 instructions:  411000000 cycles:  872056841 heartbeat IPC: 0.52932 cumulative IPC: 0.38765 (Simulation time: 0 hr 19 min 24 sec) 
Heartbeat CPU  0 instructions:  412000000 cycles:  873998940 heartbeat IPC: 0.51491 cumulative IPC: 0.38796 (Simulation time: 0 hr 19 min 27 sec) 
Heartbeat CPU  0 instructions:  413000002 cycles:  875870663 heartbeat IPC: 0.53427 cumulative IPC: 0.38830 (Simulation time: 0 hr 19 min 30 sec) 
Heartbeat CPU  0 instructions:  414000003 cycles:  877682185 heartbeat IPC: 0.55202 cumulative IPC: 0.38867 (Simulation time: 0 hr 19 min 33 sec) 
Heartbeat CPU  0 instructions:  415000002 cycles:  879613003 heartbeat IPC: 0.51791 cumulative IPC: 0.38898 (Simulation time: 0 hr 19 min 35 sec) 
Heartbeat CPU  0 instructions:  416000000 cycles:  881537608 heartbeat IPC: 0.51959 cumulative IPC: 0.38929 (Simulation time: 0 hr 19 min 38 sec) 
Heartbeat CPU  0 instructions:  417000003 cycles:  883316066 heartbeat IPC: 0.56229 cumulative IPC: 0.38966 (Simulation time: 0 hr 19 min 41 sec) 
Heartbeat CPU  0 instructions:  418000003 cycles:  885239336 heartbeat IPC: 0.51995 cumulative IPC: 0.38997 (Simulation time: 0 hr 19 min 44 sec) 
Heartbeat CPU  0 instructions:  419000003 cycles:  887172284 heartbeat IPC: 0.51734 cumulative IPC: 0.39027 (Simulation time: 0 hr 19 min 46 sec) 
Heartbeat CPU  0 instructions:  420000000 cycles:  888988150 heartbeat IPC: 0.55070 cumulative IPC: 0.39063 (Simulation time: 0 hr 19 min 49 sec) 
Heartbeat CPU  0 instructions:  421000001 cycles:  890853482 heartbeat IPC: 0.53610 cumulative IPC: 0.39096 (Simulation time: 0 hr 19 min 52 sec) 
Heartbeat CPU  0 instructions:  422000002 cycles:  902590663 heartbeat IPC: 0.08520 cumulative IPC: 0.38665 (Simulation time: 0 hr 19 min 56 sec) 
Heartbeat CPU  0 instructions:  423000003 cycles:  909941252 heartbeat IPC: 0.13604 cumulative IPC: 0.38446 (Simulation time: 0 hr 19 min 59 sec) 
Heartbeat CPU  0 instructions:  424000000 cycles:  911768708 heartbeat IPC: 0.54721 cumulative IPC: 0.38481 (Simulation time: 0 hr 20 min 2 sec) 
Heartbeat CPU  0 instructions:  425000003 cycles:  913711387 heartbeat IPC: 0.51475 cumulative IPC: 0.38511 (Simulation time: 0 hr 20 min 5 sec) 
Heartbeat CPU  0 instructions:  426000001 cycles:  915645916 heartbeat IPC: 0.51692 cumulative IPC: 0.38541 (Simulation time: 0 hr 20 min 8 sec) 
Heartbeat CPU  0 instructions:  427000000 cycles:  917431314 heartbeat IPC: 0.56010 cumulative IPC: 0.38578 (Simulation time: 0 hr 20 min 10 sec) 
Heartbeat CPU  0 instructions:  428000000 cycles:  919342055 heartbeat IPC: 0.52336 cumulative IPC: 0.38609 (Simulation time: 0 hr 20 min 13 sec) 
Heartbeat CPU  0 instructions:  429000002 cycles:  921274686 heartbeat IPC: 0.51743 cumulative IPC: 0.38639 (Simulation time: 0 hr 20 min 16 sec) 
Heartbeat CPU  0 instructions:  430000000 cycles:  923091098 heartbeat IPC: 0.55053 cumulative IPC: 0.38674 (Simulation time: 0 hr 20 min 19 sec) 
Heartbeat CPU  0 instructions:  431000000 cycles:  924964563 heartbeat IPC: 0.53377 cumulative IPC: 0.38706 (Simulation time: 0 hr 20 min 21 sec) 
Heartbeat CPU  0 instructions:  432000000 cycles:  926888775 heartbeat IPC: 0.51969 cumulative IPC: 0.38736 (Simulation time: 0 hr 20 min 24 sec) 
Heartbeat CPU  0 instructions:  433000003 cycles:  928912476 heartbeat IPC: 0.49415 cumulative IPC: 0.38761 (Simulation time: 0 hr 20 min 27 sec) 
Heartbeat CPU  0 instructions:  434000002 cycles:  930701329 heartbeat IPC: 0.55902 cumulative IPC: 0.38796 (Simulation time: 0 hr 20 min 30 sec) 
Heartbeat CPU  0 instructions:  435000001 cycles:  932629238 heartbeat IPC: 0.51870 cumulative IPC: 0.38826 (Simulation time: 0 hr 20 min 32 sec) 
Heartbeat CPU  0 instructions:  436000000 cycles:  934546382 heartbeat IPC: 0.52161 cumulative IPC: 0.38855 (Simulation time: 0 hr 20 min 35 sec) 
Heartbeat CPU  0 instructions:  437000000 cycles:  936325465 heartbeat IPC: 0.56209 cumulative IPC: 0.38891 (Simulation time: 0 hr 20 min 38 sec) 
Heartbeat CPU  0 instructions:  438000000 cycles:  938233414 heartbeat IPC: 0.52412 cumulative IPC: 0.38920 (Simulation time: 0 hr 20 min 41 sec) 
Heartbeat CPU  0 instructions:  439000001 cycles:  940166292 heartbeat IPC: 0.51736 cumulative IPC: 0.38949 (Simulation time: 0 hr 20 min 43 sec) 
Heartbeat CPU  0 instructions:  440000000 cycles:  941991120 heartbeat IPC: 0.54800 cumulative IPC: 0.38982 (Simulation time: 0 hr 20 min 46 sec) 
Heartbeat CPU  0 instructions:  441000001 cycles:  943838983 heartbeat IPC: 0.54117 cumulative IPC: 0.39014 (Simulation time: 0 hr 20 min 49 sec) 
Heartbeat CPU  0 instructions:  442000001 cycles:  945767159 heartbeat IPC: 0.51862 cumulative IPC: 0.39042 (Simulation time: 0 hr 20 min 52 sec) 
Heartbeat CPU  0 instructions:  443000002 cycles:  947671117 heartbeat IPC: 0.52522 cumulative IPC: 0.39072 (Simulation time: 0 hr 20 min 54 sec) 
Heartbeat CPU  0 instructions:  444000000 cycles:  953694011 heartbeat IPC: 0.16603 cumulative IPC: 0.38918 (Simulation time: 0 hr 20 min 58 sec) 
Heartbeat CPU  0 instructions:  445000003 cycles:  966970653 heartbeat IPC: 0.07532 cumulative IPC: 0.38454 (Simulation time: 0 hr 21 min 2 sec) 
Heartbeat CPU  0 instructions:  446000000 cycles:  968916829 heartbeat IPC: 0.51383 cumulative IPC: 0.38482 (Simulation time: 0 hr 21 min 5 sec) 
Heartbeat CPU  0 instructions:  447000003 cycles:  970687894 heartbeat IPC: 0.56463 cumulative IPC: 0.38517 (Simulation time: 0 hr 21 min 8 sec) 
Heartbeat CPU  0 instructions:  448000000 cycles:  972615140 heartbeat IPC: 0.51887 cumulative IPC: 0.38546 (Simulation time: 0 hr 21 min 10 sec) 
Heartbeat CPU  0 instructions:  449000000 cycles:  974559965 heartbeat IPC: 0.51419 cumulative IPC: 0.38574 (Simulation time: 0 hr 21 min 13 sec) 
Heartbeat CPU  0 instructions:  450000000 cycles:  976399391 heartbeat IPC: 0.54365 cumulative IPC: 0.38606 (Simulation time: 0 hr 21 min 16 sec) 
Heartbeat CPU  0 instructions:  451000000 cycles:  978231370 heartbeat IPC: 0.54586 cumulative IPC: 0.38638 (Simulation time: 0 hr 21 min 19 sec) 
Heartbeat CPU  0 instructions:  452000000 cycles:  980153445 heartbeat IPC: 0.52027 cumulative IPC: 0.38666 (Simulation time: 0 hr 21 min 21 sec) 
Heartbeat CPU  0 instructions:  453000001 cycles:  982040631 heartbeat IPC: 0.52989 cumulative IPC: 0.38696 (Simulation time: 0 hr 21 min 24 sec) 
Heartbeat CPU  0 instructions:  454000001 cycles:  983784698 heartbeat IPC: 0.57337 cumulative IPC: 0.38731 (Simulation time: 0 hr 21 min 27 sec) 
Heartbeat CPU  0 instructions:  455000000 cycles:  985690752 heartbeat IPC: 0.52464 cumulative IPC: 0.38760 (Simulation time: 0 hr 21 min 30 sec) 
Heartbeat CPU  0 instructions:  456000000 cycles:  987596868 heartbeat IPC: 0.52463 cumulative IPC: 0.38788 (Simulation time: 0 hr 21 min 32 sec) 
Heartbeat CPU  0 instructions:  457000000 cycles:  989355613 heartbeat IPC: 0.56859 cumulative IPC: 0.38823 (Simulation time: 0 hr 21 min 35 sec) 
Heartbeat CPU  0 instructions:  458000003 cycles:  991232918 heartbeat IPC: 0.53268 cumulative IPC: 0.38852 (Simulation time: 0 hr 21 min 38 sec) 
Heartbeat CPU  0 instructions:  459000000 cycles:  993156277 heartbeat IPC: 0.51992 cumulative IPC: 0.38880 (Simulation time: 0 hr 21 min 41 sec) 
Heartbeat CPU  0 instructions:  460000000 cycles:  994985636 heartbeat IPC: 0.54664 cumulative IPC: 0.38911 (Simulation time: 0 hr 21 min 43 sec) 
Heartbeat CPU  0 instructions:  461000000 cycles:  996796656 heartbeat IPC: 0.55218 cumulative IPC: 0.38943 (Simulation time: 0 hr 21 min 46 sec) 
Heartbeat CPU  0 instructions:  462000003 cycles:  998708785 heartbeat IPC: 0.52298 cumulative IPC: 0.38970 (Simulation time: 0 hr 21 min 49 sec) 
Heartbeat CPU  0 instructions:  463000003 cycles: 1000604657 heartbeat IPC: 0.52746 cumulative IPC: 0.38998 (Simulation time: 0 hr 21 min 52 sec) 
Heartbeat CPU  0 instructions:  464000000 cycles: 1002342457 heartbeat IPC: 0.57544 cumulative IPC: 0.39033 (Simulation time: 0 hr 21 min 54 sec) 
Heartbeat CPU  0 instructions:  465000000 cycles: 1004247080 heartbeat IPC: 0.52504 cumulative IPC: 0.39060 (Simulation time: 0 hr 21 min 57 sec) 
Heartbeat CPU  0 instructions:  466000000 cycles: 1006153048 heartbeat IPC: 0.52467 cumulative IPC: 0.39088 (Simulation time: 0 hr 22 min 0 sec) 
Heartbeat CPU  0 instructions:  467000000 cycles: 1019969819 heartbeat IPC: 0.07238 cumulative IPC: 0.38624 (Simulation time: 0 hr 22 min 4 sec) 
Heartbeat CPU  0 instructions:  468000000 cycles: 1025163850 heartbeat IPC: 0.19253 cumulative IPC: 0.38519 (Simulation time: 0 hr 22 min 7 sec) 
Heartbeat CPU  0 instructions:  469000002 cycles: 1027102305 heartbeat IPC: 0.51588 cumulative IPC: 0.38546 (Simulation time: 0 hr 22 min 10 sec) 
Heartbeat CPU  0 instructions:  470000000 cycles: 1028966534 heartbeat IPC: 0.53641 cumulative IPC: 0.38575 (Simulation time: 0 hr 22 min 13 sec) 
Heartbeat CPU  0 instructions:  471000002 cycles: 1030779174 heartbeat IPC: 0.55168 cumulative IPC: 0.38606 (Simulation time: 0 hr 22 min 16 sec) 
Heartbeat CPU  0 instructions:  472000000 cycles: 1032720399 heartbeat IPC: 0.51514 cumulative IPC: 0.38632 (Simulation time: 0 hr 22 min 19 sec) 
Heartbeat CPU  0 instructions:  473000003 cycles: 1034637765 heartbeat IPC: 0.52155 cumulative IPC: 0.38659 (Simulation time: 0 hr 22 min 21 sec) 
Heartbeat CPU  0 instructions:  474000002 cycles: 1036405442 heartbeat IPC: 0.56571 cumulative IPC: 0.38692 (Simulation time: 0 hr 22 min 24 sec) 
Heartbeat CPU  0 instructions:  475000003 cycles: 1038317417 heartbeat IPC: 0.52302 cumulative IPC: 0.38719 (Simulation time: 0 hr 22 min 27 sec) 
Heartbeat CPU  0 instructions:  476000000 cycles: 1040244307 heartbeat IPC: 0.51897 cumulative IPC: 0.38745 (Simulation time: 0 hr 22 min 30 sec) 
Heartbeat CPU  0 instructions:  477000003 cycles: 1042006945 heartbeat IPC: 0.56733 cumulative IPC: 0.38778 (Simulation time: 0 hr 22 min 32 sec) 
Heartbeat CPU  0 instructions:  478000003 cycles: 1043864547 heartbeat IPC: 0.53833 cumulative IPC: 0.38806 (Simulation time: 0 hr 22 min 35 sec) 
Heartbeat CPU  0 instructions:  479000000 cycles: 1045789964 heartbeat IPC: 0.51937 cumulative IPC: 0.38832 (Simulation time: 0 hr 22 min 38 sec) 
Heartbeat CPU  0 instructions:  480000000 cycles: 1047634226 heartbeat IPC: 0.54222 cumulative IPC: 0.38861 (Simulation time: 0 hr 22 min 41 sec) 
Heartbeat CPU  0 instructions:  481000000 cycles: 1049407595 heartbeat IPC: 0.56390 cumulative IPC: 0.38893 (Simulation time: 0 hr 22 min 43 sec) 
Heartbeat CPU  0 instructions:  482000000 cycles: 1051322655 heartbeat IPC: 0.52218 cumulative IPC: 0.38919 (Simulation time: 0 hr 22 min 46 sec) 
Heartbeat CPU  0 instructions:  483000001 cycles: 1053327020 heartbeat IPC: 0.49891 cumulative IPC: 0.38941 (Simulation time: 0 hr 22 min 49 sec) 
Heartbeat CPU  0 instructions:  484000000 cycles: 1055192526 heartbeat IPC: 0.53605 cumulative IPC: 0.38969 (Simulation time: 0 hr 22 min 52 sec) 
Heartbeat CPU  0 instructions:  485000001 cycles: 1057204420 heartbeat IPC: 0.49704 cumulative IPC: 0.38991 (Simulation time: 0 hr 22 min 54 sec) 
Heartbeat CPU  0 instructions:  486000001 cycles: 1059124750 heartbeat IPC: 0.52074 cumulative IPC: 0.39016 (Simulation time: 0 hr 22 min 57 sec) 
Heartbeat CPU  0 instructions:  487000000 cycles: 1060911905 heartbeat IPC: 0.55955 cumulative IPC: 0.39047 (Simulation time: 0 hr 23 min 0 sec) 
Heartbeat CPU  0 instructions:  488000000 cycles: 1062748797 heartbeat IPC: 0.54440 cumulative IPC: 0.39075 (Simulation time: 0 hr 23 min 2 sec) 
Heartbeat CPU  0 instructions:  489000001 cycles: 1070832858 heartbeat IPC: 0.12370 cumulative IPC: 0.38860 (Simulation time: 0 hr 23 min 6 sec) 
Heartbeat CPU  0 instructions:  490000003 cycles: 1081816692 heartbeat IPC: 0.09104 cumulative IPC: 0.38537 (Simulation time: 0 hr 23 min 10 sec) 
Heartbeat CPU  0 instructions:  491000001 cycles: 1083634634 heartbeat IPC: 0.55007 cumulative IPC: 0.38566 (Simulation time: 0 hr 23 min 13 sec) 
Heartbeat CPU  0 instructions:  492000000 cycles: 1085580707 heartbeat IPC: 0.51385 cumulative IPC: 0.38591 (Simulation time: 0 hr 23 min 16 sec) 
Heartbeat CPU  0 instructions:  493000000 cycles: 1087502022 heartbeat IPC: 0.52048 cumulative IPC: 0.38616 (Simulation time: 0 hr 23 min 18 sec) 
Heartbeat CPU  0 instructions:  494000002 cycles: 1089261661 heartbeat IPC: 0.56830 cumulative IPC: 0.38648 (Simulation time: 0 hr 23 min 21 sec) 
Heartbeat CPU  0 instructions:  495000000 cycles: 1091181080 heartbeat IPC: 0.52099 cumulative IPC: 0.38673 (Simulation time: 0 hr 23 min 24 sec) 
Heartbeat CPU  0 instructions:  496000000 cycles: 1093103021 heartbeat IPC: 0.52031 cumulative IPC: 0.38698 (Simulation time: 0 hr 23 min 27 sec) 
Heartbeat CPU  0 instructions:  497000001 cycles: 1094917336 heartbeat IPC: 0.55117 cumulative IPC: 0.38727 (Simulation time: 0 hr 23 min 29 sec) 
Heartbeat CPU  0 instructions:  498000001 cycles: 1096767130 heartbeat IPC: 0.54060 cumulative IPC: 0.38755 (Simulation time: 0 hr 23 min 32 sec) 
Heartbeat CPU  0 instructions:  499000001 cycles: 1098696941 heartbeat IPC: 0.51819 cumulative IPC: 0.38779 (Simulation time: 0 hr 23 min 35 sec) 
Heartbeat CPU  0 instructions:  500000000 cycles: 1100567245 heartbeat IPC: 0.53467 cumulative IPC: 0.38806 (Simulation time: 0 hr 23 min 38 sec) 
Heartbeat CPU  0 instructions:  501000002 cycles: 1102343627 heartbeat IPC: 0.56294 cumulative IPC: 0.38836 (Simulation time: 0 hr 23 min 40 sec) 
Heartbeat CPU  0 instructions:  502000002 cycles: 1104258897 heartbeat IPC: 0.52212 cumulative IPC: 0.38861 (Simulation time: 0 hr 23 min 43 sec) 
Heartbeat CPU  0 instructions:  503000002 cycles: 1106172190 heartbeat IPC: 0.52266 cumulative IPC: 0.38885 (Simulation time: 0 hr 23 min 46 sec) 
Heartbeat CPU  0 instructions:  504000000 cycles: 1107923533 heartbeat IPC: 0.57099 cumulative IPC: 0.38916 (Simulation time: 0 hr 23 min 49 sec) 
Heartbeat CPU  0 instructions:  505000002 cycles: 1109825961 heartbeat IPC: 0.52565 cumulative IPC: 0.38941 (Simulation time: 0 hr 23 min 51 sec) 
Heartbeat CPU  0 instructions:  506000002 cycles: 1111745049 heartbeat IPC: 0.52108 cumulative IPC: 0.38965 (Simulation time: 0 hr 23 min 54 sec) 
Heartbeat CPU  0 instructions:  507000001 cycles: 1113547404 heartbeat IPC: 0.55483 cumulative IPC: 0.38994 (Simulation time: 0 hr 23 min 57 sec) 
Heartbeat CPU  0 instructions:  508000000 cycles: 1115373738 heartbeat IPC: 0.54754 cumulative IPC: 0.39021 (Simulation time: 0 hr 24 min 0 sec) 
Heartbeat CPU  0 instructions:  509000000 cycles: 1117301570 heartbeat IPC: 0.51872 cumulative IPC: 0.39045 (Simulation time: 0 hr 24 min 2 sec) 
Heartbeat CPU  0 instructions:  510000003 cycles: 1119189040 heartbeat IPC: 0.52981 cumulative IPC: 0.39070 (Simulation time: 0 hr 24 min 5 sec) 
Heartbeat CPU  0 instructions:  511000001 cycles: 1121280946 heartbeat IPC: 0.47803 cumulative IPC: 0.39088 (Simulation time: 0 hr 24 min 8 sec) 
Heartbeat CPU  0 instructions:  512000000 cycles: 1136798868 heartbeat IPC: 0.06444 cumulative IPC: 0.38613 (Simulation time: 0 hr 24 min 12 sec) 
Heartbeat CPU  0 instructions:  513000000 cycles: 1140065167 heartbeat IPC: 0.30616 cumulative IPC: 0.38588 (Simulation time: 0 hr 24 min 15 sec) 
Heartbeat CPU  0 instructions:  514000001 cycles: 1141873085 heartbeat IPC: 0.55312 cumulative IPC: 0.38617 (Simulation time: 0 hr 24 min 18 sec) 
Heartbeat CPU  0 instructions:  515000002 cycles: 1143796174 heartbeat IPC: 0.52000 cumulative IPC: 0.38641 (Simulation time: 0 hr 24 min 21 sec) 
Heartbeat CPU  0 instructions:  516000000 cycles: 1145747445 heartbeat IPC: 0.51249 cumulative IPC: 0.38663 (Simulation time: 0 hr 24 min 24 sec) 
Heartbeat CPU  0 instructions:  517000002 cycles: 1147586923 heartbeat IPC: 0.54363 cumulative IPC: 0.38690 (Simulation time: 0 hr 24 min 26 sec) 
Heartbeat CPU  0 instructions:  518000000 cycles: 1149459310 heartbeat IPC: 0.53408 cumulative IPC: 0.38716 (Simulation time: 0 hr 24 min 29 sec) 
Heartbeat CPU  0 instructions:  519000000 cycles: 1151403760 heartbeat IPC: 0.51428 cumulative IPC: 0.38739 (Simulation time: 0 hr 24 min 32 sec) 
Heartbeat CPU  0 instructions:  520000000 cycles: 1153312857 heartbeat IPC: 0.52381 cumulative IPC: 0.38763 (Simulation time: 0 hr 24 min 35 sec) 
Heartbeat CPU  0 instructions:  521000003 cycles: 1155108385 heartbeat IPC: 0.55694 cumulative IPC: 0.38791 (Simulation time: 0 hr 24 min 37 sec) 
Heartbeat CPU  0 instructions:  522000001 cycles: 1157044689 heartbeat IPC: 0.51645 cumulative IPC: 0.38814 (Simulation time: 0 hr 24 min 40 sec) 
Heartbeat CPU  0 instructions:  523000001 cycles: 1158980759 heartbeat IPC: 0.51651 cumulative IPC: 0.38836 (Simulation time: 0 hr 24 min 43 sec) 
Heartbeat CPU  0 instructions:  524000000 cycles: 1160766006 heartbeat IPC: 0.56015 cumulative IPC: 0.38864 (Simulation time: 0 hr 24 min 46 sec) 
Heartbeat CPU  0 instructions:  525000000 cycles: 1162676964 heartbeat IPC: 0.52330 cumulative IPC: 0.38888 (Simulation time: 0 hr 24 min 48 sec) 
Heartbeat CPU  0 instructions:  526000002 cycles: 1164622551 heartbeat IPC: 0.51398 cumulative IPC: 0.38910 (Simulation time: 0 hr 24 min 51 sec) 
Heartbeat CPU  0 instructions:  527000002 cycles: 1166473658 heartbeat IPC: 0.54022 cumulative IPC: 0.38936 (Simulation time: 0 hr 24 min 54 sec) 
Heartbeat CPU  0 instructions:  528000000 cycles: 1168313752 heartbeat IPC: 0.54345 cumulative IPC: 0.38962 (Simulation time: 0 hr 24 min 57 sec) 
Heartbeat CPU  0 instructions:  529000001 cycles: 1170247445 heartbeat IPC: 0.51715 cumulative IPC: 0.38984 (Simulation time: 0 hr 24 min 59 sec) 
Heartbeat CPU  0 instructions:  530000002 cycles: 1172167817 heartbeat IPC: 0.52073 cumulative IPC: 0.39007 (Simulation time: 0 hr 25 min 2 sec) 
Heartbeat CPU  0 instructions:  531000001 cycles: 1173948249 heartbeat IPC: 0.56166 cumulative IPC: 0.39034 (Simulation time: 0 hr 25 min 5 sec) 
Heartbeat CPU  0 instructions:  532000000 cycles: 1175877300 heartbeat IPC: 0.51839 cumulative IPC: 0.39057 (Simulation time: 0 hr 25 min 8 sec) 
Heartbeat CPU  0 instructions:  533000002 cycles: 1177807253 heartbeat IPC: 0.51815 cumulative IPC: 0.39079 (Simulation time: 0 hr 25 min 10 sec) 
Heartbeat CPU  0 instructions:  534000003 cycles: 1187712399 heartbeat IPC: 0.10096 cumulative IPC: 0.38822 (Simulation time: 0 hr 25 min 14 sec) 
Heartbeat CPU  0 instructions:  535000000 cycles: 1196827836 heartbeat IPC: 0.10970 cumulative IPC: 0.38597 (Simulation time: 0 hr 25 min 18 sec) 
Heartbeat CPU  0 instructions:  536000000 cycles: 1198877645 heartbeat IPC: 0.48785 cumulative IPC: 0.38615 (Simulation time: 0 hr 25 min 21 sec) 
Heartbeat CPU  0 instructions:  537000000 cycles: 1200743740 heartbeat IPC: 0.53588 cumulative IPC: 0.38640 (Simulation time: 0 hr 25 min 24 sec) 
Heartbeat CPU  0 instructions:  538000003 cycles: 1202596181 heartbeat IPC: 0.53983 cumulative IPC: 0.38665 (Simulation time: 0 hr 25 min 26 sec) 
Heartbeat CPU  0 instructions:  539000000 cycles: 1204547769 heartbeat IPC: 0.51240 cumulative IPC: 0.38687 (Simulation time: 0 hr 25 min 29 sec) 
Heartbeat CPU  0 instructions:  540000000 cycles: 1206483714 heartbeat IPC: 0.51654 cumulative IPC: 0.38709 (Simulation time: 0 hr 25 min 32 sec) 
Heartbeat CPU  0 instructions:  541000000 cycles: 1208265045 heartbeat IPC: 0.56138 cumulative IPC: 0.38736 (Simulation time: 0 hr 25 min 35 sec) 
Heartbeat CPU  0 instructions:  542000000 cycles: 1210193834 heartbeat IPC: 0.51846 cumulative IPC: 0.38758 (Simulation time: 0 hr 25 min 37 sec) 
Heartbeat CPU  0 instructions:  543000002 cycles: 1212130344 heartbeat IPC: 0.51639 cumulative IPC: 0.38780 (Simulation time: 0 hr 25 min 40 sec) 
Heartbeat CPU  0 instructions:  544000000 cycles: 1213914691 heartbeat IPC: 0.56043 cumulative IPC: 0.38807 (Simulation time: 0 hr 25 min 43 sec) 
Heartbeat CPU  0 instructions:  545000001 cycles: 1215809766 heartbeat IPC: 0.52768 cumulative IPC: 0.38830 (Simulation time: 0 hr 25 min 46 sec) 
Heartbeat CPU  0 instructions:  546000001 cycles: 1217749390 heartbeat IPC: 0.51556 cumulative IPC: 0.38852 (Simulation time: 0 hr 25 min 48 sec) 
Heartbeat CPU  0 instructions:  547000000 cycles: 1219607539 heartbeat IPC: 0.53817 cumulative IPC: 0.38876 (Simulation time: 0 hr 25 min 51 sec) 
Heartbeat CPU  0 instructions:  548000000 cycles: 1221442375 heartbeat IPC: 0.54501 cumulative IPC: 0.38901 (Simulation time: 0 hr 25 min 54 sec) 
Heartbeat CPU  0 instructions:  549000001 cycles: 1223373661 heartbeat IPC: 0.51779 cumulative IPC: 0.38922 (Simulation time: 0 hr 25 min 57 sec) 
Heartbeat CPU  0 instructions:  550000000 cycles: 1225292241 heartbeat IPC: 0.52122 cumulative IPC: 0.38944 (Simulation time: 0 hr 25 min 59 sec) 
Heartbeat CPU  0 instructions:  551000001 cycles: 1227069550 heartbeat IPC: 0.56265 cumulative IPC: 0.38971 (Simulation time: 0 hr 26 min 2 sec) 
Heartbeat CPU  0 instructions:  552000000 cycles: 1228987962 heartbeat IPC: 0.52126 cumulative IPC: 0.38993 (Simulation time: 0 hr 26 min 5 sec) 
Heartbeat CPU  0 instructions:  553000002 cycles: 1230927510 heartbeat IPC: 0.51559 cumulative IPC: 0.39014 (Simulation time: 0 hr 26 min 8 sec) 
Heartbeat CPU  0 instructions:  554000002 cycles: 1232735666 heartbeat IPC: 0.55305 cumulative IPC: 0.39039 (Simulation time: 0 hr 26 min 10 sec) 
Heartbeat CPU  0 instructions:  555000003 cycles: 1234609636 heartbeat IPC: 0.53363 cumulative IPC: 0.39062 (Simulation time: 0 hr 26 min 13 sec) 
Heartbeat CPU  0 instructions:  556000000 cycles: 1238756938 heartbeat IPC: 0.24112 cumulative IPC: 0.39009 (Simulation time: 0 hr 26 min 16 sec) 
Heartbeat CPU  0 instructions:  557000002 cycles: 1253740513 heartbeat IPC: 0.06674 cumulative IPC: 0.38600 (Simulation time: 0 hr 26 min 21 sec) 
Heartbeat CPU  0 instructions:  558000003 cycles: 1255637142 heartbeat IPC: 0.52725 cumulative IPC: 0.38622 (Simulation time: 0 hr 26 min 23 sec) 
Heartbeat CPU  0 instructions:  559000000 cycles: 1257596348 heartbeat IPC: 0.51041 cumulative IPC: 0.38643 (Simulation time: 0 hr 26 min 26 sec) 
Heartbeat CPU  0 instructions:  560000000 cycles: 1259533917 heartbeat IPC: 0.51611 cumulative IPC: 0.38664 (Simulation time: 0 hr 26 min 29 sec) 
Heartbeat CPU  0 instructions:  561000002 cycles: 1261338827 heartbeat IPC: 0.55405 cumulative IPC: 0.38689 (Simulation time: 0 hr 26 min 32 sec) 
Heartbeat CPU  0 instructions:  562000002 cycles: 1263277955 heartbeat IPC: 0.51570 cumulative IPC: 0.38710 (Simulation time: 0 hr 26 min 34 sec) 
Heartbeat CPU  0 instructions:  563000001 cycles: 1265220058 heartbeat IPC: 0.51491 cumulative IPC: 0.38731 (Simulation time: 0 hr 26 min 37 sec) 
Heartbeat CPU  0 instructions:  564000000 cycles: 1267029683 heartbeat IPC: 0.55260 cumulative IPC: 0.38756 (Simulation time: 0 hr 26 min 40 sec) 
Heartbeat CPU  0 instructions:  565000003 cycles: 1268914087 heartbeat IPC: 0.53067 cumulative IPC: 0.38778 (Simulation time: 0 hr 26 min 43 sec) 
Heartbeat CPU  0 instructions:  566000000 cycles: 1270852092 heartbeat IPC: 0.51599 cumulative IPC: 0.38799 (Simulation time: 0 hr 26 min 45 sec) 
Heartbeat CPU  0 instructions:  567000003 cycles: 1272728718 heartbeat IPC: 0.53287 cumulative IPC: 0.38822 (Simulation time: 0 hr 26 min 48 sec) 
Heartbeat CPU  0 instructions:  568000000 cycles: 1274541185 heartbeat IPC: 0.55173 cumulative IPC: 0.38846 (Simulation time: 0 hr 26 min 51 sec) 
Heartbeat CPU  0 instructions:  569000000 cycles: 1276476639 heartbeat IPC: 0.51667 cumulative IPC: 0.38867 (Simulation time: 0 hr 26 min 54 sec) 
Heartbeat CPU  0 instructions:  570000002 cycles: 1278403710 heartbeat IPC: 0.51892 cumulative IPC: 0.38888 (Simulation time: 0 hr 26 min 57 sec) 
Heartbeat CPU  0 instructions:  571000000 cycles: 1280184987 heartbeat IPC: 0.56139 cumulative IPC: 0.38913 (Simulation time: 0 hr 26 min 59 sec) 
Heartbeat CPU  0 instructions:  572000000 cycles: 1282099171 heartbeat IPC: 0.52242 cumulative IPC: 0.38934 (Simulation time: 0 hr 27 min 2 sec) 
Heartbeat CPU  0 instructions:  573000002 cycles: 1284044868 heartbeat IPC: 0.51396 cumulative IPC: 0.38954 (Simulation time: 0 hr 27 min 5 sec) 
Heartbeat CPU  0 instructions:  574000001 cycles: 1285857763 heartbeat IPC: 0.55160 cumulative IPC: 0.38978 (Simulation time: 0 hr 27 min 8 sec) 
Heartbeat CPU  0 instructions:  575000003 cycles: 1287722825 heartbeat IPC: 0.53618 cumulative IPC: 0.39001 (Simulation time: 0 hr 27 min 10 sec) 
Heartbeat CPU  0 instructions:  576000000 cycles: 1289657590 heartbeat IPC: 0.51686 cumulative IPC: 0.39021 (Simulation time: 0 hr 27 min 13 sec) 
Heartbeat CPU  0 instructions:  577000002 cycles: 1291554259 heartbeat IPC: 0.52724 cumulative IPC: 0.39042 (Simulation time: 0 hr 27 min 16 sec) 
Heartbeat CPU  0 instructions:  578000002 cycles: 1293345243 heartbeat IPC: 0.55835 cumulative IPC: 0.39067 (Simulation time: 0 hr 27 min 18 sec) 
Heartbeat CPU  0 instructions:  579000003 cycles: 1305263557 heartbeat IPC: 0.08390 cumulative IPC: 0.38771 (Simulation time: 0 hr 27 min 23 sec) 
Heartbeat CPU  0 instructions:  580000000 cycles: 1312548968 heartbeat IPC: 0.13726 cumulative IPC: 0.38624 (Simulation time: 0 hr 27 min 26 sec) 
Heartbeat CPU  0 instructions:  581000003 cycles: 1314315772 heartbeat IPC: 0.56600 cumulative IPC: 0.38649 (Simulation time: 0 hr 27 min 29 sec) 
Heartbeat CPU  0 instructions:  582000001 cycles: 1316221538 heartbeat IPC: 0.52472 cumulative IPC: 0.38671 (Simulation time: 0 hr 27 min 32 sec) 
Heartbeat CPU  0 instructions:  583000002 cycles: 1318151552 heartbeat IPC: 0.51813 cumulative IPC: 0.38691 (Simulation time: 0 hr 27 min 34 sec) 
Heartbeat CPU  0 instructions:  584000000 cycles: 1319976713 heartbeat IPC: 0.54790 cumulative IPC: 0.38714 (Simulation time: 0 hr 27 min 37 sec) 
Heartbeat CPU  0 instructions:  585000003 cycles: 1321833347 heartbeat IPC: 0.53861 cumulative IPC: 0.38737 (Simulation time: 0 hr 27 min 40 sec) 
Heartbeat CPU  0 instructions:  586000003 cycles: 1323904907 heartbeat IPC: 0.48273 cumulative IPC: 0.38753 (Simulation time: 0 hr 27 min 43 sec) 
Heartbeat CPU  0 instructions:  587000001 cycles: 1325952607 heartbeat IPC: 0.48835 cumulative IPC: 0.38769 (Simulation time: 0 hr 27 min 45 sec) 
Heartbeat CPU  0 instructions:  588000000 cycles: 1327714077 heartbeat IPC: 0.56771 cumulative IPC: 0.38794 (Simulation time: 0 hr 27 min 48 sec) 
Heartbeat CPU  0 instructions:  589000000 cycles: 1329629095 heartbeat IPC: 0.52219 cumulative IPC: 0.38815 (Simulation time: 0 hr 27 min 51 sec) 
Heartbeat CPU  0 instructions:  590000001 cycles: 1331540686 heartbeat IPC: 0.52312 cumulative IPC: 0.38835 (Simulation time: 0 hr 27 min 54 sec) 
Heartbeat CPU  0 instructions:  591000000 cycles: 1333291456 heartbeat IPC: 0.57118 cumulative IPC: 0.38860 (Simulation time: 0 hr 27 min 56 sec) 
Heartbeat CPU  0 instructions:  592000000 cycles: 1335176568 heartbeat IPC: 0.53047 cumulative IPC: 0.38882 (Simulation time: 0 hr 27 min 59 sec) 
Heartbeat CPU  0 instructions:  593000002 cycles: 1337092343 heartbeat IPC: 0.52198 cumulative IPC: 0.38902 (Simulation time: 0 hr 28 min 2 sec) 
Heartbeat CPU  0 instructions:  594000002 cycles: 1338918339 heartbeat IPC: 0.54765 cumulative IPC: 0.38924 (Simulation time: 0 hr 28 min 5 sec) 
Heartbeat CPU  0 instructions:  595000003 cycles: 1340730576 heartbeat IPC: 0.55180 cumulative IPC: 0.38948 (Simulation time: 0 hr 28 min 7 sec) 
Heartbeat CPU  0 instructions:  596000000 cycles: 1342650004 heartbeat IPC: 0.52099 cumulative IPC: 0.38968 (Simulation time: 0 hr 28 min 10 sec) 
Heartbeat CPU  0 instructions:  597000003 cycles: 1344545598 heartbeat IPC: 0.52754 cumulative IPC: 0.38988 (Simulation time: 0 hr 28 min 13 sec) 
Heartbeat CPU  0 instructions:  598000000 cycles: 1346282420 heartbeat IPC: 0.57576 cumulative IPC: 0.39013 (Simulation time: 0 hr 28 min 16 sec) 
Heartbeat CPU  0 instructions:  599000000 cycles: 1348193248 heartbeat IPC: 0.52333 cumulative IPC: 0.39033 (Simulation time: 0 hr 28 min 18 sec) 
Heartbeat CPU  0 instructions:  600000000 cycles: 1350106634 heartbeat IPC: 0.52263 cumulative IPC: 0.39053 (Simulation time: 0 hr 28 min 21 sec) 
Finished CPU 0 instructions: 500000000 cycles: 1280312022 cumulative IPC: 0.39053 (Simulation time: 0 hr 28 min 21 sec) 

ChampSim completed all CPUs

[ROI Statistics]
Core_0_instructions 500000000
Core_0_cycles 1280312022
Core_0_IPC 0.39053

Core_0_branch_prediction_accuracy 99.17161
Core_0_branch_MPKI 0.01066
Core_0_average_ROB_occupancy_at_mispredict 253.69807

Core_0_L1D_total_access 253571161
Core_0_L1D_total_hit 249581545
Core_0_L1D_total_miss 3989616
Core_0_L1D_loads 171247596
Core_0_L1D_load_hit 168010518
Core_0_L1D_load_miss 3237078
Core_0_L1D_RFOs 82323565
Core_0_L1D_RFO_hit 81571027
Core_0_L1D_RFO_miss 752538
Core_0_L1D_prefetches 0
Core_0_L1D_prefetch_hit 0
Core_0_L1D_prefetch_miss 0
Core_0_L1D_writebacks 0
Core_0_L1D_writeback_hit 0
Core_0_L1D_writeback_miss 0
Core_0_L1D_prefetch_requested 0
Core_0_L1D_prefetch_dropped 0
Core_0_L1D_prefetch_issued 0
Core_0_L1D_prefetch_filled 0
Core_0_L1D_prefetch_useful 0
Core_0_L1D_prefetch_useless 0
Core_0_L1D_prefetch_late 0
Core_0_L1D_average_miss_latency 266.20490

Core_0_L1D_rq_access 255819538
Core_0_L1D_rq_forward 0
Core_0_L1D_rq_merged 84025592
Core_0_L1D_rq_to_cache 171278890
Core_0_L1D_rq_full 0

Core_0_L1D_wq_access 84479085
Core_0_L1D_wq_forward 515056
Core_0_L1D_wq_merged 1420540
Core_0_L1D_wq_to_cache 83058545
Core_0_L1D_wq_full 3313732

Core_0_L1D_pq_access 0
Core_0_L1D_pq_forward 0
Core_0_L1D_pq_merged 0
Core_0_L1D_pq_to_cache 0
Core_0_L1D_pq_full 0

Core_0_L1D_acc_epochs 690066
Core_0_L1D_acc_level_0 690066
Core_0_L1D_acc_level_1 0
Core_0_L1D_acc_level_2 0
Core_0_L1D_acc_level_3 0
Core_0_L1D_acc_level_4 0
Core_0_L1D_acc_level_5 0
Core_0_L1D_acc_level_6 0
Core_0_L1D_acc_level_7 0
Core_0_L1D_acc_level_8 0
Core_0_L1D_acc_level_9 0

Core_0_L1I_total_access 133237964
Core_0_L1I_total_hit 133237964
Core_0_L1I_total_miss 0
Core_0_L1I_loads 133237964
Core_0_L1I_load_hit 133237964
Core_0_L1I_load_miss 0
Core_0_L1I_RFOs 0
Core_0_L1I_RFO_hit 0
Core_0_L1I_RFO_miss 0
Core_0_L1I_prefetches 0
Core_0_L1I_prefetch_hit 0
Core_0_L1I_prefetch_miss 0
Core_0_L1I_writebacks 0
Core_0_L1I_writeback_hit 0
Core_0_L1I_writeback_miss 0
Core_0_L1I_prefetch_requested 0
Core_0_L1I_prefetch_dropped 0
Core_0_L1I_prefetch_issued 0
Core_0_L1I_prefetch_filled 0
Core_0_L1I_prefetch_useful 0
Core_0_L1I_prefetch_useless 0
Core_0_L1I_prefetch_late 0
Core_0_L1I_average_miss_latency -nan

Core_0_L1I_rq_access 500000000
Core_0_L1I_rq_forward 0
Core_0_L1I_rq_merged 366762036
Core_0_L1I_rq_to_cache 133237964
Core_0_L1I_rq_full 0

Core_0_L1I_wq_access 0
Core_0_L1I_wq_forward 0
Core_0_L1I_wq_merged 0
Core_0_L1I_wq_to_cache 0
Core_0_L1I_wq_full 0

Core_0_L1I_pq_access 0
Core_0_L1I_pq_forward 0
Core_0_L1I_pq_merged 0
Core_0_L1I_pq_to_cache 0
Core_0_L1I_pq_full 0

Core_0_L1I_acc_epochs 690066
Core_0_L1I_acc_level_0 690066
Core_0_L1I_acc_level_1 0
Core_0_L1I_acc_level_2 0
Core_0_L1I_acc_level_3 0
Core_0_L1I_acc_level_4 0
Core_0_L1I_acc_level_5 0
Core_0_L1I_acc_level_6 0
Core_0_L1I_acc_level_7 0
Core_0_L1I_acc_level_8 0
Core_0_L1I_acc_level_9 0

Core_0_L2C_total_access 6552756
Core_0_L2C_total_hit 3949963
Core_0_L2C_total_miss 2602793
Core_0_L2C_loads 3237077
Core_0_L2C_load_hit 3151342
Core_0_L2C_load_miss 85735
Core_0_L2C_RFOs 752538
Core_0_L2C_RFO_hit 2039
Core_0_L2C_RFO_miss 750499
Core_0_L2C_prefetches 1776872
Core_0_L2C_prefetch_hit 11158
Core_0_L2C_prefetch_miss 1765714
Core_0_L2C_writebacks 786269
Core_0_L2C_writeback_hit 785424
Core_0_L2C_writeback_miss 845
Core_0_L2C_prefetch_requested 2124938
Core_0_L2C_prefetch_dropped 0
Core_0_L2C_prefetch_issued 2124938
Core_0_L2C_prefetch_filled 2100558
Core_0_L2C_prefetch_useful 2077183
Core_0_L2C_prefetch_useless 22928
Core_0_L2C_prefetch_late 1119
Core_0_L2C_average_miss_latency 1199.03577

Core_0_L2C_rq_access 3989616
Core_0_L2C_rq_forward 0
Core_0_L2C_rq_merged 0
Core_0_L2C_rq_to_cache 3989615
Core_0_L2C_rq_full 0

Core_0_L2C_wq_access 786269
Core_0_L2C_wq_forward 1
Core_0_L2C_wq_merged 0
Core_0_L2C_wq_to_cache 786269
Core_0_L2C_wq_full 0

Core_0_L2C_pq_access 2124938
Core_0_L2C_pq_forward 0
Core_0_L2C_pq_merged 0
Core_0_L2C_pq_to_cache 2124938
Core_0_L2C_pq_full 0

Core_0_L2C_acc_epochs 690066
Core_0_L2C_acc_level_0 368967
Core_0_L2C_acc_level_1 59578
Core_0_L2C_acc_level_2 44191
Core_0_L2C_acc_level_3 20080
Core_0_L2C_acc_level_4 16698
Core_0_L2C_acc_level_5 30374
Core_0_L2C_acc_level_6 9842
Core_0_L2C_acc_level_7 10040
Core_0_L2C_acc_level_8 7703
Core_0_L2C_acc_level_9 122593

Core_0_LLC_total_access 3365405
Core_0_LLC_total_hit 918321
Core_0_LLC_total_miss 2447084
Core_0_LLC_loads 84615
Core_0_LLC_load_hit 28351
Core_0_LLC_load_miss 56264
Core_0_LLC_RFOs 750499
Core_0_LLC_RFO_hit 145510
Core_0_LLC_RFO_miss 604989
Core_0_LLC_prefetches 1777275
Core_0_LLC_prefetch_hit 484674
Core_0_LLC_prefetch_miss 1292601
Core_0_LLC_writebacks 753016
Core_0_LLC_writeback_hit 259786
Core_0_LLC_writeback_miss 493230
Core_0_LLC_prefetch_requested 0
Core_0_LLC_prefetch_dropped 0
Core_0_LLC_prefetch_issued 0
Core_0_LLC_prefetch_filled 1563084
Core_0_LLC_prefetch_useful 9034
Core_0_LLC_prefetch_useless 1552245
Core_0_LLC_prefetch_late 0
Core_0_LLC_average_miss_latency 1226.79334

Core_0_LLC_rq_access 835116
Core_0_LLC_rq_forward 0
Core_0_LLC_rq_merged 0
Core_0_LLC_rq_to_cache 835114
Core_0_LLC_rq_full 0

Core_0_LLC_wq_access 753016
Core_0_LLC_wq_forward 2
Core_0_LLC_wq_merged 0
Core_0_LLC_wq_to_cache 753016
Core_0_LLC_wq_full 0

Core_0_LLC_pq_access 2113023
Core_0_LLC_pq_forward 0
Core_0_LLC_pq_merged 0
Core_0_LLC_pq_to_cache 2113023
Core_0_LLC_pq_full 0

Core_0_LLC_acc_epochs 1318464
Core_0_LLC_acc_level_0 1314333
Core_0_LLC_acc_level_1 1843
Core_0_LLC_acc_level_2 1198
Core_0_LLC_acc_level_3 67
Core_0_LLC_acc_level_4 31
Core_0_LLC_acc_level_5 822
Core_0_LLC_acc_level_6 8
Core_0_LLC_acc_level_7 21
Core_0_LLC_acc_level_8 9
Core_0_LLC_acc_level_9 132

Core_0_major_page_fault 0
Core_0_minor_page_fault 23870

[Bingo] PHT Access: 71845
[Bingo] PHT Hit PC+Addr: 2039
[Bingo] PHT Hit PC+Offs: 68138
[Bingo] PHT Miss: 1668
[Bingo] Prefetch PC+Addr: 0
[Bingo] Prefetch PC+Offs: 0
[Bingo] Useful PC+Addr: 0
[Bingo] Useful PC+Offs: 0
[Bingo] Useless PC+Addr: 0
[Bingo] Useless PC+Offs: 0
[Bingo] L1 Prefetch per Region: 0.00000
[Bingo] L2 Prefetch per Region: 31.16220
[Bingo] L3 Prefetch per Region: 0.16916
[Bingo] No Prefetch per Region: 0.66864
[Bingo] Number of Voters Mean: 14.81322
[Bingo] Number of Voters SD: 2.97902

Channel_0_RQ_row_buffer_hit 1134848
Channel_0_RQ_row_buffer_miss 818997
Channel_0_WQ_row_buffer_hit 142948
Channel_0_WQ_row_buffer_miss 466418
Channel_0_WQ_full 80
Channel_0_dbus_congested 2183149

avg_congested_cycle 102

DRAM_bw_pochs 5273855
DRAM_bw_level_0 4521672
DRAM_bw_level_1 351678
DRAM_bw_level_2 0
DRAM_bw_level_3 400505
