*************************************************
   ChampSim Multicore Out-of-Order Simulator
   Last compiled: Dec 11 2024 17:59:53
*************************************************
parsing config file: /home/functionmain/桌面/Pythia/config/pythia.ini

trace_0 /home/functionmain/桌面/Pythia/traces/436.cactusADM-1804B.champsimtrace.xz
adding L2C_PREFETCHER: Scooby
Initialize SHIP state
warmup_instructions 100000000
simulation_instructions 500000000
champsim_seed 271
measure_ipc 0
measure_ipc_epoch 1000
measure_dram_bw 1
measure_dram_bw_epoch 256
measure_cache_acc 1
measure_cache_acc_epoch 1024
l1d_perfect 0
l2c_perfect 0
llc_perfect 0
l1d_semi_perfect 0
l2c_semi_perfect 0
llc_semi_perfect 0
semi_perfect_cache_page_buffer_size 64

num_cpus 1
cpu_freq 4000
dram_io_freq 150
page_size 4096
block_size 64
max_read_per_cycle 8
max_fill_per_cycle 1
dram_channels 1
log2_dram_channels 0
dram_ranks 1
dram_banks 8
dram_rows 65536
dram_columns 128
dram_row_size 8
dram_size 4096
dram_pages 1048576

fetch_width 6
decode_width 6
exec_width 4
lq_width 2
sq_width 2
retire_width 4
scheduler_size 128
branch_mispredict_penalty 20
rob_size 256
lq_size 72
sq_size 56
num_instr_destinations_sparc 4
num_instr_destinations 2
num_instr_sources 4

itlb_set 16
itlb_way 8
itlb_rq_size 16
itlb_wq_size 16
itlb_pq_size 0
itlb_mshr_size 8
itlb_latency 1

dtlb_set 16
dtlb_way 4
dtlb_rq_size 16
dtlb_wq_size 16
dtlb_pq_size 0
dtlb_mshr_size 8
dtlb_latency 1

stlb_set 128
stlb_way 12
stlb_rq_size 32
stlb_wq_size 32
stlb_pq_size 0
stlb_mshr_size 16
stlb_latency 8

l1i_size 32
l1i_set 64
l1i_way 8
l1i_rq_size 64
l1i_wq_size 64
l1i_pq_size 8
l1i_mshr_size 8
l1i_latency 1

l1d_size 32
l1d_set 64
l1d_way 8
l1d_rq_size 64
l1d_wq_size 64
l1d_pq_size 8
l1d_mshr_size 16
l1d_latency 4

l2c_size 256
l2c_set 512
l2c_way 8
l2c_rq_size 32
l2c_wq_size 32
l2c_pq_size 32
l2c_mshr_size 32
l2c_latency 10

llc_size 2048
llc_set 2048
llc_way 16
llc_rq_size 32
llc_wq_size 32
llc_pq_size 32
llc_mshr_size 64
llc_latency 20

dram_channel_width 8
dram_wq_size 64
dram_rq_size 64
tRP 15
tRCD 15
tCAS 12.5
dram_dbus_turn_around_time 30
dram_write_high_wm 56
dram_write_low_wm 48
min_dram_writes_per_switch 16
dram_mtps 150
dram_dbus_return_time 213

scooby_alpha 0.0065088
scooby_gamma 0.556301
scooby_epsilon 0.00182284
scooby_state_num_bits 10
scooby_max_states 1024
scooby_seed 200
scooby_policy EGreedy
scooby_learning_type SARSA
scooby_actions 1,3,4,5,10,11,12,22,23,30,32,-1,-3,-6,0,
scooby_max_actions 15
scooby_pt_size 256
scooby_st_size 64
scooby_max_pcs 5
scooby_max_offsets 5
scooby_max_deltas 5
scooby_reward_none -4
scooby_reward_incorrect -8
scooby_reward_correct_untimely 12
scooby_reward_correct_timely 20
scooby_brain_zero_init 0
scooby_enable_reward_all 0
scooby_enable_track_multiple 0
scooby_enable_reward_out_of_bounds 1
scooby_reward_out_of_bounds -12
scooby_state_type 1
scooby_state_hash_type 11
scooby_access_debug 0
scooby_print_access_debug 0
scooby_print_access_debug_pc deadbeef
scooby_print_access_debug_pc_count 0
scooby_print_trace 0
scooby_enable_state_action_stats 1
scooby_enable_reward_tracker_hit 0
scooby_reward_tracker_hit -2
scooby_enable_featurewise_engine 1
scooby_pref_degree 1
scooby_enable_dyn_degree 1
scooby_max_to_avg_q_thresholds 0.5,1,2,
scooby_dyn_degrees 1,2,4,4,
scooby_multi_deg_select_type 2
scooby_last_pref_offset_conf_thresholds 1,3,8,
scooby_dyn_degrees_type2 1,2,4,6,
scooby_action_tracker_size 2
scooby_high_bw_thresh 4
scooby_enable_hbw_reward 1
scooby_reward_hbw_correct_timely 20
scooby_reward_hbw_correct_untimely 12
scooby_reward_hbw_incorrect -14
scooby_reward_hbw_none -2
scooby_reward_hbw_out_of_bounds -12
scooby_reward_hbw_tracker_hit -2
scooby_last_pref_offset_conf_thresholds_hbw 1,3,8,
scooby_dyn_degrees_type2_hbw 1,2,4,6,

le_enable_trace 0
le_trace_interval 0
le_trace_file_name 
le_trace_state 0
le_enable_score_plot 0
le_plot_file_name 
le_plot_actions 
le_enable_action_trace 0
le_action_trace_interval 0
le_action_trace_name 
le_enable_action_plot 0

le_featurewise_active_features PC, PC_Delta
le_featurewise_num_tilings 3,3,
le_featurewise_num_tiles 128,128,
le_featurewise_hash_types 2,2,
le_featurewise_enable_tiling_offset 1,1,
le_featurewise_max_q_thresh 0.5
le_featurewise_enable_action_fallback 1
le_featurewise_feature_weights 1,1,
le_featurewise_enable_dynamic_weight 0
le_featurewise_weight_gradient 0.001
le_featurewise_disable_adjust_weight_all_features_align 1
le_featurewise_selective_update 0
le_featurewise_pooling_type 2
le_featurewise_enable_dyn_action_fallback 1
le_featurewise_bw_acc_check_level 1
le_featurewise_acc_thresh 2
le_featurewise_enable_trace 0
le_featurewise_trace_feature_type 0
le_featurewise_trace_feature 
le_featurewise_trace_interval 0
le_featurewise_trace_record_count 0
le_featurewise_trace_file_name 
le_featurewise_enable_score_plot 0
le_featurewise_plot_actions 
le_featurewise_plot_file_name 


Heartbeat CPU  0 instructions:    1000000 cycles:     702364 heartbeat IPC: 1.42376 cumulative IPC: 1.42376 (Simulation time: 0 hr 0 min 2 sec) 
Heartbeat CPU  0 instructions:    2000000 cycles:    1404603 heartbeat IPC: 1.42402 cumulative IPC: 1.42389 (Simulation time: 0 hr 0 min 5 sec) 
Heartbeat CPU  0 instructions:    3000000 cycles:    2106947 heartbeat IPC: 1.42380 cumulative IPC: 1.42386 (Simulation time: 0 hr 0 min 7 sec) 
Heartbeat CPU  0 instructions:    4000000 cycles:    2809274 heartbeat IPC: 1.42384 cumulative IPC: 1.42386 (Simulation time: 0 hr 0 min 10 sec) 
Heartbeat CPU  0 instructions:    5000000 cycles:    3511484 heartbeat IPC: 1.42408 cumulative IPC: 1.42390 (Simulation time: 0 hr 0 min 12 sec) 
Heartbeat CPU  0 instructions:    6000000 cycles:    4213862 heartbeat IPC: 1.42373 cumulative IPC: 1.42387 (Simulation time: 0 hr 0 min 14 sec) 
Heartbeat CPU  0 instructions:    7000001 cycles:    4916265 heartbeat IPC: 1.42369 cumulative IPC: 1.42385 (Simulation time: 0 hr 0 min 17 sec) 
Heartbeat CPU  0 instructions:    8000000 cycles:    5618385 heartbeat IPC: 1.42426 cumulative IPC: 1.42390 (Simulation time: 0 hr 0 min 19 sec) 
Heartbeat CPU  0 instructions:    9000001 cycles:    6320892 heartbeat IPC: 1.42347 cumulative IPC: 1.42385 (Simulation time: 0 hr 0 min 22 sec) 
Heartbeat CPU  0 instructions:   10000000 cycles:    7023113 heartbeat IPC: 1.42405 cumulative IPC: 1.42387 (Simulation time: 0 hr 0 min 24 sec) 
Heartbeat CPU  0 instructions:   11000002 cycles:    7725333 heartbeat IPC: 1.42406 cumulative IPC: 1.42389 (Simulation time: 0 hr 0 min 27 sec) 
Heartbeat CPU  0 instructions:   12000000 cycles:    8427510 heartbeat IPC: 1.42414 cumulative IPC: 1.42391 (Simulation time: 0 hr 0 min 29 sec) 
Heartbeat CPU  0 instructions:   13000000 cycles:    9130101 heartbeat IPC: 1.42330 cumulative IPC: 1.42386 (Simulation time: 0 hr 0 min 31 sec) 
Heartbeat CPU  0 instructions:   14000002 cycles:    9832363 heartbeat IPC: 1.42397 cumulative IPC: 1.42387 (Simulation time: 0 hr 0 min 34 sec) 
Heartbeat CPU  0 instructions:   15000002 cycles:   10534322 heartbeat IPC: 1.42458 cumulative IPC: 1.42392 (Simulation time: 0 hr 0 min 36 sec) 
Heartbeat CPU  0 instructions:   16000000 cycles:   11236896 heartbeat IPC: 1.42333 cumulative IPC: 1.42388 (Simulation time: 0 hr 0 min 39 sec) 
Heartbeat CPU  0 instructions:   17000000 cycles:   11939437 heartbeat IPC: 1.42340 cumulative IPC: 1.42385 (Simulation time: 0 hr 0 min 41 sec) 
Heartbeat CPU  0 instructions:   18000002 cycles:   12600024 heartbeat IPC: 1.51381 cumulative IPC: 1.42857 (Simulation time: 0 hr 0 min 44 sec) 
Heartbeat CPU  0 instructions:   19000000 cycles:   13234571 heartbeat IPC: 1.57592 cumulative IPC: 1.43563 (Simulation time: 0 hr 0 min 46 sec) 
Heartbeat CPU  0 instructions:   20000000 cycles:   13937094 heartbeat IPC: 1.42344 cumulative IPC: 1.43502 (Simulation time: 0 hr 0 min 49 sec) 
Heartbeat CPU  0 instructions:   21000000 cycles:   14639521 heartbeat IPC: 1.42364 cumulative IPC: 1.43447 (Simulation time: 0 hr 0 min 51 sec) 
Heartbeat CPU  0 instructions:   22000002 cycles:   15341847 heartbeat IPC: 1.42384 cumulative IPC: 1.43399 (Simulation time: 0 hr 0 min 53 sec) 
Heartbeat CPU  0 instructions:   23000001 cycles:   16044228 heartbeat IPC: 1.42373 cumulative IPC: 1.43354 (Simulation time: 0 hr 0 min 56 sec) 
Heartbeat CPU  0 instructions:   24000000 cycles:   16746387 heartbeat IPC: 1.42418 cumulative IPC: 1.43314 (Simulation time: 0 hr 0 min 58 sec) 
Heartbeat CPU  0 instructions:   25000001 cycles:   17448715 heartbeat IPC: 1.42384 cumulative IPC: 1.43277 (Simulation time: 0 hr 1 min 1 sec) 
Heartbeat CPU  0 instructions:   26000003 cycles:   18151313 heartbeat IPC: 1.42329 cumulative IPC: 1.43240 (Simulation time: 0 hr 1 min 3 sec) 
Heartbeat CPU  0 instructions:   27000003 cycles:   18853561 heartbeat IPC: 1.42400 cumulative IPC: 1.43209 (Simulation time: 0 hr 1 min 6 sec) 
Heartbeat CPU  0 instructions:   28000000 cycles:   19555707 heartbeat IPC: 1.42420 cumulative IPC: 1.43181 (Simulation time: 0 hr 1 min 8 sec) 
Heartbeat CPU  0 instructions:   29000000 cycles:   20258177 heartbeat IPC: 1.42355 cumulative IPC: 1.43152 (Simulation time: 0 hr 1 min 11 sec) 
Heartbeat CPU  0 instructions:   30000003 cycles:   20960598 heartbeat IPC: 1.42365 cumulative IPC: 1.43126 (Simulation time: 0 hr 1 min 13 sec) 
Heartbeat CPU  0 instructions:   31000003 cycles:   21662570 heartbeat IPC: 1.42456 cumulative IPC: 1.43104 (Simulation time: 0 hr 1 min 15 sec) 
Heartbeat CPU  0 instructions:   32000000 cycles:   22364640 heartbeat IPC: 1.42436 cumulative IPC: 1.43083 (Simulation time: 0 hr 1 min 18 sec) 
Heartbeat CPU  0 instructions:   33000001 cycles:   23067432 heartbeat IPC: 1.42290 cumulative IPC: 1.43059 (Simulation time: 0 hr 1 min 20 sec) 
Heartbeat CPU  0 instructions:   34000000 cycles:   23769560 heartbeat IPC: 1.42424 cumulative IPC: 1.43040 (Simulation time: 0 hr 1 min 23 sec) 
Heartbeat CPU  0 instructions:   35000001 cycles:   24471809 heartbeat IPC: 1.42400 cumulative IPC: 1.43022 (Simulation time: 0 hr 1 min 25 sec) 
Heartbeat CPU  0 instructions:   36000000 cycles:   25174099 heartbeat IPC: 1.42391 cumulative IPC: 1.43004 (Simulation time: 0 hr 1 min 28 sec) 
Heartbeat CPU  0 instructions:   37000000 cycles:   25876708 heartbeat IPC: 1.42327 cumulative IPC: 1.42986 (Simulation time: 0 hr 1 min 30 sec) 
Heartbeat CPU  0 instructions:   38000001 cycles:   26578919 heartbeat IPC: 1.42407 cumulative IPC: 1.42970 (Simulation time: 0 hr 1 min 33 sec) 
Heartbeat CPU  0 instructions:   39000000 cycles:   27281218 heartbeat IPC: 1.42389 cumulative IPC: 1.42955 (Simulation time: 0 hr 1 min 35 sec) 
Heartbeat CPU  0 instructions:   40000000 cycles:   27983518 heartbeat IPC: 1.42389 cumulative IPC: 1.42941 (Simulation time: 0 hr 1 min 37 sec) 
Heartbeat CPU  0 instructions:   41000000 cycles:   28587720 heartbeat IPC: 1.65508 cumulative IPC: 1.43418 (Simulation time: 0 hr 1 min 40 sec) 
Heartbeat CPU  0 instructions:   42000002 cycles:   29279007 heartbeat IPC: 1.44658 cumulative IPC: 1.43447 (Simulation time: 0 hr 1 min 43 sec) 
Heartbeat CPU  0 instructions:   43000002 cycles:   29981417 heartbeat IPC: 1.42367 cumulative IPC: 1.43422 (Simulation time: 0 hr 1 min 45 sec) 
Heartbeat CPU  0 instructions:   44000000 cycles:   30683836 heartbeat IPC: 1.42365 cumulative IPC: 1.43398 (Simulation time: 0 hr 1 min 47 sec) 
Heartbeat CPU  0 instructions:   45000003 cycles:   31386144 heartbeat IPC: 1.42388 cumulative IPC: 1.43375 (Simulation time: 0 hr 1 min 50 sec) 
Heartbeat CPU  0 instructions:   46000003 cycles:   32088361 heartbeat IPC: 1.42406 cumulative IPC: 1.43354 (Simulation time: 0 hr 1 min 52 sec) 
Heartbeat CPU  0 instructions:   47000000 cycles:   32790580 heartbeat IPC: 1.42405 cumulative IPC: 1.43334 (Simulation time: 0 hr 1 min 55 sec) 
Heartbeat CPU  0 instructions:   48000000 cycles:   33493234 heartbeat IPC: 1.42318 cumulative IPC: 1.43313 (Simulation time: 0 hr 1 min 57 sec) 
Heartbeat CPU  0 instructions:   49000000 cycles:   34195268 heartbeat IPC: 1.42443 cumulative IPC: 1.43295 (Simulation time: 0 hr 2 min 0 sec) 
Heartbeat CPU  0 instructions:   50000000 cycles:   34897572 heartbeat IPC: 1.42388 cumulative IPC: 1.43276 (Simulation time: 0 hr 2 min 2 sec) 
Heartbeat CPU  0 instructions:   51000000 cycles:   35600144 heartbeat IPC: 1.42334 cumulative IPC: 1.43258 (Simulation time: 0 hr 2 min 5 sec) 
Heartbeat CPU  0 instructions:   52000000 cycles:   36302337 heartbeat IPC: 1.42411 cumulative IPC: 1.43241 (Simulation time: 0 hr 2 min 7 sec) 
Heartbeat CPU  0 instructions:   53000000 cycles:   37004740 heartbeat IPC: 1.42368 cumulative IPC: 1.43225 (Simulation time: 0 hr 2 min 9 sec) 
Heartbeat CPU  0 instructions:   54000001 cycles:   37706853 heartbeat IPC: 1.42427 cumulative IPC: 1.43210 (Simulation time: 0 hr 2 min 12 sec) 
Heartbeat CPU  0 instructions:   55000001 cycles:   38409160 heartbeat IPC: 1.42388 cumulative IPC: 1.43195 (Simulation time: 0 hr 2 min 14 sec) 
Heartbeat CPU  0 instructions:   56000000 cycles:   39111654 heartbeat IPC: 1.42350 cumulative IPC: 1.43180 (Simulation time: 0 hr 2 min 17 sec) 
Heartbeat CPU  0 instructions:   57000000 cycles:   39814173 heartbeat IPC: 1.42345 cumulative IPC: 1.43165 (Simulation time: 0 hr 2 min 19 sec) 
Heartbeat CPU  0 instructions:   58000003 cycles:   40516492 heartbeat IPC: 1.42386 cumulative IPC: 1.43152 (Simulation time: 0 hr 2 min 22 sec) 
Heartbeat CPU  0 instructions:   59000000 cycles:   41218637 heartbeat IPC: 1.42420 cumulative IPC: 1.43139 (Simulation time: 0 hr 2 min 24 sec) 
Heartbeat CPU  0 instructions:   60000000 cycles:   41921117 heartbeat IPC: 1.42353 cumulative IPC: 1.43126 (Simulation time: 0 hr 2 min 27 sec) 
Heartbeat CPU  0 instructions:   61000000 cycles:   42623343 heartbeat IPC: 1.42404 cumulative IPC: 1.43114 (Simulation time: 0 hr 2 min 29 sec) 
Heartbeat CPU  0 instructions:   62000002 cycles:   43325610 heartbeat IPC: 1.42396 cumulative IPC: 1.43102 (Simulation time: 0 hr 2 min 31 sec) 
Heartbeat CPU  0 instructions:   63000000 cycles:   43972331 heartbeat IPC: 1.54626 cumulative IPC: 1.43272 (Simulation time: 0 hr 2 min 34 sec) 
Heartbeat CPU  0 instructions:   64000000 cycles:   44622923 heartbeat IPC: 1.53706 cumulative IPC: 1.43424 (Simulation time: 0 hr 2 min 37 sec) 
Heartbeat CPU  0 instructions:   65000000 cycles:   45325021 heartbeat IPC: 1.42430 cumulative IPC: 1.43409 (Simulation time: 0 hr 2 min 39 sec) 
Heartbeat CPU  0 instructions:   66000001 cycles:   46027142 heartbeat IPC: 1.42426 cumulative IPC: 1.43394 (Simulation time: 0 hr 2 min 41 sec) 
Heartbeat CPU  0 instructions:   67000002 cycles:   46729261 heartbeat IPC: 1.42426 cumulative IPC: 1.43379 (Simulation time: 0 hr 2 min 44 sec) 
Heartbeat CPU  0 instructions:   68000000 cycles:   47431677 heartbeat IPC: 1.42365 cumulative IPC: 1.43364 (Simulation time: 0 hr 2 min 46 sec) 
Heartbeat CPU  0 instructions:   69000000 cycles:   48133900 heartbeat IPC: 1.42405 cumulative IPC: 1.43350 (Simulation time: 0 hr 2 min 49 sec) 
Heartbeat CPU  0 instructions:   70000002 cycles:   48836028 heartbeat IPC: 1.42424 cumulative IPC: 1.43337 (Simulation time: 0 hr 2 min 51 sec) 
Heartbeat CPU  0 instructions:   71000003 cycles:   49538675 heartbeat IPC: 1.42319 cumulative IPC: 1.43322 (Simulation time: 0 hr 2 min 54 sec) 
Heartbeat CPU  0 instructions:   72000000 cycles:   50240768 heartbeat IPC: 1.42431 cumulative IPC: 1.43310 (Simulation time: 0 hr 2 min 56 sec) 
Heartbeat CPU  0 instructions:   73000001 cycles:   50942949 heartbeat IPC: 1.42414 cumulative IPC: 1.43298 (Simulation time: 0 hr 2 min 59 sec) 
Heartbeat CPU  0 instructions:   74000003 cycles:   51645291 heartbeat IPC: 1.42381 cumulative IPC: 1.43285 (Simulation time: 0 hr 3 min 1 sec) 
Heartbeat CPU  0 instructions:   75000002 cycles:   52347994 heartbeat IPC: 1.42307 cumulative IPC: 1.43272 (Simulation time: 0 hr 3 min 3 sec) 
Heartbeat CPU  0 instructions:   76000000 cycles:   53050210 heartbeat IPC: 1.42406 cumulative IPC: 1.43261 (Simulation time: 0 hr 3 min 6 sec) 
Heartbeat CPU  0 instructions:   77000003 cycles:   53752789 heartbeat IPC: 1.42333 cumulative IPC: 1.43248 (Simulation time: 0 hr 3 min 8 sec) 
Heartbeat CPU  0 instructions:   78000001 cycles:   54455357 heartbeat IPC: 1.42335 cumulative IPC: 1.43237 (Simulation time: 0 hr 3 min 11 sec) 
Heartbeat CPU  0 instructions:   79000001 cycles:   55157326 heartbeat IPC: 1.42456 cumulative IPC: 1.43227 (Simulation time: 0 hr 3 min 13 sec) 
Heartbeat CPU  0 instructions:   80000000 cycles:   55859366 heartbeat IPC: 1.42442 cumulative IPC: 1.43217 (Simulation time: 0 hr 3 min 16 sec) 
Heartbeat CPU  0 instructions:   81000002 cycles:   56561735 heartbeat IPC: 1.42376 cumulative IPC: 1.43206 (Simulation time: 0 hr 3 min 18 sec) 
Heartbeat CPU  0 instructions:   82000003 cycles:   57263995 heartbeat IPC: 1.42398 cumulative IPC: 1.43196 (Simulation time: 0 hr 3 min 21 sec) 
Heartbeat CPU  0 instructions:   83000001 cycles:   57966265 heartbeat IPC: 1.42395 cumulative IPC: 1.43187 (Simulation time: 0 hr 3 min 23 sec) 
Heartbeat CPU  0 instructions:   84000000 cycles:   58668524 heartbeat IPC: 1.42397 cumulative IPC: 1.43177 (Simulation time: 0 hr 3 min 25 sec) 
Heartbeat CPU  0 instructions:   85000000 cycles:   59357019 heartbeat IPC: 1.45244 cumulative IPC: 1.43201 (Simulation time: 0 hr 3 min 28 sec) 
Heartbeat CPU  0 instructions:   86000002 cycles:   59965095 heartbeat IPC: 1.64453 cumulative IPC: 1.43417 (Simulation time: 0 hr 3 min 31 sec) 
Heartbeat CPU  0 instructions:   87000002 cycles:   60667563 heartbeat IPC: 1.42355 cumulative IPC: 1.43404 (Simulation time: 0 hr 3 min 33 sec) 
Heartbeat CPU  0 instructions:   88000000 cycles:   61370194 heartbeat IPC: 1.42322 cumulative IPC: 1.43392 (Simulation time: 0 hr 3 min 36 sec) 
Heartbeat CPU  0 instructions:   89000001 cycles:   62072259 heartbeat IPC: 1.42437 cumulative IPC: 1.43381 (Simulation time: 0 hr 3 min 38 sec) 
Heartbeat CPU  0 instructions:   90000003 cycles:   62774615 heartbeat IPC: 1.42378 cumulative IPC: 1.43370 (Simulation time: 0 hr 3 min 40 sec) 
Heartbeat CPU  0 instructions:   91000003 cycles:   63477047 heartbeat IPC: 1.42363 cumulative IPC: 1.43359 (Simulation time: 0 hr 3 min 43 sec) 
Heartbeat CPU  0 instructions:   92000000 cycles:   64179281 heartbeat IPC: 1.42402 cumulative IPC: 1.43348 (Simulation time: 0 hr 3 min 45 sec) 
Heartbeat CPU  0 instructions:   93000002 cycles:   64881668 heartbeat IPC: 1.42372 cumulative IPC: 1.43338 (Simulation time: 0 hr 3 min 48 sec) 
Heartbeat CPU  0 instructions:   94000002 cycles:   65583707 heartbeat IPC: 1.42442 cumulative IPC: 1.43328 (Simulation time: 0 hr 3 min 50 sec) 
Heartbeat CPU  0 instructions:   95000003 cycles:   66285898 heartbeat IPC: 1.42412 cumulative IPC: 1.43319 (Simulation time: 0 hr 3 min 53 sec) 
Heartbeat CPU  0 instructions:   96000000 cycles:   66988188 heartbeat IPC: 1.42391 cumulative IPC: 1.43309 (Simulation time: 0 hr 3 min 55 sec) 
Heartbeat CPU  0 instructions:   97000000 cycles:   67690549 heartbeat IPC: 1.42377 cumulative IPC: 1.43299 (Simulation time: 0 hr 3 min 57 sec) 
Heartbeat CPU  0 instructions:   98000002 cycles:   68392740 heartbeat IPC: 1.42412 cumulative IPC: 1.43290 (Simulation time: 0 hr 4 min 0 sec) 
Heartbeat CPU  0 instructions:   99000003 cycles:   69094986 heartbeat IPC: 1.42400 cumulative IPC: 1.43281 (Simulation time: 0 hr 4 min 2 sec) 
Heartbeat CPU  0 instructions:  100000000 cycles:   69797371 heartbeat IPC: 1.42372 cumulative IPC: 1.43272 (Simulation time: 0 hr 4 min 5 sec) 

Warmup complete CPU  0 instructions:  100000001 cycles:   69797391 (Simulation time: 0 hr 4 min 5 sec) 

Heartbeat CPU  0 instructions:  101000000 cycles:   71797432 heartbeat IPC: 0.49998 cumulative IPC: 0.49999 (Simulation time: 0 hr 4 min 8 sec) 
Heartbeat CPU  0 instructions:  102000003 cycles:   73639705 heartbeat IPC: 0.54281 cumulative IPC: 0.52052 (Simulation time: 0 hr 4 min 11 sec) 
Heartbeat CPU  0 instructions:  103000003 cycles:   75564739 heartbeat IPC: 0.51947 cumulative IPC: 0.52017 (Simulation time: 0 hr 4 min 13 sec) 
Heartbeat CPU  0 instructions:  104000000 cycles:   77548239 heartbeat IPC: 0.50416 cumulative IPC: 0.51607 (Simulation time: 0 hr 4 min 16 sec) 
Heartbeat CPU  0 instructions:  105000002 cycles:   79456460 heartbeat IPC: 0.52405 cumulative IPC: 0.51765 (Simulation time: 0 hr 4 min 19 sec) 
Heartbeat CPU  0 instructions:  106000000 cycles:   81311787 heartbeat IPC: 0.53899 cumulative IPC: 0.52109 (Simulation time: 0 hr 4 min 22 sec) 
Heartbeat CPU  0 instructions:  107000003 cycles:   83295914 heartbeat IPC: 0.50400 cumulative IPC: 0.51858 (Simulation time: 0 hr 4 min 25 sec) 
Heartbeat CPU  0 instructions:  108000000 cycles:   95875994 heartbeat IPC: 0.07949 cumulative IPC: 0.30676 (Simulation time: 0 hr 4 min 30 sec) 
Heartbeat CPU  0 instructions:  109000003 cycles:  103592119 heartbeat IPC: 0.12960 cumulative IPC: 0.26631 (Simulation time: 0 hr 4 min 34 sec) 
Heartbeat CPU  0 instructions:  110000001 cycles:  105588749 heartbeat IPC: 0.50084 cumulative IPC: 0.27940 (Simulation time: 0 hr 4 min 37 sec) 
Heartbeat CPU  0 instructions:  111000000 cycles:  107586112 heartbeat IPC: 0.50066 cumulative IPC: 0.29109 (Simulation time: 0 hr 4 min 40 sec) 
Heartbeat CPU  0 instructions:  112000000 cycles:  109433958 heartbeat IPC: 0.54117 cumulative IPC: 0.30275 (Simulation time: 0 hr 4 min 43 sec) 
Heartbeat CPU  0 instructions:  113000000 cycles:  111383801 heartbeat IPC: 0.51286 cumulative IPC: 0.31260 (Simulation time: 0 hr 4 min 46 sec) 
Heartbeat CPU  0 instructions:  114000000 cycles:  113383702 heartbeat IPC: 0.50002 cumulative IPC: 0.32120 (Simulation time: 0 hr 4 min 49 sec) 
Heartbeat CPU  0 instructions:  115000001 cycles:  115290861 heartbeat IPC: 0.52434 cumulative IPC: 0.32972 (Simulation time: 0 hr 4 min 52 sec) 
Heartbeat CPU  0 instructions:  116000000 cycles:  117151279 heartbeat IPC: 0.53751 cumulative IPC: 0.33788 (Simulation time: 0 hr 4 min 55 sec) 
Heartbeat CPU  0 instructions:  117000003 cycles:  119163029 heartbeat IPC: 0.49708 cumulative IPC: 0.34437 (Simulation time: 0 hr 4 min 58 sec) 
Heartbeat CPU  0 instructions:  118000002 cycles:  121130474 heartbeat IPC: 0.50827 cumulative IPC: 0.35065 (Simulation time: 0 hr 5 min 0 sec) 
Heartbeat CPU  0 instructions:  119000002 cycles:  122924517 heartbeat IPC: 0.55740 cumulative IPC: 0.35763 (Simulation time: 0 hr 5 min 3 sec) 
Heartbeat CPU  0 instructions:  120000000 cycles:  124918584 heartbeat IPC: 0.50149 cumulative IPC: 0.36284 (Simulation time: 0 hr 5 min 6 sec) 
Heartbeat CPU  0 instructions:  121000003 cycles:  126900038 heartbeat IPC: 0.50468 cumulative IPC: 0.36776 (Simulation time: 0 hr 5 min 9 sec) 
Heartbeat CPU  0 instructions:  122000002 cycles:  128756783 heartbeat IPC: 0.53858 cumulative IPC: 0.37314 (Simulation time: 0 hr 5 min 12 sec) 
Heartbeat CPU  0 instructions:  123000002 cycles:  130687136 heartbeat IPC: 0.51804 cumulative IPC: 0.37773 (Simulation time: 0 hr 5 min 15 sec) 
Heartbeat CPU  0 instructions:  124000000 cycles:  132677050 heartbeat IPC: 0.50253 cumulative IPC: 0.38168 (Simulation time: 0 hr 5 min 18 sec) 
Heartbeat CPU  0 instructions:  125000000 cycles:  134596357 heartbeat IPC: 0.52102 cumulative IPC: 0.38581 (Simulation time: 0 hr 5 min 21 sec) 
Heartbeat CPU  0 instructions:  126000002 cycles:  136453793 heartbeat IPC: 0.53838 cumulative IPC: 0.39006 (Simulation time: 0 hr 5 min 24 sec) 
Heartbeat CPU  0 instructions:  127000002 cycles:  138563027 heartbeat IPC: 0.47411 cumulative IPC: 0.39264 (Simulation time: 0 hr 5 min 26 sec) 
Heartbeat CPU  0 instructions:  128000000 cycles:  140524715 heartbeat IPC: 0.50976 cumulative IPC: 0.39589 (Simulation time: 0 hr 5 min 29 sec) 
Heartbeat CPU  0 instructions:  129000001 cycles:  142341941 heartbeat IPC: 0.55029 cumulative IPC: 0.39975 (Simulation time: 0 hr 5 min 32 sec) 
Heartbeat CPU  0 instructions:  130000000 cycles:  148769640 heartbeat IPC: 0.15558 cumulative IPC: 0.37988 (Simulation time: 0 hr 5 min 36 sec) 
Heartbeat CPU  0 instructions:  131000003 cycles:  163202430 heartbeat IPC: 0.06929 cumulative IPC: 0.33189 (Simulation time: 0 hr 5 min 42 sec) 
Heartbeat CPU  0 instructions:  132000000 cycles:  165075303 heartbeat IPC: 0.53394 cumulative IPC: 0.33586 (Simulation time: 0 hr 5 min 45 sec) 
Heartbeat CPU  0 instructions:  133000000 cycles:  166988902 heartbeat IPC: 0.52258 cumulative IPC: 0.33954 (Simulation time: 0 hr 5 min 48 sec) 
Heartbeat CPU  0 instructions:  134000000 cycles:  168993740 heartbeat IPC: 0.49879 cumulative IPC: 0.34275 (Simulation time: 0 hr 5 min 51 sec) 
Heartbeat CPU  0 instructions:  135000000 cycles:  170946689 heartbeat IPC: 0.51205 cumulative IPC: 0.34602 (Simulation time: 0 hr 5 min 53 sec) 
Heartbeat CPU  0 instructions:  136000000 cycles:  172797741 heartbeat IPC: 0.54023 cumulative IPC: 0.34951 (Simulation time: 0 hr 5 min 56 sec) 
Heartbeat CPU  0 instructions:  137000002 cycles:  174781556 heartbeat IPC: 0.50408 cumulative IPC: 0.35243 (Simulation time: 0 hr 5 min 59 sec) 
Heartbeat CPU  0 instructions:  138000001 cycles:  176762615 heartbeat IPC: 0.50478 cumulative IPC: 0.35526 (Simulation time: 0 hr 6 min 2 sec) 
Heartbeat CPU  0 instructions:  139000001 cycles:  178584962 heartbeat IPC: 0.54874 cumulative IPC: 0.35850 (Simulation time: 0 hr 6 min 5 sec) 
Heartbeat CPU  0 instructions:  140000000 cycles:  180569297 heartbeat IPC: 0.50395 cumulative IPC: 0.36110 (Simulation time: 0 hr 6 min 8 sec) 
Heartbeat CPU  0 instructions:  141000000 cycles:  182569638 heartbeat IPC: 0.49991 cumulative IPC: 0.36356 (Simulation time: 0 hr 6 min 11 sec) 
Heartbeat CPU  0 instructions:  142000001 cycles:  184423605 heartbeat IPC: 0.53938 cumulative IPC: 0.36641 (Simulation time: 0 hr 6 min 14 sec) 
Heartbeat CPU  0 instructions:  143000001 cycles:  186329661 heartbeat IPC: 0.52464 cumulative IPC: 0.36900 (Simulation time: 0 hr 6 min 17 sec) 
Heartbeat CPU  0 instructions:  144000000 cycles:  188331283 heartbeat IPC: 0.49959 cumulative IPC: 0.37120 (Simulation time: 0 hr 6 min 19 sec) 
Heartbeat CPU  0 instructions:  145000000 cycles:  190252785 heartbeat IPC: 0.52043 cumulative IPC: 0.37358 (Simulation time: 0 hr 6 min 22 sec) 
Heartbeat CPU  0 instructions:  146000002 cycles:  192073866 heartbeat IPC: 0.54913 cumulative IPC: 0.37620 (Simulation time: 0 hr 6 min 25 sec) 
Heartbeat CPU  0 instructions:  147000003 cycles:  194064577 heartbeat IPC: 0.50233 cumulative IPC: 0.37822 (Simulation time: 0 hr 6 min 28 sec) 
Heartbeat CPU  0 instructions:  148000000 cycles:  196042038 heartbeat IPC: 0.50570 cumulative IPC: 0.38021 (Simulation time: 0 hr 6 min 31 sec) 
Heartbeat CPU  0 instructions:  149000002 cycles:  197857122 heartbeat IPC: 0.55094 cumulative IPC: 0.38263 (Simulation time: 0 hr 6 min 34 sec) 
Heartbeat CPU  0 instructions:  150000003 cycles:  199810119 heartbeat IPC: 0.51203 cumulative IPC: 0.38458 (Simulation time: 0 hr 6 min 37 sec) 
Heartbeat CPU  0 instructions:  151000003 cycles:  201789050 heartbeat IPC: 0.50532 cumulative IPC: 0.38639 (Simulation time: 0 hr 6 min 40 sec) 
Heartbeat CPU  0 instructions:  152000000 cycles:  203704768 heartbeat IPC: 0.52200 cumulative IPC: 0.38833 (Simulation time: 0 hr 6 min 43 sec) 
Heartbeat CPU  0 instructions:  153000003 cycles:  218432198 heartbeat IPC: 0.06790 cumulative IPC: 0.35658 (Simulation time: 0 hr 6 min 48 sec) 
Heartbeat CPU  0 instructions:  154000000 cycles:  223988223 heartbeat IPC: 0.17998 cumulative IPC: 0.35022 (Simulation time: 0 hr 6 min 52 sec) 
Heartbeat CPU  0 instructions:  155000000 cycles:  225934028 heartbeat IPC: 0.51393 cumulative IPC: 0.35226 (Simulation time: 0 hr 6 min 55 sec) 
Heartbeat CPU  0 instructions:  156000000 cycles:  227791219 heartbeat IPC: 0.53845 cumulative IPC: 0.35444 (Simulation time: 0 hr 6 min 58 sec) 
Heartbeat CPU  0 instructions:  157000001 cycles:  229783877 heartbeat IPC: 0.50184 cumulative IPC: 0.35628 (Simulation time: 0 hr 7 min 0 sec) 
Heartbeat CPU  0 instructions:  158000001 cycles:  231782319 heartbeat IPC: 0.50039 cumulative IPC: 0.35806 (Simulation time: 0 hr 7 min 3 sec) 
Heartbeat CPU  0 instructions:  159000000 cycles:  233600264 heartbeat IPC: 0.55007 cumulative IPC: 0.36019 (Simulation time: 0 hr 7 min 6 sec) 
Heartbeat CPU  0 instructions:  160000000 cycles:  235573768 heartbeat IPC: 0.50671 cumulative IPC: 0.36193 (Simulation time: 0 hr 7 min 9 sec) 
Heartbeat CPU  0 instructions:  161000003 cycles:  237580870 heartbeat IPC: 0.49823 cumulative IPC: 0.36356 (Simulation time: 0 hr 7 min 12 sec) 
Heartbeat CPU  0 instructions:  162000000 cycles:  239485235 heartbeat IPC: 0.52511 cumulative IPC: 0.36538 (Simulation time: 0 hr 7 min 15 sec) 
Heartbeat CPU  0 instructions:  163000003 cycles:  241363205 heartbeat IPC: 0.53249 cumulative IPC: 0.36721 (Simulation time: 0 hr 7 min 18 sec) 
Heartbeat CPU  0 instructions:  164000000 cycles:  243354849 heartbeat IPC: 0.50210 cumulative IPC: 0.36875 (Simulation time: 0 hr 7 min 21 sec) 
Heartbeat CPU  0 instructions:  165000000 cycles:  245333718 heartbeat IPC: 0.50534 cumulative IPC: 0.37029 (Simulation time: 0 hr 7 min 24 sec) 
Heartbeat CPU  0 instructions:  166000001 cycles:  247149293 heartbeat IPC: 0.55079 cumulative IPC: 0.37214 (Simulation time: 0 hr 7 min 27 sec) 
Heartbeat CPU  0 instructions:  167000000 cycles:  249122756 heartbeat IPC: 0.50672 cumulative IPC: 0.37362 (Simulation time: 0 hr 7 min 29 sec) 
Heartbeat CPU  0 instructions:  168000000 cycles:  251119336 heartbeat IPC: 0.50086 cumulative IPC: 0.37502 (Simulation time: 0 hr 7 min 32 sec) 
Heartbeat CPU  0 instructions:  169000001 cycles:  252945096 heartbeat IPC: 0.54772 cumulative IPC: 0.37675 (Simulation time: 0 hr 7 min 35 sec) 
Heartbeat CPU  0 instructions:  170000002 cycles:  254878997 heartbeat IPC: 0.51709 cumulative IPC: 0.37821 (Simulation time: 0 hr 7 min 38 sec) 
Heartbeat CPU  0 instructions:  171000001 cycles:  256883983 heartbeat IPC: 0.49876 cumulative IPC: 0.37950 (Simulation time: 0 hr 7 min 41 sec) 
Heartbeat CPU  0 instructions:  172000000 cycles:  258773113 heartbeat IPC: 0.52934 cumulative IPC: 0.38100 (Simulation time: 0 hr 7 min 44 sec) 
Heartbeat CPU  0 instructions:  173000000 cycles:  260637772 heartbeat IPC: 0.53629 cumulative IPC: 0.38252 (Simulation time: 0 hr 7 min 47 sec) 
Heartbeat CPU  0 instructions:  174000003 cycles:  262637665 heartbeat IPC: 0.50003 cumulative IPC: 0.38374 (Simulation time: 0 hr 7 min 50 sec) 
Heartbeat CPU  0 instructions:  175000000 cycles:  270949106 heartbeat IPC: 0.12032 cumulative IPC: 0.37285 (Simulation time: 0 hr 7 min 54 sec) 
Heartbeat CPU  0 instructions:  176000000 cycles:  282799515 heartbeat IPC: 0.08439 cumulative IPC: 0.35680 (Simulation time: 0 hr 7 min 59 sec) 
Heartbeat CPU  0 instructions:  177000001 cycles:  284870386 heartbeat IPC: 0.48289 cumulative IPC: 0.35802 (Simulation time: 0 hr 8 min 2 sec) 
Heartbeat CPU  0 instructions:  178000003 cycles:  287013271 heartbeat IPC: 0.46666 cumulative IPC: 0.35909 (Simulation time: 0 hr 8 min 5 sec) 
Heartbeat CPU  0 instructions:  179000002 cycles:  289036439 heartbeat IPC: 0.49427 cumulative IPC: 0.36034 (Simulation time: 0 hr 8 min 8 sec) 
Heartbeat CPU  0 instructions:  180000000 cycles:  291017864 heartbeat IPC: 0.50469 cumulative IPC: 0.36163 (Simulation time: 0 hr 8 min 11 sec) 
Heartbeat CPU  0 instructions:  181000003 cycles:  293024747 heartbeat IPC: 0.49829 cumulative IPC: 0.36286 (Simulation time: 0 hr 8 min 14 sec) 
Heartbeat CPU  0 instructions:  182000003 cycles:  294950770 heartbeat IPC: 0.51920 cumulative IPC: 0.36420 (Simulation time: 0 hr 8 min 16 sec) 
Heartbeat CPU  0 instructions:  183000000 cycles:  296863688 heartbeat IPC: 0.52276 cumulative IPC: 0.36553 (Simulation time: 0 hr 8 min 19 sec) 
Heartbeat CPU  0 instructions:  184000000 cycles:  298868319 heartbeat IPC: 0.49884 cumulative IPC: 0.36670 (Simulation time: 0 hr 8 min 22 sec) 
Heartbeat CPU  0 instructions:  185000002 cycles:  300861677 heartbeat IPC: 0.50167 cumulative IPC: 0.36786 (Simulation time: 0 hr 8 min 25 sec) 
Heartbeat CPU  0 instructions:  186000001 cycles:  302715564 heartbeat IPC: 0.53941 cumulative IPC: 0.36923 (Simulation time: 0 hr 8 min 28 sec) 
Heartbeat CPU  0 instructions:  187000000 cycles:  304706477 heartbeat IPC: 0.50228 cumulative IPC: 0.37036 (Simulation time: 0 hr 8 min 31 sec) 
Heartbeat CPU  0 instructions:  188000000 cycles:  306720329 heartbeat IPC: 0.49656 cumulative IPC: 0.37143 (Simulation time: 0 hr 8 min 34 sec) 
Heartbeat CPU  0 instructions:  189000000 cycles:  308591651 heartbeat IPC: 0.53438 cumulative IPC: 0.37271 (Simulation time: 0 hr 8 min 37 sec) 
Heartbeat CPU  0 instructions:  190000000 cycles:  310548063 heartbeat IPC: 0.51114 cumulative IPC: 0.37383 (Simulation time: 0 hr 8 min 40 sec) 
Heartbeat CPU  0 instructions:  191000000 cycles:  312564508 heartbeat IPC: 0.49592 cumulative IPC: 0.37484 (Simulation time: 0 hr 8 min 42 sec) 
Heartbeat CPU  0 instructions:  192000000 cycles:  314500460 heartbeat IPC: 0.51654 cumulative IPC: 0.37597 (Simulation time: 0 hr 8 min 45 sec) 
Heartbeat CPU  0 instructions:  193000001 cycles:  316388270 heartbeat IPC: 0.52971 cumulative IPC: 0.37714 (Simulation time: 0 hr 8 min 48 sec) 
Heartbeat CPU  0 instructions:  194000000 cycles:  318386495 heartbeat IPC: 0.50044 cumulative IPC: 0.37813 (Simulation time: 0 hr 8 min 51 sec) 
Heartbeat CPU  0 instructions:  195000002 cycles:  320390429 heartbeat IPC: 0.49902 cumulative IPC: 0.37910 (Simulation time: 0 hr 8 min 54 sec) 
Heartbeat CPU  0 instructions:  196000000 cycles:  322229636 heartbeat IPC: 0.54371 cumulative IPC: 0.38030 (Simulation time: 0 hr 8 min 57 sec) 
Heartbeat CPU  0 instructions:  197000000 cycles:  324315793 heartbeat IPC: 0.47935 cumulative IPC: 0.38111 (Simulation time: 0 hr 9 min 0 sec) 
Heartbeat CPU  0 instructions:  198000003 cycles:  341310550 heartbeat IPC: 0.05884 cumulative IPC: 0.36094 (Simulation time: 0 hr 9 min 6 sec) 
Heartbeat CPU  0 instructions:  199000001 cycles:  344820026 heartbeat IPC: 0.28494 cumulative IPC: 0.35997 (Simulation time: 0 hr 9 min 9 sec) 
Heartbeat CPU  0 instructions:  200000000 cycles:  346806215 heartbeat IPC: 0.50348 cumulative IPC: 0.36100 (Simulation time: 0 hr 9 min 12 sec) 
Heartbeat CPU  0 instructions:  201000002 cycles:  348826081 heartbeat IPC: 0.49508 cumulative IPC: 0.36197 (Simulation time: 0 hr 9 min 15 sec) 
Heartbeat CPU  0 instructions:  202000003 cycles:  350762231 heartbeat IPC: 0.51649 cumulative IPC: 0.36303 (Simulation time: 0 hr 9 min 18 sec) 
Heartbeat CPU  0 instructions:  203000002 cycles:  352640337 heartbeat IPC: 0.53245 cumulative IPC: 0.36416 (Simulation time: 0 hr 9 min 21 sec) 
Heartbeat CPU  0 instructions:  204000000 cycles:  354668199 heartbeat IPC: 0.49313 cumulative IPC: 0.36508 (Simulation time: 0 hr 9 min 24 sec) 
Heartbeat CPU  0 instructions:  205000002 cycles:  356649374 heartbeat IPC: 0.50475 cumulative IPC: 0.36604 (Simulation time: 0 hr 9 min 27 sec) 
Heartbeat CPU  0 instructions:  206000000 cycles:  358502829 heartbeat IPC: 0.53953 cumulative IPC: 0.36716 (Simulation time: 0 hr 9 min 30 sec) 
Heartbeat CPU  0 instructions:  207000002 cycles:  360504030 heartbeat IPC: 0.49970 cumulative IPC: 0.36807 (Simulation time: 0 hr 9 min 32 sec) 
Heartbeat CPU  0 instructions:  208000000 cycles:  362495645 heartbeat IPC: 0.50210 cumulative IPC: 0.36898 (Simulation time: 0 hr 9 min 35 sec) 
Heartbeat CPU  0 instructions:  209000002 cycles:  364388915 heartbeat IPC: 0.52819 cumulative IPC: 0.37000 (Simulation time: 0 hr 9 min 38 sec) 
Heartbeat CPU  0 instructions:  210000000 cycles:  366349797 heartbeat IPC: 0.50997 cumulative IPC: 0.37093 (Simulation time: 0 hr 9 min 41 sec) 
Heartbeat CPU  0 instructions:  211000003 cycles:  368347093 heartbeat IPC: 0.50068 cumulative IPC: 0.37180 (Simulation time: 0 hr 9 min 44 sec) 
Heartbeat CPU  0 instructions:  212000000 cycles:  370302148 heartbeat IPC: 0.51149 cumulative IPC: 0.37271 (Simulation time: 0 hr 9 min 47 sec) 
Heartbeat CPU  0 instructions:  213000003 cycles:  372169181 heartbeat IPC: 0.53561 cumulative IPC: 0.37371 (Simulation time: 0 hr 9 min 50 sec) 
Heartbeat CPU  0 instructions:  214000003 cycles:  374172684 heartbeat IPC: 0.49913 cumulative IPC: 0.37454 (Simulation time: 0 hr 9 min 53 sec) 
Heartbeat CPU  0 instructions:  215000003 cycles:  376162741 heartbeat IPC: 0.50250 cumulative IPC: 0.37537 (Simulation time: 0 hr 9 min 56 sec) 
Heartbeat CPU  0 instructions:  216000000 cycles:  378019684 heartbeat IPC: 0.53852 cumulative IPC: 0.37635 (Simulation time: 0 hr 9 min 58 sec) 
Heartbeat CPU  0 instructions:  217000002 cycles:  379997604 heartbeat IPC: 0.50558 cumulative IPC: 0.37718 (Simulation time: 0 hr 10 min 1 sec) 
Heartbeat CPU  0 instructions:  218000001 cycles:  382007307 heartbeat IPC: 0.49759 cumulative IPC: 0.37795 (Simulation time: 0 hr 10 min 4 sec) 
Heartbeat CPU  0 instructions:  219000002 cycles:  383916416 heartbeat IPC: 0.52381 cumulative IPC: 0.37884 (Simulation time: 0 hr 10 min 7 sec) 
Heartbeat CPU  0 instructions:  220000000 cycles:  394350794 heartbeat IPC: 0.09584 cumulative IPC: 0.36974 (Simulation time: 0 hr 10 min 12 sec) 
Heartbeat CPU  0 instructions:  221000000 cycles:  404261786 heartbeat IPC: 0.10090 cumulative IPC: 0.36177 (Simulation time: 0 hr 10 min 16 sec) 
Heartbeat CPU  0 instructions:  222000000 cycles:  406230865 heartbeat IPC: 0.50785 cumulative IPC: 0.36263 (Simulation time: 0 hr 10 min 19 sec) 
Heartbeat CPU  0 instructions:  223000001 cycles:  408089375 heartbeat IPC: 0.53807 cumulative IPC: 0.36359 (Simulation time: 0 hr 10 min 22 sec) 
Heartbeat CPU  0 instructions:  224000000 cycles:  410112066 heartbeat IPC: 0.49439 cumulative IPC: 0.36437 (Simulation time: 0 hr 10 min 25 sec) 
Heartbeat CPU  0 instructions:  225000002 cycles:  412120666 heartbeat IPC: 0.49786 cumulative IPC: 0.36515 (Simulation time: 0 hr 10 min 28 sec) 
Heartbeat CPU  0 instructions:  226000002 cycles:  413966914 heartbeat IPC: 0.54164 cumulative IPC: 0.36610 (Simulation time: 0 hr 10 min 31 sec) 
Heartbeat CPU  0 instructions:  227000003 cycles:  415965588 heartbeat IPC: 0.50033 cumulative IPC: 0.36687 (Simulation time: 0 hr 10 min 34 sec) 
Heartbeat CPU  0 instructions:  228000000 cycles:  417980102 heartbeat IPC: 0.49640 cumulative IPC: 0.36762 (Simulation time: 0 hr 10 min 37 sec) 
Heartbeat CPU  0 instructions:  229000003 cycles:  420020640 heartbeat IPC: 0.49007 cumulative IPC: 0.36834 (Simulation time: 0 hr 10 min 40 sec) 
Heartbeat CPU  0 instructions:  230000001 cycles:  421961989 heartbeat IPC: 0.51510 cumulative IPC: 0.36915 (Simulation time: 0 hr 10 min 43 sec) 
Heartbeat CPU  0 instructions:  231000003 cycles:  423975956 heartbeat IPC: 0.49653 cumulative IPC: 0.36987 (Simulation time: 0 hr 10 min 45 sec) 
Heartbeat CPU  0 instructions:  232000000 cycles:  425934412 heartbeat IPC: 0.51060 cumulative IPC: 0.37064 (Simulation time: 0 hr 10 min 48 sec) 
Heartbeat CPU  0 instructions:  233000002 cycles:  427796937 heartbeat IPC: 0.53691 cumulative IPC: 0.37151 (Simulation time: 0 hr 10 min 51 sec) 
Heartbeat CPU  0 instructions:  234000001 cycles:  429790629 heartbeat IPC: 0.50158 cumulative IPC: 0.37223 (Simulation time: 0 hr 10 min 54 sec) 
Heartbeat CPU  0 instructions:  235000003 cycles:  431793726 heartbeat IPC: 0.49923 cumulative IPC: 0.37293 (Simulation time: 0 hr 10 min 57 sec) 
Heartbeat CPU  0 instructions:  236000000 cycles:  433654468 heartbeat IPC: 0.53742 cumulative IPC: 0.37377 (Simulation time: 0 hr 11 min 0 sec) 
Heartbeat CPU  0 instructions:  237000002 cycles:  435638954 heartbeat IPC: 0.50391 cumulative IPC: 0.37448 (Simulation time: 0 hr 11 min 3 sec) 
Heartbeat CPU  0 instructions:  238000002 cycles:  437635341 heartbeat IPC: 0.50090 cumulative IPC: 0.37517 (Simulation time: 0 hr 11 min 6 sec) 
Heartbeat CPU  0 instructions:  239000001 cycles:  439553387 heartbeat IPC: 0.52136 cumulative IPC: 0.37592 (Simulation time: 0 hr 11 min 9 sec) 
Heartbeat CPU  0 instructions:  240000000 cycles:  441457190 heartbeat IPC: 0.52526 cumulative IPC: 0.37669 (Simulation time: 0 hr 11 min 11 sec) 
Heartbeat CPU  0 instructions:  241000003 cycles:  443473065 heartbeat IPC: 0.49606 cumulative IPC: 0.37733 (Simulation time: 0 hr 11 min 14 sec) 
Heartbeat CPU  0 instructions:  242000002 cycles:  447624994 heartbeat IPC: 0.24085 cumulative IPC: 0.37583 (Simulation time: 0 hr 11 min 18 sec) 
Heartbeat CPU  0 instructions:  243000003 cycles:  463950968 heartbeat IPC: 0.06125 cumulative IPC: 0.36280 (Simulation time: 0 hr 11 min 24 sec) 
Heartbeat CPU  0 instructions:  244000000 cycles:  465954579 heartbeat IPC: 0.49910 cumulative IPC: 0.36349 (Simulation time: 0 hr 11 min 27 sec) 
Heartbeat CPU  0 instructions:  245000000 cycles:  467976705 heartbeat IPC: 0.49453 cumulative IPC: 0.36416 (Simulation time: 0 hr 11 min 30 sec) 
Heartbeat CPU  0 instructions:  246000000 cycles:  469846316 heartbeat IPC: 0.53487 cumulative IPC: 0.36496 (Simulation time: 0 hr 11 min 32 sec) 
Heartbeat CPU  0 instructions:  247000000 cycles:  471799289 heartbeat IPC: 0.51204 cumulative IPC: 0.36567 (Simulation time: 0 hr 11 min 35 sec) 
Heartbeat CPU  0 instructions:  248000000 cycles:  473836366 heartbeat IPC: 0.49090 cumulative IPC: 0.36630 (Simulation time: 0 hr 11 min 38 sec) 
Heartbeat CPU  0 instructions:  249000001 cycles:  475750554 heartbeat IPC: 0.52242 cumulative IPC: 0.36704 (Simulation time: 0 hr 11 min 41 sec) 
Heartbeat CPU  0 instructions:  250000003 cycles:  477657760 heartbeat IPC: 0.52433 cumulative IPC: 0.36777 (Simulation time: 0 hr 11 min 44 sec) 
Heartbeat CPU  0 instructions:  251000002 cycles:  479659233 heartbeat IPC: 0.49963 cumulative IPC: 0.36842 (Simulation time: 0 hr 11 min 47 sec) 
Heartbeat CPU  0 instructions:  252000000 cycles:  481668816 heartbeat IPC: 0.49761 cumulative IPC: 0.36905 (Simulation time: 0 hr 11 min 50 sec) 
Heartbeat CPU  0 instructions:  253000000 cycles:  483509482 heartbeat IPC: 0.54328 cumulative IPC: 0.36982 (Simulation time: 0 hr 11 min 53 sec) 
Heartbeat CPU  0 instructions:  254000002 cycles:  485518954 heartbeat IPC: 0.49764 cumulative IPC: 0.37044 (Simulation time: 0 hr 11 min 56 sec) 
Heartbeat CPU  0 instructions:  255000000 cycles:  487556656 heartbeat IPC: 0.49075 cumulative IPC: 0.37103 (Simulation time: 0 hr 11 min 58 sec) 
Heartbeat CPU  0 instructions:  256000000 cycles:  489398867 heartbeat IPC: 0.54283 cumulative IPC: 0.37178 (Simulation time: 0 hr 12 min 1 sec) 
Heartbeat CPU  0 instructions:  257000000 cycles:  491375356 heartbeat IPC: 0.50595 cumulative IPC: 0.37241 (Simulation time: 0 hr 12 min 4 sec) 
Heartbeat CPU  0 instructions:  258000003 cycles:  493391870 heartbeat IPC: 0.49591 cumulative IPC: 0.37300 (Simulation time: 0 hr 12 min 7 sec) 
Heartbeat CPU  0 instructions:  259000000 cycles:  495317482 heartbeat IPC: 0.51931 cumulative IPC: 0.37366 (Simulation time: 0 hr 12 min 10 sec) 
Heartbeat CPU  0 instructions:  260000000 cycles:  497188338 heartbeat IPC: 0.53451 cumulative IPC: 0.37436 (Simulation time: 0 hr 12 min 13 sec) 
Heartbeat CPU  0 instructions:  261000000 cycles:  499188642 heartbeat IPC: 0.49992 cumulative IPC: 0.37495 (Simulation time: 0 hr 12 min 16 sec) 
Heartbeat CPU  0 instructions:  262000002 cycles:  501181459 heartbeat IPC: 0.50180 cumulative IPC: 0.37554 (Simulation time: 0 hr 12 min 19 sec) 
Heartbeat CPU  0 instructions:  263000001 cycles:  503017572 heartbeat IPC: 0.54463 cumulative IPC: 0.37625 (Simulation time: 0 hr 12 min 22 sec) 
Heartbeat CPU  0 instructions:  264000000 cycles:  505014821 heartbeat IPC: 0.50069 cumulative IPC: 0.37682 (Simulation time: 0 hr 12 min 24 sec) 
Heartbeat CPU  0 instructions:  265000002 cycles:  517935783 heartbeat IPC: 0.07739 cumulative IPC: 0.36819 (Simulation time: 0 hr 12 min 30 sec) 
Heartbeat CPU  0 instructions:  266000001 cycles:  525685768 heartbeat IPC: 0.12903 cumulative IPC: 0.36412 (Simulation time: 0 hr 12 min 34 sec) 
Heartbeat CPU  0 instructions:  267000002 cycles:  527662877 heartbeat IPC: 0.50579 cumulative IPC: 0.36474 (Simulation time: 0 hr 12 min 37 sec) 
Heartbeat CPU  0 instructions:  268000000 cycles:  529683760 heartbeat IPC: 0.49483 cumulative IPC: 0.36531 (Simulation time: 0 hr 12 min 40 sec) 
Heartbeat CPU  0 instructions:  269000000 cycles:  531639187 heartbeat IPC: 0.51140 cumulative IPC: 0.36593 (Simulation time: 0 hr 12 min 43 sec) 
Heartbeat CPU  0 instructions:  270000003 cycles:  533539052 heartbeat IPC: 0.52635 cumulative IPC: 0.36658 (Simulation time: 0 hr 12 min 46 sec) 
Heartbeat CPU  0 instructions:  271000002 cycles:  535564676 heartbeat IPC: 0.49367 cumulative IPC: 0.36714 (Simulation time: 0 hr 12 min 49 sec) 
Heartbeat CPU  0 instructions:  272000000 cycles:  537572309 heartbeat IPC: 0.49810 cumulative IPC: 0.36770 (Simulation time: 0 hr 12 min 52 sec) 
Heartbeat CPU  0 instructions:  273000002 cycles:  539422043 heartbeat IPC: 0.54062 cumulative IPC: 0.36838 (Simulation time: 0 hr 12 min 54 sec) 
Heartbeat CPU  0 instructions:  274000000 cycles:  541400612 heartbeat IPC: 0.50541 cumulative IPC: 0.36895 (Simulation time: 0 hr 12 min 57 sec) 
Heartbeat CPU  0 instructions:  275000000 cycles:  543415701 heartbeat IPC: 0.49626 cumulative IPC: 0.36950 (Simulation time: 0 hr 13 min 0 sec) 
Heartbeat CPU  0 instructions:  276000000 cycles:  545299979 heartbeat IPC: 0.53071 cumulative IPC: 0.37013 (Simulation time: 0 hr 13 min 3 sec) 
Heartbeat CPU  0 instructions:  277000001 cycles:  547258871 heartbeat IPC: 0.51049 cumulative IPC: 0.37071 (Simulation time: 0 hr 13 min 6 sec) 
Heartbeat CPU  0 instructions:  278000000 cycles:  549260952 heartbeat IPC: 0.49948 cumulative IPC: 0.37125 (Simulation time: 0 hr 13 min 9 sec) 
Heartbeat CPU  0 instructions:  279000003 cycles:  551324490 heartbeat IPC: 0.48461 cumulative IPC: 0.37173 (Simulation time: 0 hr 13 min 12 sec) 
Heartbeat CPU  0 instructions:  280000000 cycles:  553291808 heartbeat IPC: 0.50830 cumulative IPC: 0.37229 (Simulation time: 0 hr 13 min 15 sec) 
Heartbeat CPU  0 instructions:  281000002 cycles:  555416954 heartbeat IPC: 0.47056 cumulative IPC: 0.37272 (Simulation time: 0 hr 13 min 18 sec) 
Heartbeat CPU  0 instructions:  282000002 cycles:  557424406 heartbeat IPC: 0.49814 cumulative IPC: 0.37324 (Simulation time: 0 hr 13 min 20 sec) 
Heartbeat CPU  0 instructions:  283000000 cycles:  559272696 heartbeat IPC: 0.54104 cumulative IPC: 0.37387 (Simulation time: 0 hr 13 min 23 sec) 
Heartbeat CPU  0 instructions:  284000000 cycles:  561264351 heartbeat IPC: 0.50209 cumulative IPC: 0.37439 (Simulation time: 0 hr 13 min 26 sec) 
Heartbeat CPU  0 instructions:  285000001 cycles:  563284707 heartbeat IPC: 0.49496 cumulative IPC: 0.37488 (Simulation time: 0 hr 13 min 29 sec) 
Heartbeat CPU  0 instructions:  286000003 cycles:  565166573 heartbeat IPC: 0.53139 cumulative IPC: 0.37548 (Simulation time: 0 hr 13 min 32 sec) 
Heartbeat CPU  0 instructions:  287000002 cycles:  571580797 heartbeat IPC: 0.15590 cumulative IPC: 0.37267 (Simulation time: 0 hr 13 min 36 sec) 
Heartbeat CPU  0 instructions:  288000000 cycles:  585482330 heartbeat IPC: 0.07193 cumulative IPC: 0.36456 (Simulation time: 0 hr 13 min 41 sec) 
Heartbeat CPU  0 instructions:  289000003 cycles:  587449842 heartbeat IPC: 0.50826 cumulative IPC: 0.36511 (Simulation time: 0 hr 13 min 44 sec) 
Heartbeat CPU  0 instructions:  290000003 cycles:  589327382 heartbeat IPC: 0.53261 cumulative IPC: 0.36572 (Simulation time: 0 hr 13 min 47 sec) 
Heartbeat CPU  0 instructions:  291000002 cycles:  591333361 heartbeat IPC: 0.49851 cumulative IPC: 0.36623 (Simulation time: 0 hr 13 min 50 sec) 
Heartbeat CPU  0 instructions:  292000000 cycles:  593328737 heartbeat IPC: 0.50116 cumulative IPC: 0.36674 (Simulation time: 0 hr 13 min 53 sec) 
Heartbeat CPU  0 instructions:  293000001 cycles:  595206934 heartbeat IPC: 0.53243 cumulative IPC: 0.36733 (Simulation time: 0 hr 13 min 56 sec) 
Heartbeat CPU  0 instructions:  294000000 cycles:  597207858 heartbeat IPC: 0.49977 cumulative IPC: 0.36783 (Simulation time: 0 hr 13 min 59 sec) 
Heartbeat CPU  0 instructions:  295000002 cycles:  599216902 heartbeat IPC: 0.49775 cumulative IPC: 0.36833 (Simulation time: 0 hr 14 min 1 sec) 
Heartbeat CPU  0 instructions:  296000000 cycles:  601118188 heartbeat IPC: 0.52596 cumulative IPC: 0.36889 (Simulation time: 0 hr 14 min 4 sec) 
Heartbeat CPU  0 instructions:  297000001 cycles:  603051505 heartbeat IPC: 0.51725 cumulative IPC: 0.36943 (Simulation time: 0 hr 14 min 7 sec) 
Heartbeat CPU  0 instructions:  298000003 cycles:  605045035 heartbeat IPC: 0.50162 cumulative IPC: 0.36992 (Simulation time: 0 hr 14 min 10 sec) 
Heartbeat CPU  0 instructions:  299000000 cycles:  607026782 heartbeat IPC: 0.50460 cumulative IPC: 0.37042 (Simulation time: 0 hr 14 min 13 sec) 
Heartbeat CPU  0 instructions:  300000000 cycles:  608903783 heartbeat IPC: 0.53276 cumulative IPC: 0.37098 (Simulation time: 0 hr 14 min 16 sec) 
Heartbeat CPU  0 instructions:  301000003 cycles:  610890847 heartbeat IPC: 0.50326 cumulative IPC: 0.37147 (Simulation time: 0 hr 14 min 19 sec) 
Heartbeat CPU  0 instructions:  302000000 cycles:  612899919 heartbeat IPC: 0.49774 cumulative IPC: 0.37194 (Simulation time: 0 hr 14 min 22 sec) 
Heartbeat CPU  0 instructions:  303000000 cycles:  614753544 heartbeat IPC: 0.53948 cumulative IPC: 0.37251 (Simulation time: 0 hr 14 min 25 sec) 
Heartbeat CPU  0 instructions:  304000000 cycles:  616723053 heartbeat IPC: 0.50774 cumulative IPC: 0.37299 (Simulation time: 0 hr 14 min 27 sec) 
Heartbeat CPU  0 instructions:  305000000 cycles:  618743457 heartbeat IPC: 0.49495 cumulative IPC: 0.37344 (Simulation time: 0 hr 14 min 30 sec) 
Heartbeat CPU  0 instructions:  306000002 cycles:  620663111 heartbeat IPC: 0.52093 cumulative IPC: 0.37396 (Simulation time: 0 hr 14 min 33 sec) 
Heartbeat CPU  0 instructions:  307000003 cycles:  622537263 heartbeat IPC: 0.53358 cumulative IPC: 0.37450 (Simulation time: 0 hr 14 min 36 sec) 
Heartbeat CPU  0 instructions:  308000000 cycles:  624542033 heartbeat IPC: 0.49881 cumulative IPC: 0.37495 (Simulation time: 0 hr 14 min 39 sec) 
Heartbeat CPU  0 instructions:  309000003 cycles:  626537486 heartbeat IPC: 0.50114 cumulative IPC: 0.37540 (Simulation time: 0 hr 14 min 42 sec) 
Heartbeat CPU  0 instructions:  310000003 cycles:  641216971 heartbeat IPC: 0.06812 cumulative IPC: 0.36751 (Simulation time: 0 hr 14 min 47 sec) 
Heartbeat CPU  0 instructions:  311000000 cycles:  646753163 heartbeat IPC: 0.18063 cumulative IPC: 0.36571 (Simulation time: 0 hr 14 min 51 sec) 
Heartbeat CPU  0 instructions:  312000000 cycles:  648772131 heartbeat IPC: 0.49530 cumulative IPC: 0.36616 (Simulation time: 0 hr 14 min 54 sec) 
Heartbeat CPU  0 instructions:  313000003 cycles:  650634285 heartbeat IPC: 0.53701 cumulative IPC: 0.36671 (Simulation time: 0 hr 14 min 57 sec) 
Heartbeat CPU  0 instructions:  314000003 cycles:  652604607 heartbeat IPC: 0.50753 cumulative IPC: 0.36719 (Simulation time: 0 hr 15 min 0 sec) 
Heartbeat CPU  0 instructions:  315000000 cycles:  654618531 heartbeat IPC: 0.49654 cumulative IPC: 0.36763 (Simulation time: 0 hr 15 min 3 sec) 
Heartbeat CPU  0 instructions:  316000000 cycles:  656524287 heartbeat IPC: 0.52473 cumulative IPC: 0.36814 (Simulation time: 0 hr 15 min 6 sec) 
Heartbeat CPU  0 instructions:  317000001 cycles:  658431006 heartbeat IPC: 0.52446 cumulative IPC: 0.36865 (Simulation time: 0 hr 15 min 9 sec) 
Heartbeat CPU  0 instructions:  318000002 cycles:  660448737 heartbeat IPC: 0.49561 cumulative IPC: 0.36908 (Simulation time: 0 hr 15 min 12 sec) 
Heartbeat CPU  0 instructions:  319000001 cycles:  662439924 heartbeat IPC: 0.50221 cumulative IPC: 0.36953 (Simulation time: 0 hr 15 min 14 sec) 
Heartbeat CPU  0 instructions:  320000000 cycles:  664293109 heartbeat IPC: 0.53961 cumulative IPC: 0.37006 (Simulation time: 0 hr 15 min 17 sec) 
Heartbeat CPU  0 instructions:  321000002 cycles:  666294729 heartbeat IPC: 0.49960 cumulative IPC: 0.37050 (Simulation time: 0 hr 15 min 20 sec) 
Heartbeat CPU  0 instructions:  322000001 cycles:  668296313 heartbeat IPC: 0.49960 cumulative IPC: 0.37093 (Simulation time: 0 hr 15 min 23 sec) 
Heartbeat CPU  0 instructions:  323000002 cycles:  670175543 heartbeat IPC: 0.53213 cumulative IPC: 0.37143 (Simulation time: 0 hr 15 min 26 sec) 
Heartbeat CPU  0 instructions:  324000000 cycles:  672147067 heartbeat IPC: 0.50722 cumulative IPC: 0.37188 (Simulation time: 0 hr 15 min 29 sec) 
Heartbeat CPU  0 instructions:  325000001 cycles:  674138546 heartbeat IPC: 0.50214 cumulative IPC: 0.37231 (Simulation time: 0 hr 15 min 32 sec) 
Heartbeat CPU  0 instructions:  326000002 cycles:  676075798 heartbeat IPC: 0.51620 cumulative IPC: 0.37277 (Simulation time: 0 hr 15 min 35 sec) 
Heartbeat CPU  0 instructions:  327000002 cycles:  677969833 heartbeat IPC: 0.52797 cumulative IPC: 0.37325 (Simulation time: 0 hr 15 min 38 sec) 
Heartbeat CPU  0 instructions:  328000000 cycles:  679966553 heartbeat IPC: 0.50082 cumulative IPC: 0.37367 (Simulation time: 0 hr 15 min 40 sec) 
Heartbeat CPU  0 instructions:  329000002 cycles:  681952948 heartbeat IPC: 0.50343 cumulative IPC: 0.37409 (Simulation time: 0 hr 15 min 43 sec) 
Heartbeat CPU  0 instructions:  330000001 cycles:  683809612 heartbeat IPC: 0.53860 cumulative IPC: 0.37459 (Simulation time: 0 hr 15 min 46 sec) 
Heartbeat CPU  0 instructions:  331000002 cycles:  685900831 heartbeat IPC: 0.47819 cumulative IPC: 0.37494 (Simulation time: 0 hr 15 min 49 sec) 
Heartbeat CPU  0 instructions:  332000000 cycles:  694503338 heartbeat IPC: 0.11624 cumulative IPC: 0.37137 (Simulation time: 0 hr 15 min 53 sec) 
Heartbeat CPU  0 instructions:  333000000 cycles:  706277362 heartbeat IPC: 0.08493 cumulative IPC: 0.36608 (Simulation time: 0 hr 15 min 58 sec) 
Heartbeat CPU  0 instructions:  334000001 cycles:  708243696 heartbeat IPC: 0.50856 cumulative IPC: 0.36651 (Simulation time: 0 hr 16 min 1 sec) 
Heartbeat CPU  0 instructions:  335000001 cycles:  710261419 heartbeat IPC: 0.49561 cumulative IPC: 0.36692 (Simulation time: 0 hr 16 min 4 sec) 
Heartbeat CPU  0 instructions:  336000000 cycles:  712206822 heartbeat IPC: 0.51403 cumulative IPC: 0.36737 (Simulation time: 0 hr 16 min 7 sec) 
Heartbeat CPU  0 instructions:  337000003 cycles:  714101884 heartbeat IPC: 0.52769 cumulative IPC: 0.36784 (Simulation time: 0 hr 16 min 10 sec) 
Heartbeat CPU  0 instructions:  338000002 cycles:  716118229 heartbeat IPC: 0.49595 cumulative IPC: 0.36824 (Simulation time: 0 hr 16 min 13 sec) 
Heartbeat CPU  0 instructions:  339000000 cycles:  718117927 heartbeat IPC: 0.50007 cumulative IPC: 0.36864 (Simulation time: 0 hr 16 min 16 sec) 
Heartbeat CPU  0 instructions:  340000000 cycles:  719952218 heartbeat IPC: 0.54517 cumulative IPC: 0.36914 (Simulation time: 0 hr 16 min 19 sec) 
Heartbeat CPU  0 instructions:  341000000 cycles:  721942857 heartbeat IPC: 0.50235 cumulative IPC: 0.36955 (Simulation time: 0 hr 16 min 22 sec) 
Heartbeat CPU  0 instructions:  342000001 cycles:  723933344 heartbeat IPC: 0.50239 cumulative IPC: 0.36995 (Simulation time: 0 hr 16 min 25 sec) 
Heartbeat CPU  0 instructions:  343000000 cycles:  725795745 heartbeat IPC: 0.53694 cumulative IPC: 0.37043 (Simulation time: 0 hr 16 min 28 sec) 
Heartbeat CPU  0 instructions:  344000000 cycles:  727755139 heartbeat IPC: 0.51036 cumulative IPC: 0.37084 (Simulation time: 0 hr 16 min 30 sec) 
Heartbeat CPU  0 instructions:  345000000 cycles:  729769746 heartbeat IPC: 0.49637 cumulative IPC: 0.37123 (Simulation time: 0 hr 16 min 33 sec) 
Heartbeat CPU  0 instructions:  346000001 cycles:  731702449 heartbeat IPC: 0.51741 cumulative IPC: 0.37165 (Simulation time: 0 hr 16 min 36 sec) 
Heartbeat CPU  0 instructions:  347000000 cycles:  733562957 heartbeat IPC: 0.53749 cumulative IPC: 0.37212 (Simulation time: 0 hr 16 min 39 sec) 
Heartbeat CPU  0 instructions:  348000000 cycles:  735567488 heartbeat IPC: 0.49887 cumulative IPC: 0.37250 (Simulation time: 0 hr 16 min 42 sec) 
Heartbeat CPU  0 instructions:  349000001 cycles:  737560843 heartbeat IPC: 0.50167 cumulative IPC: 0.37289 (Simulation time: 0 hr 16 min 45 sec) 
Heartbeat CPU  0 instructions:  350000003 cycles:  739414257 heartbeat IPC: 0.53955 cumulative IPC: 0.37335 (Simulation time: 0 hr 16 min 48 sec) 
Heartbeat CPU  0 instructions:  351000003 cycles:  741382364 heartbeat IPC: 0.50810 cumulative IPC: 0.37374 (Simulation time: 0 hr 16 min 51 sec) 
Heartbeat CPU  0 instructions:  352000000 cycles:  743374853 heartbeat IPC: 0.50188 cumulative IPC: 0.37412 (Simulation time: 0 hr 16 min 53 sec) 
Heartbeat CPU  0 instructions:  353000001 cycles:  745263838 heartbeat IPC: 0.52939 cumulative IPC: 0.37456 (Simulation time: 0 hr 16 min 56 sec) 
Heartbeat CPU  0 instructions:  354000003 cycles:  747412979 heartbeat IPC: 0.46530 cumulative IPC: 0.37484 (Simulation time: 0 hr 16 min 59 sec) 
Heartbeat CPU  0 instructions:  355000003 cycles:  764104523 heartbeat IPC: 0.05991 cumulative IPC: 0.36727 (Simulation time: 0 hr 17 min 5 sec) 
Heartbeat CPU  0 instructions:  356000000 cycles:  767505135 heartbeat IPC: 0.29406 cumulative IPC: 0.36692 (Simulation time: 0 hr 17 min 8 sec) 
Heartbeat CPU  0 instructions:  357000003 cycles:  769392264 heartbeat IPC: 0.52991 cumulative IPC: 0.36736 (Simulation time: 0 hr 17 min 11 sec) 
Heartbeat CPU  0 instructions:  358000002 cycles:  771403106 heartbeat IPC: 0.49730 cumulative IPC: 0.36773 (Simulation time: 0 hr 17 min 14 sec) 
Heartbeat CPU  0 instructions:  359000003 cycles:  773418246 heartbeat IPC: 0.49624 cumulative IPC: 0.36810 (Simulation time: 0 hr 17 min 17 sec) 
Heartbeat CPU  0 instructions:  360000000 cycles:  775269322 heartbeat IPC: 0.54022 cumulative IPC: 0.36855 (Simulation time: 0 hr 17 min 20 sec) 
Heartbeat CPU  0 instructions:  361000003 cycles:  777235198 heartbeat IPC: 0.50868 cumulative IPC: 0.36894 (Simulation time: 0 hr 17 min 23 sec) 
Heartbeat CPU  0 instructions:  362000000 cycles:  779265805 heartbeat IPC: 0.49246 cumulative IPC: 0.36929 (Simulation time: 0 hr 17 min 26 sec) 
Heartbeat CPU  0 instructions:  363000000 cycles:  781157367 heartbeat IPC: 0.52866 cumulative IPC: 0.36971 (Simulation time: 0 hr 17 min 29 sec) 
Heartbeat CPU  0 instructions:  364000000 cycles:  783079616 heartbeat IPC: 0.52022 cumulative IPC: 0.37012 (Simulation time: 0 hr 17 min 32 sec) 
Heartbeat CPU  0 instructions:  365000000 cycles:  785073333 heartbeat IPC: 0.50158 cumulative IPC: 0.37049 (Simulation time: 0 hr 17 min 35 sec) 
Heartbeat CPU  0 instructions:  366000001 cycles:  787038972 heartbeat IPC: 0.50874 cumulative IPC: 0.37087 (Simulation time: 0 hr 17 min 37 sec) 
Heartbeat CPU  0 instructions:  367000001 cycles:  788889922 heartbeat IPC: 0.54026 cumulative IPC: 0.37130 (Simulation time: 0 hr 17 min 40 sec) 
Heartbeat CPU  0 instructions:  368000000 cycles:  790875117 heartbeat IPC: 0.50373 cumulative IPC: 0.37167 (Simulation time: 0 hr 17 min 43 sec) 
Heartbeat CPU  0 instructions:  369000003 cycles:  792877545 heartbeat IPC: 0.49940 cumulative IPC: 0.37202 (Simulation time: 0 hr 17 min 46 sec) 
Heartbeat CPU  0 instructions:  370000000 cycles:  794715359 heartbeat IPC: 0.54412 cumulative IPC: 0.37246 (Simulation time: 0 hr 17 min 49 sec) 
Heartbeat CPU  0 instructions:  371000001 cycles:  796686154 heartbeat IPC: 0.50741 cumulative IPC: 0.37282 (Simulation time: 0 hr 17 min 52 sec) 
Heartbeat CPU  0 instructions:  372000000 cycles:  798715227 heartbeat IPC: 0.49284 cumulative IPC: 0.37316 (Simulation time: 0 hr 17 min 55 sec) 
Heartbeat CPU  0 instructions:  373000003 cycles:  800603621 heartbeat IPC: 0.52955 cumulative IPC: 0.37356 (Simulation time: 0 hr 17 min 58 sec) 
Heartbeat CPU  0 instructions:  374000001 cycles:  802514941 heartbeat IPC: 0.52320 cumulative IPC: 0.37395 (Simulation time: 0 hr 18 min 1 sec) 
Heartbeat CPU  0 instructions:  375000001 cycles:  804518466 heartbeat IPC: 0.49912 cumulative IPC: 0.37429 (Simulation time: 0 hr 18 min 3 sec) 
Heartbeat CPU  0 instructions:  376000000 cycles:  806493688 heartbeat IPC: 0.50627 cumulative IPC: 0.37465 (Simulation time: 0 hr 18 min 6 sec) 
Heartbeat CPU  0 instructions:  377000002 cycles:  816969928 heartbeat IPC: 0.09545 cumulative IPC: 0.37073 (Simulation time: 0 hr 18 min 11 sec) 
Heartbeat CPU  0 instructions:  378000003 cycles:  826802896 heartbeat IPC: 0.10170 cumulative IPC: 0.36724 (Simulation time: 0 hr 18 min 16 sec) 
Heartbeat CPU  0 instructions:  379000001 cycles:  828809871 heartbeat IPC: 0.49826 cumulative IPC: 0.36758 (Simulation time: 0 hr 18 min 19 sec) 
Heartbeat CPU  0 instructions:  380000000 cycles:  830671009 heartbeat IPC: 0.53731 cumulative IPC: 0.36800 (Simulation time: 0 hr 18 min 22 sec) 
Heartbeat CPU  0 instructions:  381000002 cycles:  832690590 heartbeat IPC: 0.49515 cumulative IPC: 0.36833 (Simulation time: 0 hr 18 min 25 sec) 
Heartbeat CPU  0 instructions:  382000002 cycles:  834839302 heartbeat IPC: 0.46540 cumulative IPC: 0.36861 (Simulation time: 0 hr 18 min 28 sec) 
Heartbeat CPU  0 instructions:  383000002 cycles:  836896518 heartbeat IPC: 0.48609 cumulative IPC: 0.36892 (Simulation time: 0 hr 18 min 31 sec) 
Heartbeat CPU  0 instructions:  384000000 cycles:  838814430 heartbeat IPC: 0.52140 cumulative IPC: 0.36930 (Simulation time: 0 hr 18 min 34 sec) 
Heartbeat CPU  0 instructions:  385000003 cycles:  840821029 heartbeat IPC: 0.49836 cumulative IPC: 0.36964 (Simulation time: 0 hr 18 min 37 sec) 
Heartbeat CPU  0 instructions:  386000002 cycles:  842815859 heartbeat IPC: 0.50130 cumulative IPC: 0.36998 (Simulation time: 0 hr 18 min 40 sec) 
Heartbeat CPU  0 instructions:  387000001 cycles:  844644867 heartbeat IPC: 0.54674 cumulative IPC: 0.37040 (Simulation time: 0 hr 18 min 43 sec) 
Heartbeat CPU  0 instructions:  388000000 cycles:  846621906 heartbeat IPC: 0.50581 cumulative IPC: 0.37074 (Simulation time: 0 hr 18 min 46 sec) 
Heartbeat CPU  0 instructions:  389000003 cycles:  848641527 heartbeat IPC: 0.49514 cumulative IPC: 0.37106 (Simulation time: 0 hr 18 min 49 sec) 
Heartbeat CPU  0 instructions:  390000003 cycles:  850498918 heartbeat IPC: 0.53839 cumulative IPC: 0.37146 (Simulation time: 0 hr 18 min 52 sec) 
Heartbeat CPU  0 instructions:  391000001 cycles:  852457615 heartbeat IPC: 0.51054 cumulative IPC: 0.37181 (Simulation time: 0 hr 18 min 55 sec) 
Heartbeat CPU  0 instructions:  392000000 cycles:  854455205 heartbeat IPC: 0.50060 cumulative IPC: 0.37214 (Simulation time: 0 hr 18 min 58 sec) 
Heartbeat CPU  0 instructions:  393000000 cycles:  856364154 heartbeat IPC: 0.52385 cumulative IPC: 0.37250 (Simulation time: 0 hr 19 min 2 sec) 
Heartbeat CPU  0 instructions:  394000000 cycles:  858241374 heartbeat IPC: 0.53270 cumulative IPC: 0.37289 (Simulation time: 0 hr 19 min 5 sec) 
Heartbeat CPU  0 instructions:  395000002 cycles:  860258293 heartbeat IPC: 0.49581 cumulative IPC: 0.37320 (Simulation time: 0 hr 19 min 8 sec) 
Heartbeat CPU  0 instructions:  396000000 cycles:  862254186 heartbeat IPC: 0.50103 cumulative IPC: 0.37352 (Simulation time: 0 hr 19 min 11 sec) 
Heartbeat CPU  0 instructions:  397000001 cycles:  864093686 heartbeat IPC: 0.54363 cumulative IPC: 0.37392 (Simulation time: 0 hr 19 min 14 sec) 
Heartbeat CPU  0 instructions:  398000003 cycles:  866078320 heartbeat IPC: 0.50387 cumulative IPC: 0.37424 (Simulation time: 0 hr 19 min 17 sec) 
Heartbeat CPU  0 instructions:  399000001 cycles:  870346032 heartbeat IPC: 0.23432 cumulative IPC: 0.37349 (Simulation time: 0 hr 19 min 21 sec) 
Heartbeat CPU  0 instructions:  400000000 cycles:  886564778 heartbeat IPC: 0.06166 cumulative IPC: 0.36730 (Simulation time: 0 hr 19 min 28 sec) 
Heartbeat CPU  0 instructions:  401000002 cycles:  888567928 heartbeat IPC: 0.49921 cumulative IPC: 0.36762 (Simulation time: 0 hr 19 min 31 sec) 
Heartbeat CPU  0 instructions:  402000001 cycles:  890585459 heartbeat IPC: 0.49565 cumulative IPC: 0.36794 (Simulation time: 0 hr 19 min 34 sec) 
Heartbeat CPU  0 instructions:  403000003 cycles:  892519644 heartbeat IPC: 0.51701 cumulative IPC: 0.36829 (Simulation time: 0 hr 19 min 38 sec) 
Heartbeat CPU  0 instructions:  404000000 cycles:  894429096 heartbeat IPC: 0.52371 cumulative IPC: 0.36865 (Simulation time: 0 hr 19 min 41 sec) 
Heartbeat CPU  0 instructions:  405000001 cycles:  896446758 heartbeat IPC: 0.49562 cumulative IPC: 0.36896 (Simulation time: 0 hr 19 min 44 sec) 
Heartbeat CPU  0 instructions:  406000002 cycles:  898452804 heartbeat IPC: 0.49849 cumulative IPC: 0.36927 (Simulation time: 0 hr 19 min 47 sec) 
Heartbeat CPU  0 instructions:  407000001 cycles:  900298674 heartbeat IPC: 0.54175 cumulative IPC: 0.36966 (Simulation time: 0 hr 19 min 50 sec) 
Heartbeat CPU  0 instructions:  408000000 cycles:  902304111 heartbeat IPC: 0.49864 cumulative IPC: 0.36997 (Simulation time: 0 hr 19 min 53 sec) 
Heartbeat CPU  0 instructions:  409000001 cycles:  904293279 heartbeat IPC: 0.50272 cumulative IPC: 0.37028 (Simulation time: 0 hr 19 min 57 sec) 
Heartbeat CPU  0 instructions:  410000003 cycles:  906168895 heartbeat IPC: 0.53316 cumulative IPC: 0.37065 (Simulation time: 0 hr 20 min 0 sec) 
Heartbeat CPU  0 instructions:  411000000 cycles:  908132641 heartbeat IPC: 0.50923 cumulative IPC: 0.37097 (Simulation time: 0 hr 20 min 3 sec) 
Heartbeat CPU  0 instructions:  412000000 cycles:  910140471 heartbeat IPC: 0.49805 cumulative IPC: 0.37128 (Simulation time: 0 hr 20 min 6 sec) 
Heartbeat CPU  0 instructions:  413000002 cycles:  912101050 heartbeat IPC: 0.51005 cumulative IPC: 0.37160 (Simulation time: 0 hr 20 min 10 sec) 
Heartbeat CPU  0 instructions:  414000003 cycles:  913980360 heartbeat IPC: 0.53211 cumulative IPC: 0.37196 (Simulation time: 0 hr 20 min 13 sec) 
Heartbeat CPU  0 instructions:  415000002 cycles:  915982783 heartbeat IPC: 0.49939 cumulative IPC: 0.37226 (Simulation time: 0 hr 20 min 16 sec) 
Heartbeat CPU  0 instructions:  416000000 cycles:  917977836 heartbeat IPC: 0.50124 cumulative IPC: 0.37256 (Simulation time: 0 hr 20 min 19 sec) 
Heartbeat CPU  0 instructions:  417000003 cycles:  919828385 heartbeat IPC: 0.54038 cumulative IPC: 0.37293 (Simulation time: 0 hr 20 min 22 sec) 
Heartbeat CPU  0 instructions:  418000003 cycles:  921817117 heartbeat IPC: 0.50283 cumulative IPC: 0.37323 (Simulation time: 0 hr 20 min 25 sec) 
Heartbeat CPU  0 instructions:  419000003 cycles:  923840740 heartbeat IPC: 0.49416 cumulative IPC: 0.37352 (Simulation time: 0 hr 20 min 28 sec) 
Heartbeat CPU  0 instructions:  420000000 cycles:  925727438 heartbeat IPC: 0.53002 cumulative IPC: 0.37386 (Simulation time: 0 hr 20 min 32 sec) 
Heartbeat CPU  0 instructions:  421000001 cycles:  927647653 heartbeat IPC: 0.52078 cumulative IPC: 0.37419 (Simulation time: 0 hr 20 min 35 sec) 
Heartbeat CPU  0 instructions:  422000002 cycles:  940260117 heartbeat IPC: 0.07929 cumulative IPC: 0.36992 (Simulation time: 0 hr 20 min 40 sec) 
Heartbeat CPU  0 instructions:  423000003 cycles:  947975737 heartbeat IPC: 0.12961 cumulative IPC: 0.36781 (Simulation time: 0 hr 20 min 44 sec) 
Heartbeat CPU  0 instructions:  424000000 cycles:  949855009 heartbeat IPC: 0.53212 cumulative IPC: 0.36816 (Simulation time: 0 hr 20 min 47 sec) 
Heartbeat CPU  0 instructions:  425000003 cycles:  951877745 heartbeat IPC: 0.49438 cumulative IPC: 0.36845 (Simulation time: 0 hr 20 min 50 sec) 
Heartbeat CPU  0 instructions:  426000001 cycles:  953866062 heartbeat IPC: 0.50294 cumulative IPC: 0.36875 (Simulation time: 0 hr 20 min 53 sec) 
Heartbeat CPU  0 instructions:  427000000 cycles:  955698069 heartbeat IPC: 0.54585 cumulative IPC: 0.36912 (Simulation time: 0 hr 20 min 56 sec) 
Heartbeat CPU  0 instructions:  428000000 cycles:  957694385 heartbeat IPC: 0.50092 cumulative IPC: 0.36941 (Simulation time: 0 hr 20 min 59 sec) 
Heartbeat CPU  0 instructions:  429000002 cycles:  959696173 heartbeat IPC: 0.49955 cumulative IPC: 0.36970 (Simulation time: 0 hr 21 min 2 sec) 
Heartbeat CPU  0 instructions:  430000000 cycles:  961559759 heartbeat IPC: 0.53660 cumulative IPC: 0.37005 (Simulation time: 0 hr 21 min 5 sec) 
Heartbeat CPU  0 instructions:  431000000 cycles:  963491400 heartbeat IPC: 0.51769 cumulative IPC: 0.37037 (Simulation time: 0 hr 21 min 8 sec) 
Heartbeat CPU  0 instructions:  432000000 cycles:  965478028 heartbeat IPC: 0.50337 cumulative IPC: 0.37067 (Simulation time: 0 hr 21 min 11 sec) 
Heartbeat CPU  0 instructions:  433000003 cycles:  967564684 heartbeat IPC: 0.47924 cumulative IPC: 0.37092 (Simulation time: 0 hr 21 min 14 sec) 
Heartbeat CPU  0 instructions:  434000002 cycles:  969422638 heartbeat IPC: 0.53823 cumulative IPC: 0.37127 (Simulation time: 0 hr 21 min 16 sec) 
Heartbeat CPU  0 instructions:  435000001 cycles:  971423411 heartbeat IPC: 0.49981 cumulative IPC: 0.37155 (Simulation time: 0 hr 21 min 19 sec) 
Heartbeat CPU  0 instructions:  436000000 cycles:  973403644 heartbeat IPC: 0.50499 cumulative IPC: 0.37184 (Simulation time: 0 hr 21 min 22 sec) 
Heartbeat CPU  0 instructions:  437000000 cycles:  975249422 heartbeat IPC: 0.54178 cumulative IPC: 0.37219 (Simulation time: 0 hr 21 min 25 sec) 
Heartbeat CPU  0 instructions:  438000000 cycles:  977220928 heartbeat IPC: 0.50723 cumulative IPC: 0.37248 (Simulation time: 0 hr 21 min 28 sec) 
Heartbeat CPU  0 instructions:  439000001 cycles:  979212756 heartbeat IPC: 0.50205 cumulative IPC: 0.37277 (Simulation time: 0 hr 21 min 31 sec) 
Heartbeat CPU  0 instructions:  440000000 cycles:  981115375 heartbeat IPC: 0.52559 cumulative IPC: 0.37309 (Simulation time: 0 hr 21 min 34 sec) 
Heartbeat CPU  0 instructions:  441000001 cycles:  983020168 heartbeat IPC: 0.52499 cumulative IPC: 0.37340 (Simulation time: 0 hr 21 min 37 sec) 
Heartbeat CPU  0 instructions:  442000001 cycles:  984997946 heartbeat IPC: 0.50562 cumulative IPC: 0.37369 (Simulation time: 0 hr 21 min 39 sec) 
Heartbeat CPU  0 instructions:  443000002 cycles:  986959749 heartbeat IPC: 0.50974 cumulative IPC: 0.37398 (Simulation time: 0 hr 21 min 42 sec) 
Heartbeat CPU  0 instructions:  444000000 cycles:  993340717 heartbeat IPC: 0.15672 cumulative IPC: 0.37248 (Simulation time: 0 hr 21 min 46 sec) 
Heartbeat CPU  0 instructions:  445000003 cycles: 1007417512 heartbeat IPC: 0.07104 cumulative IPC: 0.36795 (Simulation time: 0 hr 21 min 52 sec) 
Heartbeat CPU  0 instructions:  446000000 cycles: 1009442410 heartbeat IPC: 0.49385 cumulative IPC: 0.36822 (Simulation time: 0 hr 21 min 55 sec) 
Heartbeat CPU  0 instructions:  447000003 cycles: 1011253119 heartbeat IPC: 0.55227 cumulative IPC: 0.36858 (Simulation time: 0 hr 21 min 58 sec) 
Heartbeat CPU  0 instructions:  448000000 cycles: 1013212691 heartbeat IPC: 0.51031 cumulative IPC: 0.36887 (Simulation time: 0 hr 22 min 1 sec) 
Heartbeat CPU  0 instructions:  449000000 cycles: 1015206429 heartbeat IPC: 0.50157 cumulative IPC: 0.36915 (Simulation time: 0 hr 22 min 3 sec) 
Heartbeat CPU  0 instructions:  450000000 cycles: 1017097808 heartbeat IPC: 0.52871 cumulative IPC: 0.36947 (Simulation time: 0 hr 22 min 6 sec) 
Heartbeat CPU  0 instructions:  451000000 cycles: 1018986449 heartbeat IPC: 0.52948 cumulative IPC: 0.36979 (Simulation time: 0 hr 22 min 9 sec) 
Heartbeat CPU  0 instructions:  452000000 cycles: 1020995018 heartbeat IPC: 0.49787 cumulative IPC: 0.37006 (Simulation time: 0 hr 22 min 12 sec) 
Heartbeat CPU  0 instructions:  453000001 cycles: 1022940297 heartbeat IPC: 0.51407 cumulative IPC: 0.37035 (Simulation time: 0 hr 22 min 15 sec) 
Heartbeat CPU  0 instructions:  454000001 cycles: 1024742066 heartbeat IPC: 0.55501 cumulative IPC: 0.37070 (Simulation time: 0 hr 22 min 18 sec) 
Heartbeat CPU  0 instructions:  455000000 cycles: 1026732231 heartbeat IPC: 0.50247 cumulative IPC: 0.37098 (Simulation time: 0 hr 22 min 21 sec) 
Heartbeat CPU  0 instructions:  456000000 cycles: 1028728015 heartbeat IPC: 0.50106 cumulative IPC: 0.37125 (Simulation time: 0 hr 22 min 24 sec) 
Heartbeat CPU  0 instructions:  457000000 cycles: 1030540282 heartbeat IPC: 0.55180 cumulative IPC: 0.37159 (Simulation time: 0 hr 22 min 27 sec) 
Heartbeat CPU  0 instructions:  458000003 cycles: 1032484094 heartbeat IPC: 0.51445 cumulative IPC: 0.37188 (Simulation time: 0 hr 22 min 29 sec) 
Heartbeat CPU  0 instructions:  459000000 cycles: 1034471236 heartbeat IPC: 0.50323 cumulative IPC: 0.37215 (Simulation time: 0 hr 22 min 32 sec) 
Heartbeat CPU  0 instructions:  460000000 cycles: 1036353476 heartbeat IPC: 0.53128 cumulative IPC: 0.37246 (Simulation time: 0 hr 22 min 35 sec) 
Heartbeat CPU  0 instructions:  461000000 cycles: 1038207440 heartbeat IPC: 0.53938 cumulative IPC: 0.37278 (Simulation time: 0 hr 22 min 38 sec) 
Heartbeat CPU  0 instructions:  462000003 cycles: 1040189129 heartbeat IPC: 0.50462 cumulative IPC: 0.37305 (Simulation time: 0 hr 22 min 42 sec) 
Heartbeat CPU  0 instructions:  463000003 cycles: 1042141245 heartbeat IPC: 0.51226 cumulative IPC: 0.37332 (Simulation time: 0 hr 22 min 44 sec) 
Heartbeat CPU  0 instructions:  464000000 cycles: 1043952169 heartbeat IPC: 0.55220 cumulative IPC: 0.37366 (Simulation time: 0 hr 22 min 48 sec) 
Heartbeat CPU  0 instructions:  465000000 cycles: 1045925245 heartbeat IPC: 0.50682 cumulative IPC: 0.37393 (Simulation time: 0 hr 22 min 50 sec) 
Heartbeat CPU  0 instructions:  466000000 cycles: 1047890602 heartbeat IPC: 0.50881 cumulative IPC: 0.37420 (Simulation time: 0 hr 22 min 53 sec) 
Heartbeat CPU  0 instructions:  467000000 cycles: 1062751689 heartbeat IPC: 0.06729 cumulative IPC: 0.36960 (Simulation time: 0 hr 22 min 59 sec) 
Heartbeat CPU  0 instructions:  468000000 cycles: 1068172702 heartbeat IPC: 0.18447 cumulative IPC: 0.36860 (Simulation time: 0 hr 23 min 3 sec) 
Heartbeat CPU  0 instructions:  469000002 cycles: 1070169727 heartbeat IPC: 0.50075 cumulative IPC: 0.36886 (Simulation time: 0 hr 23 min 6 sec) 
Heartbeat CPU  0 instructions:  470000000 cycles: 1072089697 heartbeat IPC: 0.52084 cumulative IPC: 0.36915 (Simulation time: 0 hr 23 min 9 sec) 
Heartbeat CPU  0 instructions:  471000002 cycles: 1073954811 heartbeat IPC: 0.53616 cumulative IPC: 0.36946 (Simulation time: 0 hr 23 min 12 sec) 
Heartbeat CPU  0 instructions:  472000000 cycles: 1075973634 heartbeat IPC: 0.49534 cumulative IPC: 0.36972 (Simulation time: 0 hr 23 min 14 sec) 
Heartbeat CPU  0 instructions:  473000003 cycles: 1077966004 heartbeat IPC: 0.50192 cumulative IPC: 0.36998 (Simulation time: 0 hr 23 min 17 sec) 
Heartbeat CPU  0 instructions:  474000002 cycles: 1079794124 heartbeat IPC: 0.54701 cumulative IPC: 0.37030 (Simulation time: 0 hr 23 min 20 sec) 
Heartbeat CPU  0 instructions:  475000003 cycles: 1081750391 heartbeat IPC: 0.51118 cumulative IPC: 0.37057 (Simulation time: 0 hr 23 min 23 sec) 
Heartbeat CPU  0 instructions:  476000000 cycles: 1083738094 heartbeat IPC: 0.50309 cumulative IPC: 0.37083 (Simulation time: 0 hr 23 min 26 sec) 
Heartbeat CPU  0 instructions:  477000003 cycles: 1085570260 heartbeat IPC: 0.54580 cumulative IPC: 0.37115 (Simulation time: 0 hr 23 min 29 sec) 
Heartbeat CPU  0 instructions:  478000003 cycles: 1087480868 heartbeat IPC: 0.52339 cumulative IPC: 0.37143 (Simulation time: 0 hr 23 min 32 sec) 
Heartbeat CPU  0 instructions:  479000000 cycles: 1089483152 heartbeat IPC: 0.49943 cumulative IPC: 0.37168 (Simulation time: 0 hr 23 min 35 sec) 
Heartbeat CPU  0 instructions:  480000000 cycles: 1091392373 heartbeat IPC: 0.52377 cumulative IPC: 0.37197 (Simulation time: 0 hr 23 min 38 sec) 
Heartbeat CPU  0 instructions:  481000000 cycles: 1093207409 heartbeat IPC: 0.55095 cumulative IPC: 0.37228 (Simulation time: 0 hr 23 min 41 sec) 
Heartbeat CPU  0 instructions:  482000000 cycles: 1095205876 heartbeat IPC: 0.50038 cumulative IPC: 0.37253 (Simulation time: 0 hr 23 min 43 sec) 
Heartbeat CPU  0 instructions:  483000001 cycles: 1097252461 heartbeat IPC: 0.48862 cumulative IPC: 0.37277 (Simulation time: 0 hr 23 min 46 sec) 
Heartbeat CPU  0 instructions:  484000000 cycles: 1099175894 heartbeat IPC: 0.51990 cumulative IPC: 0.37304 (Simulation time: 0 hr 23 min 49 sec) 
Heartbeat CPU  0 instructions:  485000001 cycles: 1101267841 heartbeat IPC: 0.47802 cumulative IPC: 0.37325 (Simulation time: 0 hr 23 min 52 sec) 
Heartbeat CPU  0 instructions:  486000001 cycles: 1103255892 heartbeat IPC: 0.50301 cumulative IPC: 0.37350 (Simulation time: 0 hr 23 min 55 sec) 
Heartbeat CPU  0 instructions:  487000000 cycles: 1105104109 heartbeat IPC: 0.54106 cumulative IPC: 0.37380 (Simulation time: 0 hr 23 min 58 sec) 
Heartbeat CPU  0 instructions:  488000000 cycles: 1107011321 heartbeat IPC: 0.52433 cumulative IPC: 0.37408 (Simulation time: 0 hr 24 min 1 sec) 
Heartbeat CPU  0 instructions:  489000001 cycles: 1115567341 heartbeat IPC: 0.11688 cumulative IPC: 0.37197 (Simulation time: 0 hr 24 min 5 sec) 
Heartbeat CPU  0 instructions:  490000003 cycles: 1127162801 heartbeat IPC: 0.08624 cumulative IPC: 0.36884 (Simulation time: 0 hr 24 min 10 sec) 
Heartbeat CPU  0 instructions:  491000001 cycles: 1129019711 heartbeat IPC: 0.53853 cumulative IPC: 0.36914 (Simulation time: 0 hr 24 min 13 sec) 
Heartbeat CPU  0 instructions:  492000000 cycles: 1131034133 heartbeat IPC: 0.49642 cumulative IPC: 0.36938 (Simulation time: 0 hr 24 min 16 sec) 
Heartbeat CPU  0 instructions:  493000000 cycles: 1133026863 heartbeat IPC: 0.50182 cumulative IPC: 0.36963 (Simulation time: 0 hr 24 min 19 sec) 
Heartbeat CPU  0 instructions:  494000002 cycles: 1134870868 heartbeat IPC: 0.54230 cumulative IPC: 0.36993 (Simulation time: 0 hr 24 min 22 sec) 
Heartbeat CPU  0 instructions:  495000000 cycles: 1136846482 heartbeat IPC: 0.50617 cumulative IPC: 0.37018 (Simulation time: 0 hr 24 min 25 sec) 
Heartbeat CPU  0 instructions:  496000000 cycles: 1138845265 heartbeat IPC: 0.50030 cumulative IPC: 0.37042 (Simulation time: 0 hr 24 min 27 sec) 
Heartbeat CPU  0 instructions:  497000001 cycles: 1140738818 heartbeat IPC: 0.52811 cumulative IPC: 0.37070 (Simulation time: 0 hr 24 min 30 sec) 
Heartbeat CPU  0 instructions:  498000001 cycles: 1142657316 heartbeat IPC: 0.52124 cumulative IPC: 0.37097 (Simulation time: 0 hr 24 min 33 sec) 
Heartbeat CPU  0 instructions:  499000001 cycles: 1144664276 heartbeat IPC: 0.49827 cumulative IPC: 0.37121 (Simulation time: 0 hr 24 min 36 sec) 
Heartbeat CPU  0 instructions:  500000000 cycles: 1146616042 heartbeat IPC: 0.51236 cumulative IPC: 0.37146 (Simulation time: 0 hr 24 min 39 sec) 
Heartbeat CPU  0 instructions:  501000002 cycles: 1148452162 heartbeat IPC: 0.54463 cumulative IPC: 0.37176 (Simulation time: 0 hr 24 min 42 sec) 
Heartbeat CPU  0 instructions:  502000002 cycles: 1150434632 heartbeat IPC: 0.50442 cumulative IPC: 0.37200 (Simulation time: 0 hr 24 min 45 sec) 
Heartbeat CPU  0 instructions:  503000002 cycles: 1152433738 heartbeat IPC: 0.50022 cumulative IPC: 0.37224 (Simulation time: 0 hr 24 min 48 sec) 
Heartbeat CPU  0 instructions:  504000000 cycles: 1154243198 heartbeat IPC: 0.55265 cumulative IPC: 0.37254 (Simulation time: 0 hr 24 min 51 sec) 
Heartbeat CPU  0 instructions:  505000002 cycles: 1156183274 heartbeat IPC: 0.51544 cumulative IPC: 0.37280 (Simulation time: 0 hr 24 min 53 sec) 
Heartbeat CPU  0 instructions:  506000002 cycles: 1158201432 heartbeat IPC: 0.49550 cumulative IPC: 0.37302 (Simulation time: 0 hr 24 min 56 sec) 
Heartbeat CPU  0 instructions:  507000001 cycles: 1160068103 heartbeat IPC: 0.53571 cumulative IPC: 0.37330 (Simulation time: 0 hr 24 min 59 sec) 
Heartbeat CPU  0 instructions:  508000000 cycles: 1161958796 heartbeat IPC: 0.52891 cumulative IPC: 0.37357 (Simulation time: 0 hr 25 min 2 sec) 
Heartbeat CPU  0 instructions:  509000000 cycles: 1163964807 heartbeat IPC: 0.49850 cumulative IPC: 0.37380 (Simulation time: 0 hr 25 min 5 sec) 
Heartbeat CPU  0 instructions:  510000003 cycles: 1165929010 heartbeat IPC: 0.50911 cumulative IPC: 0.37404 (Simulation time: 0 hr 25 min 8 sec) 
Heartbeat CPU  0 instructions:  511000001 cycles: 1168060598 heartbeat IPC: 0.46913 cumulative IPC: 0.37423 (Simulation time: 0 hr 25 min 11 sec) 
Heartbeat CPU  0 instructions:  512000000 cycles: 1184685379 heartbeat IPC: 0.06015 cumulative IPC: 0.36954 (Simulation time: 0 hr 25 min 17 sec) 
[...]
scooby_state_40d283|10|1 1,0,0,0,0,0,0,0,0,0,0,0,0,0,0,1,
scooby_state_410e48|23|0 1,0,0,0,0,0,0,0,0,0,0,0,0,0,0,1,
scooby_state_410104|4|1 1,0,0,0,0,0,0,0,0,0,0,0,0,0,0,1,
scooby_state_410640|25|1 1,0,0,0,0,0,0,0,0,0,0,0,0,0,0,1,
scooby_state_410207|8|1 1,0,0,0,0,0,0,0,0,0,0,0,0,0,0,1,
scooby_state_40f202|8|1 1,0,0,0,0,0,0,0,0,0,0,0,0,0,0,1,
scooby_state_4114c1|19|1 1,0,0,0,0,0,0,0,0,0,0,0,0,0,0,1,
scooby_state_40ddc7|55|1 1,0,0,0,0,0,0,0,0,0,0,0,0,0,0,1,
scooby_state_40d3d5|56|19 1,0,0,0,0,0,0,0,0,0,0,0,0,0,0,1,
scooby_state_40e500|20|0 1,0,0,0,0,0,0,0,0,0,0,0,0,0,0,1,
scooby_state_40ccc0|51|1 1,0,0,0,0,0,0,0,0,0,0,0,0,0,0,1,
scooby_state_40d305|12|1 1,0,0,0,0,0,0,0,0,0,0,0,0,0,0,1,
scooby_state_40d3c5|15|1 1,0,0,0,0,0,0,0,0,0,0,0,0,0,0,1,
scooby_state_40d445|17|1 1,0,0,0,0,0,0,0,0,0,0,0,0,0,0,1,
scooby_state_40f300|12|1 1,0,0,0,0,0,0,0,0,0,0,0,0,0,0,1,
scooby_state_40f12a|53|14 1,0,0,0,0,0,0,0,0,0,0,0,0,0,0,1,
scooby_state_40fa46|41|1 1,0,0,0,0,0,0,0,0,0,0,0,0,0,0,1,
scooby_state_40fd82|54|1 1,0,0,0,0,0,0,0,0,0,0,0,0,0,0,1,
scooby_state_40e76c|47|0 1,0,0,0,0,0,0,0,0,0,0,0,0,0,0,1,
scooby_state_40f980|38|1 1,0,0,0,0,0,0,0,0,0,0,0,0,0,0,1,
scooby_state_40ecc6|55|0 1,0,0,0,0,0,0,0,0,0,0,0,0,0,0,1,
scooby_state_410504|20|1 1,0,0,0,0,0,0,0,0,0,0,0,0,0,0,1,
scooby_state_40ec88|50|1 1,0,0,0,0,0,0,0,0,0,0,0,0,0,0,1,
scooby_state_410588|22|1 1,0,0,0,0,0,0,0,0,0,0,0,0,0,0,1,
scooby_state_40ea03|40|1 1,0,0,0,0,0,0,0,0,0,0,0,0,0,0,1,
scooby_state_411286|10|1 1,0,0,0,0,0,0,0,0,0,0,0,0,0,0,1,
scooby_state_40e944|37|1 1,0,0,0,0,0,0,0,0,0,0,0,0,0,0,1,
scooby_state_40e845|33|1 1,0,0,0,0,0,0,0,0,0,0,0,0,0,0,1,
scooby_state_40db82|46|1 1,0,0,0,0,0,0,0,0,0,0,0,0,0,0,1,
scooby_state_40f2c7|11|1 1,0,0,0,0,0,0,0,0,0,0,0,0,0,0,1,
scooby_state_410f43|61|1 1,0,0,0,0,0,0,0,0,0,0,0,0,0,0,1,
scooby_state_40e800|32|1 1,0,0,0,0,0,0,0,0,0,0,0,0,0,0,1,
scooby_state_410742|29|1 1,0,0,0,0,0,0,0,0,0,0,0,0,0,0,1,
scooby_state_410c84|50|1 1,0,0,0,0,0,0,0,0,0,0,0,0,0,0,1,
scooby_state_40ff04|60|1 1,0,0,0,0,0,0,0,0,0,0,0,0,0,0,1,
scooby_state_40cd05|52|1 1,0,0,0,0,0,0,0,0,0,0,0,0,0,0,1,
scooby_state_410903|36|1 1,0,0,0,0,0,0,0,0,0,0,0,0,0,0,1,
scooby_state_40ef9a|54|-1 1,0,0,0,0,0,0,0,0,0,0,0,0,0,0,1,
scooby_state_40e65c|33|0 1,0,0,0,0,0,0,0,0,0,0,0,0,0,0,1,
scooby_state_40eec3|59|1 1,0,0,0,0,0,0,0,0,0,0,0,0,0,0,1,
scooby_state_40f184|6|1 1,0,0,0,0,0,0,0,0,0,0,0,0,0,0,1,
scooby_state_40f001|0|0 1,0,0,0,0,0,0,0,0,0,0,0,0,0,0,1,
scooby_state_40ee04|56|1 1,0,0,0,0,0,0,0,0,0,0,0,0,0,0,1,
scooby_state_40ea91|38|0 1,0,0,0,0,0,0,0,0,0,0,0,0,0,0,1,
scooby_state_4103c4|15|1 1,0,0,0,0,0,0,0,0,0,0,0,0,0,0,1,
scooby_state_40e745|29|1 1,0,0,0,0,0,0,0,0,0,0,0,0,0,0,1,
scooby_state_40ea81|42|1 1,0,0,0,0,0,0,0,0,0,0,0,0,0,0,1,
scooby_state_40efc8|63|1 1,0,0,0,0,0,0,0,0,0,0,0,0,0,0,1,
scooby_state_40e7ab|53|0 1,0,0,0,0,0,0,0,0,0,0,0,0,0,0,1,
scooby_state_40e94a|13|0 1,0,0,0,0,0,0,0,0,0,0,0,0,0,0,1,
scooby_state_40da42|41|1 1,0,0,0,0,0,0,0,0,0,0,0,0,0,0,1,
scooby_state_410484|18|1 1,0,0,0,0,0,0,0,0,0,0,0,0,0,0,1,
scooby_state_40d8c7|35|1 1,0,0,0,0,0,0,0,0,0,0,0,0,0,0,1,
scooby_state_40f8c4|35|1 1,0,0,0,0,0,0,0,0,0,0,0,0,0,0,1,
scooby_state_40d502|20|1 1,0,0,0,0,0,0,0,0,0,0,0,0,0,0,1,
scooby_state_410d02|52|1 1,0,0,0,0,0,0,0,0,0,0,0,0,0,0,1,
scooby_state_40fc86|50|1 1,0,0,0,0,0,0,0,0,0,0,0,0,0,0,1,
scooby_state_40ee80|58|1 1,0,0,0,0,0,0,0,0,0,0,0,0,0,0,1,
scooby_state_40f138|61|14 1,0,0,0,0,0,0,0,0,0,0,0,0,0,0,1,
scooby_state_40d325|41|-19 1,0,0,0,0,0,0,0,0,0,0,0,0,0,0,1,
scooby_state_40dfc2|63|1 1,0,0,0,0,0,0,0,0,0,0,0,0,0,0,1,
scooby_state_40f9c4|39|1 1,0,0,0,0,0,0,0,0,0,0,0,0,0,0,1,
scooby_state_40f102|4|1 1,0,0,0,0,0,0,0,0,0,0,0,0,0,0,1,
scooby_state_4113c1|15|1 1,0,0,0,0,0,0,0,0,0,0,0,0,0,0,1,
scooby_state_411401|16|1 1,0,0,0,0,0,0,0,0,0,0,0,0,0,0,1,
scooby_state_411481|18|1 1,0,0,0,0,0,0,0,0,0,0,0,0,0,0,1,
scooby_state_40f781|30|1 1,0,0,0,0,0,0,0,0,0,0,0,0,0,0,1,
scooby_state_41105b|30|1 1,0,0,0,0,0,0,0,0,0,0,0,0,0,0,1,
scooby_state_40eaac|30|0 1,0,0,0,0,0,0,0,0,0,0,0,0,0,0,1,
scooby_state_40e146|5|1 1,0,0,0,0,0,0,0,0,0,0,0,0,0,0,1,
scooby_state_40f14a|31|-15 1,0,0,0,0,0,0,0,0,0,0,0,0,0,0,1,
scooby_state_40f046|1|1 1,0,0,0,0,0,0,0,0,0,0,0,0,0,0,1,
scooby_state_40e0c4|3|1 1,0,0,0,0,0,0,0,0,0,0,0,0,0,0,1,
scooby_state_40f548|21|1 1,0,0,0,0,0,0,0,0,0,0,0,0,0,0,1,
scooby_state_410e86|58|1 1,0,0,0,0,0,0,0,0,0,0,0,0,0,0,1,
scooby_state_410d46|53|1 1,0,0,0,0,0,0,0,0,0,0,0,0,0,0,1,
scooby_state_40fdc1|55|1 1,0,0,0,0,0,0,0,0,0,0,0,0,0,0,1,
scooby_state_40ed84|54|1 1,0,0,0,0,0,0,0,0,0,0,0,0,0,0,1,
scooby_state_40f287|10|1 1,0,0,0,0,0,0,0,0,0,0,0,0,0,0,1,
scooby_state_40f680|26|1 1,0,0,0,0,0,0,0,0,0,0,0,0,0,0,1,
scooby_state_410e39|56|0 1,0,0,0,0,0,0,0,0,0,0,0,0,0,0,1,
scooby_state_40fc08|48|1 1,0,0,0,0,0,0,0,0,0,0,0,0,0,0,1,
scooby_state_40e982|38|1 1,0,0,0,0,0,0,0,0,0,0,0,0,0,0,1,
scooby_state_40d486|18|0 1,0,0,0,0,0,0,0,0,0,0,0,0,0,0,1,
scooby_state_40f602|24|1 1,0,0,0,0,0,0,0,0,0,0,0,0,0,0,1,
scooby_state_40d2fd|42|3 1,0,0,0,0,0,0,0,0,0,0,0,0,0,0,1,
scooby_state_40e61b|23|0 1,0,0,0,0,0,0,0,0,0,0,0,0,0,0,1,
scooby_state_410381|14|1 1,0,0,0,0,0,0,0,0,0,0,0,0,0,0,1,
scooby_state_40ed43|53|1 1,0,0,0,0,0,0,0,0,0,0,0,0,0,0,1,
scooby_state_40f4a5|7|0 1,0,0,0,0,0,0,0,0,0,0,0,0,0,0,1,
scooby_state_40d435|58|-2 1,0,0,0,0,0,0,0,0,0,0,0,0,0,0,1,
scooby_state_410409|16|1 1,0,0,0,0,0,0,0,0,0,0,0,0,0,0,1,
scooby_state_410685|26|1 1,0,0,0,0,0,0,0,0,0,0,0,0,0,0,1,
scooby_state_40e6b2|18|-1 1,0,0,0,0,0,0,0,0,0,0,0,0,0,0,1,
scooby_state_410a46|41|1 1,0,0,0,0,0,0,0,0,0,0,0,0,0,0,1,
scooby_state_40f0d9|46|-15 1,0,0,0,0,0,0,0,0,0,0,0,0,0,0,1,
scooby_state_40f483|18|1 1,0,0,0,0,0,0,0,0,0,0,0,0,0,0,1,
scooby_state_410840|33|1 1,0,0,0,0,0,0,0,0,0,0,0,0,0,0,1,
scooby_state_40e500|59|38 1,0,0,0,0,0,0,0,0,0,0,0,0,0,0,1,
scooby_state_40f6c5|27|1 1,0,0,0,0,0,0,0,0,0,0,0,0,0,0,1,
scooby_state_410f83|27|1 1,0,0,0,0,0,0,0,0,0,0,0,0,0,0,1,
scooby_state_40f7c5|31|1 1,0,0,0,0,0,0,0,0,0,0,0,0,0,0,1,
scooby_state_4105c3|23|1 1,0,0,0,0,0,0,0,0,0,0,0,0,0,0,1,
scooby_state_40fcc3|51|1 1,0,0,0,0,0,0,0,0,0,0,0,0,0,0,1,
scooby_state_40d685|26|1 1,0,0,0,0,0,0,0,0,0,0,0,0,0,0,1,
scooby_state_40e929|16|-6 1,0,0,0,0,0,0,0,0,0,0,0,0,0,0,1,
scooby_state_40f886|34|1 1,0,0,0,0,0,0,0,0,0,0,0,0,0,0,1,
scooby_state_40fd43|53|1 1,0,0,0,0,0,0,0,0,0,0,0,0,0,0,1,
scooby_state_4104c0|19|1 1,0,0,0,0,0,0,0,0,0,0,0,0,0,0,1,
scooby_state_410980|38|1 1,0,0,0,0,0,0,0,0,0,0,0,0,0,0,1,
scooby_state_4101c1|7|1 1,0,0,0,0,0,0,0,0,0,0,0,0,0,0,1,
scooby_state_410807|32|1 1,0,0,0,0,0,0,0,0,0,0,0,0,0,0,1,
scooby_state_40e5cd|21|0 1,0,0,0,0,0,0,0,0,0,0,0,0,0,0,1,
scooby_state_40ec07|48|1 1,0,0,0,0,0,0,0,0,0,0,0,0,0,0,1,
scooby_state_410086|2|1 1,0,0,0,0,0,0,0,0,0,0,0,0,0,0,1,
scooby_state_40e442|17|1 1,0,0,0,0,0,0,0,0,0,0,0,0,0,0,1,
scooby_state_410280|10|1 1,0,0,0,0,0,0,0,0,0,0,0,0,0,0,1,
scooby_state_40ed01|52|1 1,0,0,0,0,0,0,0,0,0,0,0,0,0,0,1,
scooby_state_40d325|41|1 1,0,0,0,0,0,0,0,0,0,0,0,0,0,0,1,
scooby_state_410f83|62|1 1,0,0,0,0,0,0,0,0,0,0,0,0,0,0,1,
scooby_state_4111c6|7|1 1,0,0,0,0,0,0,0,0,0,0,0,0,0,0,1,
scooby_state_40fe01|56|1 1,0,0,0,0,0,0,0,0,0,0,0,0,0,0,1,
scooby_state_40d6c2|27|1 1,0,0,0,0,0,0,0,0,0,0,0,0,0,0,1,
scooby_state_40eea2|14|0 1,0,0,0,0,0,0,0,0,0,0,0,0,0,0,1,
scooby_state_4110c5|3|1 1,0,0,0,0,0,0,0,0,0,0,0,0,0,0,1,
scooby_state_40edfe|13|0 1,0,0,0,0,0,0,0,0,0,0,0,0,0,0,1,
scooby_state_41042d|45|0 1,0,0,0,0,0,0,0,0,0,0,0,0,0,0,1,
scooby_state_410fcb|28|1 1,0,0,0,0,0,0,0,0,0,0,0,0,0,0,1,
scooby_state_411145|5|1 1,0,0,0,0,0,0,0,0,0,0,0,0,0,0,1,
scooby_state_411346|13|1 1,0,0,0,0,0,0,0,0,0,0,0,0,0,0,1,
scooby_state_40f146|23|-15 1,0,0,0,0,0,0,0,0,0,0,0,0,0,0,1,
scooby_state_40d844|33|1 1,0,0,0,0,0,0,0,0,0,0,0,0,0,0,1,
scooby_state_40e944|5|0 1,0,0,0,0,0,0,0,0,0,0,0,0,0,0,1,
scooby_state_40e1c2|7|1 1,0,0,0,0,0,0,0,0,0,0,0,0,0,0,1,
scooby_state_40e285|10|1 1,0,0,0,0,0,0,0,0,0,0,0,0,0,0,1,
scooby_state_40e5dc|30|0 1,0,0,0,0,0,0,0,0,0,0,0,0,0,0,1,
scooby_state_40d2c7|11|1 1,0,0,0,0,0,0,0,0,0,0,0,0,0,0,1,
scooby_state_410b00|44|1 1,0,0,0,0,0,0,0,0,0,0,0,0,0,0,1,
scooby_state_40ea11|54|0 1,0,0,0,0,0,0,0,0,0,0,0,0,0,0,1,
scooby_state_410bc1|47|1 1,0,0,0,0,0,0,0,0,0,0,0,0,0,0,1,
scooby_state_40f641|25|1 1,0,0,0,0,0,0,0,0,0,0,0,0,0,0,1,
scooby_state_410cc1|51|1 1,0,0,0,0,0,0,0,0,0,0,0,0,0,0,1,
scooby_state_40dac0|43|1 1,0,0,0,0,0,0,0,0,0,0,0,0,0,0,1,
scooby_state_40f4c7|19|1 1,0,0,0,0,0,0,0,0,0,0,0,0,0,0,1,
scooby_state_4110fd|39|-15 1,0,0,0,0,0,0,0,0,0,0,0,0,0,0,1,
scooby_state_40e702|28|1 1,0,0,0,0,0,0,0,0,0,0,0,0,0,0,1,
scooby_state_40d325|41|4 1,0,0,0,0,0,0,0,0,0,0,0,0,0,0,1,
scooby_state_40dbc5|47|1 1,0,0,0,0,0,0,0,0,0,0,0,0,0,0,1,
scooby_state_40ecc6|5|-15 1,0,0,0,0,0,0,0,0,0,0,0,0,0,0,1,
scooby_state_40dd85|54|1 1,0,0,0,0,0,0,0,0,0,0,0,0,0,0,1,
scooby_state_40ed43|62|0 1,0,0,0,0,0,0,0,0,0,0,0,0,0,0,1,
scooby_state_40e182|6|1 1,0,0,0,0,0,0,0,0,0,0,0,0,0,0,1,
scooby_state_40ef8a|56|17 1,0,0,0,0,0,0,0,0,0,0,0,0,0,0,1,
scooby_state_40edc0|55|1 1,0,0,0,0,0,0,0,0,0,0,0,0,0,0,1,
scooby_state_4109c0|39|1 1,0,0,0,0,0,0,0,0,0,0,0,0,0,0,1,
scooby_state_40e548|21|1 1,0,0,0,0,0,0,0,0,0,0,0,0,0,0,1,
scooby_state_40d583|22|1 1,0,0,0,0,0,0,0,0,0,0,0,0,0,0,1,
scooby_state_40d5c3|23|1 1,0,0,0,0,0,0,0,0,0,0,0,0,0,0,1,
scooby_state_40d643|25|1 1,0,0,0,0,0,0,0,0,0,0,0,0,0,0,1,
scooby_state_40d703|28|1 1,0,0,0,0,0,0,0,0,0,0,0,0,0,0,1,
scooby_state_40d741|29|1 1,0,0,0,0,0,0,0,0,0,0,0,0,0,0,1,
scooby_state_40fc47|49|1 1,0,0,0,0,0,0,0,0,0,0,0,0,0,0,1,
scooby_state_40d783|30|1 1,0,0,0,0,0,0,0,0,0,0,0,0,0,0,1,
scooby_state_40d7c0|31|1 1,0,0,0,0,0,0,0,0,0,0,0,0,0,0,1,
scooby_state_40d806|32|1 1,0,0,0,0,0,0,0,0,0,0,0,0,0,0,1,
scooby_state_40d887|34|1 1,0,0,0,0,0,0,0,0,0,0,0,0,0,0,1,
scooby_state_40d902|36|1 1,0,0,0,0,0,0,0,0,0,0,0,0,0,0,1,
scooby_state_40d985|38|1 1,0,0,0,0,0,0,0,0,0,0,0,0,0,0,1,
scooby_state_40d9c7|39|1 1,0,0,0,0,0,0,0,0,0,0,0,0,0,0,1,
scooby_state_40da03|40|1 1,0,0,0,0,0,0,0,0,0,0,0,0,0,0,1,
scooby_state_40f500|20|1 1,0,0,0,0,0,0,0,0,0,0,0,0,0,0,1,
scooby_state_40df41|61|1 1,0,0,0,0,0,0,0,0,0,0,0,0,0,0,1,
scooby_state_40e588|22|1 1,0,0,0,0,0,0,0,0,0,0,0,0,0,0,1,
scooby_state_40e681|26|1 1,0,0,0,0,0,0,0,0,0,0,0,0,0,0,1,
scooby_state_410457|53|0 1,0,0,0,0,0,0,0,0,0,0,0,0,0,0,1,
scooby_state_40e8c1|35|1 1,0,0,0,0,0,0,0,0,0,0,0,0,0,0,1,
scooby_state_40d45f|52|30 1,0,0,0,0,0,0,0,0,0,0,0,0,0,0,1,
scooby_state_40fe43|57|1 1,0,0,0,0,0,0,0,0,0,0,0,0,0,0,1,
scooby_state_410b45|45|1 1,0,0,0,0,0,0,0,0,0,0,0,0,0,0,1,
scooby_state_4112c6|11|1 1,0,0,0,0,0,0,0,0,0,0,0,0,0,0,1,
scooby_state_40e53f|62|1 1,0,0,0,0,0,0,0,0,0,0,0,0,0,0,1,
scooby_state_40ce80|58|1 1,0,0,0,0,0,0,0,0,0,0,0,0,0,0,1,
scooby_state_40f3c6|15|1 1,0,0,0,0,0,0,0,0,0,0,0,0,0,0,1,
scooby_state_40ec60|21|-14 1,0,0,0,0,0,0,0,0,0,0,0,0,0,0,1,
scooby_state_40d3bd|37|-18 1,0,0,0,0,0,0,0,0,0,0,0,0,0,0,1,
scooby_state_411206|8|1 1,0,0,0,0,0,0,0,0,0,0,0,0,0,0,1,
scooby_state_40ec9d|55|30 1,0,0,0,0,0,0,0,0,0,0,0,0,0,0,1,
scooby_state_40fa02|40|1 1,0,0,0,0,0,0,0,0,0,0,0,0,0,0,1,
scooby_state_40f080|39|-1 1,0,0,0,0,0,0,0,0,0,0,0,0,0,0,1,
scooby_state_40d2ed|8|-14 1,0,0,0,0,0,0,0,0,0,0,0,0,0,0,1,
scooby_state_40cec7|59|1 1,0,0,0,0,0,0,0,0,0,0,0,0,0,0,1,
scooby_state_40f903|36|1 1,0,0,0,0,0,0,0,0,0,0,0,0,0,0,1,
scooby_state_411246|9|1 1,0,0,0,0,0,0,0,0,0,0,0,0,0,0,1,
scooby_state_40f0c4|38|-15 1,0,0,0,0,0,0,0,0,0,0,0,0,0,0,1,
scooby_state_40f443|17|1 1,0,0,0,0,0,0,0,0,0,0,0,0,0,0,1,
scooby_state_40d202|8|1 1,0,0,0,0,0,0,0,0,0,0,0,0,0,0,1,
scooby_state_40dc02|48|1 1,0,0,0,0,0,0,0,0,0,0,0,0,0,0,1,
scooby_state_411381|14|0 1,0,0,0,0,0,0,0,0,0,0,0,0,0,0,1,
scooby_state_410a05|40|1 1,0,0,0,0,0,0,0,0,0,0,0,0,0,0,1,
scooby_state_40eaa6|61|15 1,0,0,0,0,0,0,0,0,0,0,0,0,0,0,1,
scooby_state_40fa87|42|1 1,0,0,0,0,0,0,0,0,0,0,0,0,0,0,1,
scooby_state_40fb09|44|1 1,0,0,0,0,0,0,0,0,0,0,0,0,0,0,1,
scooby_state_40e725|41|0 1,0,0,0,0,0,0,0,0,0,0,0,0,0,0,1,
scooby_state_40fb48|45|1 1,0,0,0,0,0,0,0,0,0,0,0,0,0,0,1,
scooby_state_40e6ba|35|0 1,0,0,0,0,0,0,0,0,0,0,0,0,0,0,1,
scooby_state_40f403|16|1 1,0,0,0,0,0,0,0,0,0,0,0,0,0,0,1,
scooby_state_40ec60|41|-14 1,0,0,0,0,0,0,0,0,0,0,0,0,0,0,1,
scooby_state_411306|12|1 1,0,0,0,0,0,0,0,0,0,0,0,0,0,0,1,
scooby_state_40f5c2|23|1 1,0,0,0,0,0,0,0,0,0,0,0,0,0,0,1,
scooby_state_40f701|28|1 1,0,0,0,0,0,0,0,0,0,0,0,0,0,0,1,
scooby_state_40ec41|49|1 1,0,0,0,0,0,0,0,0,0,0,0,0,0,0,1,
scooby_state_40f1c0|30|15 1,0,0,0,0,0,0,0,0,0,0,0,0,0,0,1,
scooby_state_40f0b2|39|0 1,0,0,0,0,0,0,0,0,0,0,0,0,0,0,1,
scooby_state_40e3c7|15|1 1,0,0,0,0,0,0,0,0,0,0,0,0,0,0,1,
scooby_state_40f07a|5|-1 1,0,0,0,0,0,0,0,0,0,0,0,0,0,0,1,
scooby_state_410542|21|1 1,0,0,0,0,0,0,0,0,0,0,0,0,0,0,1,
scooby_state_410c42|49|1 1,0,0,0,0,0,0,0,0,0,0,0,0,0,0,1,
scooby_state_40e6a3|39|0 1,0,0,0,0,0,0,0,0,0,0,0,0,0,0,1,
scooby_state_40dd45|53|1 1,0,0,0,0,0,0,0,0,0,0,0,0,0,0,1,
scooby_state_410444|17|1 1,0,0,0,0,0,0,0,0,0,0,0,0,0,0,1,
scooby_state_411013|29|1 1,0,0,0,0,0,0,0,0,0,0,0,0,0,0,1,

scooby_action_0_deg_dist 0,474,0,0,0,0,0,0,0,0,0,0,0,0,0,0,
scooby_action_4_deg_dist 0,474,0,0,0,0,0,0,0,0,0,0,0,0,0,0,
scooby_action_3_deg_dist 0,492,0,0,0,0,0,0,0,0,0,0,0,0,0,0,
scooby_action_32_deg_dist 0,433,0,0,0,0,0,0,0,0,0,0,0,0,0,0,
scooby_action_5_deg_dist 0,439,0,0,0,0,0,0,0,0,0,0,0,0,0,0,
scooby_action_1_deg_dist 0,180436,70542,0,180387,0,3439715,0,0,0,0,0,0,0,0,0,
scooby_action_30_deg_dist 0,482,0,0,0,0,0,0,0,0,0,0,0,0,0,0,
scooby_action_-3_deg_dist 0,456,0,0,0,0,0,0,0,0,0,0,0,0,0,0,
scooby_action_10_deg_dist 0,514,0,0,0,0,0,0,0,0,0,0,0,0,0,0,
scooby_action_-1_deg_dist 0,471,0,0,0,0,0,0,0,0,0,0,0,0,0,0,
scooby_action_23_deg_dist 0,488,0,0,0,0,0,0,0,0,0,0,0,0,0,0,
scooby_action_-6_deg_dist 0,448,1,0,0,0,0,0,0,0,0,0,0,0,0,0,
scooby_action_11_deg_dist 0,471,0,0,0,0,0,0,0,0,0,0,0,0,0,0,
scooby_action_22_deg_dist 0,465,0,0,0,0,0,0,0,0,0,0,0,0,0,0,
scooby_action_12_deg_dist 0,473,0,0,0,0,0,0,0,0,0,0,0,0,0,0,

scooby_track_called 3877661
scooby_track_same_address 6797
scooby_track_evict 3870608

scooby_reward_demand_called 3877661
scooby_reward_demand_pt_not_found 129407
scooby_reward_demand_pt_found 3748254
scooby_reward_demand_pt_found_total 3748254
scooby_reward_demand_has_reward 1352
scooby_reward_train_called 59651
scooby_reward_assign_reward_called 3870787
scooby_reward_no_pref 474
scooby_reward_incorrect 59177
scooby_reward_correct_untimely 3594125
scooby_reward_correct_timely 152777
scooby_reward_out_of_bounds 64234
scooby_reward_tracker_hit 0

scooby_reward_none_low_bw 474
scooby_reward_none_high_bw 0
scooby_reward_incorrect_low_bw 59177
scooby_reward_incorrect_high_bw 0
scooby_reward_correct_untimely_low_bw 3594125
scooby_reward_correct_untimely_high_bw 0
scooby_reward_correct_timely_low_bw 152777
scooby_reward_correct_timely_high_bw 0
scooby_reward_out_of_bounds_low_bw 64234
scooby_reward_out_of_bounds_high_bw 0
scooby_reward_tracker_hit_low_bw 0
scooby_reward_tracker_hit_high_bw 0

scooby_reward_1 0,55765,3593562,152496,63035,0,
scooby_reward_3 0,6,426,39,17,0,
scooby_reward_4 0,380,47,19,24,0,
scooby_reward_5 0,345,33,14,47,0,
scooby_reward_10 0,345,1,85,83,0,
scooby_reward_11 0,336,1,57,77,0,
scooby_reward_12 0,299,3,67,97,0,
scooby_reward_22 0,307,1,0,157,0,
scooby_reward_23 0,316,0,0,171,0,
scooby_reward_30 0,192,0,0,235,0,
scooby_reward_32 0,161,44,0,228,0,
scooby_reward_-1 0,14,3,0,9,0,
scooby_reward_-3 0,350,2,0,25,0,
scooby_reward_-6 0,361,2,0,29,0,
scooby_reward_0 474,0,0,0,0,0,

scooby_train_called 3870607
scooby_train_compute_reward 59651

scooby_register_fill_called 2096096
scooby_register_fill_set 154395
scooby_register_fill_set_total 154395

scooby_register_prefetch_hit_called 16722703
scooby_register_prefetch_hit_set 3433094
scooby_register_prefetch_hit_set_total 3433094

scooby_pref_issue_scooby 20421047

learning_engine_featurewise.action.called 3877661
learning_engine_featurewise.action.explore 7052
learning_engine_featurewise.action.exploit 3870609
learning_engine_featurewise.action.fallback 0
learning_engine_featurewise.action.dyn_fallback_saved_bw 0
learning_engine_featurewise.action.dyn_fallback_saved_bw_acc 130349
learning_engine_featurewise.action.index_1_explored 472
learning_engine_featurewise.action.index_1_exploited 3870608
learning_engine_featurewise.action.index_3_explored 491
learning_engine_featurewise.action.index_3_exploited 1
learning_engine_featurewise.action.index_4_explored 474
learning_engine_featurewise.action.index_4_exploited 0
learning_engine_featurewise.action.index_5_explored 439
learning_engine_featurewise.action.index_5_exploited 0
learning_engine_featurewise.action.index_10_explored 514
learning_engine_featurewise.action.index_10_exploited 0
learning_engine_featurewise.action.index_11_explored 471
learning_engine_featurewise.action.index_11_exploited 0
learning_engine_featurewise.action.index_12_explored 473
learning_engine_featurewise.action.index_12_exploited 0
learning_engine_featurewise.action.index_22_explored 465
learning_engine_featurewise.action.index_22_exploited 0
learning_engine_featurewise.action.index_23_explored 488
learning_engine_featurewise.action.index_23_exploited 0
learning_engine_featurewise.action.index_30_explored 482
learning_engine_featurewise.action.index_30_exploited 0
learning_engine_featurewise.action.index_32_explored 433
learning_engine_featurewise.action.index_32_exploited 0
learning_engine_featurewise.action.index_-1_explored 471
learning_engine_featurewise.action.index_-1_exploited 0
learning_engine_featurewise.action.index_-3_explored 456
learning_engine_featurewise.action.index_-3_exploited 0
learning_engine_featurewise.action.index_-6_explored 449
learning_engine_featurewise.action.index_-6_exploited 0
learning_engine_featurewise.action.index_0_explored 474
learning_engine_featurewise.action.index_0_exploited 0
learning_engine_featurewise.learn.called 3870607
learning_engine_featurewise.learn.su_skip_PC 0
learning_engine_featurewise.learn.su_skip_PC_Delta 0

learning_engine_featurewise.q_value_histogram.bucket_0 0
learning_engine_featurewise.q_value_histogram.bucket_1 0
learning_engine_featurewise.q_value_histogram.bucket_2 0
learning_engine_featurewise.q_value_histogram.bucket_3 0
learning_engine_featurewise.q_value_histogram.bucket_4 1907
learning_engine_featurewise.q_value_histogram.bucket_5 6847
learning_engine_featurewise.q_value_histogram.bucket_6 3861855
learning_engine_featurewise.q_value_histogram.bucket_7 0

learning_engine_featurewise.consensus.total 3870609
learning_engine_featurewise.consensus.feature_align_PC 3858497
learning_engine_featurewise.consensus.feature_align_PC_ratio 1.00
learning_engine_featurewise.consensus.feature_align_PC_Delta 3870605
learning_engine_featurewise.consensus.feature_align_PC_Delta_ratio 1.00
learning_engine_featurewise.consensus.feature_align_all 3858493
learning_engine_featurewise.consensus.feature_align_all_ratio 1.00

learning_engine_featurewise.feature_PC_min_weight 1000000.00000000
learning_engine_featurewise.feature_PC_max_weight 0.00000000
learning_engine_featurewise.feature_PC_Delta_min_weight 1000000.00000000
learning_engine_featurewise.feature_PC_Delta_max_weight 0.00000000
unique_pcs 491
unique_pages 14953
unique_trigger_pcs 104
total_bitmaps_seen 0
unique_bitmaps_seen 0

scooby_bw_epochs 5496923
scooby_bw_level_0 4362502
scooby_bw_level_1 0
scooby_bw_level_2 0
scooby_bw_level_3 1134421

scooby_ipc_epochs 0
scooby_ipc_level_0 0
scooby_ipc_level_1 0
scooby_ipc_level_2 0
scooby_ipc_level_3 0

scooby_cache_acc_epochs 745714
scooby_cache_acc_level_0 21082
scooby_cache_acc_level_1 17170
scooby_cache_acc_level_2 29918
scooby_cache_acc_level_3 65584
scooby_cache_acc_level_4 67298
scooby_cache_acc_level_5 47148
scooby_cache_acc_level_6 74258
scooby_cache_acc_level_7 71816
scooby_cache_acc_level_8 67134
scooby_cache_acc_level_9 284306

Channel_0_RQ_row_buffer_hit 671170
Channel_0_RQ_row_buffer_miss 1257429
Channel_0_WQ_row_buffer_hit 87775
Channel_0_WQ_row_buffer_miss 516447
Channel_0_WQ_full 0
Channel_0_dbus_congested 2282966

avg_congested_cycle 191

DRAM_bw_pochs 5496923
DRAM_bw_level_0 4362502
DRAM_bw_level_1 0
DRAM_bw_level_2 0
DRAM_bw_level_3 1134421
