*************************************************
   ChampSim Multicore Out-of-Order Simulator
   Last compiled: Dec 11 2024 17:59:53
*************************************************
parsing config file: /home/functionmain/桌面/Pythia/config/spp_dev2.ini

trace_0 /home/functionmain/桌面/Pythia/traces/436.cactusADM-1804B.champsimtrace.xz
adding L2C_PREFETCHER: SPP_dev2
Initialize SIGNATURE TABLE
ST_SET: 1
ST_WAY: 256
ST_TAG_BIT: 16
ST_TAG_MASK: ffff

Initialize PATTERN TABLE
PT_SET: 512
PT_WAY: 4
SIG_DELTA_BIT: 7
C_SIG_BIT: 4
C_DELTA_BIT: 4

Initialize PREFETCH FILTER
FILTER_SET: 1024
fill_threshold: 90
pf_threshold: 40

Initialize SHIP state
warmup_instructions 100000000
simulation_instructions 500000000
champsim_seed 271
measure_ipc 0
measure_ipc_epoch 1000
measure_dram_bw 1
measure_dram_bw_epoch 256
measure_cache_acc 1
measure_cache_acc_epoch 1024
l1d_perfect 0
l2c_perfect 0
llc_perfect 0
l1d_semi_perfect 0
l2c_semi_perfect 0
llc_semi_perfect 0
semi_perfect_cache_page_buffer_size 64

num_cpus 1
cpu_freq 4000
dram_io_freq 150
page_size 4096
block_size 64
max_read_per_cycle 8
max_fill_per_cycle 1
dram_channels 1
log2_dram_channels 0
dram_ranks 1
dram_banks 8
dram_rows 65536
dram_columns 128
dram_row_size 8
dram_size 4096
dram_pages 1048576

fetch_width 6
decode_width 6
exec_width 4
lq_width 2
sq_width 2
retire_width 4
scheduler_size 128
branch_mispredict_penalty 20
rob_size 256
lq_size 72
sq_size 56
num_instr_destinations_sparc 4
num_instr_destinations 2
num_instr_sources 4

itlb_set 16
itlb_way 8
itlb_rq_size 16
itlb_wq_size 16
itlb_pq_size 0
itlb_mshr_size 8
itlb_latency 1

dtlb_set 16
dtlb_way 4
dtlb_rq_size 16
dtlb_wq_size 16
dtlb_pq_size 0
dtlb_mshr_size 8
dtlb_latency 1

stlb_set 128
stlb_way 12
stlb_rq_size 32
stlb_wq_size 32
stlb_pq_size 0
stlb_mshr_size 16
stlb_latency 8

l1i_size 32
l1i_set 64
l1i_way 8
l1i_rq_size 64
l1i_wq_size 64
l1i_pq_size 8
l1i_mshr_size 8
l1i_latency 1

l1d_size 32
l1d_set 64
l1d_way 8
l1d_rq_size 64
l1d_wq_size 64
l1d_pq_size 8
l1d_mshr_size 16
l1d_latency 4

l2c_size 256
l2c_set 512
l2c_way 8
l2c_rq_size 32
l2c_wq_size 32
l2c_pq_size 32
l2c_mshr_size 32
l2c_latency 10

llc_size 2048
llc_set 2048
llc_way 16
llc_rq_size 32
llc_wq_size 32
llc_pq_size 32
llc_mshr_size 64
llc_latency 20

dram_channel_width 8
dram_wq_size 64
dram_rq_size 64
tRP 15
tRCD 15
tCAS 12.5
dram_dbus_turn_around_time 30
dram_write_high_wm 56
dram_write_low_wm 48
min_dram_writes_per_switch 16
dram_mtps 150
dram_dbus_return_time 213


Heartbeat CPU  0 instructions:    1000000 cycles:     702346 heartbeat IPC: 1.42380 cumulative IPC: 1.42380 (Simulation time: 0 hr 0 min 2 sec) 
Heartbeat CPU  0 instructions:    2000000 cycles:    1404560 heartbeat IPC: 1.42407 cumulative IPC: 1.42393 (Simulation time: 0 hr 0 min 5 sec) 
Heartbeat CPU  0 instructions:    3000000 cycles:    2106930 heartbeat IPC: 1.42375 cumulative IPC: 1.42387 (Simulation time: 0 hr 0 min 7 sec) 
Heartbeat CPU  0 instructions:    4000000 cycles:    2809292 heartbeat IPC: 1.42377 cumulative IPC: 1.42385 (Simulation time: 0 hr 0 min 9 sec) 
Heartbeat CPU  0 instructions:    5000000 cycles:    3511500 heartbeat IPC: 1.42408 cumulative IPC: 1.42389 (Simulation time: 0 hr 0 min 12 sec) 
Heartbeat CPU  0 instructions:    6000000 cycles:    4213918 heartbeat IPC: 1.42365 cumulative IPC: 1.42385 (Simulation time: 0 hr 0 min 14 sec) 
Heartbeat CPU  0 instructions:    7000001 cycles:    4916339 heartbeat IPC: 1.42365 cumulative IPC: 1.42382 (Simulation time: 0 hr 0 min 16 sec) 
Heartbeat CPU  0 instructions:    8000000 cycles:    5618454 heartbeat IPC: 1.42427 cumulative IPC: 1.42388 (Simulation time: 0 hr 0 min 19 sec) 
Heartbeat CPU  0 instructions:    9000001 cycles:    6320932 heartbeat IPC: 1.42353 cumulative IPC: 1.42384 (Simulation time: 0 hr 0 min 21 sec) 
Heartbeat CPU  0 instructions:   10000000 cycles:    7023154 heartbeat IPC: 1.42405 cumulative IPC: 1.42386 (Simulation time: 0 hr 0 min 23 sec) 
Heartbeat CPU  0 instructions:   11000002 cycles:    7725368 heartbeat IPC: 1.42407 cumulative IPC: 1.42388 (Simulation time: 0 hr 0 min 26 sec) 
Heartbeat CPU  0 instructions:   12000000 cycles:    8427564 heartbeat IPC: 1.42410 cumulative IPC: 1.42390 (Simulation time: 0 hr 0 min 28 sec) 
Heartbeat CPU  0 instructions:   13000000 cycles:    9130107 heartbeat IPC: 1.42340 cumulative IPC: 1.42386 (Simulation time: 0 hr 0 min 30 sec) 
Heartbeat CPU  0 instructions:   14000002 cycles:    9832352 heartbeat IPC: 1.42401 cumulative IPC: 1.42387 (Simulation time: 0 hr 0 min 33 sec) 
Heartbeat CPU  0 instructions:   15000002 cycles:   10534339 heartbeat IPC: 1.42453 cumulative IPC: 1.42391 (Simulation time: 0 hr 0 min 35 sec) 
Heartbeat CPU  0 instructions:   16000000 cycles:   11236902 heartbeat IPC: 1.42336 cumulative IPC: 1.42388 (Simulation time: 0 hr 0 min 37 sec) 
Heartbeat CPU  0 instructions:   17000000 cycles:   11939517 heartbeat IPC: 1.42325 cumulative IPC: 1.42384 (Simulation time: 0 hr 0 min 40 sec) 
Heartbeat CPU  0 instructions:   18000001 cycles:   12600735 heartbeat IPC: 1.51236 cumulative IPC: 1.42849 (Simulation time: 0 hr 0 min 42 sec) 
Heartbeat CPU  0 instructions:   19000000 cycles:   13236230 heartbeat IPC: 1.57357 cumulative IPC: 1.43545 (Simulation time: 0 hr 0 min 44 sec) 
Heartbeat CPU  0 instructions:   20000000 cycles:   13938792 heartbeat IPC: 1.42336 cumulative IPC: 1.43484 (Simulation time: 0 hr 0 min 47 sec) 
Heartbeat CPU  0 instructions:   21000000 cycles:   14641251 heartbeat IPC: 1.42357 cumulative IPC: 1.43430 (Simulation time: 0 hr 0 min 49 sec) 
Heartbeat CPU  0 instructions:   22000002 cycles:   15343530 heartbeat IPC: 1.42394 cumulative IPC: 1.43383 (Simulation time: 0 hr 0 min 51 sec) 
Heartbeat CPU  0 instructions:   23000001 cycles:   16045981 heartbeat IPC: 1.42359 cumulative IPC: 1.43338 (Simulation time: 0 hr 0 min 54 sec) 
Heartbeat CPU  0 instructions:   24000000 cycles:   16748131 heartbeat IPC: 1.42420 cumulative IPC: 1.43300 (Simulation time: 0 hr 0 min 56 sec) 
Heartbeat CPU  0 instructions:   25000001 cycles:   17450456 heartbeat IPC: 1.42384 cumulative IPC: 1.43263 (Simulation time: 0 hr 0 min 58 sec) 
Heartbeat CPU  0 instructions:   26000003 cycles:   18153109 heartbeat IPC: 1.42318 cumulative IPC: 1.43226 (Simulation time: 0 hr 1 min 1 sec) 
Heartbeat CPU  0 instructions:   27000003 cycles:   18855399 heartbeat IPC: 1.42391 cumulative IPC: 1.43195 (Simulation time: 0 hr 1 min 3 sec) 
Heartbeat CPU  0 instructions:   28000000 cycles:   19557596 heartbeat IPC: 1.42410 cumulative IPC: 1.43167 (Simulation time: 0 hr 1 min 6 sec) 
Heartbeat CPU  0 instructions:   29000000 cycles:   20260050 heartbeat IPC: 1.42358 cumulative IPC: 1.43139 (Simulation time: 0 hr 1 min 8 sec) 
Heartbeat CPU  0 instructions:   30000003 cycles:   20962466 heartbeat IPC: 1.42366 cumulative IPC: 1.43113 (Simulation time: 0 hr 1 min 10 sec) 
Heartbeat CPU  0 instructions:   31000003 cycles:   21664400 heartbeat IPC: 1.42464 cumulative IPC: 1.43092 (Simulation time: 0 hr 1 min 13 sec) 
Heartbeat CPU  0 instructions:   32000000 cycles:   22366507 heartbeat IPC: 1.42428 cumulative IPC: 1.43071 (Simulation time: 0 hr 1 min 15 sec) 
Heartbeat CPU  0 instructions:   33000001 cycles:   23069272 heartbeat IPC: 1.42295 cumulative IPC: 1.43047 (Simulation time: 0 hr 1 min 17 sec) 
Heartbeat CPU  0 instructions:   34000000 cycles:   23771441 heartbeat IPC: 1.42416 cumulative IPC: 1.43029 (Simulation time: 0 hr 1 min 20 sec) 
Heartbeat CPU  0 instructions:   35000001 cycles:   24473695 heartbeat IPC: 1.42399 cumulative IPC: 1.43011 (Simulation time: 0 hr 1 min 22 sec) 
Heartbeat CPU  0 instructions:   36000000 cycles:   25175917 heartbeat IPC: 1.42405 cumulative IPC: 1.42994 (Simulation time: 0 hr 1 min 24 sec) 
Heartbeat CPU  0 instructions:   37000000 cycles:   25878526 heartbeat IPC: 1.42327 cumulative IPC: 1.42976 (Simulation time: 0 hr 1 min 27 sec) 
Heartbeat CPU  0 instructions:   38000001 cycles:   26580767 heartbeat IPC: 1.42401 cumulative IPC: 1.42961 (Simulation time: 0 hr 1 min 29 sec) 
Heartbeat CPU  0 instructions:   39000000 cycles:   27283049 heartbeat IPC: 1.42393 cumulative IPC: 1.42946 (Simulation time: 0 hr 1 min 31 sec) 
Heartbeat CPU  0 instructions:   40000000 cycles:   27985330 heartbeat IPC: 1.42393 cumulative IPC: 1.42932 (Simulation time: 0 hr 1 min 34 sec) 
Heartbeat CPU  0 instructions:   41000000 cycles:   28590920 heartbeat IPC: 1.65128 cumulative IPC: 1.43402 (Simulation time: 0 hr 1 min 36 sec) 
Heartbeat CPU  0 instructions:   42000002 cycles:   29282348 heartbeat IPC: 1.44629 cumulative IPC: 1.43431 (Simulation time: 0 hr 1 min 38 sec) 
Heartbeat CPU  0 instructions:   43000002 cycles:   29984801 heartbeat IPC: 1.42358 cumulative IPC: 1.43406 (Simulation time: 0 hr 1 min 41 sec) 
Heartbeat CPU  0 instructions:   44000000 cycles:   30687294 heartbeat IPC: 1.42350 cumulative IPC: 1.43382 (Simulation time: 0 hr 1 min 43 sec) 
Heartbeat CPU  0 instructions:   45000003 cycles:   31389617 heartbeat IPC: 1.42385 cumulative IPC: 1.43360 (Simulation time: 0 hr 1 min 46 sec) 
Heartbeat CPU  0 instructions:   46000003 cycles:   32091871 heartbeat IPC: 1.42399 cumulative IPC: 1.43338 (Simulation time: 0 hr 1 min 48 sec) 
Heartbeat CPU  0 instructions:   47000000 cycles:   32794095 heartbeat IPC: 1.42404 cumulative IPC: 1.43318 (Simulation time: 0 hr 1 min 50 sec) 
Heartbeat CPU  0 instructions:   48000000 cycles:   33496795 heartbeat IPC: 1.42308 cumulative IPC: 1.43297 (Simulation time: 0 hr 1 min 53 sec) 
Heartbeat CPU  0 instructions:   49000000 cycles:   34198786 heartbeat IPC: 1.42452 cumulative IPC: 1.43280 (Simulation time: 0 hr 1 min 55 sec) 
Heartbeat CPU  0 instructions:   50000000 cycles:   34901146 heartbeat IPC: 1.42377 cumulative IPC: 1.43262 (Simulation time: 0 hr 1 min 57 sec) 
Heartbeat CPU  0 instructions:   51000000 cycles:   35603721 heartbeat IPC: 1.42334 cumulative IPC: 1.43243 (Simulation time: 0 hr 2 min 0 sec) 
Heartbeat CPU  0 instructions:   52000000 cycles:   36305844 heartbeat IPC: 1.42425 cumulative IPC: 1.43228 (Simulation time: 0 hr 2 min 2 sec) 
Heartbeat CPU  0 instructions:   53000000 cycles:   37008283 heartbeat IPC: 1.42361 cumulative IPC: 1.43211 (Simulation time: 0 hr 2 min 4 sec) 
Heartbeat CPU  0 instructions:   54000001 cycles:   37710446 heartbeat IPC: 1.42417 cumulative IPC: 1.43196 (Simulation time: 0 hr 2 min 7 sec) 
Heartbeat CPU  0 instructions:   55000001 cycles:   38412794 heartbeat IPC: 1.42380 cumulative IPC: 1.43181 (Simulation time: 0 hr 2 min 9 sec) 
Heartbeat CPU  0 instructions:   56000000 cycles:   39115282 heartbeat IPC: 1.42351 cumulative IPC: 1.43167 (Simulation time: 0 hr 2 min 11 sec) 
Heartbeat CPU  0 instructions:   57000000 cycles:   39817785 heartbeat IPC: 1.42348 cumulative IPC: 1.43152 (Simulation time: 0 hr 2 min 14 sec) 
Heartbeat CPU  0 instructions:   58000003 cycles:   40520110 heartbeat IPC: 1.42385 cumulative IPC: 1.43139 (Simulation time: 0 hr 2 min 16 sec) 
Heartbeat CPU  0 instructions:   59000000 cycles:   41222298 heartbeat IPC: 1.42412 cumulative IPC: 1.43126 (Simulation time: 0 hr 2 min 18 sec) 
Heartbeat CPU  0 instructions:   60000000 cycles:   41924790 heartbeat IPC: 1.42350 cumulative IPC: 1.43113 (Simulation time: 0 hr 2 min 21 sec) 
Heartbeat CPU  0 instructions:   61000000 cycles:   42627029 heartbeat IPC: 1.42402 cumulative IPC: 1.43102 (Simulation time: 0 hr 2 min 23 sec) 
Heartbeat CPU  0 instructions:   62000002 cycles:   43329251 heartbeat IPC: 1.42405 cumulative IPC: 1.43090 (Simulation time: 0 hr 2 min 25 sec) 
Heartbeat CPU  0 instructions:   63000000 cycles:   43976888 heartbeat IPC: 1.54407 cumulative IPC: 1.43257 (Simulation time: 0 hr 2 min 28 sec) 
Heartbeat CPU  0 instructions:   64000000 cycles:   44628313 heartbeat IPC: 1.53510 cumulative IPC: 1.43407 (Simulation time: 0 hr 2 min 30 sec) 
Heartbeat CPU  0 instructions:   65000000 cycles:   45330465 heartbeat IPC: 1.42419 cumulative IPC: 1.43391 (Simulation time: 0 hr 2 min 32 sec) 
Heartbeat CPU  0 instructions:   66000001 cycles:   46032560 heartbeat IPC: 1.42431 cumulative IPC: 1.43377 (Simulation time: 0 hr 2 min 35 sec) 
Heartbeat CPU  0 instructions:   67000002 cycles:   46734703 heartbeat IPC: 1.42421 cumulative IPC: 1.43362 (Simulation time: 0 hr 2 min 37 sec) 
Heartbeat CPU  0 instructions:   68000000 cycles:   47437145 heartbeat IPC: 1.42360 cumulative IPC: 1.43348 (Simulation time: 0 hr 2 min 40 sec) 
Heartbeat CPU  0 instructions:   69000000 cycles:   48139326 heartbeat IPC: 1.42413 cumulative IPC: 1.43334 (Simulation time: 0 hr 2 min 42 sec) 
Heartbeat CPU  0 instructions:   70000002 cycles:   48841469 heartbeat IPC: 1.42421 cumulative IPC: 1.43321 (Simulation time: 0 hr 2 min 44 sec) 
Heartbeat CPU  0 instructions:   71000003 cycles:   49544108 heartbeat IPC: 1.42321 cumulative IPC: 1.43307 (Simulation time: 0 hr 2 min 47 sec) 
Heartbeat CPU  0 instructions:   72000000 cycles:   50246206 heartbeat IPC: 1.42430 cumulative IPC: 1.43294 (Simulation time: 0 hr 2 min 49 sec) 
Heartbeat CPU  0 instructions:   73000001 cycles:   50948316 heartbeat IPC: 1.42428 cumulative IPC: 1.43282 (Simulation time: 0 hr 2 min 51 sec) 
Heartbeat CPU  0 instructions:   74000003 cycles:   51650697 heartbeat IPC: 1.42373 cumulative IPC: 1.43270 (Simulation time: 0 hr 2 min 54 sec) 
Heartbeat CPU  0 instructions:   75000002 cycles:   52353405 heartbeat IPC: 1.42306 cumulative IPC: 1.43257 (Simulation time: 0 hr 2 min 56 sec) 
Heartbeat CPU  0 instructions:   76000000 cycles:   53055654 heartbeat IPC: 1.42399 cumulative IPC: 1.43246 (Simulation time: 0 hr 2 min 58 sec) 
Heartbeat CPU  0 instructions:   77000003 cycles:   53758301 heartbeat IPC: 1.42319 cumulative IPC: 1.43234 (Simulation time: 0 hr 3 min 1 sec) 
Heartbeat CPU  0 instructions:   78000001 cycles:   54460826 heartbeat IPC: 1.42343 cumulative IPC: 1.43222 (Simulation time: 0 hr 3 min 3 sec) 
Heartbeat CPU  0 instructions:   79000001 cycles:   55162785 heartbeat IPC: 1.42458 cumulative IPC: 1.43212 (Simulation time: 0 hr 3 min 5 sec) 
Heartbeat CPU  0 instructions:   80000000 cycles:   55864832 heartbeat IPC: 1.42440 cumulative IPC: 1.43203 (Simulation time: 0 hr 3 min 8 sec) 
Heartbeat CPU  0 instructions:   81000002 cycles:   56567213 heartbeat IPC: 1.42373 cumulative IPC: 1.43192 (Simulation time: 0 hr 3 min 10 sec) 
Heartbeat CPU  0 instructions:   82000003 cycles:   57269448 heartbeat IPC: 1.42403 cumulative IPC: 1.43183 (Simulation time: 0 hr 3 min 12 sec) 
Heartbeat CPU  0 instructions:   83000001 cycles:   57971703 heartbeat IPC: 1.42398 cumulative IPC: 1.43173 (Simulation time: 0 hr 3 min 15 sec) 
Heartbeat CPU  0 instructions:   84000000 cycles:   58673976 heartbeat IPC: 1.42395 cumulative IPC: 1.43164 (Simulation time: 0 hr 3 min 17 sec) 
Heartbeat CPU  0 instructions:   85000000 cycles:   59362737 heartbeat IPC: 1.45188 cumulative IPC: 1.43187 (Simulation time: 0 hr 3 min 20 sec) 
Heartbeat CPU  0 instructions:   86000002 cycles:   59972379 heartbeat IPC: 1.64031 cumulative IPC: 1.43399 (Simulation time: 0 hr 3 min 22 sec) 
Heartbeat CPU  0 instructions:   87000002 cycles:   60674837 heartbeat IPC: 1.42357 cumulative IPC: 1.43387 (Simulation time: 0 hr 3 min 24 sec) 
Heartbeat CPU  0 instructions:   88000000 cycles:   61377487 heartbeat IPC: 1.42318 cumulative IPC: 1.43375 (Simulation time: 0 hr 3 min 27 sec) 
Heartbeat CPU  0 instructions:   89000001 cycles:   62079522 heartbeat IPC: 1.42443 cumulative IPC: 1.43365 (Simulation time: 0 hr 3 min 29 sec) 
Heartbeat CPU  0 instructions:   90000003 cycles:   62781901 heartbeat IPC: 1.42374 cumulative IPC: 1.43353 (Simulation time: 0 hr 3 min 31 sec) 
Heartbeat CPU  0 instructions:   91000003 cycles:   63484341 heartbeat IPC: 1.42361 cumulative IPC: 1.43342 (Simulation time: 0 hr 3 min 34 sec) 
Heartbeat CPU  0 instructions:   92000000 cycles:   64186575 heartbeat IPC: 1.42402 cumulative IPC: 1.43332 (Simulation time: 0 hr 3 min 36 sec) 
Heartbeat CPU  0 instructions:   93000002 cycles:   64888991 heartbeat IPC: 1.42366 cumulative IPC: 1.43322 (Simulation time: 0 hr 3 min 38 sec) 
Heartbeat CPU  0 instructions:   94000002 cycles:   65591009 heartbeat IPC: 1.42446 cumulative IPC: 1.43312 (Simulation time: 0 hr 3 min 41 sec) 
Heartbeat CPU  0 instructions:   95000003 cycles:   66293225 heartbeat IPC: 1.42406 cumulative IPC: 1.43303 (Simulation time: 0 hr 3 min 43 sec) 
Heartbeat CPU  0 instructions:   96000000 cycles:   66995564 heartbeat IPC: 1.42381 cumulative IPC: 1.43293 (Simulation time: 0 hr 3 min 45 sec) 
Heartbeat CPU  0 instructions:   97000000 cycles:   67697961 heartbeat IPC: 1.42370 cumulative IPC: 1.43283 (Simulation time: 0 hr 3 min 48 sec) 
Heartbeat CPU  0 instructions:   98000002 cycles:   68400208 heartbeat IPC: 1.42400 cumulative IPC: 1.43274 (Simulation time: 0 hr 3 min 50 sec) 
Heartbeat CPU  0 instructions:   99000003 cycles:   69102450 heartbeat IPC: 1.42401 cumulative IPC: 1.43266 (Simulation time: 0 hr 3 min 53 sec) 
Heartbeat CPU  0 instructions:  100000000 cycles:   69804809 heartbeat IPC: 1.42377 cumulative IPC: 1.43257 (Simulation time: 0 hr 3 min 55 sec) 

Warmup complete CPU  0 instructions:  100000001 cycles:   69804829 (Simulation time: 0 hr 3 min 55 sec) 

Heartbeat CPU  0 instructions:  101000000 cycles:   71855607 heartbeat IPC: 0.48762 cumulative IPC: 0.48762 (Simulation time: 0 hr 3 min 58 sec) 
Heartbeat CPU  0 instructions:  102000003 cycles:   73751780 heartbeat IPC: 0.52738 cumulative IPC: 0.50672 (Simulation time: 0 hr 4 min 1 sec) 
Heartbeat CPU  0 instructions:  103000003 cycles:   75753094 heartbeat IPC: 0.49967 cumulative IPC: 0.50435 (Simulation time: 0 hr 4 min 3 sec) 
Heartbeat CPU  0 instructions:  104000000 cycles:   77772417 heartbeat IPC: 0.49521 cumulative IPC: 0.50203 (Simulation time: 0 hr 4 min 6 sec) 
Heartbeat CPU  0 instructions:  105000002 cycles:   79746738 heartbeat IPC: 0.50650 cumulative IPC: 0.50292 (Simulation time: 0 hr 4 min 9 sec) 
Heartbeat CPU  0 instructions:  106000000 cycles:   81644198 heartbeat IPC: 0.52702 cumulative IPC: 0.50678 (Simulation time: 0 hr 4 min 12 sec) 
Heartbeat CPU  0 instructions:  107000003 cycles:   83661175 heartbeat IPC: 0.49579 cumulative IPC: 0.50518 (Simulation time: 0 hr 4 min 15 sec) 
Heartbeat CPU  0 instructions:  108000000 cycles:   96372425 heartbeat IPC: 0.07867 cumulative IPC: 0.30112 (Simulation time: 0 hr 4 min 20 sec) 
Heartbeat CPU  0 instructions:  109000003 cycles:  104590163 heartbeat IPC: 0.12169 cumulative IPC: 0.25873 (Simulation time: 0 hr 4 min 24 sec) 
Heartbeat CPU  0 instructions:  110000001 cycles:  106590529 heartbeat IPC: 0.49991 cumulative IPC: 0.27184 (Simulation time: 0 hr 4 min 27 sec) 
Heartbeat CPU  0 instructions:  111000000 cycles:  108606567 heartbeat IPC: 0.49602 cumulative IPC: 0.28349 (Simulation time: 0 hr 4 min 30 sec) 
Heartbeat CPU  0 instructions:  112000000 cycles:  110508549 heartbeat IPC: 0.52577 cumulative IPC: 0.29481 (Simulation time: 0 hr 4 min 33 sec) 
Heartbeat CPU  0 instructions:  113000000 cycles:  112490102 heartbeat IPC: 0.50465 cumulative IPC: 0.30455 (Simulation time: 0 hr 4 min 35 sec) 
Heartbeat CPU  0 instructions:  114000000 cycles:  114533681 heartbeat IPC: 0.48934 cumulative IPC: 0.31300 (Simulation time: 0 hr 4 min 38 sec) 
Heartbeat CPU  0 instructions:  115000001 cycles:  116483399 heartbeat IPC: 0.51290 cumulative IPC: 0.32135 (Simulation time: 0 hr 4 min 41 sec) 
Heartbeat CPU  0 instructions:  116000000 cycles:  118400853 heartbeat IPC: 0.52152 cumulative IPC: 0.32925 (Simulation time: 0 hr 4 min 44 sec) 
Heartbeat CPU  0 instructions:  117000003 cycles:  120434724 heartbeat IPC: 0.49167 cumulative IPC: 0.33577 (Simulation time: 0 hr 4 min 47 sec) 
Heartbeat CPU  0 instructions:  118000002 cycles:  122445908 heartbeat IPC: 0.49722 cumulative IPC: 0.34194 (Simulation time: 0 hr 4 min 50 sec) 
Heartbeat CPU  0 instructions:  119000002 cycles:  124308515 heartbeat IPC: 0.53688 cumulative IPC: 0.34860 (Simulation time: 0 hr 4 min 52 sec) 
Heartbeat CPU  0 instructions:  120000000 cycles:  126314855 heartbeat IPC: 0.49842 cumulative IPC: 0.35392 (Simulation time: 0 hr 4 min 55 sec) 
Heartbeat CPU  0 instructions:  121000003 cycles:  128320364 heartbeat IPC: 0.49863 cumulative IPC: 0.35888 (Simulation time: 0 hr 4 min 58 sec) 
Heartbeat CPU  0 instructions:  122000000 cycles:  130206824 heartbeat IPC: 0.53009 cumulative IPC: 0.36423 (Simulation time: 0 hr 5 min 1 sec) 
Heartbeat CPU  0 instructions:  123000002 cycles:  132166522 heartbeat IPC: 0.51028 cumulative IPC: 0.36882 (Simulation time: 0 hr 5 min 4 sec) 
Heartbeat CPU  0 instructions:  124000000 cycles:  134182082 heartbeat IPC: 0.49614 cumulative IPC: 0.37280 (Simulation time: 0 hr 5 min 7 sec) 
Heartbeat CPU  0 instructions:  125000000 cycles:  136147186 heartbeat IPC: 0.50888 cumulative IPC: 0.37683 (Simulation time: 0 hr 5 min 9 sec) 
Heartbeat CPU  0 instructions:  126000002 cycles:  138060719 heartbeat IPC: 0.52259 cumulative IPC: 0.38092 (Simulation time: 0 hr 5 min 12 sec) 
Heartbeat CPU  0 instructions:  127000002 cycles:  140186518 heartbeat IPC: 0.47041 cumulative IPC: 0.38362 (Simulation time: 0 hr 5 min 15 sec) 
Heartbeat CPU  0 instructions:  128000000 cycles:  142204247 heartbeat IPC: 0.49561 cumulative IPC: 0.38674 (Simulation time: 0 hr 5 min 18 sec) 
Heartbeat CPU  0 instructions:  129000001 cycles:  144062735 heartbeat IPC: 0.53807 cumulative IPC: 0.39053 (Simulation time: 0 hr 5 min 21 sec) 
Heartbeat CPU  0 instructions:  130000001 cycles:  150364196 heartbeat IPC: 0.15869 cumulative IPC: 0.37240 (Simulation time: 0 hr 5 min 24 sec) 
Heartbeat CPU  0 instructions:  131000003 cycles:  165130245 heartbeat IPC: 0.06772 cumulative IPC: 0.32520 (Simulation time: 0 hr 5 min 30 sec) 
Heartbeat CPU  0 instructions:  132000000 cycles:  167041149 heartbeat IPC: 0.52331 cumulative IPC: 0.32910 (Simulation time: 0 hr 5 min 33 sec) 
Heartbeat CPU  0 instructions:  133000000 cycles:  169014681 heartbeat IPC: 0.50671 cumulative IPC: 0.33263 (Simulation time: 0 hr 5 min 36 sec) 
Heartbeat CPU  0 instructions:  134000000 cycles:  171043704 heartbeat IPC: 0.49285 cumulative IPC: 0.33584 (Simulation time: 0 hr 5 min 38 sec) 
Heartbeat CPU  0 instructions:  135000000 cycles:  173024791 heartbeat IPC: 0.50477 cumulative IPC: 0.33908 (Simulation time: 0 hr 5 min 41 sec) 
Heartbeat CPU  0 instructions:  136000000 cycles:  174924646 heartbeat IPC: 0.52636 cumulative IPC: 0.34247 (Simulation time: 0 hr 5 min 44 sec) 
Heartbeat CPU  0 instructions:  137000002 cycles:  176939314 heartbeat IPC: 0.49636 cumulative IPC: 0.34536 (Simulation time: 0 hr 5 min 47 sec) 
Heartbeat CPU  0 instructions:  138000000 cycles:  178962355 heartbeat IPC: 0.49430 cumulative IPC: 0.34812 (Simulation time: 0 hr 5 min 50 sec) 
Heartbeat CPU  0 instructions:  139000001 cycles:  180821099 heartbeat IPC: 0.53800 cumulative IPC: 0.35130 (Simulation time: 0 hr 5 min 53 sec) 
Heartbeat CPU  0 instructions:  140000000 cycles:  182869354 heartbeat IPC: 0.48822 cumulative IPC: 0.35378 (Simulation time: 0 hr 5 min 56 sec) 
Heartbeat CPU  0 instructions:  141000000 cycles:  184904035 heartbeat IPC: 0.49148 cumulative IPC: 0.35621 (Simulation time: 0 hr 5 min 58 sec) 
Heartbeat CPU  0 instructions:  142000001 cycles:  186802476 heartbeat IPC: 0.52675 cumulative IPC: 0.35898 (Simulation time: 0 hr 6 min 1 sec) 
Heartbeat CPU  0 instructions:  143000001 cycles:  188760421 heartbeat IPC: 0.51074 cumulative IPC: 0.36148 (Simulation time: 0 hr 6 min 4 sec) 
Heartbeat CPU  0 instructions:  144000000 cycles:  190784640 heartbeat IPC: 0.49402 cumulative IPC: 0.36370 (Simulation time: 0 hr 6 min 7 sec) 
Heartbeat CPU  0 instructions:  145000000 cycles:  192768863 heartbeat IPC: 0.50398 cumulative IPC: 0.36596 (Simulation time: 0 hr 6 min 10 sec) 
Heartbeat CPU  0 instructions:  146000002 cycles:  194655642 heartbeat IPC: 0.53000 cumulative IPC: 0.36844 (Simulation time: 0 hr 6 min 13 sec) 
Heartbeat CPU  0 instructions:  147000003 cycles:  196679420 heartbeat IPC: 0.49413 cumulative IPC: 0.37044 (Simulation time: 0 hr 6 min 15 sec) 
Heartbeat CPU  0 instructions:  148000000 cycles:  198692745 heartbeat IPC: 0.49669 cumulative IPC: 0.37242 (Simulation time: 0 hr 6 min 18 sec) 
Heartbeat CPU  0 instructions:  149000002 cycles:  200553443 heartbeat IPC: 0.53743 cumulative IPC: 0.37476 (Simulation time: 0 hr 6 min 21 sec) 
Heartbeat CPU  0 instructions:  150000003 cycles:  202562709 heartbeat IPC: 0.49769 cumulative IPC: 0.37663 (Simulation time: 0 hr 6 min 24 sec) 
Heartbeat CPU  0 instructions:  151000003 cycles:  204579163 heartbeat IPC: 0.49592 cumulative IPC: 0.37841 (Simulation time: 0 hr 6 min 27 sec) 
Heartbeat CPU  0 instructions:  152000000 cycles:  206539342 heartbeat IPC: 0.51016 cumulative IPC: 0.38030 (Simulation time: 0 hr 6 min 30 sec) 
Heartbeat CPU  0 instructions:  153000003 cycles:  221692728 heartbeat IPC: 0.06599 cumulative IPC: 0.34894 (Simulation time: 0 hr 6 min 35 sec) 
Heartbeat CPU  0 instructions:  154000000 cycles:  227635284 heartbeat IPC: 0.16828 cumulative IPC: 0.34214 (Simulation time: 0 hr 6 min 39 sec) 
Heartbeat CPU  0 instructions:  155000000 cycles:  229615588 heartbeat IPC: 0.50497 cumulative IPC: 0.34416 (Simulation time: 0 hr 6 min 42 sec) 
Heartbeat CPU  0 instructions:  156000000 cycles:  231489179 heartbeat IPC: 0.53373 cumulative IPC: 0.34635 (Simulation time: 0 hr 6 min 45 sec) 
Heartbeat CPU  0 instructions:  157000001 cycles:  233530350 heartbeat IPC: 0.48992 cumulative IPC: 0.34814 (Simulation time: 0 hr 6 min 47 sec) 
Heartbeat CPU  0 instructions:  158000001 cycles:  235546250 heartbeat IPC: 0.49606 cumulative IPC: 0.34994 (Simulation time: 0 hr 6 min 50 sec) 
Heartbeat CPU  0 instructions:  159000000 cycles:  237395783 heartbeat IPC: 0.54068 cumulative IPC: 0.35205 (Simulation time: 0 hr 6 min 53 sec) 
Heartbeat CPU  0 instructions:  160000000 cycles:  239393377 heartbeat IPC: 0.50060 cumulative IPC: 0.35380 (Simulation time: 0 hr 6 min 56 sec) 
Heartbeat CPU  0 instructions:  161000003 cycles:  241427609 heartbeat IPC: 0.49159 cumulative IPC: 0.35543 (Simulation time: 0 hr 6 min 59 sec) 
Heartbeat CPU  0 instructions:  162000000 cycles:  243351864 heartbeat IPC: 0.51968 cumulative IPC: 0.35725 (Simulation time: 0 hr 7 min 2 sec) 
Heartbeat CPU  0 instructions:  163000003 cycles:  245274749 heartbeat IPC: 0.52005 cumulative IPC: 0.35904 (Simulation time: 0 hr 7 min 4 sec) 
Heartbeat CPU  0 instructions:  164000000 cycles:  247311794 heartbeat IPC: 0.49091 cumulative IPC: 0.36055 (Simulation time: 0 hr 7 min 7 sec) 
Heartbeat CPU  0 instructions:  165000000 cycles:  249303579 heartbeat IPC: 0.50206 cumulative IPC: 0.36212 (Simulation time: 0 hr 7 min 10 sec) 
Heartbeat CPU  0 instructions:  166000001 cycles:  251161626 heartbeat IPC: 0.53820 cumulative IPC: 0.36392 (Simulation time: 0 hr 7 min 13 sec) 
Heartbeat CPU  0 instructions:  167000000 cycles:  253157443 heartbeat IPC: 0.50105 cumulative IPC: 0.36542 (Simulation time: 0 hr 7 min 16 sec) 
Heartbeat CPU  0 instructions:  168000000 cycles:  255187922 heartbeat IPC: 0.49249 cumulative IPC: 0.36681 (Simulation time: 0 hr 7 min 19 sec) 
Heartbeat CPU  0 instructions:  169000001 cycles:  257059330 heartbeat IPC: 0.53436 cumulative IPC: 0.36848 (Simulation time: 0 hr 7 min 21 sec) 
Heartbeat CPU  0 instructions:  170000002 cycles:  259041741 heartbeat IPC: 0.50444 cumulative IPC: 0.36991 (Simulation time: 0 hr 7 min 24 sec) 
Heartbeat CPU  0 instructions:  171000001 cycles:  261076361 heartbeat IPC: 0.49149 cumulative IPC: 0.37120 (Simulation time: 0 hr 7 min 27 sec) 
Heartbeat CPU  0 instructions:  172000000 cycles:  263026407 heartbeat IPC: 0.51281 cumulative IPC: 0.37263 (Simulation time: 0 hr 7 min 30 sec) 
Heartbeat CPU  0 instructions:  173000000 cycles:  264956651 heartbeat IPC: 0.51807 cumulative IPC: 0.37407 (Simulation time: 0 hr 7 min 33 sec) 
Heartbeat CPU  0 instructions:  174000003 cycles:  266985221 heartbeat IPC: 0.49296 cumulative IPC: 0.37529 (Simulation time: 0 hr 7 min 36 sec) 
Heartbeat CPU  0 instructions:  175000000 cycles:  275282647 heartbeat IPC: 0.12052 cumulative IPC: 0.36500 (Simulation time: 0 hr 7 min 40 sec) 
Heartbeat CPU  0 instructions:  176000000 cycles:  287816082 heartbeat IPC: 0.07979 cumulative IPC: 0.34861 (Simulation time: 0 hr 7 min 45 sec) 
Heartbeat CPU  0 instructions:  177000001 cycles:  289918591 heartbeat IPC: 0.47562 cumulative IPC: 0.34982 (Simulation time: 0 hr 7 min 48 sec) 
Heartbeat CPU  0 instructions:  178000003 cycles:  292090980 heartbeat IPC: 0.46032 cumulative IPC: 0.35090 (Simulation time: 0 hr 7 min 51 sec) 
Heartbeat CPU  0 instructions:  179000002 cycles:  294125359 heartbeat IPC: 0.49155 cumulative IPC: 0.35217 (Simulation time: 0 hr 7 min 54 sec) 
Heartbeat CPU  0 instructions:  180000000 cycles:  296147149 heartbeat IPC: 0.49461 cumulative IPC: 0.35345 (Simulation time: 0 hr 7 min 56 sec) 
Heartbeat CPU  0 instructions:  181000003 cycles:  298183869 heartbeat IPC: 0.49099 cumulative IPC: 0.35467 (Simulation time: 0 hr 7 min 59 sec) 
Heartbeat CPU  0 instructions:  182000003 cycles:  300117943 heartbeat IPC: 0.51704 cumulative IPC: 0.35604 (Simulation time: 0 hr 8 min 2 sec) 
Heartbeat CPU  0 instructions:  183000000 cycles:  302078948 heartbeat IPC: 0.50994 cumulative IPC: 0.35734 (Simulation time: 0 hr 8 min 5 sec) 
Heartbeat CPU  0 instructions:  184000000 cycles:  304138414 heartbeat IPC: 0.48556 cumulative IPC: 0.35846 (Simulation time: 0 hr 8 min 8 sec) 
Heartbeat CPU  0 instructions:  185000002 cycles:  306161793 heartbeat IPC: 0.49422 cumulative IPC: 0.35963 (Simulation time: 0 hr 8 min 11 sec) 
Heartbeat CPU  0 instructions:  186000001 cycles:  308043486 heartbeat IPC: 0.53144 cumulative IPC: 0.36098 (Simulation time: 0 hr 8 min 13 sec) 
Heartbeat CPU  0 instructions:  187000000 cycles:  310086939 heartbeat IPC: 0.48937 cumulative IPC: 0.36207 (Simulation time: 0 hr 8 min 16 sec) 
Heartbeat CPU  0 instructions:  188000000 cycles:  312133760 heartbeat IPC: 0.48856 cumulative IPC: 0.36314 (Simulation time: 0 hr 8 min 19 sec) 
Heartbeat CPU  0 instructions:  189000000 cycles:  314033401 heartbeat IPC: 0.52642 cumulative IPC: 0.36441 (Simulation time: 0 hr 8 min 22 sec) 
Heartbeat CPU  0 instructions:  190000000 cycles:  316035186 heartbeat IPC: 0.49955 cumulative IPC: 0.36551 (Simulation time: 0 hr 8 min 25 sec) 
Heartbeat CPU  0 instructions:  191000000 cycles:  318092575 heartbeat IPC: 0.48605 cumulative IPC: 0.36651 (Simulation time: 0 hr 8 min 28 sec) 
Heartbeat CPU  0 instructions:  192000000 cycles:  320059343 heartbeat IPC: 0.50845 cumulative IPC: 0.36763 (Simulation time: 0 hr 8 min 30 sec) 
Heartbeat CPU  0 instructions:  193000001 cycles:  321982140 heartbeat IPC: 0.52008 cumulative IPC: 0.36879 (Simulation time: 0 hr 8 min 33 sec) 
Heartbeat CPU  0 instructions:  194000000 cycles:  324022912 heartbeat IPC: 0.49001 cumulative IPC: 0.36976 (Simulation time: 0 hr 8 min 36 sec) 
Heartbeat CPU  0 instructions:  195000002 cycles:  326053482 heartbeat IPC: 0.49247 cumulative IPC: 0.37073 (Simulation time: 0 hr 8 min 39 sec) 
Heartbeat CPU  0 instructions:  196000000 cycles:  327932933 heartbeat IPC: 0.53207 cumulative IPC: 0.37191 (Simulation time: 0 hr 8 min 42 sec) 
Heartbeat CPU  0 instructions:  197000000 cycles:  330079508 heartbeat IPC: 0.46586 cumulative IPC: 0.37268 (Simulation time: 0 hr 8 min 44 sec) 
Heartbeat CPU  0 instructions:  198000003 cycles:  347215648 heartbeat IPC: 0.05836 cumulative IPC: 0.35327 (Simulation time: 0 hr 8 min 50 sec) 
Heartbeat CPU  0 instructions:  199000001 cycles:  350987254 heartbeat IPC: 0.26514 cumulative IPC: 0.35208 (Simulation time: 0 hr 8 min 54 sec) 
Heartbeat CPU  0 instructions:  200000000 cycles:  352990703 heartbeat IPC: 0.49914 cumulative IPC: 0.35312 (Simulation time: 0 hr 8 min 57 sec) 
Heartbeat CPU  0 instructions:  201000002 cycles:  355040319 heartbeat IPC: 0.48790 cumulative IPC: 0.35409 (Simulation time: 0 hr 9 min 0 sec) 
Heartbeat CPU  0 instructions:  202000003 cycles:  357024463 heartbeat IPC: 0.50400 cumulative IPC: 0.35513 (Simulation time: 0 hr 9 min 2 sec) 
Heartbeat CPU  0 instructions:  203000002 cycles:  358941625 heartbeat IPC: 0.52160 cumulative IPC: 0.35623 (Simulation time: 0 hr 9 min 5 sec) 
Heartbeat CPU  0 instructions:  204000000 cycles:  361002486 heartbeat IPC: 0.48523 cumulative IPC: 0.35715 (Simulation time: 0 hr 9 min 8 sec) 
Heartbeat CPU  0 instructions:  205000002 cycles:  363015773 heartbeat IPC: 0.49670 cumulative IPC: 0.35810 (Simulation time: 0 hr 9 min 11 sec) 
Heartbeat CPU  0 instructions:  206000000 cycles:  364885635 heartbeat IPC: 0.53480 cumulative IPC: 0.35922 (Simulation time: 0 hr 9 min 14 sec) 
Heartbeat CPU  0 instructions:  207000002 cycles:  366912160 heartbeat IPC: 0.49346 cumulative IPC: 0.36014 (Simulation time: 0 hr 9 min 17 sec) 
Heartbeat CPU  0 instructions:  208000000 cycles:  368946517 heartbeat IPC: 0.49155 cumulative IPC: 0.36103 (Simulation time: 0 hr 9 min 19 sec) 
Heartbeat CPU  0 instructions:  209000002 cycles:  370865694 heartbeat IPC: 0.52106 cumulative IPC: 0.36205 (Simulation time: 0 hr 9 min 22 sec) 
Heartbeat CPU  0 instructions:  210000000 cycles:  372862210 heartbeat IPC: 0.50087 cumulative IPC: 0.36297 (Simulation time: 0 hr 9 min 25 sec) 
Heartbeat CPU  0 instructions:  211000000 cycles:  374919096 heartbeat IPC: 0.48617 cumulative IPC: 0.36380 (Simulation time: 0 hr 9 min 28 sec) 
Heartbeat CPU  0 instructions:  212000000 cycles:  376902180 heartbeat IPC: 0.50427 cumulative IPC: 0.36471 (Simulation time: 0 hr 9 min 31 sec) 
Heartbeat CPU  0 instructions:  213000003 cycles:  378807893 heartbeat IPC: 0.52474 cumulative IPC: 0.36569 (Simulation time: 0 hr 9 min 34 sec) 
Heartbeat CPU  0 instructions:  214000003 cycles:  380834363 heartbeat IPC: 0.49347 cumulative IPC: 0.36652 (Simulation time: 0 hr 9 min 36 sec) 
Heartbeat CPU  0 instructions:  215000003 cycles:  382862458 heartbeat IPC: 0.49307 cumulative IPC: 0.36734 (Simulation time: 0 hr 9 min 39 sec) 
Heartbeat CPU  0 instructions:  216000000 cycles:  384755861 heartbeat IPC: 0.52815 cumulative IPC: 0.36831 (Simulation time: 0 hr 9 min 42 sec) 
Heartbeat CPU  0 instructions:  217000002 cycles:  386765468 heartbeat IPC: 0.49761 cumulative IPC: 0.36913 (Simulation time: 0 hr 9 min 45 sec) 
Heartbeat CPU  0 instructions:  218000001 cycles:  388802109 heartbeat IPC: 0.49100 cumulative IPC: 0.36991 (Simulation time: 0 hr 9 min 48 sec) 
Heartbeat CPU  0 instructions:  219000002 cycles:  390723143 heartbeat IPC: 0.52055 cumulative IPC: 0.37081 (Simulation time: 0 hr 9 min 51 sec) 
Heartbeat CPU  0 instructions:  220000000 cycles:  401250876 heartbeat IPC: 0.09499 cumulative IPC: 0.36205 (Simulation time: 0 hr 9 min 55 sec) 
Heartbeat CPU  0 instructions:  221000000 cycles:  411760165 heartbeat IPC: 0.09515 cumulative IPC: 0.35385 (Simulation time: 0 hr 10 min 0 sec) 
Heartbeat CPU  0 instructions:  222000000 cycles:  413750539 heartbeat IPC: 0.50242 cumulative IPC: 0.35471 (Simulation time: 0 hr 10 min 3 sec) 
Heartbeat CPU  0 instructions:  223000001 cycles:  415656700 heartbeat IPC: 0.52462 cumulative IPC: 0.35564 (Simulation time: 0 hr 10 min 6 sec) 
Heartbeat CPU  0 instructions:  224000000 cycles:  417698988 heartbeat IPC: 0.48965 cumulative IPC: 0.35643 (Simulation time: 0 hr 10 min 8 sec) 
Heartbeat CPU  0 instructions:  225000002 cycles:  419743081 heartbeat IPC: 0.48922 cumulative IPC: 0.35721 (Simulation time: 0 hr 10 min 11 sec) 
Heartbeat CPU  0 instructions:  226000002 cycles:  421617296 heartbeat IPC: 0.53356 cumulative IPC: 0.35815 (Simulation time: 0 hr 10 min 14 sec) 
Heartbeat CPU  0 instructions:  227000003 cycles:  423632493 heartbeat IPC: 0.49623 cumulative IPC: 0.35893 (Simulation time: 0 hr 10 min 17 sec) 
Heartbeat CPU  0 instructions:  228000000 cycles:  425659836 heartbeat IPC: 0.49325 cumulative IPC: 0.35970 (Simulation time: 0 hr 10 min 20 sec) 
Heartbeat CPU  0 instructions:  229000003 cycles:  427746439 heartbeat IPC: 0.47925 cumulative IPC: 0.36039 (Simulation time: 0 hr 10 min 23 sec) 
Heartbeat CPU  0 instructions:  230000001 cycles:  429708966 heartbeat IPC: 0.50955 cumulative IPC: 0.36121 (Simulation time: 0 hr 10 min 25 sec) 
Heartbeat CPU  0 instructions:  231000003 cycles:  431747358 heartbeat IPC: 0.49058 cumulative IPC: 0.36194 (Simulation time: 0 hr 10 min 28 sec) 
Heartbeat CPU  0 instructions:  232000000 cycles:  433739532 heartbeat IPC: 0.50196 cumulative IPC: 0.36270 (Simulation time: 0 hr 10 min 31 sec) 
Heartbeat CPU  0 instructions:  233000002 cycles:  435645695 heartbeat IPC: 0.52462 cumulative IPC: 0.36355 (Simulation time: 0 hr 10 min 34 sec) 
Heartbeat CPU  0 instructions:  234000001 cycles:  437684910 heartbeat IPC: 0.49038 cumulative IPC: 0.36425 (Simulation time: 0 hr 10 min 37 sec) 
Heartbeat CPU  0 instructions:  235000003 cycles:  439710601 heartbeat IPC: 0.49366 cumulative IPC: 0.36496 (Simulation time: 0 hr 10 min 40 sec) 
Heartbeat CPU  0 instructions:  236000000 cycles:  441615195 heartbeat IPC: 0.52504 cumulative IPC: 0.36578 (Simulation time: 0 hr 10 min 42 sec) 
Heartbeat CPU  0 instructions:  237000002 cycles:  443618712 heartbeat IPC: 0.49912 cumulative IPC: 0.36649 (Simulation time: 0 hr 10 min 45 sec) 
Heartbeat CPU  0 instructions:  238000002 cycles:  445650112 heartbeat IPC: 0.49227 cumulative IPC: 0.36717 (Simulation time: 0 hr 10 min 48 sec) 
Heartbeat CPU  0 instructions:  239000001 cycles:  447621038 heartbeat IPC: 0.50738 cumulative IPC: 0.36790 (Simulation time: 0 hr 10 min 51 sec) 
Heartbeat CPU  0 instructions:  240000000 cycles:  449554904 heartbeat IPC: 0.51710 cumulative IPC: 0.36866 (Simulation time: 0 hr 10 min 54 sec) 
Heartbeat CPU  0 instructions:  241000003 cycles:  451597278 heartbeat IPC: 0.48963 cumulative IPC: 0.36931 (Simulation time: 0 hr 10 min 57 sec) 
Heartbeat CPU  0 instructions:  242000002 cycles:  455785611 heartbeat IPC: 0.23876 cumulative IPC: 0.36789 (Simulation time: 0 hr 11 min 0 sec) 
Heartbeat CPU  0 instructions:  243000003 cycles:  472657816 heartbeat IPC: 0.05927 cumulative IPC: 0.35497 (Simulation time: 0 hr 11 min 6 sec) 
Heartbeat CPU  0 instructions:  244000000 cycles:  474715029 heartbeat IPC: 0.48609 cumulative IPC: 0.35563 (Simulation time: 0 hr 11 min 9 sec) 
Heartbeat CPU  0 instructions:  245000000 cycles:  476757456 heartbeat IPC: 0.48961 cumulative IPC: 0.35631 (Simulation time: 0 hr 11 min 12 sec) 
Heartbeat CPU  0 instructions:  246000000 cycles:  478655154 heartbeat IPC: 0.52695 cumulative IPC: 0.35710 (Simulation time: 0 hr 11 min 14 sec) 
Heartbeat CPU  0 instructions:  247000000 cycles:  480649593 heartbeat IPC: 0.50139 cumulative IPC: 0.35780 (Simulation time: 0 hr 11 min 17 sec) 
Heartbeat CPU  0 instructions:  248000000 cycles:  482693330 heartbeat IPC: 0.48930 cumulative IPC: 0.35845 (Simulation time: 0 hr 11 min 20 sec) 
Heartbeat CPU  0 instructions:  249000001 cycles:  484641685 heartbeat IPC: 0.51325 cumulative IPC: 0.35918 (Simulation time: 0 hr 11 min 23 sec) 
Heartbeat CPU  0 instructions:  250000003 cycles:  486578653 heartbeat IPC: 0.51627 cumulative IPC: 0.35991 (Simulation time: 0 hr 11 min 26 sec) 
Heartbeat CPU  0 instructions:  251000002 cycles:  488627820 heartbeat IPC: 0.48800 cumulative IPC: 0.36053 (Simulation time: 0 hr 11 min 29 sec) 
Heartbeat CPU  0 instructions:  252000000 cycles:  490647036 heartbeat IPC: 0.49524 cumulative IPC: 0.36118 (Simulation time: 0 hr 11 min 31 sec) 
Heartbeat CPU  0 instructions:  253000000 cycles:  492534384 heartbeat IPC: 0.52984 cumulative IPC: 0.36193 (Simulation time: 0 hr 11 min 34 sec) 
Heartbeat CPU  0 instructions:  254000002 cycles:  494568589 heartbeat IPC: 0.49159 cumulative IPC: 0.36255 (Simulation time: 0 hr 11 min 37 sec) 
Heartbeat CPU  0 instructions:  255000000 cycles:  496620695 heartbeat IPC: 0.48730 cumulative IPC: 0.36315 (Simulation time: 0 hr 11 min 40 sec) 
Heartbeat CPU  0 instructions:  256000000 cycles:  498524195 heartbeat IPC: 0.52535 cumulative IPC: 0.36387 (Simulation time: 0 hr 11 min 43 sec) 
Heartbeat CPU  0 instructions:  257000000 cycles:  500536865 heartbeat IPC: 0.49685 cumulative IPC: 0.36450 (Simulation time: 0 hr 11 min 46 sec) 
Heartbeat CPU  0 instructions:  258000003 cycles:  502588246 heartbeat IPC: 0.48748 cumulative IPC: 0.36508 (Simulation time: 0 hr 11 min 48 sec) 
Heartbeat CPU  0 instructions:  259000000 cycles:  504569568 heartbeat IPC: 0.50471 cumulative IPC: 0.36572 (Simulation time: 0 hr 11 min 51 sec) 
Heartbeat CPU  0 instructions:  260000000 cycles:  506485155 heartbeat IPC: 0.52203 cumulative IPC: 0.36640 (Simulation time: 0 hr 11 min 54 sec) 
Heartbeat CPU  0 instructions:  261000000 cycles:  508520041 heartbeat IPC: 0.49143 cumulative IPC: 0.36698 (Simulation time: 0 hr 11 min 57 sec) 
Heartbeat CPU  0 instructions:  262000002 cycles:  510558460 heartbeat IPC: 0.49058 cumulative IPC: 0.36755 (Simulation time: 0 hr 12 min 0 sec) 
Heartbeat CPU  0 instructions:  263000001 cycles:  512441086 heartbeat IPC: 0.53117 cumulative IPC: 0.36825 (Simulation time: 0 hr 12 min 3 sec) 
Heartbeat CPU  0 instructions:  264000000 cycles:  514463389 heartbeat IPC: 0.49449 cumulative IPC: 0.36882 (Simulation time: 0 hr 12 min 5 sec) 
Heartbeat CPU  0 instructions:  265000002 cycles:  527302685 heartbeat IPC: 0.07789 cumulative IPC: 0.36066 (Simulation time: 0 hr 12 min 10 sec) 
Heartbeat CPU  0 instructions:  266000001 cycles:  535530094 heartbeat IPC: 0.12154 cumulative IPC: 0.35643 (Simulation time: 0 hr 12 min 15 sec) 
Heartbeat CPU  0 instructions:  267000002 cycles:  537527785 heartbeat IPC: 0.50058 cumulative IPC: 0.35705 (Simulation time: 0 hr 12 min 18 sec) 
Heartbeat CPU  0 instructions:  268000000 cycles:  539553093 heartbeat IPC: 0.49375 cumulative IPC: 0.35764 (Simulation time: 0 hr 12 min 20 sec) 
Heartbeat CPU  0 instructions:  269000000 cycles:  541542448 heartbeat IPC: 0.50268 cumulative IPC: 0.35825 (Simulation time: 0 hr 12 min 23 sec) 
Heartbeat CPU  0 instructions:  270000003 cycles:  543464337 heartbeat IPC: 0.52032 cumulative IPC: 0.35891 (Simulation time: 0 hr 12 min 26 sec) 
Heartbeat CPU  0 instructions:  271000002 cycles:  545501844 heartbeat IPC: 0.49080 cumulative IPC: 0.35947 (Simulation time: 0 hr 12 min 29 sec) 
Heartbeat CPU  0 instructions:  272000000 cycles:  547538270 heartbeat IPC: 0.49106 cumulative IPC: 0.36003 (Simulation time: 0 hr 12 min 32 sec) 
Heartbeat CPU  0 instructions:  273000002 cycles:  549431954 heartbeat IPC: 0.52807 cumulative IPC: 0.36070 (Simulation time: 0 hr 12 min 35 sec) 
Heartbeat CPU  0 instructions:  274000000 cycles:  551448438 heartbeat IPC: 0.49591 cumulative IPC: 0.36126 (Simulation time: 0 hr 12 min 37 sec) 
Heartbeat CPU  0 instructions:  275000000 cycles:  553487979 heartbeat IPC: 0.49031 cumulative IPC: 0.36181 (Simulation time: 0 hr 12 min 40 sec) 
Heartbeat CPU  0 instructions:  276000000 cycles:  555409274 heartbeat IPC: 0.52048 cumulative IPC: 0.36243 (Simulation time: 0 hr 12 min 43 sec) 
Heartbeat CPU  0 instructions:  277000001 cycles:  557386456 heartbeat IPC: 0.50577 cumulative IPC: 0.36302 (Simulation time: 0 hr 12 min 46 sec) 
Heartbeat CPU  0 instructions:  278000000 cycles:  559431377 heartbeat IPC: 0.48902 cumulative IPC: 0.36354 (Simulation time: 0 hr 12 min 49 sec) 
Heartbeat CPU  0 instructions:  279000003 cycles:  561531399 heartbeat IPC: 0.47619 cumulative IPC: 0.36402 (Simulation time: 0 hr 12 min 52 sec) 
Heartbeat CPU  0 instructions:  280000000 cycles:  563569193 heartbeat IPC: 0.49073 cumulative IPC: 0.36455 (Simulation time: 0 hr 12 min 54 sec) 
Heartbeat CPU  0 instructions:  281000002 cycles:  565712313 heartbeat IPC: 0.46661 cumulative IPC: 0.36499 (Simulation time: 0 hr 12 min 57 sec) 
Heartbeat CPU  0 instructions:  282000002 cycles:  567755496 heartbeat IPC: 0.48943 cumulative IPC: 0.36550 (Simulation time: 0 hr 13 min 0 sec) 
Heartbeat CPU  0 instructions:  283000000 cycles:  569635292 heartbeat IPC: 0.53197 cumulative IPC: 0.36612 (Simulation time: 0 hr 13 min 3 sec) 
Heartbeat CPU  0 instructions:  284000000 cycles:  571645731 heartbeat IPC: 0.49740 cumulative IPC: 0.36665 (Simulation time: 0 hr 13 min 6 sec) 
Heartbeat CPU  0 instructions:  285000001 cycles:  573702431 heartbeat IPC: 0.48622 cumulative IPC: 0.36714 (Simulation time: 0 hr 13 min 8 sec) 
Heartbeat CPU  0 instructions:  286000003 cycles:  575625326 heartbeat IPC: 0.52005 cumulative IPC: 0.36772 (Simulation time: 0 hr 13 min 11 sec) 
Heartbeat CPU  0 instructions:  287000002 cycles:  581978921 heartbeat IPC: 0.15739 cumulative IPC: 0.36511 (Simulation time: 0 hr 13 min 15 sec) 
Heartbeat CPU  0 instructions:  288000000 cycles:  596678661 heartbeat IPC: 0.06803 cumulative IPC: 0.35682 (Simulation time: 0 hr 13 min 21 sec) 
Heartbeat CPU  0 instructions:  289000003 cycles:  598664717 heartbeat IPC: 0.50351 cumulative IPC: 0.35737 (Simulation time: 0 hr 13 min 24 sec) 
Heartbeat CPU  0 instructions:  290000003 cycles:  600571123 heartbeat IPC: 0.52455 cumulative IPC: 0.35797 (Simulation time: 0 hr 13 min 26 sec) 
Heartbeat CPU  0 instructions:  291000002 cycles:  602596697 heartbeat IPC: 0.49369 cumulative IPC: 0.35849 (Simulation time: 0 hr 13 min 29 sec) 
Heartbeat CPU  0 instructions:  292000000 cycles:  604630981 heartbeat IPC: 0.49157 cumulative IPC: 0.35900 (Simulation time: 0 hr 13 min 32 sec) 
Heartbeat CPU  0 instructions:  293000001 cycles:  606540755 heartbeat IPC: 0.52362 cumulative IPC: 0.35958 (Simulation time: 0 hr 13 min 35 sec) 
Heartbeat CPU  0 instructions:  294000000 cycles:  608565569 heartbeat IPC: 0.49387 cumulative IPC: 0.36009 (Simulation time: 0 hr 13 min 38 sec) 
Heartbeat CPU  0 instructions:  295000002 cycles:  610610970 heartbeat IPC: 0.48890 cumulative IPC: 0.36057 (Simulation time: 0 hr 13 min 41 sec) 
Heartbeat CPU  0 instructions:  296000000 cycles:  612545410 heartbeat IPC: 0.51694 cumulative IPC: 0.36113 (Simulation time: 0 hr 13 min 43 sec) 
Heartbeat CPU  0 instructions:  297000001 cycles:  614521534 heartbeat IPC: 0.50604 cumulative IPC: 0.36166 (Simulation time: 0 hr 13 min 46 sec) 
Heartbeat CPU  0 instructions:  298000003 cycles:  616562904 heartbeat IPC: 0.48987 cumulative IPC: 0.36213 (Simulation time: 0 hr 13 min 49 sec) 
Heartbeat CPU  0 instructions:  299000000 cycles:  618569590 heartbeat IPC: 0.49833 cumulative IPC: 0.36263 (Simulation time: 0 hr 13 min 52 sec) 
Heartbeat CPU  0 instructions:  300000000 cycles:  620493164 heartbeat IPC: 0.51987 cumulative IPC: 0.36318 (Simulation time: 0 hr 13 min 55 sec) 
Heartbeat CPU  0 instructions:  301000003 cycles:  622537629 heartbeat IPC: 0.48913 cumulative IPC: 0.36365 (Simulation time: 0 hr 13 min 57 sec) 
Heartbeat CPU  0 instructions:  302000000 cycles:  624583711 heartbeat IPC: 0.48874 cumulative IPC: 0.36411 (Simulation time: 0 hr 14 min 0 sec) 
Heartbeat CPU  0 instructions:  303000000 cycles:  626477346 heartbeat IPC: 0.52808 cumulative IPC: 0.36467 (Simulation time: 0 hr 14 min 3 sec) 
Heartbeat CPU  0 instructions:  304000000 cycles:  628505450 heartbeat IPC: 0.49307 cumulative IPC: 0.36513 (Simulation time: 0 hr 14 min 6 sec) 
Heartbeat CPU  0 instructions:  305000000 cycles:  630545339 heartbeat IPC: 0.49022 cumulative IPC: 0.36559 (Simulation time: 0 hr 14 min 9 sec) 
Heartbeat CPU  0 instructions:  306000002 cycles:  632501755 heartbeat IPC: 0.51114 cumulative IPC: 0.36609 (Simulation time: 0 hr 14 min 12 sec) 
Heartbeat CPU  0 instructions:  307000003 cycles:  634453805 heartbeat IPC: 0.51228 cumulative IPC: 0.36660 (Simulation time: 0 hr 14 min 14 sec) 
Heartbeat CPU  0 instructions:  308000000 cycles:  636490516 heartbeat IPC: 0.49099 cumulative IPC: 0.36705 (Simulation time: 0 hr 14 min 17 sec) 
Heartbeat CPU  0 instructions:  309000003 cycles:  638519048 heartbeat IPC: 0.49297 cumulative IPC: 0.36750 (Simulation time: 0 hr 14 min 20 sec) 
Heartbeat CPU  0 instructions:  310000003 cycles:  653561515 heartbeat IPC: 0.06648 cumulative IPC: 0.35974 (Simulation time: 0 hr 14 min 26 sec) 
Heartbeat CPU  0 instructions:  311000000 cycles:  659400443 heartbeat IPC: 0.17126 cumulative IPC: 0.35787 (Simulation time: 0 hr 14 min 29 sec) 
Heartbeat CPU  0 instructions:  312000000 cycles:  661425327 heartbeat IPC: 0.49386 cumulative IPC: 0.35834 (Simulation time: 0 hr 14 min 32 sec) 
Heartbeat CPU  0 instructions:  313000003 cycles:  663349638 heartbeat IPC: 0.51967 cumulative IPC: 0.35886 (Simulation time: 0 hr 14 min 35 sec) 
Heartbeat CPU  0 instructions:  314000000 cycles:  665364218 heartbeat IPC: 0.49638 cumulative IPC: 0.35933 (Simulation time: 0 hr 14 min 38 sec) 
Heartbeat CPU  0 instructions:  315000000 cycles:  667395291 heartbeat IPC: 0.49235 cumulative IPC: 0.35978 (Simulation time: 0 hr 14 min 41 sec) 
Heartbeat CPU  0 instructions:  316000000 cycles:  669357554 heartbeat IPC: 0.50962 cumulative IPC: 0.36027 (Simulation time: 0 hr 14 min 44 sec) 
Heartbeat CPU  0 instructions:  317000001 cycles:  671313171 heartbeat IPC: 0.51135 cumulative IPC: 0.36076 (Simulation time: 0 hr 14 min 46 sec) 
Heartbeat CPU  0 instructions:  318000002 cycles:  673359581 heartbeat IPC: 0.48866 cumulative IPC: 0.36119 (Simulation time: 0 hr 14 min 49 sec) 
Heartbeat CPU  0 instructions:  319000001 cycles:  675391333 heartbeat IPC: 0.49219 cumulative IPC: 0.36163 (Simulation time: 0 hr 14 min 52 sec) 
Heartbeat CPU  0 instructions:  320000000 cycles:  677288753 heartbeat IPC: 0.52703 cumulative IPC: 0.36215 (Simulation time: 0 hr 14 min 55 sec) 
Heartbeat CPU  0 instructions:  321000002 cycles:  679322627 heartbeat IPC: 0.49167 cumulative IPC: 0.36258 (Simulation time: 0 hr 14 min 58 sec) 
Heartbeat CPU  0 instructions:  322000001 cycles:  681348937 heartbeat IPC: 0.49351 cumulative IPC: 0.36302 (Simulation time: 0 hr 15 min 1 sec) 
Heartbeat CPU  0 instructions:  323000002 cycles:  683255996 heartbeat IPC: 0.52437 cumulative IPC: 0.36352 (Simulation time: 0 hr 15 min 3 sec) 
Heartbeat CPU  0 instructions:  324000000 cycles:  685269570 heartbeat IPC: 0.49663 cumulative IPC: 0.36395 (Simulation time: 0 hr 15 min 6 sec) 
Heartbeat CPU  0 instructions:  325000001 cycles:  687298992 heartbeat IPC: 0.49275 cumulative IPC: 0.36438 (Simulation time: 0 hr 15 min 9 sec) 
Heartbeat CPU  0 instructions:  326000002 cycles:  689267705 heartbeat IPC: 0.50795 cumulative IPC: 0.36483 (Simulation time: 0 hr 15 min 12 sec) 
Heartbeat CPU  0 instructions:  327000002 cycles:  691215544 heartbeat IPC: 0.51339 cumulative IPC: 0.36530 (Simulation time: 0 hr 15 min 15 sec) 
Heartbeat CPU  0 instructions:  328000000 cycles:  693266787 heartbeat IPC: 0.48751 cumulative IPC: 0.36570 (Simulation time: 0 hr 15 min 18 sec) 
Heartbeat CPU  0 instructions:  329000002 cycles:  695287439 heartbeat IPC: 0.49489 cumulative IPC: 0.36612 (Simulation time: 0 hr 15 min 20 sec) 
Heartbeat CPU  0 instructions:  330000001 cycles:  697184209 heartbeat IPC: 0.52721 cumulative IPC: 0.36660 (Simulation time: 0 hr 15 min 23 sec) 
Heartbeat CPU  0 instructions:  331000002 cycles:  699322453 heartbeat IPC: 0.46767 cumulative IPC: 0.36695 (Simulation time: 0 hr 15 min 26 sec) 
Heartbeat CPU  0 instructions:  332000000 cycles:  707786838 heartbeat IPC: 0.11814 cumulative IPC: 0.36365 (Simulation time: 0 hr 15 min 30 sec) 
Heartbeat CPU  0 instructions:  333000000 cycles:  720228398 heartbeat IPC: 0.08038 cumulative IPC: 0.35823 (Simulation time: 0 hr 15 min 35 sec) 
Heartbeat CPU  0 instructions:  334000001 cycles:  722238022 heartbeat IPC: 0.49761 cumulative IPC: 0.35866 (Simulation time: 0 hr 15 min 38 sec) 
Heartbeat CPU  0 instructions:  335000001 cycles:  724273348 heartbeat IPC: 0.49132 cumulative IPC: 0.35907 (Simulation time: 0 hr 15 min 41 sec) 
Heartbeat CPU  0 instructions:  336000000 cycles:  726238552 heartbeat IPC: 0.50885 cumulative IPC: 0.35952 (Simulation time: 0 hr 15 min 44 sec) 
Heartbeat CPU  0 instructions:  337000003 cycles:  728182785 heartbeat IPC: 0.51434 cumulative IPC: 0.35998 (Simulation time: 0 hr 15 min 47 sec) 
Heartbeat CPU  0 instructions:  338000002 cycles:  730228152 heartbeat IPC: 0.48891 cumulative IPC: 0.36037 (Simulation time: 0 hr 15 min 50 sec) 
Heartbeat CPU  0 instructions:  339000000 cycles:  732247979 heartbeat IPC: 0.49509 cumulative IPC: 0.36079 (Simulation time: 0 hr 15 min 53 sec) 
Heartbeat CPU  0 instructions:  340000000 cycles:  734125076 heartbeat IPC: 0.53274 cumulative IPC: 0.36127 (Simulation time: 0 hr 15 min 55 sec) 
Heartbeat CPU  0 instructions:  341000000 cycles:  736150584 heartbeat IPC: 0.49370 cumulative IPC: 0.36167 (Simulation time: 0 hr 15 min 58 sec) 
Heartbeat CPU  0 instructions:  342000001 cycles:  738183640 heartbeat IPC: 0.49187 cumulative IPC: 0.36207 (Simulation time: 0 hr 16 min 1 sec) 
Heartbeat CPU  0 instructions:  343000000 cycles:  740111504 heartbeat IPC: 0.51871 cumulative IPC: 0.36252 (Simulation time: 0 hr 16 min 4 sec) 
Heartbeat CPU  0 instructions:  344000000 cycles:  742105918 heartbeat IPC: 0.50140 cumulative IPC: 0.36293 (Simulation time: 0 hr 16 min 7 sec) 
Heartbeat CPU  0 instructions:  345000000 cycles:  744144976 heartbeat IPC: 0.49042 cumulative IPC: 0.36332 (Simulation time: 0 hr 16 min 10 sec) 
Heartbeat CPU  0 instructions:  346000001 cycles:  746122522 heartbeat IPC: 0.50568 cumulative IPC: 0.36373 (Simulation time: 0 hr 16 min 12 sec) 
Heartbeat CPU  0 instructions:  347000000 cycles:  748037886 heartbeat IPC: 0.52209 cumulative IPC: 0.36418 (Simulation time: 0 hr 16 min 15 sec) 
Heartbeat CPU  0 instructions:  348000000 cycles:  750059762 heartbeat IPC: 0.49459 cumulative IPC: 0.36457 (Simulation time: 0 hr 16 min 18 sec) 
Heartbeat CPU  0 instructions:  349000001 cycles:  752102892 heartbeat IPC: 0.48945 cumulative IPC: 0.36494 (Simulation time: 0 hr 16 min 21 sec) 
Heartbeat CPU  0 instructions:  350000003 cycles:  753990789 heartbeat IPC: 0.52969 cumulative IPC: 0.36540 (Simulation time: 0 hr 16 min 24 sec) 
Heartbeat CPU  0 instructions:  351000003 cycles:  756013824 heartbeat IPC: 0.49431 cumulative IPC: 0.36578 (Simulation time: 0 hr 16 min 26 sec) 
Heartbeat CPU  0 instructions:  352000000 cycles:  758052209 heartbeat IPC: 0.49058 cumulative IPC: 0.36615 (Simulation time: 0 hr 16 min 29 sec) 
Heartbeat CPU  0 instructions:  353000001 cycles:  759986378 heartbeat IPC: 0.51702 cumulative IPC: 0.36657 (Simulation time: 0 hr 16 min 32 sec) 
Heartbeat CPU  0 instructions:  354000002 cycles:  762213162 heartbeat IPC: 0.44908 cumulative IPC: 0.36684 (Simulation time: 0 hr 16 min 35 sec) 
Heartbeat CPU  0 instructions:  355000003 cycles:  779458328 heartbeat IPC: 0.05799 cumulative IPC: 0.35933 (Simulation time: 0 hr 16 min 41 sec) 
Heartbeat CPU  0 instructions:  356000000 cycles:  783116135 heartbeat IPC: 0.27339 cumulative IPC: 0.35889 (Simulation time: 0 hr 16 min 44 sec) 
Heartbeat CPU  0 instructions:  357000003 cycles:  785035915 heartbeat IPC: 0.52089 cumulative IPC: 0.35932 (Simulation time: 0 hr 16 min 47 sec) 
Heartbeat CPU  0 instructions:  358000002 cycles:  787049715 heartbeat IPC: 0.49657 cumulative IPC: 0.35971 (Simulation time: 0 hr 16 min 50 sec) 
Heartbeat CPU  0 instructions:  359000000 cycles:  789089676 heartbeat IPC: 0.49020 cumulative IPC: 0.36008 (Simulation time: 0 hr 16 min 53 sec) 
Heartbeat CPU  0 instructions:  360000000 cycles:  790969369 heartbeat IPC: 0.53200 cumulative IPC: 0.36053 (Simulation time: 0 hr 16 min 56 sec) 
Heartbeat CPU  0 instructions:  361000003 cycles:  792972388 heartbeat IPC: 0.49925 cumulative IPC: 0.36091 (Simulation time: 0 hr 16 min 59 sec) 
Heartbeat CPU  0 instructions:  362000000 cycles:  795021490 heartbeat IPC: 0.48802 cumulative IPC: 0.36127 (Simulation time: 0 hr 17 min 1 sec) 
Heartbeat CPU  0 instructions:  363000000 cycles:  796919837 heartbeat IPC: 0.52677 cumulative IPC: 0.36170 (Simulation time: 0 hr 17 min 4 sec) 
Heartbeat CPU  0 instructions:  364000000 cycles:  798891188 heartbeat IPC: 0.50727 cumulative IPC: 0.36210 (Simulation time: 0 hr 17 min 7 sec) 
Heartbeat CPU  0 instructions:  365000000 cycles:  800935094 heartbeat IPC: 0.48926 cumulative IPC: 0.36245 (Simulation time: 0 hr 17 min 10 sec) 
Heartbeat CPU  0 instructions:  366000001 cycles:  802935273 heartbeat IPC: 0.49996 cumulative IPC: 0.36283 (Simulation time: 0 hr 17 min 13 sec) 
Heartbeat CPU  0 instructions:  367000001 cycles:  804833003 heartbeat IPC: 0.52695 cumulative IPC: 0.36325 (Simulation time: 0 hr 17 min 16 sec) 
Heartbeat CPU  0 instructions:  368000000 cycles:  806857539 heartbeat IPC: 0.49394 cumulative IPC: 0.36361 (Simulation time: 0 hr 17 min 18 sec) 
Heartbeat CPU  0 instructions:  369000003 cycles:  808911785 heartbeat IPC: 0.48680 cumulative IPC: 0.36395 (Simulation time: 0 hr 17 min 21 sec) 
Heartbeat CPU  0 instructions:  370000000 cycles:  810778715 heartbeat IPC: 0.53564 cumulative IPC: 0.36439 (Simulation time: 0 hr 17 min 24 sec) 
Heartbeat CPU  0 instructions:  371000001 cycles:  812806097 heartbeat IPC: 0.49325 cumulative IPC: 0.36474 (Simulation time: 0 hr 17 min 27 sec) 
Heartbeat CPU  0 instructions:  372000000 cycles:  814847795 heartbeat IPC: 0.48979 cumulative IPC: 0.36508 (Simulation time: 0 hr 17 min 30 sec) 
Heartbeat CPU  0 instructions:  373000003 cycles:  816779753 heartbeat IPC: 0.51761 cumulative IPC: 0.36547 (Simulation time: 0 hr 17 min 33 sec) 
Heartbeat CPU  0 instructions:  374000001 cycles:  818735624 heartbeat IPC: 0.51128 cumulative IPC: 0.36585 (Simulation time: 0 hr 17 min 35 sec) 
Heartbeat CPU  0 instructions:  375000001 cycles:  820777817 heartbeat IPC: 0.48967 cumulative IPC: 0.36619 (Simulation time: 0 hr 17 min 38 sec) 
Heartbeat CPU  0 instructions:  376000000 cycles:  822781225 heartbeat IPC: 0.49915 cumulative IPC: 0.36655 (Simulation time: 0 hr 17 min 41 sec) 
Heartbeat CPU  0 instructions:  377000002 cycles:  833360370 heartbeat IPC: 0.09453 cumulative IPC: 0.36278 (Simulation time: 0 hr 17 min 46 sec) 
Heartbeat CPU  0 instructions:  378000003 cycles:  843707418 heartbeat IPC: 0.09665 cumulative IPC: 0.35922 (Simulation time: 0 hr 17 min 50 sec) 
Heartbeat CPU  0 instructions:  379000001 cycles:  845737758 heartbeat IPC: 0.49253 cumulative IPC: 0.35957 (Simulation time: 0 hr 17 min 53 sec) 
Heartbeat CPU  0 instructions:  380000000 cycles:  847627534 heartbeat IPC: 0.52916 cumulative IPC: 0.35998 (Simulation time: 0 hr 17 min 56 sec) 
Heartbeat CPU  0 instructions:  381000002 cycles:  849682790 heartbeat IPC: 0.48656 cumulative IPC: 0.36031 (Simulation time: 0 hr 17 min 59 sec) 
Heartbeat CPU  0 instructions:  382000002 cycles:  851872899 heartbeat IPC: 0.45660 cumulative IPC: 0.36058 (Simulation time: 0 hr 18 min 2 sec) 
Heartbeat CPU  0 instructions:  383000002 cycles:  853963077 heartbeat IPC: 0.47843 cumulative IPC: 0.36090 (Simulation time: 0 hr 18 min 5 sec) 
Heartbeat CPU  0 instructions:  384000000 cycles:  855907037 heartbeat IPC: 0.51441 cumulative IPC: 0.36128 (Simulation time: 0 hr 18 min 8 sec) 
Heartbeat CPU  0 instructions:  385000003 cycles:  857950874 heartbeat IPC: 0.48928 cumulative IPC: 0.36161 (Simulation time: 0 hr 18 min 10 sec) 
Heartbeat CPU  0 instructions:  386000002 cycles:  859980122 heartbeat IPC: 0.49279 cumulative IPC: 0.36195 (Simulation time: 0 hr 18 min 13 sec) 
Heartbeat CPU  0 instructions:  387000001 cycles:  861859632 heartbeat IPC: 0.53205 cumulative IPC: 0.36235 (Simulation time: 0 hr 18 min 16 sec) 
Heartbeat CPU  0 instructions:  388000000 cycles:  863884470 heartbeat IPC: 0.49387 cumulative IPC: 0.36268 (Simulation time: 0 hr 18 min 19 sec) 
Heartbeat CPU  0 instructions:  389000003 cycles:  865913877 heartbeat IPC: 0.49276 cumulative IPC: 0.36302 (Simulation time: 0 hr 18 min 22 sec) 
Heartbeat CPU  0 instructions:  390000003 cycles:  867802254 heartbeat IPC: 0.52956 cumulative IPC: 0.36341 (Simulation time: 0 hr 18 min 24 sec) 
Heartbeat CPU  0 instructions:  391000001 cycles:  869790766 heartbeat IPC: 0.50289 cumulative IPC: 0.36376 (Simulation time: 0 hr 18 min 27 sec) 
Heartbeat CPU  0 instructions:  392000000 cycles:  871824500 heartbeat IPC: 0.49171 cumulative IPC: 0.36408 (Simulation time: 0 hr 18 min 30 sec) 
Heartbeat CPU  0 instructions:  393000000 cycles:  873781338 heartbeat IPC: 0.51103 cumulative IPC: 0.36444 (Simulation time: 0 hr 18 min 33 sec) 
Heartbeat CPU  0 instructions:  394000000 cycles:  875704834 heartbeat IPC: 0.51989 cumulative IPC: 0.36481 (Simulation time: 0 hr 18 min 36 sec) 
Heartbeat CPU  0 instructions:  395000002 cycles:  877761377 heartbeat IPC: 0.48625 cumulative IPC: 0.36512 (Simulation time: 0 hr 18 min 39 sec) 
Heartbeat CPU  0 instructions:  396000000 cycles:  879791399 heartbeat IPC: 0.49260 cumulative IPC: 0.36544 (Simulation time: 0 hr 18 min 41 sec) 
Heartbeat CPU  0 instructions:  397000001 cycles:  881653491 heartbeat IPC: 0.53703 cumulative IPC: 0.36583 (Simulation time: 0 hr 18 min 44 sec) 
Heartbeat CPU  0 instructions:  398000003 cycles:  883676902 heartbeat IPC: 0.49422 cumulative IPC: 0.36615 (Simulation time: 0 hr 18 min 47 sec) 
Heartbeat CPU  0 instructions:  399000001 cycles:  887961032 heartbeat IPC: 0.23342 cumulative IPC: 0.36546 (Simulation time: 0 hr 18 min 50 sec) 
Heartbeat CPU  0 instructions:  400000000 cycles:  904610405 heartbeat IPC: 0.06006 cumulative IPC: 0.35937 (Simulation time: 0 hr 18 min 56 sec) 
Heartbeat CPU  0 instructions:  401000002 cycles:  906652830 heartbeat IPC: 0.48962 cumulative IPC: 0.35968 (Simulation time: 0 hr 18 min 59 sec) 
Heartbeat CPU  0 instructions:  402000001 cycles:  908699913 heartbeat IPC: 0.48850 cumulative IPC: 0.36000 (Simulation time: 0 hr 19 min 2 sec) 
Heartbeat CPU  0 instructions:  403000003 cycles:  910651597 heartbeat IPC: 0.51238 cumulative IPC: 0.36035 (Simulation time: 0 hr 19 min 5 sec) 
Heartbeat CPU  0 instructions:  404000000 cycles:  912582780 heartbeat IPC: 0.51782 cumulative IPC: 0.36071 (Simulation time: 0 hr 19 min 8 sec) 
Heartbeat CPU  0 instructions:  405000001 cycles:  914642419 heartbeat IPC: 0.48552 cumulative IPC: 0.36102 (Simulation time: 0 hr 19 min 11 sec) 
Heartbeat CPU  0 instructions:  406000002 cycles:  916660560 heartbeat IPC: 0.49551 cumulative IPC: 0.36134 (Simulation time: 0 hr 19 min 13 sec) 
Heartbeat CPU  0 instructions:  407000001 cycles:  918528925 heartbeat IPC: 0.53523 cumulative IPC: 0.36172 (Simulation time: 0 hr 19 min 16 sec) 
Heartbeat CPU  0 instructions:  408000000 cycles:  920571765 heartbeat IPC: 0.48951 cumulative IPC: 0.36203 (Simulation time: 0 hr 19 min 19 sec) 
Heartbeat CPU  0 instructions:  409000001 cycles:  922601684 heartbeat IPC: 0.49263 cumulative IPC: 0.36234 (Simulation time: 0 hr 19 min 22 sec) 
Heartbeat CPU  0 instructions:  410000003 cycles:  924501181 heartbeat IPC: 0.52646 cumulative IPC: 0.36270 (Simulation time: 0 hr 19 min 25 sec) 
Heartbeat CPU  0 instructions:  411000000 cycles:  926508997 heartbeat IPC: 0.49805 cumulative IPC: 0.36302 (Simulation time: 0 hr 19 min 28 sec) 
Heartbeat CPU  0 instructions:  412000000 cycles:  928533218 heartbeat IPC: 0.49402 cumulative IPC: 0.36333 (Simulation time: 0 hr 19 min 30 sec) 
Heartbeat CPU  0 instructions:  413000002 cycles:  930520499 heartbeat IPC: 0.50320 cumulative IPC: 0.36365 (Simulation time: 0 hr 19 min 33 sec) 
Heartbeat CPU  0 instructions:  414000003 cycles:  932429997 heartbeat IPC: 0.52370 cumulative IPC: 0.36401 (Simulation time: 0 hr 19 min 36 sec) 
Heartbeat CPU  0 instructions:  415000002 cycles:  934457946 heartbeat IPC: 0.49311 cumulative IPC: 0.36431 (Simulation time: 0 hr 19 min 39 sec) 
Heartbeat CPU  0 instructions:  416000000 cycles:  936510833 heartbeat IPC: 0.48712 cumulative IPC: 0.36460 (Simulation time: 0 hr 19 min 42 sec) 
Heartbeat CPU  0 instructions:  417000003 cycles:  938395167 heartbeat IPC: 0.53069 cumulative IPC: 0.36496 (Simulation time: 0 hr 19 min 45 sec) 
Heartbeat CPU  0 instructions:  418000003 cycles:  940419955 heartbeat IPC: 0.49388 cumulative IPC: 0.36526 (Simulation time: 0 hr 19 min 47 sec) 
Heartbeat CPU  0 instructions:  419000003 cycles:  942483069 heartbeat IPC: 0.48470 cumulative IPC: 0.36554 (Simulation time: 0 hr 19 min 50 sec) 
Heartbeat CPU  0 instructions:  420000000 cycles:  944423241 heartbeat IPC: 0.51542 cumulative IPC: 0.36587 (Simulation time: 0 hr 19 min 53 sec) 
Heartbeat CPU  0 instructions:  421000001 cycles:  946391056 heartbeat IPC: 0.50818 cumulative IPC: 0.36619 (Simulation time: 0 hr 19 min 56 sec) 
Heartbeat CPU  0 instructions:  422000002 cycles:  959292654 heartbeat IPC: 0.07751 cumulative IPC: 0.36201 (Simulation time: 0 hr 20 min 1 sec) 
Heartbeat CPU  0 instructions:  423000003 cycles:  967473845 heartbeat IPC: 0.12223 cumulative IPC: 0.35982 (Simulation time: 0 hr 20 min 5 sec) 
Heartbeat CPU  0 instructions:  424000000 cycles:  969385438 heartbeat IPC: 0.52312 cumulative IPC: 0.36017 (Simulation time: 0 hr 20 min 8 sec) 
Heartbeat CPU  0 instructions:  425000003 cycles:  971426240 heartbeat IPC: 0.49000 cumulative IPC: 0.36046 (Simulation time: 0 hr 20 min 11 sec) 
Heartbeat CPU  0 instructions:  426000001 cycles:  973450399 heartbeat IPC: 0.49403 cumulative IPC: 0.36076 (Simulation time: 0 hr 20 min 14 sec) 
Heartbeat CPU  0 instructions:  427000000 cycles:  975340594 heartbeat IPC: 0.52905 cumulative IPC: 0.36111 (Simulation time: 0 hr 20 min 17 sec) 
Heartbeat CPU  0 instructions:  428000000 cycles:  977358164 heartbeat IPC: 0.49565 cumulative IPC: 0.36141 (Simulation time: 0 hr 20 min 20 sec) 
Heartbeat CPU  0 instructions:  429000002 cycles:  979404129 heartbeat IPC: 0.48877 cumulative IPC: 0.36170 (Simulation time: 0 hr 20 min 22 sec) 
Heartbeat CPU  0 instructions:  430000000 cycles:  981313274 heartbeat IPC: 0.52379 cumulative IPC: 0.36204 (Simulation time: 0 hr 20 min 25 sec) 
Heartbeat CPU  0 instructions:  431000000 cycles:  983278320 heartbeat IPC: 0.50889 cumulative IPC: 0.36235 (Simulation time: 0 hr 20 min 28 sec) 
Heartbeat CPU  0 instructions:  432000000 cycles:  985317892 heartbeat IPC: 0.49030 cumulative IPC: 0.36264 (Simulation time: 0 hr 20 min 31 sec) 
Heartbeat CPU  0 instructions:  433000003 cycles:  987446267 heartbeat IPC: 0.46984 cumulative IPC: 0.36289 (Simulation time: 0 hr 20 min 34 sec) 
Heartbeat CPU  0 instructions:  434000002 cycles:  989360006 heartbeat IPC: 0.52254 cumulative IPC: 0.36322 (Simulation time: 0 hr 20 min 37 sec) 
Heartbeat CPU  0 instructions:  435000001 cycles:  991409497 heartbeat IPC: 0.48793 cumulative IPC: 0.36350 (Simulation time: 0 hr 20 min 39 sec) 
Heartbeat CPU  0 instructions:  436000000 cycles:  993448532 heartbeat IPC: 0.49043 cumulative IPC: 0.36378 (Simulation time: 0 hr 20 min 42 sec) 
Heartbeat CPU  0 instructions:  437000000 cycles:  995344034 heartbeat IPC: 0.52756 cumulative IPC: 0.36411 (Simulation time: 0 hr 20 min 45 sec) 
Heartbeat CPU  0 instructions:  438000000 cycles:  997343582 heartbeat IPC: 0.50011 cumulative IPC: 0.36441 (Simulation time: 0 hr 20 min 48 sec) 
Heartbeat CPU  0 instructions:  439000001 cycles:  999391912 heartbeat IPC: 0.48820 cumulative IPC: 0.36468 (Simulation time: 0 hr 20 min 51 sec) 
Heartbeat CPU  0 instructions:  440000000 cycles: 1001362849 heartbeat IPC: 0.50737 cumulative IPC: 0.36498 (Simulation time: 0 hr 20 min 54 sec) 
Heartbeat CPU  0 instructions:  441000001 cycles: 1003316408 heartbeat IPC: 0.51189 cumulative IPC: 0.36529 (Simulation time: 0 hr 20 min 56 sec) 
Heartbeat CPU  0 instructions:  442000001 cycles: 1005359191 heartbeat IPC: 0.48953 cumulative IPC: 0.36556 (Simulation time: 0 hr 20 min 59 sec) 
Heartbeat CPU  0 instructions:  443000002 cycles: 1007376015 heartbeat IPC: 0.49583 cumulative IPC: 0.36584 (Simulation time: 0 hr 21 min 2 sec) 
Heartbeat CPU  0 instructions:  444000000 cycles: 1013731127 heartbeat IPC: 0.15735 cumulative IPC: 0.36444 (Simulation time: 0 hr 21 min 6 sec) 
Heartbeat CPU  0 instructions:  445000003 cycles: 1028385213 heartbeat IPC: 0.06824 cumulative IPC: 0.35991 (Simulation time: 0 hr 21 min 11 sec) 
Heartbeat CPU  0 instructions:  446000000 cycles: 1030432778 heartbeat IPC: 0.48838 cumulative IPC: 0.36018 (Simulation time: 0 hr 21 min 14 sec) 
Heartbeat CPU  0 instructions:  447000003 cycles: 1032291061 heartbeat IPC: 0.53813 cumulative IPC: 0.36052 (Simulation time: 0 hr 21 min 17 sec) 
Heartbeat CPU  0 instructions:  448000000 cycles: 1034285212 heartbeat IPC: 0.50147 cumulative IPC: 0.36082 (Simulation time: 0 hr 21 min 20 sec) 
Heartbeat CPU  0 instructions:  449000000 cycles: 1036299906 heartbeat IPC: 0.49635 cumulative IPC: 0.36110 (Simulation time: 0 hr 21 min 23 sec) 
Heartbeat CPU  0 instructions:  450000000 cycles: 1038213190 heartbeat IPC: 0.52266 cumulative IPC: 0.36142 (Simulation time: 0 hr 21 min 26 sec) 
Heartbeat CPU  0 instructions:  451000000 cycles: 1040145271 heartbeat IPC: 0.51758 cumulative IPC: 0.36173 (Simulation time: 0 hr 21 min 29 sec) 
Heartbeat CPU  0 instructions:  452000000 cycles: 1042168308 heartbeat IPC: 0.49431 cumulative IPC: 0.36200 (Simulation time: 0 hr 21 min 32 sec) 
Heartbeat CPU  0 instructions:  453000001 cycles: 1044156668 heartbeat IPC: 0.50293 cumulative IPC: 0.36229 (Simulation time: 0 hr 21 min 34 sec) 
Heartbeat CPU  0 instructions:  454000001 cycles: 1046027214 heartbeat IPC: 0.53460 cumulative IPC: 0.36262 (Simulation time: 0 hr 21 min 37 sec) 
Heartbeat CPU  0 instructions:  455000000 cycles: 1048060832 heartbeat IPC: 0.49173 cumulative IPC: 0.36289 (Simulation time: 0 hr 21 min 40 sec) 
Heartbeat CPU  0 instructions:  456000000 cycles: 1050085708 heartbeat IPC: 0.49386 cumulative IPC: 0.36316 (Simulation time: 0 hr 21 min 43 sec) 
Heartbeat CPU  0 instructions:  457000000 cycles: 1051965392 heartbeat IPC: 0.53200 cumulative IPC: 0.36348 (Simulation time: 0 hr 21 min 46 sec) 
Heartbeat CPU  0 instructions:  458000003 cycles: 1053943290 heartbeat IPC: 0.50559 cumulative IPC: 0.36377 (Simulation time: 0 hr 21 min 49 sec) 
Heartbeat CPU  0 instructions:  459000000 cycles: 1055957625 heartbeat IPC: 0.49644 cumulative IPC: 0.36404 (Simulation time: 0 hr 21 min 51 sec) 
Heartbeat CPU  0 instructions:  460000000 cycles: 1057901637 heartbeat IPC: 0.51440 cumulative IPC: 0.36434 (Simulation time: 0 hr 21 min 54 sec) 
Heartbeat CPU  0 instructions:  461000000 cycles: 1059815543 heartbeat IPC: 0.52249 cumulative IPC: 0.36464 (Simulation time: 0 hr 21 min 57 sec) 
Heartbeat CPU  0 instructions:  462000003 cycles: 1061839640 heartbeat IPC: 0.49405 cumulative IPC: 0.36491 (Simulation time: 0 hr 22 min 0 sec) 
Heartbeat CPU  0 instructions:  463000003 cycles: 1063850049 heartbeat IPC: 0.49741 cumulative IPC: 0.36517 (Simulation time: 0 hr 22 min 3 sec) 
Heartbeat CPU  0 instructions:  464000000 cycles: 1065714388 heartbeat IPC: 0.53638 cumulative IPC: 0.36550 (Simulation time: 0 hr 22 min 6 sec) 
Heartbeat CPU  0 instructions:  465000000 cycles: 1067712458 heartbeat IPC: 0.50048 cumulative IPC: 0.36577 (Simulation time: 0 hr 22 min 8 sec) 
Heartbeat CPU  0 instructions:  466000000 cycles: 1069717771 heartbeat IPC: 0.49868 cumulative IPC: 0.36603 (Simulation time: 0 hr 22 min 11 sec) 
Heartbeat CPU  0 instructions:  467000000 cycles: 1084796664 heartbeat IPC: 0.06632 cumulative IPC: 0.36158 (Simulation time: 0 hr 22 min 17 sec) 
Heartbeat CPU  0 instructions:  468000000 cycles: 1090574050 heartbeat IPC: 0.17309 cumulative IPC: 0.36051 (Simulation time: 0 hr 22 min 21 sec) 
Heartbeat CPU  0 instructions:  469000002 cycles: 1092593176 heartbeat IPC: 0.49526 cumulative IPC: 0.36078 (Simulation time: 0 hr 22 min 23 sec) 
Heartbeat CPU  0 instructions:  470000000 cycles: 1094536011 heartbeat IPC: 0.51471 cumulative IPC: 0.36107 (Simulation time: 0 hr 22 min 26 sec) 
Heartbeat CPU  0 instructions:  471000002 cycles: 1096448889 heartbeat IPC: 0.52277 cumulative IPC: 0.36137 (Simulation time: 0 hr 22 min 29 sec) 
Heartbeat CPU  0 instructions:  472000000 cycles: 1098489701 heartbeat IPC: 0.49000 cumulative IPC: 0.36163 (Simulation time: 0 hr 22 min 32 sec) 
Heartbeat CPU  0 instructions:  473000003 cycles: 1100495538 heartbeat IPC: 0.49855 cumulative IPC: 0.36189 (Simulation time: 0 hr 22 min 35 sec) 
Heartbeat CPU  0 instructions:  474000002 cycles: 1102352649 heartbeat IPC: 0.53847 cumulative IPC: 0.36221 (Simulation time: 0 hr 22 min 38 sec) 
Heartbeat CPU  0 instructions:  475000003 cycles: 1104345785 heartbeat IPC: 0.50172 cumulative IPC: 0.36248 (Simulation time: 0 hr 22 min 41 sec) 
Heartbeat CPU  0 instructions:  476000000 cycles: 1106367310 heartbeat IPC: 0.49467 cumulative IPC: 0.36274 (Simulation time: 0 hr 22 min 43 sec) 
Heartbeat CPU  0 instructions:  477000003 cycles: 1108247214 heartbeat IPC: 0.53194 cumulative IPC: 0.36304 (Simulation time: 0 hr 22 min 46 sec) 
Heartbeat CPU  0 instructions:  478000003 cycles: 1110217925 heartbeat IPC: 0.50743 cumulative IPC: 0.36332 (Simulation time: 0 hr 22 min 49 sec) 
Heartbeat CPU  0 instructions:  479000000 cycles: 1112243027 heartbeat IPC: 0.49380 cumulative IPC: 0.36357 (Simulation time: 0 hr 22 min 52 sec) 
Heartbeat CPU  0 instructions:  480000000 cycles: 1114186372 heartbeat IPC: 0.51458 cumulative IPC: 0.36385 (Simulation time: 0 hr 22 min 55 sec) 
Heartbeat CPU  0 instructions:  481000000 cycles: 1116064605 heartbeat IPC: 0.53242 cumulative IPC: 0.36415 (Simulation time: 0 hr 22 min 58 sec) 
Heartbeat CPU  0 instructions:  482000000 cycles: 1118080323 heartbeat IPC: 0.49610 cumulative IPC: 0.36441 (Simulation time: 0 hr 23 min 0 sec) 
Heartbeat CPU  0 instructions:  483000001 cycles: 1120190276 heartbeat IPC: 0.47394 cumulative IPC: 0.36463 (Simulation time: 0 hr 23 min 3 sec) 
Heartbeat CPU  0 instructions:  484000000 cycles: 1122164856 heartbeat IPC: 0.50644 cumulative IPC: 0.36489 (Simulation time: 0 hr 23 min 6 sec) 
Heartbeat CPU  0 instructions:  485000001 cycles: 1124283008 heartbeat IPC: 0.47211 cumulative IPC: 0.36511 (Simulation time: 0 hr 23 min 9 sec) 
Heartbeat CPU  0 instructions:  486000001 cycles: 1126309899 heartbeat IPC: 0.49337 cumulative IPC: 0.36536 (Simulation time: 0 hr 23 min 12 sec) 
Heartbeat CPU  0 instructions:  487000000 cycles: 1128211067 heartbeat IPC: 0.52599 cumulative IPC: 0.36564 (Simulation time: 0 hr 23 min 14 sec) 
Heartbeat CPU  0 instructions:  488000000 cycles: 1130158750 heartbeat IPC: 0.51343 cumulative IPC: 0.36592 (Simulation time: 0 hr 23 min 17 sec) 
Heartbeat CPU  0 instructions:  489000001 cycles: 1138697099 heartbeat IPC: 0.11712 cumulative IPC: 0.36393 (Simulation time: 0 hr 23 min 21 sec) 
Heartbeat CPU  0 instructions:  490000003 cycles: 1151083180 heartbeat IPC: 0.08074 cumulative IPC: 0.36068 (Simulation time: 0 hr 23 min 27 sec) 
Heartbeat CPU  0 instructions:  491000001 cycles: 1152969949 heartbeat IPC: 0.53001 cumulative IPC: 0.36098 (Simulation time: 0 hr 23 min 30 sec) 
Heartbeat CPU  0 instructions:  492000000 cycles: 1155018449 heartbeat IPC: 0.48816 cumulative IPC: 0.36122 (Simulation time: 0 hr 23 min 32 sec) 
Heartbeat CPU  0 instructions:  493000000 cycles: 1157016352 heartbeat IPC: 0.50052 cumulative IPC: 0.36148 (Simulation time: 0 hr 23 min 35 sec) 
Heartbeat CPU  0 instructions:  494000002 cycles: 1158868569 heartbeat IPC: 0.53989 cumulative IPC: 0.36178 (Simulation time: 0 hr 23 min 38 sec) 
Heartbeat CPU  0 instructions:  495000000 cycles: 1160899398 heartbeat IPC: 0.49241 cumulative IPC: 0.36202 (Simulation time: 0 hr 23 min 41 sec) 
Heartbeat CPU  0 instructions:  496000000 cycles: 1162920278 heartbeat IPC: 0.49483 cumulative IPC: 0.36227 (Simulation time: 0 hr 23 min 44 sec) 
Heartbeat CPU  0 instructions:  497000001 cycles: 1164829913 heartbeat IPC: 0.52366 cumulative IPC: 0.36255 (Simulation time: 0 hr 23 min 47 sec) 
Heartbeat CPU  0 instructions:  498000001 cycles: 1166800098 heartbeat IPC: 0.50757 cumulative IPC: 0.36281 (Simulation time: 0 hr 23 min 49 sec) 
Heartbeat CPU  0 instructions:  499000001 cycles: 1168814991 heartbeat IPC: 0.49630 cumulative IPC: 0.36305 (Simulation time: 0 hr 23 min 52 sec) 
Heartbeat CPU  0 instructions:  500000000 cycles: 1170796264 heartbeat IPC: 0.50473 cumulative IPC: 0.36331 (Simulation time: 0 hr 23 min 55 sec) 
Heartbeat CPU  0 instructions:  501000002 cycles: 1172679647 heartbeat IPC: 0.53096 cumulative IPC: 0.36360 (Simulation time: 0 hr 23 min 58 sec) 
Heartbeat CPU  0 instructions:  502000002 cycles: 1174697805 heartbeat IPC: 0.49550 cumulative IPC: 0.36384 (Simulation time: 0 hr 24 min 1 sec) 
Heartbeat CPU  0 instructions:  503000002 cycles: 1176714170 heartbeat IPC: 0.49594 cumulative IPC: 0.36408 (Simulation time: 0 hr 24 min 4 sec) 
Heartbeat CPU  0 instructions:  504000000 cycles: 1178572053 heartbeat IPC: 0.53825 cumulative IPC: 0.36437 (Simulation time: 0 hr 24 min 6 sec) 
Heartbeat CPU  0 instructions:  505000002 cycles: 1180565665 heartbeat IPC: 0.50160 cumulative IPC: 0.36461 (Simulation time: 0 hr 24 min 9 sec) 
Heartbeat CPU  0 instructions:  506000002 cycles: 1182606444 heartbeat IPC: 0.49001 cumulative IPC: 0.36484 (Simulation time: 0 hr 24 min 12 sec) 
Heartbeat CPU  0 instructions:  507000001 cycles: 1184530755 heartbeat IPC: 0.51967 cumulative IPC: 0.36511 (Simulation time: 0 hr 24 min 15 sec) 
Heartbeat CPU  0 instructions:  508000000 cycles: 1186464756 heartbeat IPC: 0.51706 cumulative IPC: 0.36538 (Simulation time: 0 hr 24 min 18 sec) 
Heartbeat CPU  0 instructions:  509000000 cycles: 1188513678 heartbeat IPC: 0.48806 cumulative IPC: 0.36560 (Simulation time: 0 hr 24 min 21 sec) 
Heartbeat CPU  0 instructions:  510000003 cycles: 1190512889 heartbeat IPC: 0.50020 cumulative IPC: 0.36584 (Simulation time: 0 hr 24 min 23 sec) 
Heartbeat CPU  0 instructions:  511000001 cycles: 1192714809 heartbeat IPC: 0.45415 cumulative IPC: 0.36601 (Simulation time: 0 hr 24 min 26 sec) 
Heartbeat CPU  0 instructions:  512000000 cycles: 1209791077 heartbeat IPC: 0.05856 cumulative IPC: 0.36141 (Simulation time: 0 hr 24 min 32 sec) 
Heartbeat CPU  0 instructions:  513000000 cycles: 1213357383 heartbeat IPC: 0.28040 cumulative IPC: 0.36116 (Simulation time: 0 hr 24 min 36 sec) 
Heartbeat CPU  0 instructions:  514000001 cycles: 1215254147 heartbeat IPC: 0.52721 cumulative IPC: 0.36143 (Simulation time: 0 hr 24 min 39 sec) 
Heartbeat CPU  0 instructions:  515000002 cycles: 1217287191 heartbeat IPC: 0.49187 cumulative IPC: 0.36166 (Simulation time: 0 hr 24 min 41 sec) 
Heartbeat CPU  0 instructions:  516000000 cycles: 1219338163 heartbeat IPC: 0.48757 cumulative IPC: 0.36189 (Simulation time: 0 hr 24 min 44 sec) 
Heartbeat CPU  0 instructions:  517000002 cycles: 1221275670 heartbeat IPC: 0.51613 cumulative IPC: 0.36215 (Simulation time: 0 hr 24 min 47 sec) 
Heartbeat CPU  0 instructions:  518000000 cycles: 1223250091 heartbeat IPC: 0.50648 cumulative IPC: 0.36239 (Simulation time: 0 hr 24 min 50 sec) 
Heartbeat CPU  0 instructions:  519000000 cycles: 1225300525 heartbeat IPC: 0.48770 cumulative IPC: 0.36261 (Simulation time: 0 hr 24 min 53 sec) 
Heartbeat CPU  0 instructions:  520000000 cycles: 1227314742 heartbeat IPC: 0.49647 cumulative IPC: 0.36285 (Simulation time: 0 hr 24 min 56 sec) 
Heartbeat CPU  0 instructions:  521000003 cycles: 1229232756 heartbeat IPC: 0.52137 cumulative IPC: 0.36311 (Simulation time: 0 hr 24 min 58 sec) 
Heartbeat CPU  0 instructions:  522000001 cycles: 1231303760 heartbeat IPC: 0.48286 cumulative IPC: 0.36332 (Simulation time: 0 hr 25 min 1 sec) 
Heartbeat CPU  0 instructions:  523000001 cycles: 1233357507 heartbeat IPC: 0.48691 cumulative IPC: 0.36354 (Simulation time: 0 hr 25 min 4 sec) 
Heartbeat CPU  0 instructions:  524000000 cycles: 1235239226 heartbeat IPC: 0.53143 cumulative IPC: 0.36381 (Simulation time: 0 hr 25 min 7 sec) 
Heartbeat CPU  0 instructions:  525000000 cycles: 1237270199 heartbeat IPC: 0.49237 cumulative IPC: 0.36404 (Simulation time: 0 hr 25 min 10 sec) 
Heartbeat CPU  0 instructions:  526000002 cycles: 1239311574 heartbeat IPC: 0.48987 cumulative IPC: 0.36426 (Simulation time: 0 hr 25 min 13 sec) 
Heartbeat CPU  0 instructions:  527000002 cycles: 1241250250 heartbeat IPC: 0.51582 cumulative IPC: 0.36451 (Simulation time: 0 hr 25 min 15 sec) 
Heartbeat CPU  0 instructions:  528000000 cycles: 1243205160 heartbeat IPC: 0.51153 cumulative IPC: 0.36475 (Simulation time: 0 hr 25 min 18 sec) 
[...]
Heartbeat CPU  0 instructions:  551000001 cycles: 1306028037 heartbeat IPC: 0.53135 cumulative IPC: 0.36482 (Simulation time: 0 hr 26 min 27 sec) 
Heartbeat CPU  0 instructions:  552000000 cycles: 1308058746 heartbeat IPC: 0.49244 cumulative IPC: 0.36503 (Simulation time: 0 hr 26 min 30 sec) 
Heartbeat CPU  0 instructions:  553000002 cycles: 1310091875 heartbeat IPC: 0.49185 cumulative IPC: 0.36524 (Simulation time: 0 hr 26 min 33 sec) 
Heartbeat CPU  0 instructions:  554000002 cycles: 1311999500 heartbeat IPC: 0.52421 cumulative IPC: 0.36548 (Simulation time: 0 hr 26 min 36 sec) 
Heartbeat CPU  0 instructions:  555000003 cycles: 1313981542 heartbeat IPC: 0.50453 cumulative IPC: 0.36570 (Simulation time: 0 hr 26 min 39 sec) 
Heartbeat CPU  0 instructions:  556000000 cycles: 1318328036 heartbeat IPC: 0.23007 cumulative IPC: 0.36523 (Simulation time: 0 hr 26 min 42 sec) 
Heartbeat CPU  0 instructions:  557000002 cycles: 1334995622 heartbeat IPC: 0.06000 cumulative IPC: 0.36121 (Simulation time: 0 hr 26 min 48 sec) 
Heartbeat CPU  0 instructions:  558000003 cycles: 1336994354 heartbeat IPC: 0.50032 cumulative IPC: 0.36143 (Simulation time: 0 hr 26 min 51 sec) 
Heartbeat CPU  0 instructions:  559000000 cycles: 1339023414 heartbeat IPC: 0.49284 cumulative IPC: 0.36164 (Simulation time: 0 hr 26 min 54 sec) 
Heartbeat CPU  0 instructions:  560000000 cycles: 1341056217 heartbeat IPC: 0.49193 cumulative IPC: 0.36185 (Simulation time: 0 hr 26 min 56 sec) 
Heartbeat CPU  0 instructions:  561000002 cycles: 1342935855 heartbeat IPC: 0.53202 cumulative IPC: 0.36210 (Simulation time: 0 hr 26 min 59 sec) 
Heartbeat CPU  0 instructions:  562000002 cycles: 1344940643 heartbeat IPC: 0.49881 cumulative IPC: 0.36231 (Simulation time: 0 hr 27 min 2 sec) 
Heartbeat CPU  0 instructions:  563000001 cycles: 1346989351 heartbeat IPC: 0.48811 cumulative IPC: 0.36252 (Simulation time: 0 hr 27 min 5 sec) 
Heartbeat CPU  0 instructions:  564000000 cycles: 1348885820 heartbeat IPC: 0.52730 cumulative IPC: 0.36276 (Simulation time: 0 hr 27 min 8 sec) 
Heartbeat CPU  0 instructions:  565000003 cycles: 1350868553 heartbeat IPC: 0.50436 cumulative IPC: 0.36298 (Simulation time: 0 hr 27 min 11 sec) 
Heartbeat CPU  0 instructions:  566000000 cycles: 1352924057 heartbeat IPC: 0.48650 cumulative IPC: 0.36318 (Simulation time: 0 hr 27 min 14 sec) 
Heartbeat CPU  0 instructions:  567000003 cycles: 1354903521 heartbeat IPC: 0.50519 cumulative IPC: 0.36340 (Simulation time: 0 hr 27 min 16 sec) 
Heartbeat CPU  0 instructions:  568000000 cycles: 1356809525 heartbeat IPC: 0.52466 cumulative IPC: 0.36364 (Simulation time: 0 hr 27 min 19 sec) 
Heartbeat CPU  0 instructions:  569000000 cycles: 1358858897 heartbeat IPC: 0.48795 cumulative IPC: 0.36383 (Simulation time: 0 hr 27 min 22 sec) 
Heartbeat CPU  0 instructions:  570000002 cycles: 1360899411 heartbeat IPC: 0.49007 cumulative IPC: 0.36403 (Simulation time: 0 hr 27 min 25 sec) 
Heartbeat CPU  0 instructions:  571000000 cycles: 1362777497 heartbeat IPC: 0.53246 cumulative IPC: 0.36428 (Simulation time: 0 hr 27 min 28 sec) 
Heartbeat CPU  0 instructions:  572000000 cycles: 1364788759 heartbeat IPC: 0.49720 cumulative IPC: 0.36448 (Simulation time: 0 hr 27 min 30 sec) 
Heartbeat CPU  0 instructions:  573000002 cycles: 1366831402 heartbeat IPC: 0.48956 cumulative IPC: 0.36468 (Simulation time: 0 hr 27 min 33 sec) 
Heartbeat CPU  0 instructions:  574000001 cycles: 1368756659 heartbeat IPC: 0.51941 cumulative IPC: 0.36491 (Simulation time: 0 hr 27 min 36 sec) 
Heartbeat CPU  0 instructions:  575000003 cycles: 1370718213 heartbeat IPC: 0.50980 cumulative IPC: 0.36513 (Simulation time: 0 hr 27 min 39 sec) 
Heartbeat CPU  0 instructions:  576000000 cycles: 1372747229 heartbeat IPC: 0.49285 cumulative IPC: 0.36533 (Simulation time: 0 hr 27 min 42 sec) 
Heartbeat CPU  0 instructions:  577000002 cycles: 1374745002 heartbeat IPC: 0.50056 cumulative IPC: 0.36553 (Simulation time: 0 hr 27 min 45 sec) 
Heartbeat CPU  0 instructions:  578000002 cycles: 1376657414 heartbeat IPC: 0.52290 cumulative IPC: 0.36576 (Simulation time: 0 hr 27 min 47 sec) 
Heartbeat CPU  0 instructions:  579000003 cycles: 1389628073 heartbeat IPC: 0.07710 cumulative IPC: 0.36293 (Simulation time: 0 hr 27 min 53 sec) 
Heartbeat CPU  0 instructions:  580000000 cycles: 1397750341 heartbeat IPC: 0.12312 cumulative IPC: 0.36146 (Simulation time: 0 hr 27 min 57 sec) 
Heartbeat CPU  0 instructions:  581000003 cycles: 1399606729 heartbeat IPC: 0.53868 cumulative IPC: 0.36171 (Simulation time: 0 hr 28 min 0 sec) 
Heartbeat CPU  0 instructions:  582000001 cycles: 1401589673 heartbeat IPC: 0.50430 cumulative IPC: 0.36192 (Simulation time: 0 hr 28 min 3 sec) 
Heartbeat CPU  0 instructions:  583000002 cycles: 1403619237 heartbeat IPC: 0.49272 cumulative IPC: 0.36212 (Simulation time: 0 hr 28 min 5 sec) 
Heartbeat CPU  0 instructions:  584000000 cycles: 1405532183 heartbeat IPC: 0.52275 cumulative IPC: 0.36235 (Simulation time: 0 hr 28 min 8 sec) 
Heartbeat CPU  0 instructions:  585000003 cycles: 1407472903 heartbeat IPC: 0.51527 cumulative IPC: 0.36257 (Simulation time: 0 hr 28 min 11 sec) 
Heartbeat CPU  0 instructions:  586000003 cycles: 1409630084 heartbeat IPC: 0.46357 cumulative IPC: 0.36273 (Simulation time: 0 hr 28 min 14 sec) 
Heartbeat CPU  0 instructions:  587000001 cycles: 1411780974 heartbeat IPC: 0.46492 cumulative IPC: 0.36290 (Simulation time: 0 hr 28 min 17 sec) 
Heartbeat CPU  0 instructions:  588000000 cycles: 1413643479 heartbeat IPC: 0.53691 cumulative IPC: 0.36314 (Simulation time: 0 hr 28 min 20 sec) 
Heartbeat CPU  0 instructions:  589000000 cycles: 1415648459 heartbeat IPC: 0.49876 cumulative IPC: 0.36334 (Simulation time: 0 hr 28 min 22 sec) 
Heartbeat CPU  0 instructions:  590000001 cycles: 1417676037 heartbeat IPC: 0.49320 cumulative IPC: 0.36354 (Simulation time: 0 hr 28 min 25 sec) 
Heartbeat CPU  0 instructions:  591000000 cycles: 1419529486 heartbeat IPC: 0.53953 cumulative IPC: 0.36378 (Simulation time: 0 hr 28 min 28 sec) 
Heartbeat CPU  0 instructions:  592000000 cycles: 1421517762 heartbeat IPC: 0.50295 cumulative IPC: 0.36398 (Simulation time: 0 hr 28 min 31 sec) 
Heartbeat CPU  0 instructions:  593000002 cycles: 1423555382 heartbeat IPC: 0.49077 cumulative IPC: 0.36417 (Simulation time: 0 hr 28 min 34 sec) 
Heartbeat CPU  0 instructions:  594000002 cycles: 1425502361 heartbeat IPC: 0.51362 cumulative IPC: 0.36439 (Simulation time: 0 hr 28 min 37 sec) 
Heartbeat CPU  0 instructions:  595000003 cycles: 1427411992 heartbeat IPC: 0.52366 cumulative IPC: 0.36461 (Simulation time: 0 hr 28 min 39 sec) 
Heartbeat CPU  0 instructions:  596000000 cycles: 1429445974 heartbeat IPC: 0.49164 cumulative IPC: 0.36480 (Simulation time: 0 hr 28 min 42 sec) 
Heartbeat CPU  0 instructions:  597000003 cycles: 1431450014 heartbeat IPC: 0.49899 cumulative IPC: 0.36500 (Simulation time: 0 hr 28 min 45 sec) 
Heartbeat CPU  0 instructions:  598000000 cycles: 1433290743 heartbeat IPC: 0.54326 cumulative IPC: 0.36524 (Simulation time: 0 hr 28 min 48 sec) 
Heartbeat CPU  0 instructions:  599000000 cycles: 1435330288 heartbeat IPC: 0.49031 cumulative IPC: 0.36543 (Simulation time: 0 hr 28 min 51 sec) 
Heartbeat CPU  0 instructions:  600000000 cycles: 1437335125 heartbeat IPC: 0.49879 cumulative IPC: 0.36562 (Simulation time: 0 hr 28 min 54 sec) 
Finished CPU 0 instructions: 500000000 cycles: 1367530317 cumulative IPC: 0.36562 (Simulation time: 0 hr 28 min 54 sec) 

ChampSim completed all CPUs

[ROI Statistics]
Core_0_instructions 500000000
Core_0_cycles 1367530317
Core_0_IPC 0.36562

Core_0_branch_prediction_accuracy 99.17161
Core_0_branch_MPKI 0.01066
Core_0_average_ROB_occupancy_at_mispredict 253.71908

Core_0_L1D_total_access 252943694
Core_0_L1D_total_hit 248954218
Core_0_L1D_total_miss 3989476
Core_0_L1D_loads 171364952
Core_0_L1D_load_hit 168128013
Core_0_L1D_load_miss 3236939
Core_0_L1D_RFOs 81578742
Core_0_L1D_RFO_hit 80826205
Core_0_L1D_RFO_miss 752537
Core_0_L1D_prefetches 0
Core_0_L1D_prefetch_hit 0
Core_0_L1D_prefetch_miss 0
Core_0_L1D_writebacks 0
Core_0_L1D_writeback_hit 0
Core_0_L1D_writeback_miss 0
Core_0_L1D_prefetch_requested 0
Core_0_L1D_prefetch_dropped 0
Core_0_L1D_prefetch_issued 0
Core_0_L1D_prefetch_filled 0
Core_0_L1D_prefetch_useful 0
Core_0_L1D_prefetch_useless 0
Core_0_L1D_prefetch_late 0
Core_0_L1D_average_miss_latency 579.82736

Core_0_L1D_rq_access 255857521
Core_0_L1D_rq_forward 0
Core_0_L1D_rq_merged 83815949
Core_0_L1D_rq_to_cache 171395574
Core_0_L1D_rq_full 0

Core_0_L1D_wq_access 84479085
Core_0_L1D_wq_forward 645998
Core_0_L1D_wq_merged 1761035
Core_0_L1D_wq_to_cache 82718050
Core_0_L1D_wq_full 18524445

Core_0_L1D_pq_access 0
Core_0_L1D_pq_forward 0
Core_0_L1D_pq_merged 0
Core_0_L1D_pq_to_cache 0
Core_0_L1D_pq_full 0

Core_0_L1D_acc_epochs 775555
Core_0_L1D_acc_level_0 775555
Core_0_L1D_acc_level_1 0
Core_0_L1D_acc_level_2 0
Core_0_L1D_acc_level_3 0
Core_0_L1D_acc_level_4 0
Core_0_L1D_acc_level_5 0
Core_0_L1D_acc_level_6 0
Core_0_L1D_acc_level_7 0
Core_0_L1D_acc_level_8 0
Core_0_L1D_acc_level_9 0

Core_0_L1I_total_access 133672789
Core_0_L1I_total_hit 133672789
Core_0_L1I_total_miss 0
Core_0_L1I_loads 133672789
Core_0_L1I_load_hit 133672789
Core_0_L1I_load_miss 0
Core_0_L1I_RFOs 0
Core_0_L1I_RFO_hit 0
Core_0_L1I_RFO_miss 0
Core_0_L1I_prefetches 0
Core_0_L1I_prefetch_hit 0
Core_0_L1I_prefetch_miss 0
Core_0_L1I_writebacks 0
Core_0_L1I_writeback_hit 0
Core_0_L1I_writeback_miss 0
Core_0_L1I_prefetch_requested 0
Core_0_L1I_prefetch_dropped 0
Core_0_L1I_prefetch_issued 0
Core_0_L1I_prefetch_filled 0
Core_0_L1I_prefetch_useful 0
Core_0_L1I_prefetch_useless 0
Core_0_L1I_prefetch_late 0
Core_0_L1I_average_miss_latency -nan

Core_0_L1I_rq_access 500000000
Core_0_L1I_rq_forward 0
Core_0_L1I_rq_merged 366327211
Core_0_L1I_rq_to_cache 133672789
Core_0_L1I_rq_full 0

Core_0_L1I_wq_access 0
Core_0_L1I_wq_forward 0
Core_0_L1I_wq_merged 0
Core_0_L1I_wq_to_cache 0
Core_0_L1I_wq_full 0

Core_0_L1I_pq_access 0
Core_0_L1I_pq_forward 0
Core_0_L1I_pq_merged 0
Core_0_L1I_pq_to_cache 0
Core_0_L1I_pq_full 0

Core_0_L1I_acc_epochs 775555
Core_0_L1I_acc_level_0 775555
Core_0_L1I_acc_level_1 0
Core_0_L1I_acc_level_2 0
Core_0_L1I_acc_level_3 0
Core_0_L1I_acc_level_4 0
Core_0_L1I_acc_level_5 0
Core_0_L1I_acc_level_6 0
Core_0_L1I_acc_level_7 0
Core_0_L1I_acc_level_8 0
Core_0_L1I_acc_level_9 0

Core_0_L2C_total_access 9968517
Core_0_L2C_total_hit 7384692
Core_0_L2C_total_miss 2583825
Core_0_L2C_loads 3236939
Core_0_L2C_load_hit 2464273
Core_0_L2C_load_miss 772666
Core_0_L2C_RFOs 752537
Core_0_L2C_RFO_hit 78
Core_0_L2C_RFO_miss 752459
Core_0_L2C_prefetches 5192789
Core_0_L2C_prefetch_hit 4134876
Core_0_L2C_prefetch_miss 1057913
Core_0_L2C_writebacks 786252
Core_0_L2C_writeback_hit 785465
Core_0_L2C_writeback_miss 787
Core_0_L2C_prefetch_requested 16830067
Core_0_L2C_prefetch_dropped 1407157
Core_0_L2C_prefetch_issued 15422910
Core_0_L2C_prefetch_filled 1239946
Core_0_L2C_prefetch_useful 1238905
Core_0_L2C_prefetch_useless 1027
Core_0_L2C_prefetch_late 25982
Core_0_L2C_average_miss_latency 879.45525

Core_0_L2C_rq_access 3989476
Core_0_L2C_rq_forward 0
Core_0_L2C_rq_merged 0
Core_0_L2C_rq_to_cache 3989476
Core_0_L2C_rq_full 0

Core_0_L2C_wq_access 786252
Core_0_L2C_wq_forward 0
Core_0_L2C_wq_merged 0
Core_0_L2C_wq_to_cache 786252
Core_0_L2C_wq_full 0

Core_0_L2C_pq_access 15422910
Core_0_L2C_pq_forward 0
Core_0_L2C_pq_merged 493930
Core_0_L2C_pq_to_cache 14928980
Core_0_L2C_pq_full 0

Core_0_L2C_acc_epochs 775555
Core_0_L2C_acc_level_0 245015
Core_0_L2C_acc_level_1 101251
Core_0_L2C_acc_level_2 86786
Core_0_L2C_acc_level_3 61187
Core_0_L2C_acc_level_4 37056
Core_0_L2C_acc_level_5 69921
Core_0_L2C_acc_level_6 36306
Core_0_L2C_acc_level_7 29997
Core_0_L2C_acc_level_8 21501
Core_0_L2C_acc_level_9 86535

Core_0_LLC_total_access 10560232
Core_0_LLC_total_hit 7295638
Core_0_LLC_total_miss 3264594
Core_0_LLC_loads 746695
Core_0_LLC_load_hit 666742
Core_0_LLC_load_miss 79953
Core_0_LLC_RFOs 752459
Core_0_LLC_RFO_hit 17370
Core_0_LLC_RFO_miss 735089
Core_0_LLC_prefetches 8308088
Core_0_LLC_prefetch_hit 6553564
Core_0_LLC_prefetch_miss 1754524
Core_0_LLC_writebacks 752990
Core_0_LLC_writeback_hit 57962
Core_0_LLC_writeback_miss 695028
Core_0_LLC_prefetch_requested 0
Core_0_LLC_prefetch_dropped 0
Core_0_LLC_prefetch_issued 0
Core_0_LLC_prefetch_filled 2077180
Core_0_LLC_prefetch_useful 819267
Core_0_LLC_prefetch_useless 1241241
Core_0_LLC_prefetch_late 2597
Core_0_LLC_average_miss_latency 1523.63552

Core_0_LLC_rq_access 1499154
Core_0_LLC_rq_forward 0
Core_0_LLC_rq_merged 0
Core_0_LLC_rq_to_cache 1499154
Core_0_LLC_rq_full 0

Core_0_LLC_wq_access 752990
Core_0_LLC_wq_forward 0
Core_0_LLC_wq_merged 0
Core_0_LLC_wq_to_cache 752990
Core_0_LLC_wq_full 0

Core_0_LLC_pq_access 9908414
Core_0_LLC_pq_forward 0
Core_0_LLC_pq_merged 16552
Core_0_LLC_pq_to_cache 9891862
Core_0_LLC_pq_full 0

Core_0_LLC_acc_epochs 1403648
Core_0_LLC_acc_level_0 714959
Core_0_LLC_acc_level_1 197219
Core_0_LLC_acc_level_2 147412
Core_0_LLC_acc_level_3 76720
Core_0_LLC_acc_level_4 30095
Core_0_LLC_acc_level_5 104064
Core_0_LLC_acc_level_6 30225
Core_0_LLC_acc_level_7 22451
Core_0_LLC_acc_level_8 11720
Core_0_LLC_acc_level_9 68783

Core_0_major_page_fault 0
Core_0_minor_page_fault 23870

spp.pref.total 16830067
spp.pref.at_L2 2109144
spp.pref.at_LLC 14720923

spp.depth.max 10
spp.depth.min 0
spp.depth.avg 5

spp.breadth.max 2
spp.breadth.min 0
spp.breadth.avg 0

delta_1 9449897
delta_15 2856233
delta_16 2809026
delta_-30 2005801
delta_-15 975887
delta_-14 914488
delta_2 56516
delta_-1 30889
delta_-5 21044
delta_31 15060
delta_30 10349
delta_-2 9969
delta_-3 8732
delta_4 6915
delta_-7 5831
delta_-22 4947
delta_26 4354
delta_-26 4267
delta_8 3960
delta_27 3823
delta_-19 3566
delta_18 2281
delta_-23 2244
delta_48 2156
delta_-6 2066
delta_-4 2016
delta_7 1487
delta_20 1243
delta_-44 633
delta_24 531
delta_-46 402
delta_-56 356
delta_51 287
delta_52 273
delta_11 228
delta_25 226
delta_6 160
delta_29 138
delta_21 128
delta_-50 121
delta_-11 116
delta_5 112
delta_13 91
delta_-27 73
delta_-24 68
delta_17 62
delta_-49 48
delta_3 39
delta_55 37
delta_-35 33
delta_-38 29
delta_-12 26
delta_53 25
delta_-32 21
delta_14 18
delta_-55 14
delta_-10 14
delta_19 12
delta_33 10
delta_-47 9
delta_36 9
delta_39 6
delta_10 5
delta_54 5
delta_56 5
delta_-57 3
delta_22 3
delta_-41 3
delta_40 2
delta_-18 1

depth_1_delta_1 1722270
depth_1_delta_16 596290
depth_1_delta_15 571778
depth_1_delta_-30 383765
depth_1_delta_-15 230523
depth_1_delta_-14 209133
depth_1_delta_2 12369
depth_1_delta_-1 10126
depth_1_delta_30 10084
depth_1_delta_31 10034
depth_1_delta_-2 6054
depth_1_delta_-5 4608
depth_1_delta_8 2876
depth_1_delta_-3 2501
depth_1_delta_-22 2372
depth_1_delta_4 2337
depth_1_delta_48 2156
depth_1_delta_-7 1915
depth_1_delta_26 1579
depth_1_delta_27 1511
depth_1_delta_-26 1396
depth_1_delta_-6 1125
depth_1_delta_-4 1062
depth_1_delta_-19 1034
depth_1_delta_18 772
depth_1_delta_7 585
depth_1_delta_-23 470
depth_1_delta_20 427
depth_1_delta_24 371
depth_1_delta_-44 288
depth_1_delta_52 271
depth_1_delta_51 234
depth_1_delta_-56 219
depth_1_delta_-46 216
depth_1_delta_11 211
depth_1_delta_25 162
depth_1_delta_29 138
depth_1_delta_6 128
depth_1_delta_-50 117
depth_1_delta_21 108
depth_1_delta_5 73
depth_1_delta_-24 64
depth_1_delta_17 60
depth_1_delta_13 59
depth_1_delta_-27 57
depth_1_delta_-11 50
depth_1_delta_-49 46
depth_1_delta_3 39
depth_1_delta_55 37
depth_1_delta_-35 28
depth_1_delta_53 25
depth_1_delta_-12 24
depth_1_delta_-38 21
depth_1_delta_-32 19
depth_1_delta_14 17
depth_1_delta_-55 13
depth_1_delta_19 12
depth_1_delta_36 9
depth_1_delta_33 9
depth_1_delta_-10 9
depth_1_delta_-47 9
depth_1_delta_39 6
depth_1_delta_54 5
depth_1_delta_56 5
depth_1_delta_10 5
depth_1_delta_22 3
depth_1_delta_-41 3
depth_1_delta_-57 3
depth_1_delta_40 2
depth_1_delta_-18 1
depth_2_delta_1 1677810
depth_2_delta_15 578729
depth_2_delta_16 559654
depth_2_delta_-30 394074
depth_2_delta_-15 221751
depth_2_delta_-14 197752
depth_2_delta_2 11454
depth_2_delta_-1 8669
depth_2_delta_-5 4605
depth_2_delta_31 4092
depth_2_delta_-2 3107
depth_2_delta_-3 2611
depth_2_delta_-22 2078
depth_2_delta_-7 1542
depth_2_delta_4 1514
depth_2_delta_26 1426
depth_2_delta_-26 1331
depth_2_delta_27 1281
depth_2_delta_-19 1026
depth_2_delta_8 940
depth_2_delta_-6 772
depth_2_delta_18 740
depth_2_delta_-23 473
depth_2_delta_-4 460
depth_2_delta_7 346
depth_2_delta_20 314
depth_2_delta_30 256
depth_2_delta_-44 232
depth_2_delta_-46 183
depth_2_delta_-56 128
depth_2_delta_24 112
depth_2_delta_25 64
depth_2_delta_51 53
depth_2_delta_5 33
depth_2_delta_13 32
depth_2_delta_-11 27
depth_2_delta_6 20
depth_2_delta_21 18
depth_2_delta_-27 16
depth_2_delta_11 14
depth_2_delta_-10 5
depth_2_delta_-35 5
depth_2_delta_-24 4
depth_2_delta_-50 4
depth_2_delta_-49 2
depth_2_delta_52 2
depth_2_delta_-12 2
depth_2_delta_-32 2
depth_2_delta_-38 1
depth_2_delta_14 1
depth_2_delta_33 1
depth_2_delta_-55 1
depth_2_delta_17 1
depth_3_delta_1 1631378
depth_3_delta_15 561190
depth_3_delta_16 547734
depth_3_delta_-30 389456
depth_3_delta_-15 180200
depth_3_delta_-14 176663
depth_3_delta_2 10107
depth_3_delta_-1 4584
depth_3_delta_-5 4321
depth_3_delta_-3 2444
depth_3_delta_-7 1362
depth_3_delta_4 1311
depth_3_delta_26 1183
depth_3_delta_-26 1067
depth_3_delta_31 934
depth_3_delta_27 806
depth_3_delta_-19 801
depth_3_delta_-2 700
depth_3_delta_18 491
depth_3_delta_-22 486
depth_3_delta_-23 470
depth_3_delta_7 360
depth_3_delta_20 295
depth_3_delta_-4 261
depth_3_delta_-6 162
depth_3_delta_-44 113
depth_3_delta_8 97
depth_3_delta_24 48
depth_3_delta_-11 15
depth_3_delta_6 12
depth_3_delta_30 9
depth_3_delta_-56 9
depth_3_delta_-38 7
depth_3_delta_5 6
depth_3_delta_-46 3
depth_3_delta_11 3
depth_3_delta_21 2
depth_3_delta_17 1
depth_4_delta_1 1577002
depth_4_delta_16 510567
depth_4_delta_15 508958
depth_4_delta_-30 364396
depth_4_delta_-15 167108
depth_4_delta_-14 162539
depth_4_delta_2 9139
depth_4_delta_-1 3067
depth_4_delta_-5 2965
depth_4_delta_-3 1158
depth_4_delta_4 1090
depth_4_delta_-7 1006
depth_4_delta_-19 483
depth_4_delta_-23 456
depth_4_delta_-26 426
depth_4_delta_18 271
depth_4_delta_27 206
depth_4_delta_20 188
depth_4_delta_7 187
depth_4_delta_-4 175
depth_4_delta_26 164
depth_4_delta_-2 108
depth_4_delta_8 47
depth_4_delta_-11 12
depth_4_delta_-22 11
depth_4_delta_-6 7
depth_5_delta_1 1376745
depth_5_delta_15 431516
depth_5_delta_16 403021
depth_5_delta_-30 309196
depth_5_delta_-15 124627
depth_5_delta_-14 115189
depth_5_delta_2 8447
depth_5_delta_-1 2817
depth_5_delta_-5 2813
depth_5_delta_4 619
depth_5_delta_-23 319
depth_5_delta_-19 222
depth_5_delta_-4 58
depth_5_delta_-26 47
depth_5_delta_20 19
depth_5_delta_-3 18
depth_5_delta_27 15
depth_5_delta_7 9
depth_5_delta_-11 9
depth_5_delta_18 7
depth_5_delta_-7 6
depth_5_delta_26 2
depth_6_delta_1 953726
depth_6_delta_15 185664
depth_6_delta_16 173431
depth_6_delta_-30 150254
depth_6_delta_-14 48643
depth_6_delta_-15 46764
depth_6_delta_2 4558
depth_6_delta_-5 1558
depth_6_delta_-1 1510
depth_6_delta_-23 55
depth_6_delta_4 44
depth_6_delta_27 4
depth_6_delta_-11 3
depth_7_delta_1 415232
depth_7_delta_15 18126
depth_7_delta_16 18083
depth_7_delta_-30 14487
depth_7_delta_-15 4880
depth_7_delta_-14 4508
depth_7_delta_2 438
depth_7_delta_-5 172
depth_7_delta_-1 115
depth_7_delta_-23 1
depth_8_delta_1 82993
depth_8_delta_15 269
depth_8_delta_16 245
depth_8_delta_-30 170
depth_8_delta_-14 60
depth_8_delta_-15 34
depth_8_delta_2 4
depth_8_delta_-5 2
depth_8_delta_-1 1
depth_9_delta_1 12708
depth_9_delta_-30 3
depth_9_delta_15 3
depth_9_delta_16 1
depth_9_delta_-14 1
depth_10_delta_1 33

Channel_0_RQ_row_buffer_hit 743790
Channel_0_RQ_row_buffer_miss 1825774
Channel_0_WQ_row_buffer_hit 141047
Channel_0_WQ_row_buffer_miss 611780
Channel_0_WQ_full 0
Channel_0_dbus_congested 2995140

avg_congested_cycle 191

DRAM_bw_pochs 5614591
DRAM_bw_level_0 4062398
DRAM_bw_level_1 0
DRAM_bw_level_2 0
DRAM_bw_level_3 1552193
