*************************************************
   ChampSim Multicore Out-of-Order Simulator
   Last compiled: Dec 11 2024 17:59:53
*************************************************
parsing config file: /home/functionmain/桌面/Pythia/config/bingo.ini

trace_0 /home/functionmain/桌面/Pythia/traces/436.cactusADM-1804B.champsimtrace.xz
adding L2C_PREFETCHER: Bingo
Initialize SHIP state
warmup_instructions 100000000
simulation_instructions 500000000
champsim_seed 271
measure_ipc 0
measure_ipc_epoch 1000
measure_dram_bw 1
measure_dram_bw_epoch 256
measure_cache_acc 1
measure_cache_acc_epoch 1024
l1d_perfect 0
l2c_perfect 0
llc_perfect 0
l1d_semi_perfect 0
l2c_semi_perfect 0
llc_semi_perfect 0
semi_perfect_cache_page_buffer_size 64

num_cpus 1
cpu_freq 4000
dram_io_freq 600
page_size 4096
block_size 64
max_read_per_cycle 8
max_fill_per_cycle 1
dram_channels 1
log2_dram_channels 0
dram_ranks 1
dram_banks 8
dram_rows 65536
dram_columns 128
dram_row_size 8
dram_size 4096
dram_pages 1048576

fetch_width 6
decode_width 6
exec_width 4
lq_width 2
sq_width 2
retire_width 4
scheduler_size 128
branch_mispredict_penalty 20
rob_size 256
lq_size 72
sq_size 56
num_instr_destinations_sparc 4
num_instr_destinations 2
num_instr_sources 4

itlb_set 16
itlb_way 8
itlb_rq_size 16
itlb_wq_size 16
itlb_pq_size 0
itlb_mshr_size 8
itlb_latency 1

dtlb_set 16
dtlb_way 4
dtlb_rq_size 16
dtlb_wq_size 16
dtlb_pq_size 0
dtlb_mshr_size 8
dtlb_latency 1

stlb_set 128
stlb_way 12
stlb_rq_size 32
stlb_wq_size 32
stlb_pq_size 0
stlb_mshr_size 16
stlb_latency 8

l1i_size 32
l1i_set 64
l1i_way 8
l1i_rq_size 64
l1i_wq_size 64
l1i_pq_size 8
l1i_mshr_size 8
l1i_latency 1

l1d_size 32
l1d_set 64
l1d_way 8
l1d_rq_size 64
l1d_wq_size 64
l1d_pq_size 8
l1d_mshr_size 16
l1d_latency 4

l2c_size 256
l2c_set 512
l2c_way 8
l2c_rq_size 32
l2c_wq_size 32
l2c_pq_size 32
l2c_mshr_size 32
l2c_latency 10

llc_size 2048
llc_set 2048
llc_way 16
llc_rq_size 32
llc_wq_size 32
llc_pq_size 32
llc_mshr_size 64
llc_latency 20

dram_channel_width 8
dram_wq_size 64
dram_rq_size 64
tRP 15
tRCD 15
tCAS 12.5
dram_dbus_turn_around_time 30
dram_write_high_wm 56
dram_write_low_wm 48
min_dram_writes_per_switch 16
dram_mtps 600
dram_dbus_return_time 53

bingo_region_size 2048
bingo_pattern_len 32
bingo_pc_width 16
bingo_min_addr_width 5
bingo_max_addr_width 16
bingo_ft_size 64
bingo_at_size 128
bingo_pht_size 4096
bingo_pht_ways 16
bingo_pf_streamer_size 128
bingo_debug_level 0
bingo_l1d_thresh 1.01
bingo_l2c_thresh 0.8
bingo_llc_thresh 0.05
bingo_pc_address_fill_level L2


Heartbeat CPU  0 instructions:    1000003 cycles:     702358 heartbeat IPC: 1.42378 cumulative IPC: 1.42378 (Simulation time: 0 hr 0 min 3 sec) 
Heartbeat CPU  0 instructions:    2000000 cycles:    1404565 heartbeat IPC: 1.42408 cumulative IPC: 1.42393 (Simulation time: 0 hr 0 min 5 sec) 
Heartbeat CPU  0 instructions:    3000000 cycles:    2106905 heartbeat IPC: 1.42381 cumulative IPC: 1.42389 (Simulation time: 0 hr 0 min 7 sec) 
Heartbeat CPU  0 instructions:    4000000 cycles:    2809245 heartbeat IPC: 1.42381 cumulative IPC: 1.42387 (Simulation time: 0 hr 0 min 9 sec) 
Heartbeat CPU  0 instructions:    5000000 cycles:    3511433 heartbeat IPC: 1.42412 cumulative IPC: 1.42392 (Simulation time: 0 hr 0 min 12 sec) 
Heartbeat CPU  0 instructions:    6000000 cycles:    4213768 heartbeat IPC: 1.42382 cumulative IPC: 1.42390 (Simulation time: 0 hr 0 min 14 sec) 
Heartbeat CPU  0 instructions:    7000001 cycles:    4916154 heartbeat IPC: 1.42372 cumulative IPC: 1.42388 (Simulation time: 0 hr 0 min 16 sec) 
Heartbeat CPU  0 instructions:    8000000 cycles:    5618263 heartbeat IPC: 1.42428 cumulative IPC: 1.42393 (Simulation time: 0 hr 0 min 19 sec) 
Heartbeat CPU  0 instructions:    9000001 cycles:    6320730 heartbeat IPC: 1.42356 cumulative IPC: 1.42389 (Simulation time: 0 hr 0 min 21 sec) 
Heartbeat CPU  0 instructions:   10000000 cycles:    7022899 heartbeat IPC: 1.42416 cumulative IPC: 1.42391 (Simulation time: 0 hr 0 min 23 sec) 
Heartbeat CPU  0 instructions:   11000002 cycles:    7725101 heartbeat IPC: 1.42409 cumulative IPC: 1.42393 (Simulation time: 0 hr 0 min 26 sec) 
Heartbeat CPU  0 instructions:   12000000 cycles:    8427233 heartbeat IPC: 1.42423 cumulative IPC: 1.42395 (Simulation time: 0 hr 0 min 28 sec) 
Heartbeat CPU  0 instructions:   13000000 cycles:    9129800 heartbeat IPC: 1.42335 cumulative IPC: 1.42391 (Simulation time: 0 hr 0 min 30 sec) 
Heartbeat CPU  0 instructions:   14000002 cycles:    9832042 heartbeat IPC: 1.42401 cumulative IPC: 1.42392 (Simulation time: 0 hr 0 min 33 sec) 
Heartbeat CPU  0 instructions:   15000002 cycles:   10533965 heartbeat IPC: 1.42466 cumulative IPC: 1.42397 (Simulation time: 0 hr 0 min 35 sec) 
Heartbeat CPU  0 instructions:   16000000 cycles:   11236496 heartbeat IPC: 1.42342 cumulative IPC: 1.42393 (Simulation time: 0 hr 0 min 37 sec) 
Heartbeat CPU  0 instructions:   17000000 cycles:   11939027 heartbeat IPC: 1.42342 cumulative IPC: 1.42390 (Simulation time: 0 hr 0 min 40 sec) 
Heartbeat CPU  0 instructions:   18000001 cycles:   12600714 heartbeat IPC: 1.51129 cumulative IPC: 1.42849 (Simulation time: 0 hr 0 min 42 sec) 
Heartbeat CPU  0 instructions:   19000000 cycles:   13234770 heartbeat IPC: 1.57715 cumulative IPC: 1.43561 (Simulation time: 0 hr 0 min 44 sec) 
Heartbeat CPU  0 instructions:   20000000 cycles:   13937334 heartbeat IPC: 1.42336 cumulative IPC: 1.43499 (Simulation time: 0 hr 0 min 47 sec) 
Heartbeat CPU  0 instructions:   21000000 cycles:   14639716 heartbeat IPC: 1.42373 cumulative IPC: 1.43445 (Simulation time: 0 hr 0 min 49 sec) 
Heartbeat CPU  0 instructions:   22000002 cycles:   15342019 heartbeat IPC: 1.42389 cumulative IPC: 1.43397 (Simulation time: 0 hr 0 min 51 sec) 
Heartbeat CPU  0 instructions:   23000001 cycles:   16044381 heartbeat IPC: 1.42377 cumulative IPC: 1.43352 (Simulation time: 0 hr 0 min 54 sec) 
Heartbeat CPU  0 instructions:   24000000 cycles:   16746500 heartbeat IPC: 1.42426 cumulative IPC: 1.43314 (Simulation time: 0 hr 0 min 56 sec) 
Heartbeat CPU  0 instructions:   25000001 cycles:   17448797 heartbeat IPC: 1.42390 cumulative IPC: 1.43276 (Simulation time: 0 hr 0 min 58 sec) 
Heartbeat CPU  0 instructions:   26000003 cycles:   18151425 heartbeat IPC: 1.42323 cumulative IPC: 1.43239 (Simulation time: 0 hr 1 min 0 sec) 
Heartbeat CPU  0 instructions:   27000003 cycles:   18853640 heartbeat IPC: 1.42407 cumulative IPC: 1.43208 (Simulation time: 0 hr 1 min 3 sec) 
Heartbeat CPU  0 instructions:   28000000 cycles:   19555783 heartbeat IPC: 1.42421 cumulative IPC: 1.43180 (Simulation time: 0 hr 1 min 5 sec) 
Heartbeat CPU  0 instructions:   29000000 cycles:   20258224 heartbeat IPC: 1.42361 cumulative IPC: 1.43152 (Simulation time: 0 hr 1 min 7 sec) 
Heartbeat CPU  0 instructions:   30000003 cycles:   20960607 heartbeat IPC: 1.42373 cumulative IPC: 1.43126 (Simulation time: 0 hr 1 min 10 sec) 
Heartbeat CPU  0 instructions:   31000003 cycles:   21662566 heartbeat IPC: 1.42458 cumulative IPC: 1.43104 (Simulation time: 0 hr 1 min 12 sec) 
Heartbeat CPU  0 instructions:   32000000 cycles:   22364632 heartbeat IPC: 1.42436 cumulative IPC: 1.43083 (Simulation time: 0 hr 1 min 14 sec) 
Heartbeat CPU  0 instructions:   33000001 cycles:   23067342 heartbeat IPC: 1.42306 cumulative IPC: 1.43059 (Simulation time: 0 hr 1 min 17 sec) 
Heartbeat CPU  0 instructions:   34000000 cycles:   23769451 heartbeat IPC: 1.42428 cumulative IPC: 1.43041 (Simulation time: 0 hr 1 min 19 sec) 
Heartbeat CPU  0 instructions:   35000001 cycles:   24471706 heartbeat IPC: 1.42399 cumulative IPC: 1.43022 (Simulation time: 0 hr 1 min 21 sec) 
Heartbeat CPU  0 instructions:   36000000 cycles:   25173970 heartbeat IPC: 1.42396 cumulative IPC: 1.43005 (Simulation time: 0 hr 1 min 24 sec) 
Heartbeat CPU  0 instructions:   37000000 cycles:   25876514 heartbeat IPC: 1.42340 cumulative IPC: 1.42987 (Simulation time: 0 hr 1 min 26 sec) 
Heartbeat CPU  0 instructions:   38000001 cycles:   26578708 heartbeat IPC: 1.42411 cumulative IPC: 1.42972 (Simulation time: 0 hr 1 min 28 sec) 
Heartbeat CPU  0 instructions:   39000000 cycles:   27280970 heartbeat IPC: 1.42397 cumulative IPC: 1.42957 (Simulation time: 0 hr 1 min 31 sec) 
Heartbeat CPU  0 instructions:   40000000 cycles:   27983255 heartbeat IPC: 1.42392 cumulative IPC: 1.42943 (Simulation time: 0 hr 1 min 33 sec) 
Heartbeat CPU  0 instructions:   41000000 cycles:   28587298 heartbeat IPC: 1.65551 cumulative IPC: 1.43420 (Simulation time: 0 hr 1 min 35 sec) 
Heartbeat CPU  0 instructions:   42000002 cycles:   29278408 heartbeat IPC: 1.44695 cumulative IPC: 1.43450 (Simulation time: 0 hr 1 min 38 sec) 
Heartbeat CPU  0 instructions:   43000002 cycles:   29980814 heartbeat IPC: 1.42368 cumulative IPC: 1.43425 (Simulation time: 0 hr 1 min 40 sec) 
Heartbeat CPU  0 instructions:   44000000 cycles:   30683245 heartbeat IPC: 1.42362 cumulative IPC: 1.43401 (Simulation time: 0 hr 1 min 42 sec) 
Heartbeat CPU  0 instructions:   45000003 cycles:   31385530 heartbeat IPC: 1.42393 cumulative IPC: 1.43378 (Simulation time: 0 hr 1 min 45 sec) 
Heartbeat CPU  0 instructions:   46000003 cycles:   32087715 heartbeat IPC: 1.42413 cumulative IPC: 1.43357 (Simulation time: 0 hr 1 min 47 sec) 
Heartbeat CPU  0 instructions:   47000000 cycles:   32789882 heartbeat IPC: 1.42416 cumulative IPC: 1.43337 (Simulation time: 0 hr 1 min 50 sec) 
Heartbeat CPU  0 instructions:   48000000 cycles:   33492504 heartbeat IPC: 1.42324 cumulative IPC: 1.43316 (Simulation time: 0 hr 1 min 52 sec) 
Heartbeat CPU  0 instructions:   49000000 cycles:   34194517 heartbeat IPC: 1.42448 cumulative IPC: 1.43298 (Simulation time: 0 hr 1 min 54 sec) 
Heartbeat CPU  0 instructions:   50000000 cycles:   34896851 heartbeat IPC: 1.42382 cumulative IPC: 1.43279 (Simulation time: 0 hr 1 min 57 sec) 
Heartbeat CPU  0 instructions:   51000000 cycles:   35599367 heartbeat IPC: 1.42346 cumulative IPC: 1.43261 (Simulation time: 0 hr 1 min 59 sec) 
Heartbeat CPU  0 instructions:   52000000 cycles:   36301555 heartbeat IPC: 1.42412 cumulative IPC: 1.43245 (Simulation time: 0 hr 2 min 1 sec) 
Heartbeat CPU  0 instructions:   53000000 cycles:   37003992 heartbeat IPC: 1.42362 cumulative IPC: 1.43228 (Simulation time: 0 hr 2 min 4 sec) 
Heartbeat CPU  0 instructions:   54000001 cycles:   37706084 heartbeat IPC: 1.42432 cumulative IPC: 1.43213 (Simulation time: 0 hr 2 min 6 sec) 
Heartbeat CPU  0 instructions:   55000001 cycles:   38408371 heartbeat IPC: 1.42392 cumulative IPC: 1.43198 (Simulation time: 0 hr 2 min 8 sec) 
Heartbeat CPU  0 instructions:   56000000 cycles:   39110857 heartbeat IPC: 1.42351 cumulative IPC: 1.43183 (Simulation time: 0 hr 2 min 11 sec) 
Heartbeat CPU  0 instructions:   57000000 cycles:   39813341 heartbeat IPC: 1.42352 cumulative IPC: 1.43168 (Simulation time: 0 hr 2 min 13 sec) 
Heartbeat CPU  0 instructions:   58000003 cycles:   40515663 heartbeat IPC: 1.42385 cumulative IPC: 1.43155 (Simulation time: 0 hr 2 min 15 sec) 
Heartbeat CPU  0 instructions:   59000000 cycles:   41217798 heartbeat IPC: 1.42422 cumulative IPC: 1.43142 (Simulation time: 0 hr 2 min 18 sec) 
Heartbeat CPU  0 instructions:   60000000 cycles:   41920222 heartbeat IPC: 1.42364 cumulative IPC: 1.43129 (Simulation time: 0 hr 2 min 20 sec) 
Heartbeat CPU  0 instructions:   61000000 cycles:   42622419 heartbeat IPC: 1.42410 cumulative IPC: 1.43117 (Simulation time: 0 hr 2 min 22 sec) 
Heartbeat CPU  0 instructions:   62000002 cycles:   43324676 heartbeat IPC: 1.42398 cumulative IPC: 1.43106 (Simulation time: 0 hr 2 min 25 sec) 
Heartbeat CPU  0 instructions:   63000000 cycles:   43971272 heartbeat IPC: 1.54656 cumulative IPC: 1.43275 (Simulation time: 0 hr 2 min 27 sec) 
Heartbeat CPU  0 instructions:   64000000 cycles:   44621419 heartbeat IPC: 1.53811 cumulative IPC: 1.43429 (Simulation time: 0 hr 2 min 29 sec) 
Heartbeat CPU  0 instructions:   65000000 cycles:   45323503 heartbeat IPC: 1.42433 cumulative IPC: 1.43413 (Simulation time: 0 hr 2 min 32 sec) 
Heartbeat CPU  0 instructions:   66000001 cycles:   46025597 heartbeat IPC: 1.42431 cumulative IPC: 1.43398 (Simulation time: 0 hr 2 min 34 sec) 
Heartbeat CPU  0 instructions:   67000002 cycles:   46727722 heartbeat IPC: 1.42425 cumulative IPC: 1.43384 (Simulation time: 0 hr 2 min 36 sec) 
Heartbeat CPU  0 instructions:   68000000 cycles:   47430107 heartbeat IPC: 1.42372 cumulative IPC: 1.43369 (Simulation time: 0 hr 2 min 39 sec) 
Heartbeat CPU  0 instructions:   69000000 cycles:   48132271 heartbeat IPC: 1.42417 cumulative IPC: 1.43355 (Simulation time: 0 hr 2 min 41 sec) 
Heartbeat CPU  0 instructions:   70000002 cycles:   48834372 heartbeat IPC: 1.42430 cumulative IPC: 1.43342 (Simulation time: 0 hr 2 min 43 sec) 
Heartbeat CPU  0 instructions:   71000003 cycles:   49537006 heartbeat IPC: 1.42322 cumulative IPC: 1.43327 (Simulation time: 0 hr 2 min 46 sec) 
Heartbeat CPU  0 instructions:   72000000 cycles:   50239092 heartbeat IPC: 1.42432 cumulative IPC: 1.43315 (Simulation time: 0 hr 2 min 48 sec) 
Heartbeat CPU  0 instructions:   73000001 cycles:   50941224 heartbeat IPC: 1.42423 cumulative IPC: 1.43302 (Simulation time: 0 hr 2 min 50 sec) 
Heartbeat CPU  0 instructions:   74000003 cycles:   51643543 heartbeat IPC: 1.42386 cumulative IPC: 1.43290 (Simulation time: 0 hr 2 min 52 sec) 
Heartbeat CPU  0 instructions:   75000002 cycles:   52346219 heartbeat IPC: 1.42313 cumulative IPC: 1.43277 (Simulation time: 0 hr 2 min 55 sec) 
Heartbeat CPU  0 instructions:   76000000 cycles:   53048418 heartbeat IPC: 1.42409 cumulative IPC: 1.43265 (Simulation time: 0 hr 2 min 57 sec) 
Heartbeat CPU  0 instructions:   77000003 cycles:   53751047 heartbeat IPC: 1.42323 cumulative IPC: 1.43253 (Simulation time: 0 hr 2 min 59 sec) 
Heartbeat CPU  0 instructions:   78000001 cycles:   54453549 heartbeat IPC: 1.42348 cumulative IPC: 1.43241 (Simulation time: 0 hr 3 min 2 sec) 
Heartbeat CPU  0 instructions:   79000001 cycles:   55155481 heartbeat IPC: 1.42464 cumulative IPC: 1.43231 (Simulation time: 0 hr 3 min 4 sec) 
Heartbeat CPU  0 instructions:   80000000 cycles:   55857549 heartbeat IPC: 1.42436 cumulative IPC: 1.43221 (Simulation time: 0 hr 3 min 6 sec) 
Heartbeat CPU  0 instructions:   81000002 cycles:   56559921 heartbeat IPC: 1.42375 cumulative IPC: 1.43211 (Simulation time: 0 hr 3 min 9 sec) 
Heartbeat CPU  0 instructions:   82000003 cycles:   57262171 heartbeat IPC: 1.42400 cumulative IPC: 1.43201 (Simulation time: 0 hr 3 min 11 sec) 
Heartbeat CPU  0 instructions:   83000001 cycles:   57964438 heartbeat IPC: 1.42396 cumulative IPC: 1.43191 (Simulation time: 0 hr 3 min 13 sec) 
Heartbeat CPU  0 instructions:   84000000 cycles:   58666670 heartbeat IPC: 1.42403 cumulative IPC: 1.43182 (Simulation time: 0 hr 3 min 16 sec) 
Heartbeat CPU  0 instructions:   85000000 cycles:   59355247 heartbeat IPC: 1.45227 cumulative IPC: 1.43206 (Simulation time: 0 hr 3 min 18 sec) 
Heartbeat CPU  0 instructions:   86000002 cycles:   59962630 heartbeat IPC: 1.64641 cumulative IPC: 1.43423 (Simulation time: 0 hr 3 min 20 sec) 
Heartbeat CPU  0 instructions:   87000002 cycles:   60665108 heartbeat IPC: 1.42353 cumulative IPC: 1.43410 (Simulation time: 0 hr 3 min 23 sec) 
Heartbeat CPU  0 instructions:   88000000 cycles:   61367738 heartbeat IPC: 1.42322 cumulative IPC: 1.43398 (Simulation time: 0 hr 3 min 25 sec) 
Heartbeat CPU  0 instructions:   89000001 cycles:   62069762 heartbeat IPC: 1.42445 cumulative IPC: 1.43387 (Simulation time: 0 hr 3 min 27 sec) 
Heartbeat CPU  0 instructions:   90000003 cycles:   62772084 heartbeat IPC: 1.42385 cumulative IPC: 1.43376 (Simulation time: 0 hr 3 min 30 sec) 
Heartbeat CPU  0 instructions:   91000003 cycles:   63474473 heartbeat IPC: 1.42371 cumulative IPC: 1.43365 (Simulation time: 0 hr 3 min 32 sec) 
Heartbeat CPU  0 instructions:   92000000 cycles:   64176670 heartbeat IPC: 1.42410 cumulative IPC: 1.43354 (Simulation time: 0 hr 3 min 34 sec) 
Heartbeat CPU  0 instructions:   93000002 cycles:   64879055 heartbeat IPC: 1.42372 cumulative IPC: 1.43344 (Simulation time: 0 hr 3 min 37 sec) 
Heartbeat CPU  0 instructions:   94000002 cycles:   65581076 heartbeat IPC: 1.42446 cumulative IPC: 1.43334 (Simulation time: 0 hr 3 min 39 sec) 
Heartbeat CPU  0 instructions:   95000003 cycles:   66283238 heartbeat IPC: 1.42417 cumulative IPC: 1.43324 (Simulation time: 0 hr 3 min 41 sec) 
Heartbeat CPU  0 instructions:   96000000 cycles:   66985485 heartbeat IPC: 1.42400 cumulative IPC: 1.43315 (Simulation time: 0 hr 3 min 44 sec) 
Heartbeat CPU  0 instructions:   97000000 cycles:   67687829 heartbeat IPC: 1.42380 cumulative IPC: 1.43305 (Simulation time: 0 hr 3 min 46 sec) 
Heartbeat CPU  0 instructions:   98000002 cycles:   68390019 heartbeat IPC: 1.42412 cumulative IPC: 1.43296 (Simulation time: 0 hr 3 min 48 sec) 
Heartbeat CPU  0 instructions:   99000003 cycles:   69092236 heartbeat IPC: 1.42406 cumulative IPC: 1.43287 (Simulation time: 0 hr 3 min 51 sec) 
Heartbeat CPU  0 instructions:  100000000 cycles:   69794613 heartbeat IPC: 1.42373 cumulative IPC: 1.43278 (Simulation time: 0 hr 3 min 53 sec) 

Warmup complete CPU  0 instructions:  100000001 cycles:   69794633 (Simulation time: 0 hr 3 min 53 sec) 

Heartbeat CPU  0 instructions:  101000000 cycles:   71721036 heartbeat IPC: 0.51910 cumulative IPC: 0.51910 (Simulation time: 0 hr 3 min 56 sec) 
Heartbeat CPU  0 instructions:  102000003 cycles:   73473455 heartbeat IPC: 0.57064 cumulative IPC: 0.54365 (Simulation time: 0 hr 3 min 58 sec) 
Heartbeat CPU  0 instructions:  103000003 cycles:   75339448 heartbeat IPC: 0.53591 cumulative IPC: 0.54105 (Simulation time: 0 hr 4 min 1 sec) 
Heartbeat CPU  0 instructions:  104000000 cycles:   77255626 heartbeat IPC: 0.52187 cumulative IPC: 0.53612 (Simulation time: 0 hr 4 min 4 sec) 
Heartbeat CPU  0 instructions:  105000002 cycles:   79087551 heartbeat IPC: 0.54587 cumulative IPC: 0.53804 (Simulation time: 0 hr 4 min 6 sec) 
Heartbeat CPU  0 instructions:  106000000 cycles:   80880091 heartbeat IPC: 0.55787 cumulative IPC: 0.54125 (Simulation time: 0 hr 4 min 9 sec) 
Heartbeat CPU  0 instructions:  107000003 cycles:   82790343 heartbeat IPC: 0.52349 cumulative IPC: 0.53864 (Simulation time: 0 hr 4 min 12 sec) 
Heartbeat CPU  0 instructions:  108000000 cycles:   94003735 heartbeat IPC: 0.08918 cumulative IPC: 0.33045 (Simulation time: 0 hr 4 min 15 sec) 
Heartbeat CPU  0 instructions:  109000003 cycles:  101004724 heartbeat IPC: 0.14284 cumulative IPC: 0.28837 (Simulation time: 0 hr 4 min 19 sec) 
Heartbeat CPU  0 instructions:  110000001 cycles:  102931820 heartbeat IPC: 0.51891 cumulative IPC: 0.30178 (Simulation time: 0 hr 4 min 21 sec) 
Heartbeat CPU  0 instructions:  111000000 cycles:  104870885 heartbeat IPC: 0.51571 cumulative IPC: 0.31360 (Simulation time: 0 hr 4 min 24 sec) 
Heartbeat CPU  0 instructions:  112000000 cycles:  106654705 heartbeat IPC: 0.56059 cumulative IPC: 0.32556 (Simulation time: 0 hr 4 min 27 sec) 
Heartbeat CPU  0 instructions:  113000000 cycles:  108536782 heartbeat IPC: 0.53133 cumulative IPC: 0.33555 (Simulation time: 0 hr 4 min 30 sec) 
Heartbeat CPU  0 instructions:  114000000 cycles:  110477176 heartbeat IPC: 0.51536 cumulative IPC: 0.34413 (Simulation time: 0 hr 4 min 32 sec) 
Heartbeat CPU  0 instructions:  115000001 cycles:  112317535 heartbeat IPC: 0.54337 cumulative IPC: 0.35275 (Simulation time: 0 hr 4 min 35 sec) 
Heartbeat CPU  0 instructions:  116000000 cycles:  114117113 heartbeat IPC: 0.55569 cumulative IPC: 0.36099 (Simulation time: 0 hr 4 min 38 sec) 
Heartbeat CPU  0 instructions:  117000003 cycles:  116040542 heartbeat IPC: 0.51991 cumulative IPC: 0.36760 (Simulation time: 0 hr 4 min 40 sec) 
Heartbeat CPU  0 instructions:  118000002 cycles:  117944254 heartbeat IPC: 0.52529 cumulative IPC: 0.37383 (Simulation time: 0 hr 4 min 43 sec) 
Heartbeat CPU  0 instructions:  119000002 cycles:  119688700 heartbeat IPC: 0.57325 cumulative IPC: 0.38081 (Simulation time: 0 hr 4 min 46 sec) 
Heartbeat CPU  0 instructions:  120000000 cycles:  121601382 heartbeat IPC: 0.52283 cumulative IPC: 0.38605 (Simulation time: 0 hr 4 min 49 sec) 
Heartbeat CPU  0 instructions:  121000003 cycles:  123516600 heartbeat IPC: 0.52214 cumulative IPC: 0.39090 (Simulation time: 0 hr 4 min 51 sec) 
Heartbeat CPU  0 instructions:  122000000 cycles:  125298217 heartbeat IPC: 0.56129 cumulative IPC: 0.39637 (Simulation time: 0 hr 4 min 54 sec) 
Heartbeat CPU  0 instructions:  123000002 cycles:  127151530 heartbeat IPC: 0.53958 cumulative IPC: 0.40100 (Simulation time: 0 hr 4 min 57 sec) 
Heartbeat CPU  0 instructions:  124000000 cycles:  129071009 heartbeat IPC: 0.52097 cumulative IPC: 0.40488 (Simulation time: 0 hr 4 min 59 sec) 
Heartbeat CPU  0 instructions:  125000000 cycles:  130932921 heartbeat IPC: 0.53708 cumulative IPC: 0.40891 (Simulation time: 0 hr 5 min 2 sec) 
Heartbeat CPU  0 instructions:  126000002 cycles:  132723665 heartbeat IPC: 0.55843 cumulative IPC: 0.41316 (Simulation time: 0 hr 5 min 5 sec) 
Heartbeat CPU  0 instructions:  127000002 cycles:  134760003 heartbeat IPC: 0.49108 cumulative IPC: 0.41561 (Simulation time: 0 hr 5 min 8 sec) 
Heartbeat CPU  0 instructions:  128000000 cycles:  136666600 heartbeat IPC: 0.52449 cumulative IPC: 0.41871 (Simulation time: 0 hr 5 min 10 sec) 
Heartbeat CPU  0 instructions:  129000001 cycles:  138404771 heartbeat IPC: 0.57532 cumulative IPC: 0.42268 (Simulation time: 0 hr 5 min 13 sec) 
Heartbeat CPU  0 instructions:  130000000 cycles:  144116508 heartbeat IPC: 0.17508 cumulative IPC: 0.40365 (Simulation time: 0 hr 5 min 16 sec) 
Heartbeat CPU  0 instructions:  131000003 cycles:  156651596 heartbeat IPC: 0.07978 cumulative IPC: 0.35691 (Simulation time: 0 hr 5 min 20 sec) 
Heartbeat CPU  0 instructions:  132000000 cycles:  158451344 heartbeat IPC: 0.55563 cumulative IPC: 0.36094 (Simulation time: 0 hr 5 min 23 sec) 
Heartbeat CPU  0 instructions:  133000000 cycles:  160316378 heartbeat IPC: 0.53618 cumulative IPC: 0.36455 (Simulation time: 0 hr 5 min 25 sec) 
Heartbeat CPU  0 instructions:  134000000 cycles:  162252774 heartbeat IPC: 0.51642 cumulative IPC: 0.36773 (Simulation time: 0 hr 5 min 28 sec) 
Heartbeat CPU  0 instructions:  135000000 cycles:  164117220 heartbeat IPC: 0.53635 cumulative IPC: 0.37107 (Simulation time: 0 hr 5 min 31 sec) 
Heartbeat CPU  0 instructions:  136000000 cycles:  165904208 heartbeat IPC: 0.55960 cumulative IPC: 0.37457 (Simulation time: 0 hr 5 min 33 sec) 
Heartbeat CPU  0 instructions:  137000002 cycles:  167825977 heartbeat IPC: 0.52035 cumulative IPC: 0.37743 (Simulation time: 0 hr 5 min 36 sec) 
Heartbeat CPU  0 instructions:  138000001 cycles:  169735224 heartbeat IPC: 0.52377 cumulative IPC: 0.38023 (Simulation time: 0 hr 5 min 39 sec) 
Heartbeat CPU  0 instructions:  139000001 cycles:  171477818 heartbeat IPC: 0.57386 cumulative IPC: 0.38354 (Simulation time: 0 hr 5 min 42 sec) 
Heartbeat CPU  0 instructions:  140000000 cycles:  173384089 heartbeat IPC: 0.52458 cumulative IPC: 0.38614 (Simulation time: 0 hr 5 min 44 sec) 
Heartbeat CPU  0 instructions:  141000000 cycles:  175301022 heartbeat IPC: 0.52167 cumulative IPC: 0.38860 (Simulation time: 0 hr 5 min 47 sec) 
Heartbeat CPU  0 instructions:  142000001 cycles:  177096234 heartbeat IPC: 0.55704 cumulative IPC: 0.39142 (Simulation time: 0 hr 5 min 50 sec) 
Heartbeat CPU  0 instructions:  143000001 cycles:  178934022 heartbeat IPC: 0.54413 cumulative IPC: 0.39399 (Simulation time: 0 hr 5 min 52 sec) 
Heartbeat CPU  0 instructions:  144000000 cycles:  180856724 heartbeat IPC: 0.52010 cumulative IPC: 0.39617 (Simulation time: 0 hr 5 min 55 sec) 
Heartbeat CPU  0 instructions:  145000000 cycles:  182730990 heartbeat IPC: 0.53354 cumulative IPC: 0.39845 (Simulation time: 0 hr 5 min 58 sec) 
Heartbeat CPU  0 instructions:  146000002 cycles:  184495483 heartbeat IPC: 0.56674 cumulative IPC: 0.40104 (Simulation time: 0 hr 6 min 0 sec) 
Heartbeat CPU  0 instructions:  147000003 cycles:  186411646 heartbeat IPC: 0.52188 cumulative IPC: 0.40303 (Simulation time: 0 hr 6 min 3 sec) 
Heartbeat CPU  0 instructions:  148000000 cycles:  188319197 heartbeat IPC: 0.52423 cumulative IPC: 0.40498 (Simulation time: 0 hr 6 min 6 sec) 
Heartbeat CPU  0 instructions:  149000002 cycles:  190069499 heartbeat IPC: 0.57133 cumulative IPC: 0.40740 (Simulation time: 0 hr 6 min 9 sec) 
Heartbeat CPU  0 instructions:  150000003 cycles:  191961840 heartbeat IPC: 0.52845 cumulative IPC: 0.40928 (Simulation time: 0 hr 6 min 11 sec) 
Heartbeat CPU  0 instructions:  151000003 cycles:  193875485 heartbeat IPC: 0.52256 cumulative IPC: 0.41102 (Simulation time: 0 hr 6 min 14 sec) 
Heartbeat CPU  0 instructions:  152000000 cycles:  195699206 heartbeat IPC: 0.54833 cumulative IPC: 0.41301 (Simulation time: 0 hr 6 min 17 sec) 
Heartbeat CPU  0 instructions:  153000003 cycles:  208895688 heartbeat IPC: 0.07578 cumulative IPC: 0.38102 (Simulation time: 0 hr 6 min 20 sec) 
Heartbeat CPU  0 instructions:  154000000 cycles:  214023803 heartbeat IPC: 0.19500 cumulative IPC: 0.37440 (Simulation time: 0 hr 6 min 23 sec) 
Heartbeat CPU  0 instructions:  155000000 cycles:  215910557 heartbeat IPC: 0.53001 cumulative IPC: 0.37641 (Simulation time: 0 hr 6 min 26 sec) 
Heartbeat CPU  0 instructions:  156000000 cycles:  217676176 heartbeat IPC: 0.56637 cumulative IPC: 0.37868 (Simulation time: 0 hr 6 min 29 sec) 
Heartbeat CPU  0 instructions:  157000001 cycles:  219598914 heartbeat IPC: 0.52009 cumulative IPC: 0.38050 (Simulation time: 0 hr 6 min 32 sec) 
Heartbeat CPU  0 instructions:  158000001 cycles:  221518026 heartbeat IPC: 0.52107 cumulative IPC: 0.38227 (Simulation time: 0 hr 6 min 34 sec) 
Heartbeat CPU  0 instructions:  159000000 cycles:  223268253 heartbeat IPC: 0.57135 cumulative IPC: 0.38443 (Simulation time: 0 hr 6 min 37 sec) 
Heartbeat CPU  0 instructions:  160000000 cycles:  225167175 heartbeat IPC: 0.52661 cumulative IPC: 0.38617 (Simulation time: 0 hr 6 min 40 sec) 
Heartbeat CPU  0 instructions:  161000003 cycles:  227088418 heartbeat IPC: 0.52050 cumulative IPC: 0.38781 (Simulation time: 0 hr 6 min 42 sec) 
Heartbeat CPU  0 instructions:  162000000 cycles:  228904521 heartbeat IPC: 0.55063 cumulative IPC: 0.38967 (Simulation time: 0 hr 6 min 45 sec) 
Heartbeat CPU  0 instructions:  163000003 cycles:  230724855 heartbeat IPC: 0.54935 cumulative IPC: 0.39147 (Simulation time: 0 hr 6 min 48 sec) 
Heartbeat CPU  0 instructions:  164000000 cycles:  232641173 heartbeat IPC: 0.52183 cumulative IPC: 0.39301 (Simulation time: 0 hr 6 min 51 sec) 
Heartbeat CPU  0 instructions:  165000000 cycles:  234540603 heartbeat IPC: 0.52647 cumulative IPC: 0.39455 (Simulation time: 0 hr 6 min 53 sec) 
Heartbeat CPU  0 instructions:  166000001 cycles:  236285432 heartbeat IPC: 0.57312 cumulative IPC: 0.39642 (Simulation time: 0 hr 6 min 56 sec) 
Heartbeat CPU  0 instructions:  167000000 cycles:  238198172 heartbeat IPC: 0.52281 cumulative IPC: 0.39785 (Simulation time: 0 hr 6 min 59 sec) 
Heartbeat CPU  0 instructions:  168000000 cycles:  240113028 heartbeat IPC: 0.52223 cumulative IPC: 0.39925 (Simulation time: 0 hr 7 min 1 sec) 
Heartbeat CPU  0 instructions:  169000001 cycles:  241871753 heartbeat IPC: 0.56859 cumulative IPC: 0.40098 (Simulation time: 0 hr 7 min 4 sec) 
Heartbeat CPU  0 instructions:  170000002 cycles:  243746871 heartbeat IPC: 0.53330 cumulative IPC: 0.40241 (Simulation time: 0 hr 7 min 7 sec) 
Heartbeat CPU  0 instructions:  171000001 cycles:  245666370 heartbeat IPC: 0.52097 cumulative IPC: 0.40370 (Simulation time: 0 hr 7 min 9 sec) 
Heartbeat CPU  0 instructions:  172000000 cycles:  247497022 heartbeat IPC: 0.54625 cumulative IPC: 0.40517 (Simulation time: 0 hr 7 min 12 sec) 
Heartbeat CPU  0 instructions:  173000000 cycles:  249297750 heartbeat IPC: 0.55533 cumulative IPC: 0.40668 (Simulation time: 0 hr 7 min 15 sec) 
Heartbeat CPU  0 instructions:  174000003 cycles:  251217587 heartbeat IPC: 0.52088 cumulative IPC: 0.40789 (Simulation time: 0 hr 7 min 18 sec) 
Heartbeat CPU  0 instructions:  175000000 cycles:  258693013 heartbeat IPC: 0.13377 cumulative IPC: 0.39704 (Simulation time: 0 hr 7 min 21 sec) 
Heartbeat CPU  0 instructions:  176000000 cycles:  269314160 heartbeat IPC: 0.09415 cumulative IPC: 0.38092 (Simulation time: 0 hr 7 min 24 sec) 
Heartbeat CPU  0 instructions:  177000001 cycles:  271314218 heartbeat IPC: 0.49999 cumulative IPC: 0.38210 (Simulation time: 0 hr 7 min 27 sec) 
Heartbeat CPU  0 instructions:  178000003 cycles:  273388187 heartbeat IPC: 0.48217 cumulative IPC: 0.38312 (Simulation time: 0 hr 7 min 30 sec) 
Heartbeat CPU  0 instructions:  179000002 cycles:  275323439 heartbeat IPC: 0.51673 cumulative IPC: 0.38437 (Simulation time: 0 hr 7 min 33 sec) 
Heartbeat CPU  0 instructions:  180000000 cycles:  277236445 heartbeat IPC: 0.52274 cumulative IPC: 0.38565 (Simulation time: 0 hr 7 min 35 sec) 
Heartbeat CPU  0 instructions:  181000003 cycles:  279177081 heartbeat IPC: 0.51530 cumulative IPC: 0.38685 (Simulation time: 0 hr 7 min 38 sec) 
Heartbeat CPU  0 instructions:  182000003 cycles:  281032119 heartbeat IPC: 0.53907 cumulative IPC: 0.38819 (Simulation time: 0 hr 7 min 41 sec) 
Heartbeat CPU  0 instructions:  183000000 cycles:  282865048 heartbeat IPC: 0.54557 cumulative IPC: 0.38954 (Simulation time: 0 hr 7 min 43 sec) 
Heartbeat CPU  0 instructions:  184000000 cycles:  284797396 heartbeat IPC: 0.51751 cumulative IPC: 0.39069 (Simulation time: 0 hr 7 min 46 sec) 
Heartbeat CPU  0 instructions:  185000002 cycles:  286716546 heartbeat IPC: 0.52107 cumulative IPC: 0.39185 (Simulation time: 0 hr 7 min 49 sec) 
Heartbeat CPU  0 instructions:  186000001 cycles:  288496169 heartbeat IPC: 0.56192 cumulative IPC: 0.39323 (Simulation time: 0 hr 7 min 51 sec) 
Heartbeat CPU  0 instructions:  187000000 cycles:  290418741 heartbeat IPC: 0.52014 cumulative IPC: 0.39434 (Simulation time: 0 hr 7 min 54 sec) 
Heartbeat CPU  0 instructions:  188000000 cycles:  292351025 heartbeat IPC: 0.51752 cumulative IPC: 0.39541 (Simulation time: 0 hr 7 min 57 sec) 
Heartbeat CPU  0 instructions:  189000000 cycles:  294142435 heartbeat IPC: 0.55822 cumulative IPC: 0.39671 (Simulation time: 0 hr 8 min 0 sec) 
Heartbeat CPU  0 instructions:  190000000 cycles:  296030723 heartbeat IPC: 0.52958 cumulative IPC: 0.39781 (Simulation time: 0 hr 8 min 2 sec) 
Heartbeat CPU  0 instructions:  191000000 cycles:  297962678 heartbeat IPC: 0.51761 cumulative IPC: 0.39883 (Simulation time: 0 hr 8 min 5 sec) 
Heartbeat CPU  0 instructions:  192000000 cycles:  299825321 heartbeat IPC: 0.53687 cumulative IPC: 0.39995 (Simulation time: 0 hr 8 min 8 sec) 
Heartbeat CPU  0 instructions:  193000001 cycles:  301639384 heartbeat IPC: 0.55125 cumulative IPC: 0.40113 (Simulation time: 0 hr 8 min 10 sec) 
Heartbeat CPU  0 instructions:  194000000 cycles:  303572982 heartbeat IPC: 0.51717 cumulative IPC: 0.40209 (Simulation time: 0 hr 8 min 13 sec) 
Heartbeat CPU  0 instructions:  195000002 cycles:  305493078 heartbeat IPC: 0.52081 cumulative IPC: 0.40306 (Simulation time: 0 hr 8 min 16 sec) 
Heartbeat CPU  0 instructions:  196000000 cycles:  307267689 heartbeat IPC: 0.56350 cumulative IPC: 0.40426 (Simulation time: 0 hr 8 min 18 sec) 
Heartbeat CPU  0 instructions:  197000000 cycles:  309309794 heartbeat IPC: 0.48969 cumulative IPC: 0.40498 (Simulation time: 0 hr 8 min 21 sec) 
Heartbeat CPU  0 instructions:  198000003 cycles:  324177471 heartbeat IPC: 0.06726 cumulative IPC: 0.38525 (Simulation time: 0 hr 8 min 25 sec) 
Heartbeat CPU  0 instructions:  199000001 cycles:  327388267 heartbeat IPC: 0.31145 cumulative IPC: 0.38433 (Simulation time: 0 hr 8 min 28 sec) 
Heartbeat CPU  0 instructions:  200000000 cycles:  329295362 heartbeat IPC: 0.52436 cumulative IPC: 0.38536 (Simulation time: 0 hr 8 min 31 sec) 
Heartbeat CPU  0 instructions:  201000002 cycles:  331244460 heartbeat IPC: 0.51306 cumulative IPC: 0.38631 (Simulation time: 0 hr 8 min 33 sec) 
Heartbeat CPU  0 instructions:  202000003 cycles:  333121223 heartbeat IPC: 0.53283 cumulative IPC: 0.38735 (Simulation time: 0 hr 8 min 36 sec) 
Heartbeat CPU  0 instructions:  203000002 cycles:  334942680 heartbeat IPC: 0.54901 cumulative IPC: 0.38846 (Simulation time: 0 hr 8 min 39 sec) 
Heartbeat CPU  0 instructions:  204000000 cycles:  336886521 heartbeat IPC: 0.51444 cumulative IPC: 0.38938 (Simulation time: 0 hr 8 min 42 sec) 
Heartbeat CPU  0 instructions:  205000002 cycles:  338805734 heartbeat IPC: 0.52105 cumulative IPC: 0.39032 (Simulation time: 0 hr 8 min 44 sec) 
Heartbeat CPU  0 instructions:  206000000 cycles:  340599485 heartbeat IPC: 0.55749 cumulative IPC: 0.39143 (Simulation time: 0 hr 8 min 47 sec) 
Heartbeat CPU  0 instructions:  207000002 cycles:  342517129 heartbeat IPC: 0.52147 cumulative IPC: 0.39234 (Simulation time: 0 hr 8 min 50 sec) 
Heartbeat CPU  0 instructions:  208000000 cycles:  344445266 heartbeat IPC: 0.51863 cumulative IPC: 0.39323 (Simulation time: 0 hr 8 min 52 sec) 
Heartbeat CPU  0 instructions:  209000002 cycles:  346253721 heartbeat IPC: 0.55296 cumulative IPC: 0.39427 (Simulation time: 0 hr 8 min 55 sec) 
Heartbeat CPU  0 instructions:  210000000 cycles:  348130646 heartbeat IPC: 0.53279 cumulative IPC: 0.39521 (Simulation time: 0 hr 8 min 58 sec) 
Heartbeat CPU  0 instructions:  211000003 cycles:  350063473 heartbeat IPC: 0.51738 cumulative IPC: 0.39605 (Simulation time: 0 hr 9 min 1 sec) 
Heartbeat CPU  0 instructions:  212000000 cycles:  351948902 heartbeat IPC: 0.53038 cumulative IPC: 0.39695 (Simulation time: 0 hr 9 min 3 sec) 
Heartbeat CPU  0 instructions:  213000003 cycles:  353744359 heartbeat IPC: 0.55696 cumulative IPC: 0.39796 (Simulation time: 0 hr 9 min 6 sec) 
Heartbeat CPU  0 instructions:  214000003 cycles:  355678805 heartbeat IPC: 0.51694 cumulative IPC: 0.39876 (Simulation time: 0 hr 9 min 9 sec) 
Heartbeat CPU  0 instructions:  215000003 cycles:  357604741 heartbeat IPC: 0.51923 cumulative IPC: 0.39957 (Simulation time: 0 hr 9 min 11 sec) 
Heartbeat CPU  0 instructions:  216000000 cycles:  359388405 heartbeat IPC: 0.56064 cumulative IPC: 0.40056 (Simulation time: 0 hr 9 min 14 sec) 
Heartbeat CPU  0 instructions:  217000002 cycles:  361298956 heartbeat IPC: 0.52341 cumulative IPC: 0.40137 (Simulation time: 0 hr 9 min 17 sec) 
Heartbeat CPU  0 instructions:  218000001 cycles:  363229790 heartbeat IPC: 0.51791 cumulative IPC: 0.40213 (Simulation time: 0 hr 9 min 19 sec) 
Heartbeat CPU  0 instructions:  219000002 cycles:  365051159 heartbeat IPC: 0.54904 cumulative IPC: 0.40304 (Simulation time: 0 hr 9 min 22 sec) 
Heartbeat CPU  0 instructions:  220000000 cycles:  374306261 heartbeat IPC: 0.10805 cumulative IPC: 0.39407 (Simulation time: 0 hr 9 min 26 sec) 
Heartbeat CPU  0 instructions:  221000000 cycles:  383289086 heartbeat IPC: 0.11132 cumulative IPC: 0.38597 (Simulation time: 0 hr 9 min 29 sec) 
Heartbeat CPU  0 instructions:  222000000 cycles:  385190916 heartbeat IPC: 0.52581 cumulative IPC: 0.38681 (Simulation time: 0 hr 9 min 32 sec) 
Heartbeat CPU  0 instructions:  223000001 cycles:  386996955 heartbeat IPC: 0.55370 cumulative IPC: 0.38777 (Simulation time: 0 hr 9 min 34 sec) 
Heartbeat CPU  0 instructions:  224000000 cycles:  388936833 heartbeat IPC: 0.51550 cumulative IPC: 0.38854 (Simulation time: 0 hr 9 min 37 sec) 
Heartbeat CPU  0 instructions:  225000002 cycles:  390872308 heartbeat IPC: 0.51667 cumulative IPC: 0.38931 (Simulation time: 0 hr 9 min 40 sec) 
Heartbeat CPU  0 instructions:  226000002 cycles:  392656079 heartbeat IPC: 0.56061 cumulative IPC: 0.39026 (Simulation time: 0 hr 9 min 43 sec) 
Heartbeat CPU  0 instructions:  227000003 cycles:  394569213 heartbeat IPC: 0.52270 cumulative IPC: 0.39104 (Simulation time: 0 hr 9 min 45 sec) 
Heartbeat CPU  0 instructions:  228000000 cycles:  396502439 heartbeat IPC: 0.51727 cumulative IPC: 0.39179 (Simulation time: 0 hr 9 min 48 sec) 
Heartbeat CPU  0 instructions:  229000003 cycles:  398471800 heartbeat IPC: 0.50778 cumulative IPC: 0.39248 (Simulation time: 0 hr 9 min 51 sec) 
Heartbeat CPU  0 instructions:  230000001 cycles:  400326313 heartbeat IPC: 0.53922 cumulative IPC: 0.39331 (Simulation time: 0 hr 9 min 53 sec) 
Heartbeat CPU  0 instructions:  231000003 cycles:  402258582 heartbeat IPC: 0.51753 cumulative IPC: 0.39403 (Simulation time: 0 hr 9 min 56 sec) 
Heartbeat CPU  0 instructions:  232000000 cycles:  404156909 heartbeat IPC: 0.52678 cumulative IPC: 0.39478 (Simulation time: 0 hr 9 min 59 sec) 
Heartbeat CPU  0 instructions:  233000002 cycles:  405949229 heartbeat IPC: 0.55794 cumulative IPC: 0.39565 (Simulation time: 0 hr 10 min 1 sec) 
Heartbeat CPU  0 instructions:  234000001 cycles:  407875687 heartbeat IPC: 0.51909 cumulative IPC: 0.39635 (Simulation time: 0 hr 10 min 4 sec) 
Heartbeat CPU  0 instructions:  235000003 cycles:  409804018 heartbeat IPC: 0.51858 cumulative IPC: 0.39705 (Simulation time: 0 hr 10 min 7 sec) 
Heartbeat CPU  0 instructions:  236000000 cycles:  411586024 heartbeat IPC: 0.56116 cumulative IPC: 0.39790 (Simulation time: 0 hr 10 min 10 sec) 
Heartbeat CPU  0 instructions:  237000002 cycles:  413493305 heartbeat IPC: 0.52431 cumulative IPC: 0.39860 (Simulation time: 0 hr 10 min 12 sec) 
Heartbeat CPU  0 instructions:  238000002 cycles:  415426842 heartbeat IPC: 0.51719 cumulative IPC: 0.39927 (Simulation time: 0 hr 10 min 15 sec) 
Heartbeat CPU  0 instructions:  239000001 cycles:  417268626 heartbeat IPC: 0.54295 cumulative IPC: 0.40003 (Simulation time: 0 hr 10 min 18 sec) 
Heartbeat CPU  0 instructions:  240000000 cycles:  419102793 heartbeat IPC: 0.54521 cumulative IPC: 0.40079 (Simulation time: 0 hr 10 min 21 sec) 
Heartbeat CPU  0 instructions:  241000003 cycles:  421039933 heartbeat IPC: 0.51623 cumulative IPC: 0.40143 (Simulation time: 0 hr 10 min 23 sec) 
Heartbeat CPU  0 instructions:  242000002 cycles:  424847569 heartbeat IPC: 0.26263 cumulative IPC: 0.39994 (Simulation time: 0 hr 10 min 26 sec) 
Heartbeat CPU  0 instructions:  243000003 cycles:  439430403 heartbeat IPC: 0.06857 cumulative IPC: 0.38687 (Simulation time: 0 hr 10 min 30 sec) 
Heartbeat CPU  0 instructions:  244000000 cycles:  441396993 heartbeat IPC: 0.50849 cumulative IPC: 0.38751 (Simulation time: 0 hr 10 min 33 sec) 
Heartbeat CPU  0 instructions:  245000000 cycles:  443338526 heartbeat IPC: 0.51506 cumulative IPC: 0.38817 (Simulation time: 0 hr 10 min 36 sec) 
Heartbeat CPU  0 instructions:  246000000 cycles:  445133312 heartbeat IPC: 0.55717 cumulative IPC: 0.38898 (Simulation time: 0 hr 10 min 38 sec) 
Heartbeat CPU  0 instructions:  247000000 cycles:  447046785 heartbeat IPC: 0.52261 cumulative IPC: 0.38966 (Simulation time: 0 hr 10 min 41 sec) 
Heartbeat CPU  0 instructions:  248000000 cycles:  448984127 heartbeat IPC: 0.51617 cumulative IPC: 0.39031 (Simulation time: 0 hr 10 min 44 sec) 
Heartbeat CPU  0 instructions:  249000001 cycles:  450839007 heartbeat IPC: 0.53912 cumulative IPC: 0.39103 (Simulation time: 0 hr 10 min 46 sec) 
Heartbeat CPU  0 instructions:  250000003 cycles:  452684401 heartbeat IPC: 0.54189 cumulative IPC: 0.39176 (Simulation time: 0 hr 10 min 49 sec) 
Heartbeat CPU  0 instructions:  251000002 cycles:  454621091 heartbeat IPC: 0.51634 cumulative IPC: 0.39238 (Simulation time: 0 hr 10 min 52 sec) 
Heartbeat CPU  0 instructions:  252000000 cycles:  456535979 heartbeat IPC: 0.52222 cumulative IPC: 0.39303 (Simulation time: 0 hr 10 min 55 sec) 
Heartbeat CPU  0 instructions:  253000000 cycles:  458317409 heartbeat IPC: 0.56135 cumulative IPC: 0.39380 (Simulation time: 0 hr 10 min 57 sec) 
Heartbeat CPU  0 instructions:  254000002 cycles:  460239764 heartbeat IPC: 0.52020 cumulative IPC: 0.39442 (Simulation time: 0 hr 11 min 0 sec) 
Heartbeat CPU  0 instructions:  255000000 cycles:  462175521 heartbeat IPC: 0.51659 cumulative IPC: 0.39502 (Simulation time: 0 hr 11 min 3 sec) 
Heartbeat CPU  0 instructions:  256000000 cycles:  463957693 heartbeat IPC: 0.56111 cumulative IPC: 0.39578 (Simulation time: 0 hr 11 min 5 sec) 
Heartbeat CPU  0 instructions:  257000000 cycles:  465855110 heartbeat IPC: 0.52703 cumulative IPC: 0.39640 (Simulation time: 0 hr 11 min 8 sec) 
Heartbeat CPU  0 instructions:  258000003 cycles:  467789676 heartbeat IPC: 0.51691 cumulative IPC: 0.39699 (Simulation time: 0 hr 11 min 11 sec) 
Heartbeat CPU  0 instructions:  259000000 cycles:  469652574 heartbeat IPC: 0.53680 cumulative IPC: 0.39764 (Simulation time: 0 hr 11 min 13 sec) 
Heartbeat CPU  0 instructions:  260000000 cycles:  471477484 heartbeat IPC: 0.54797 cumulative IPC: 0.39832 (Simulation time: 0 hr 11 min 16 sec) 
Heartbeat CPU  0 instructions:  261000000 cycles:  473406569 heartbeat IPC: 0.51838 cumulative IPC: 0.39890 (Simulation time: 0 hr 11 min 19 sec) 
Heartbeat CPU  0 instructions:  262000002 cycles:  475327112 heartbeat IPC: 0.52069 cumulative IPC: 0.39947 (Simulation time: 0 hr 11 min 22 sec) 
Heartbeat CPU  0 instructions:  263000001 cycles:  477106255 heartbeat IPC: 0.56207 cumulative IPC: 0.40018 (Simulation time: 0 hr 11 min 24 sec) 
Heartbeat CPU  0 instructions:  264000000 cycles:  479024563 heartbeat IPC: 0.52129 cumulative IPC: 0.40075 (Simulation time: 0 hr 11 min 27 sec) 
Heartbeat CPU  0 instructions:  265000002 cycles:  490282172 heartbeat IPC: 0.08883 cumulative IPC: 0.39240 (Simulation time: 0 hr 11 min 31 sec) 
Heartbeat CPU  0 instructions:  266000001 cycles:  497293193 heartbeat IPC: 0.14263 cumulative IPC: 0.38831 (Simulation time: 0 hr 11 min 34 sec) 
Heartbeat CPU  0 instructions:  267000002 cycles:  499200086 heartbeat IPC: 0.52441 cumulative IPC: 0.38891 (Simulation time: 0 hr 11 min 37 sec) 
Heartbeat CPU  0 instructions:  268000000 cycles:  501150722 heartbeat IPC: 0.51265 cumulative IPC: 0.38947 (Simulation time: 0 hr 11 min 39 sec) 
Heartbeat CPU  0 instructions:  269000000 cycles:  503032771 heartbeat IPC: 0.53134 cumulative IPC: 0.39009 (Simulation time: 0 hr 11 min 42 sec) 
Heartbeat CPU  0 instructions:  270000003 cycles:  504879322 heartbeat IPC: 0.54155 cumulative IPC: 0.39073 (Simulation time: 0 hr 11 min 45 sec) 
Heartbeat CPU  0 instructions:  271000002 cycles:  506825571 heartbeat IPC: 0.51381 cumulative IPC: 0.39128 (Simulation time: 0 hr 11 min 48 sec) 
Heartbeat CPU  0 instructions:  272000000 cycles:  508752119 heartbeat IPC: 0.51906 cumulative IPC: 0.39184 (Simulation time: 0 hr 11 min 50 sec) 
Heartbeat CPU  0 instructions:  273000002 cycles:  510536008 heartbeat IPC: 0.56057 cumulative IPC: 0.39252 (Simulation time: 0 hr 11 min 53 sec) 
Heartbeat CPU  0 instructions:  274000000 cycles:  512452893 heartbeat IPC: 0.52168 cumulative IPC: 0.39308 (Simulation time: 0 hr 11 min 56 sec) 
Heartbeat CPU  0 instructions:  275000000 cycles:  514380698 heartbeat IPC: 0.51872 cumulative IPC: 0.39362 (Simulation time: 0 hr 11 min 58 sec) 
Heartbeat CPU  0 instructions:  276000000 cycles:  516186395 heartbeat IPC: 0.55380 cumulative IPC: 0.39427 (Simulation time: 0 hr 12 min 1 sec) 
Heartbeat CPU  0 instructions:  277000001 cycles:  518066302 heartbeat IPC: 0.53194 cumulative IPC: 0.39485 (Simulation time: 0 hr 12 min 4 sec) 
Heartbeat CPU  0 instructions:  278000000 cycles:  520002600 heartbeat IPC: 0.51645 cumulative IPC: 0.39537 (Simulation time: 0 hr 12 min 6 sec) 
Heartbeat CPU  0 instructions:  279000003 cycles:  522004281 heartbeat IPC: 0.49958 cumulative IPC: 0.39583 (Simulation time: 0 hr 12 min 9 sec) 
Heartbeat CPU  0 instructions:  280000000 cycles:  523917863 heartbeat IPC: 0.52258 cumulative IPC: 0.39637 (Simulation time: 0 hr 12 min 12 sec) 
Heartbeat CPU  0 instructions:  281000002 cycles:  525964000 heartbeat IPC: 0.48873 cumulative IPC: 0.39678 (Simulation time: 0 hr 12 min 15 sec) 
Heartbeat CPU  0 instructions:  282000002 cycles:  527888368 heartbeat IPC: 0.51965 cumulative IPC: 0.39730 (Simulation time: 0 hr 12 min 17 sec) 
Heartbeat CPU  0 instructions:  283000000 cycles:  529660953 heartbeat IPC: 0.56415 cumulative IPC: 0.39794 (Simulation time: 0 hr 12 min 20 sec) 
Heartbeat CPU  0 instructions:  284000000 cycles:  531572814 heartbeat IPC: 0.52305 cumulative IPC: 0.39846 (Simulation time: 0 hr 12 min 23 sec) 
Heartbeat CPU  0 instructions:  285000001 cycles:  533505819 heartbeat IPC: 0.51733 cumulative IPC: 0.39896 (Simulation time: 0 hr 12 min 25 sec) 
Heartbeat CPU  0 instructions:  286000003 cycles:  535325163 heartbeat IPC: 0.54965 cumulative IPC: 0.39954 (Simulation time: 0 hr 12 min 28 sec) 
Heartbeat CPU  0 instructions:  287000002 cycles:  541047877 heartbeat IPC: 0.17474 cumulative IPC: 0.39681 (Simulation time: 0 hr 12 min 31 sec) 
Heartbeat CPU  0 instructions:  288000000 cycles:  553442565 heartbeat IPC: 0.08068 cumulative IPC: 0.38871 (Simulation time: 0 hr 12 min 35 sec) 
Heartbeat CPU  0 instructions:  289000003 cycles:  555346472 heartbeat IPC: 0.52524 cumulative IPC: 0.38925 (Simulation time: 0 hr 12 min 38 sec) 
Heartbeat CPU  0 instructions:  290000003 cycles:  557160869 heartbeat IPC: 0.55115 cumulative IPC: 0.38985 (Simulation time: 0 hr 12 min 40 sec) 
Heartbeat CPU  0 instructions:  291000002 cycles:  559101833 heartbeat IPC: 0.51521 cumulative IPC: 0.39035 (Simulation time: 0 hr 12 min 43 sec) 
Heartbeat CPU  0 instructions:  292000000 cycles:  561029878 heartbeat IPC: 0.51866 cumulative IPC: 0.39085 (Simulation time: 0 hr 12 min 46 sec) 
Heartbeat CPU  0 instructions:  293000001 cycles:  562823855 heartbeat IPC: 0.55742 cumulative IPC: 0.39146 (Simulation time: 0 hr 12 min 48 sec) 
Heartbeat CPU  0 instructions:  294000000 cycles:  564735281 heartbeat IPC: 0.52317 cumulative IPC: 0.39197 (Simulation time: 0 hr 12 min 51 sec) 
Heartbeat CPU  0 instructions:  295000002 cycles:  566675750 heartbeat IPC: 0.51534 cumulative IPC: 0.39245 (Simulation time: 0 hr 12 min 54 sec) 
Heartbeat CPU  0 instructions:  296000000 cycles:  568498182 heartbeat IPC: 0.54872 cumulative IPC: 0.39302 (Simulation time: 0 hr 12 min 57 sec) 
Heartbeat CPU  0 instructions:  297000001 cycles:  570358477 heartbeat IPC: 0.53755 cumulative IPC: 0.39356 (Simulation time: 0 hr 12 min 59 sec) 
Heartbeat CPU  0 instructions:  298000003 cycles:  572294486 heartbeat IPC: 0.51653 cumulative IPC: 0.39403 (Simulation time: 0 hr 13 min 2 sec) 
Heartbeat CPU  0 instructions:  299000000 cycles:  574188725 heartbeat IPC: 0.52791 cumulative IPC: 0.39453 (Simulation time: 0 hr 13 min 5 sec) 
Heartbeat CPU  0 instructions:  300000000 cycles:  575978013 heartbeat IPC: 0.55888 cumulative IPC: 0.39511 (Simulation time: 0 hr 13 min 7 sec) 
Heartbeat CPU  0 instructions:  301000003 cycles:  577905636 heartbeat IPC: 0.51878 cumulative IPC: 0.39558 (Simulation time: 0 hr 13 min 10 sec) 
Heartbeat CPU  0 instructions:  302000000 cycles:  579833467 heartbeat IPC: 0.51872 cumulative IPC: 0.39605 (Simulation time: 0 hr 13 min 13 sec) 
Heartbeat CPU  0 instructions:  303000000 cycles:  581617363 heartbeat IPC: 0.56057 cumulative IPC: 0.39662 (Simulation time: 0 hr 13 min 15 sec) 
Heartbeat CPU  0 instructions:  304000000 cycles:  583522081 heartbeat IPC: 0.52501 cumulative IPC: 0.39710 (Simulation time: 0 hr 13 min 18 sec) 
Heartbeat CPU  0 instructions:  305000000 cycles:  585458887 heartbeat IPC: 0.51631 cumulative IPC: 0.39755 (Simulation time: 0 hr 13 min 21 sec) 
Heartbeat CPU  0 instructions:  306000002 cycles:  587291416 heartbeat IPC: 0.54570 cumulative IPC: 0.39807 (Simulation time: 0 hr 13 min 24 sec) 
Heartbeat CPU  0 instructions:  307000003 cycles:  589133495 heartbeat IPC: 0.54287 cumulative IPC: 0.39858 (Simulation time: 0 hr 13 min 26 sec) 
Heartbeat CPU  0 instructions:  308000000 cycles:  591065268 heartbeat IPC: 0.51766 cumulative IPC: 0.39902 (Simulation time: 0 hr 13 min 29 sec) 
Heartbeat CPU  0 instructions:  309000003 cycles:  592975171 heartbeat IPC: 0.52359 cumulative IPC: 0.39948 (Simulation time: 0 hr 13 min 32 sec) 
Heartbeat CPU  0 instructions:  310000002 cycles:  606024434 heartbeat IPC: 0.07663 cumulative IPC: 0.39162 (Simulation time: 0 hr 13 min 36 sec) 
Heartbeat CPU  0 instructions:  311000000 cycles:  611058576 heartbeat IPC: 0.19864 cumulative IPC: 0.38983 (Simulation time: 0 hr 13 min 39 sec) 
Heartbeat CPU  0 instructions:  312000000 cycles:  613001017 heartbeat IPC: 0.51482 cumulative IPC: 0.39028 (Simulation time: 0 hr 13 min 41 sec) 
Heartbeat CPU  0 instructions:  313000003 cycles:  614785471 heartbeat IPC: 0.56040 cumulative IPC: 0.39083 (Simulation time: 0 hr 13 min 44 sec) 
Heartbeat CPU  0 instructions:  314000003 cycles:  616698866 heartbeat IPC: 0.52263 cumulative IPC: 0.39129 (Simulation time: 0 hr 13 min 47 sec) 
Heartbeat CPU  0 instructions:  315000000 cycles:  618639614 heartbeat IPC: 0.51526 cumulative IPC: 0.39173 (Simulation time: 0 hr 13 min 49 sec) 
Heartbeat CPU  0 instructions:  316000000 cycles:  620476809 heartbeat IPC: 0.54431 cumulative IPC: 0.39224 (Simulation time: 0 hr 13 min 52 sec) 
Heartbeat CPU  0 instructions:  317000001 cycles:  622319531 heartbeat IPC: 0.54268 cumulative IPC: 0.39274 (Simulation time: 0 hr 13 min 55 sec) 
Heartbeat CPU  0 instructions:  318000002 cycles:  624257482 heartbeat IPC: 0.51601 cumulative IPC: 0.39317 (Simulation time: 0 hr 13 min 58 sec) 
Heartbeat CPU  0 instructions:  319000001 cycles:  626171539 heartbeat IPC: 0.52245 cumulative IPC: 0.39362 (Simulation time: 0 hr 14 min 0 sec) 
Heartbeat CPU  0 instructions:  320000000 cycles:  627951336 heartbeat IPC: 0.56186 cumulative IPC: 0.39415 (Simulation time: 0 hr 14 min 3 sec) 
Heartbeat CPU  0 instructions:  321000002 cycles:  629873432 heartbeat IPC: 0.52027 cumulative IPC: 0.39459 (Simulation time: 0 hr 14 min 6 sec) 
Heartbeat CPU  0 instructions:  322000001 cycles:  631804958 heartbeat IPC: 0.51772 cumulative IPC: 0.39501 (Simulation time: 0 hr 14 min 8 sec) 
Heartbeat CPU  0 instructions:  323000002 cycles:  633585727 heartbeat IPC: 0.56156 cumulative IPC: 0.39554 (Simulation time: 0 hr 14 min 11 sec) 
Heartbeat CPU  0 instructions:  324000000 cycles:  635479986 heartbeat IPC: 0.52791 cumulative IPC: 0.39598 (Simulation time: 0 hr 14 min 14 sec) 
Heartbeat CPU  0 instructions:  325000001 cycles:  637417537 heartbeat IPC: 0.51612 cumulative IPC: 0.39639 (Simulation time: 0 hr 14 min 16 sec) 
Heartbeat CPU  0 instructions:  326000002 cycles:  639271641 heartbeat IPC: 0.53934 cumulative IPC: 0.39686 (Simulation time: 0 hr 14 min 19 sec) 
Heartbeat CPU  0 instructions:  327000002 cycles:  641091928 heartbeat IPC: 0.54936 cumulative IPC: 0.39734 (Simulation time: 0 hr 14 min 22 sec) 
Heartbeat CPU  0 instructions:  328000000 cycles:  643024910 heartbeat IPC: 0.51733 cumulative IPC: 0.39775 (Simulation time: 0 hr 14 min 25 sec) 
Heartbeat CPU  0 instructions:  329000002 cycles:  644943450 heartbeat IPC: 0.52123 cumulative IPC: 0.39816 (Simulation time: 0 hr 14 min 27 sec) 
Heartbeat CPU  0 instructions:  330000001 cycles:  646727298 heartbeat IPC: 0.56059 cumulative IPC: 0.39866 (Simulation time: 0 hr 14 min 30 sec) 
Heartbeat CPU  0 instructions:  331000002 cycles:  648763350 heartbeat IPC: 0.49115 cumulative IPC: 0.39899 (Simulation time: 0 hr 14 min 33 sec) 
Heartbeat CPU  0 instructions:  332000000 cycles:  656407138 heartbeat IPC: 0.13082 cumulative IPC: 0.39549 (Simulation time: 0 hr 14 min 36 sec) 
Heartbeat CPU  0 instructions:  333000000 cycles:  666921589 heartbeat IPC: 0.09511 cumulative IPC: 0.39020 (Simulation time: 0 hr 14 min 40 sec) 
Heartbeat CPU  0 instructions:  334000001 cycles:  668849078 heartbeat IPC: 0.51881 cumulative IPC: 0.39062 (Simulation time: 0 hr 14 min 42 sec) 
Heartbeat CPU  0 instructions:  335000001 cycles:  670794382 heartbeat IPC: 0.51406 cumulative IPC: 0.39102 (Simulation time: 0 hr 14 min 45 sec) 
Heartbeat CPU  0 instructions:  336000000 cycles:  672656889 heartbeat IPC: 0.53691 cumulative IPC: 0.39147 (Simulation time: 0 hr 14 min 48 sec) 
Heartbeat CPU  0 instructions:  337000003 cycles:  674485491 heartbeat IPC: 0.54687 cumulative IPC: 0.39194 (Simulation time: 0 hr 14 min 50 sec) 
Heartbeat CPU  0 instructions:  338000002 cycles:  676426069 heartbeat IPC: 0.51531 cumulative IPC: 0.39233 (Simulation time: 0 hr 14 min 53 sec) 
Heartbeat CPU  0 instructions:  339000000 cycles:  678349955 heartbeat IPC: 0.51978 cumulative IPC: 0.39273 (Simulation time: 0 hr 14 min 56 sec) 
Heartbeat CPU  0 instructions:  340000000 cycles:  680126617 heartbeat IPC: 0.56285 cumulative IPC: 0.39323 (Simulation time: 0 hr 14 min 59 sec) 
Heartbeat CPU  0 instructions:  341000000 cycles:  682048488 heartbeat IPC: 0.52033 cumulative IPC: 0.39363 (Simulation time: 0 hr 15 min 1 sec) 
Heartbeat CPU  0 instructions:  342000001 cycles:  683978545 heartbeat IPC: 0.51812 cumulative IPC: 0.39402 (Simulation time: 0 hr 15 min 4 sec) 
Heartbeat CPU  0 instructions:  343000000 cycles:  685773676 heartbeat IPC: 0.55706 cumulative IPC: 0.39449 (Simulation time: 0 hr 15 min 7 sec) 
Heartbeat CPU  0 instructions:  344000000 cycles:  687659504 heartbeat IPC: 0.53027 cumulative IPC: 0.39491 (Simulation time: 0 hr 15 min 9 sec) 
Heartbeat CPU  0 instructions:  345000000 cycles:  689585727 heartbeat IPC: 0.51915 cumulative IPC: 0.39529 (Simulation time: 0 hr 15 min 12 sec) 
Heartbeat CPU  0 instructions:  346000001 cycles:  691459536 heartbeat IPC: 0.53367 cumulative IPC: 0.39571 (Simulation time: 0 hr 15 min 15 sec) 
Heartbeat CPU  0 instructions:  347000000 cycles:  693265594 heartbeat IPC: 0.55369 cumulative IPC: 0.39617 (Simulation time: 0 hr 15 min 17 sec) 
Heartbeat CPU  0 instructions:  348000000 cycles:  695192026 heartbeat IPC: 0.51909 cumulative IPC: 0.39655 (Simulation time: 0 hr 15 min 20 sec) 
Heartbeat CPU  0 instructions:  349000001 cycles:  697115430 heartbeat IPC: 0.51991 cumulative IPC: 0.39693 (Simulation time: 0 hr 15 min 23 sec) 
Heartbeat CPU  0 instructions:  350000003 cycles:  698891511 heartbeat IPC: 0.56304 cumulative IPC: 0.39740 (Simulation time: 0 hr 15 min 26 sec) 
Heartbeat CPU  0 instructions:  351000003 cycles:  700799751 heartbeat IPC: 0.52404 cumulative IPC: 0.39778 (Simulation time: 0 hr 15 min 28 sec) 
Heartbeat CPU  0 instructions:  352000000 cycles:  702736505 heartbeat IPC: 0.51633 cumulative IPC: 0.39814 (Simulation time: 0 hr 15 min 31 sec) 
Heartbeat CPU  0 instructions:  353000001 cycles:  704548740 heartbeat IPC: 0.55181 cumulative IPC: 0.39858 (Simulation time: 0 hr 15 min 34 sec) 
Heartbeat CPU  0 instructions:  354000003 cycles:  706631541 heartbeat IPC: 0.48012 cumulative IPC: 0.39885 (Simulation time: 0 hr 15 min 36 sec) 
Heartbeat CPU  0 instructions:  355000003 cycles:  721535861 heartbeat IPC: 0.06709 cumulative IPC: 0.39126 (Simulation time: 0 hr 15 min 40 sec) 
Heartbeat CPU  0 instructions:  356000000 cycles:  724709202 heartbeat IPC: 0.31512 cumulative IPC: 0.39089 (Simulation time: 0 hr 15 min 43 sec) 
Heartbeat CPU  0 instructions:  357000003 cycles:  726539256 heartbeat IPC: 0.54643 cumulative IPC: 0.39132 (Simulation time: 0 hr 15 min 46 sec) 
Heartbeat CPU  0 instructions:  358000002 cycles:  728476324 heartbeat IPC: 0.51624 cumulative IPC: 0.39169 (Simulation time: 0 hr 15 min 49 sec) 
Heartbeat CPU  0 instructions:  359000003 cycles:  730410262 heartbeat IPC: 0.51708 cumulative IPC: 0.39206 (Simulation time: 0 hr 15 min 51 sec) 
Heartbeat CPU  0 instructions:  360000000 cycles:  732195098 heartbeat IPC: 0.56027 cumulative IPC: 0.39251 (Simulation time: 0 hr 15 min 54 sec) 
Heartbeat CPU  0 instructions:  361000003 cycles:  734114469 heartbeat IPC: 0.52101 cumulative IPC: 0.39288 (Simulation time: 0 hr 15 min 57 sec) 
Heartbeat CPU  0 instructions:  362000000 cycles:  736055430 heartbeat IPC: 0.51521 cumulative IPC: 0.39324 (Simulation time: 0 hr 15 min 59 sec) 
Heartbeat CPU  0 instructions:  363000000 cycles:  737874917 heartbeat IPC: 0.54961 cumulative IPC: 0.39367 (Simulation time: 0 hr 16 min 2 sec) 
Heartbeat CPU  0 instructions:  364000000 cycles:  739739084 heartbeat IPC: 0.53643 cumulative IPC: 0.39406 (Simulation time: 0 hr 16 min 5 sec) 
Heartbeat CPU  0 instructions:  365000000 cycles:  741678336 heartbeat IPC: 0.51566 cumulative IPC: 0.39441 (Simulation time: 0 hr 16 min 8 sec) 
Heartbeat CPU  0 instructions:  366000001 cycles:  743566610 heartbeat IPC: 0.52958 cumulative IPC: 0.39479 (Simulation time: 0 hr 16 min 10 sec) 
Heartbeat CPU  0 instructions:  367000001 cycles:  745360910 heartbeat IPC: 0.55732 cumulative IPC: 0.39522 (Simulation time: 0 hr 16 min 13 sec) 
Heartbeat CPU  0 instructions:  368000000 cycles:  747289445 heartbeat IPC: 0.51853 cumulative IPC: 0.39557 (Simulation time: 0 hr 16 min 16 sec) 
Heartbeat CPU  0 instructions:  369000003 cycles:  749225109 heartbeat IPC: 0.51662 cumulative IPC: 0.39592 (Simulation time: 0 hr 16 min 18 sec) 
Heartbeat CPU  0 instructions:  370000000 cycles:  750997234 heartbeat IPC: 0.56429 cumulative IPC: 0.39636 (Simulation time: 0 hr 16 min 21 sec) 
Heartbeat CPU  0 instructions:  371000001 cycles:  752904107 heartbeat IPC: 0.52442 cumulative IPC: 0.39672 (Simulation time: 0 hr 16 min 24 sec) 
Heartbeat CPU  0 instructions:  372000000 cycles:  754834778 heartbeat IPC: 0.51795 cumulative IPC: 0.39706 (Simulation time: 0 hr 16 min 26 sec) 
Heartbeat CPU  0 instructions:  373000003 cycles:  756666317 heartbeat IPC: 0.54599 cumulative IPC: 0.39745 (Simulation time: 0 hr 16 min 29 sec) 
Heartbeat CPU  0 instructions:  374000001 cycles:  758511845 heartbeat IPC: 0.54185 cumulative IPC: 0.39784 (Simulation time: 0 hr 16 min 32 sec) 
Heartbeat CPU  0 instructions:  375000001 cycles:  760443282 heartbeat IPC: 0.51775 cumulative IPC: 0.39818 (Simulation time: 0 hr 16 min 35 sec) 
Heartbeat CPU  0 instructions:  376000000 cycles:  762354078 heartbeat IPC: 0.52334 cumulative IPC: 0.39852 (Simulation time: 0 hr 16 min 38 sec) 
Heartbeat CPU  0 instructions:  377000002 cycles:  771691080 heartbeat IPC: 0.10710 cumulative IPC: 0.39465 (Simulation time: 0 hr 16 min 41 sec) 
Heartbeat CPU  0 instructions:  378000003 cycles:  780511846 heartbeat IPC: 0.11337 cumulative IPC: 0.39115 (Simulation time: 0 hr 16 min 44 sec) 
Heartbeat CPU  0 instructions:  379000001 cycles:  782455901 heartbeat IPC: 0.51439 cumulative IPC: 0.39149 (Simulation time: 0 hr 16 min 47 sec) 
Heartbeat CPU  0 instructions:  380000000 cycles:  784242272 heartbeat IPC: 0.55979 cumulative IPC: 0.39191 (Simulation time: 0 hr 16 min 50 sec) 
Heartbeat CPU  0 instructions:  381000002 cycles:  786202037 heartbeat IPC: 0.51027 cumulative IPC: 0.39223 (Simulation time: 0 hr 16 min 53 sec) 
Heartbeat CPU  0 instructions:  382000002 cycles:  788295918 heartbeat IPC: 0.47758 cumulative IPC: 0.39248 (Simulation time: 0 hr 16 min 55 sec) 
Heartbeat CPU  0 instructions:  383000002 cycles:  790287938 heartbeat IPC: 0.50200 cumulative IPC: 0.39279 (Simulation time: 0 hr 16 min 58 sec) 
Heartbeat CPU  0 instructions:  384000000 cycles:  792137850 heartbeat IPC: 0.54057 cumulative IPC: 0.39316 (Simulation time: 0 hr 17 min 1 sec) 
Heartbeat CPU  0 instructions:  385000003 cycles:  794075384 heartbeat IPC: 0.51612 cumulative IPC: 0.39349 (Simulation time: 0 hr 17 min 3 sec) 
Heartbeat CPU  0 instructions:  386000002 cycles:  795990133 heartbeat IPC: 0.52226 cumulative IPC: 0.39383 (Simulation time: 0 hr 17 min 6 sec) 
Heartbeat CPU  0 instructions:  387000001 cycles:  797768495 heartbeat IPC: 0.56231 cumulative IPC: 0.39424 (Simulation time: 0 hr 17 min 9 sec) 
Heartbeat CPU  0 instructions:  388000000 cycles:  799693628 heartbeat IPC: 0.51944 cumulative IPC: 0.39458 (Simulation time: 0 hr 17 min 12 sec) 
Heartbeat CPU  0 instructions:  389000003 cycles:  801625165 heartbeat IPC: 0.51772 cumulative IPC: 0.39490 (Simulation time: 0 hr 17 min 14 sec) 
Heartbeat CPU  0 instructions:  390000003 cycles:  803409481 heartbeat IPC: 0.56044 cumulative IPC: 0.39530 (Simulation time: 0 hr 17 min 17 sec) 
Heartbeat CPU  0 instructions:  391000001 cycles:  805312333 heartbeat IPC: 0.52553 cumulative IPC: 0.39564 (Simulation time: 0 hr 17 min 20 sec) 
Heartbeat CPU  0 instructions:  392000000 cycles:  807247275 heartbeat IPC: 0.51681 cumulative IPC: 0.39596 (Simulation time: 0 hr 17 min 22 sec) 
Heartbeat CPU  0 instructions:  393000000 cycles:  809095937 heartbeat IPC: 0.54093 cumulative IPC: 0.39632 (Simulation time: 0 hr 17 min 25 sec) 
Heartbeat CPU  0 instructions:  394000000 cycles:  810918151 heartbeat IPC: 0.54878 cumulative IPC: 0.39670 (Simulation time: 0 hr 17 min 28 sec) 
Heartbeat CPU  0 instructions:  395000002 cycles:  812861710 heartbeat IPC: 0.51452 cumulative IPC: 0.39700 (Simulation time: 0 hr 17 min 31 sec) 
Heartbeat CPU  0 instructions:  396000000 cycles:  814776669 heartbeat IPC: 0.52220 cumulative IPC: 0.39733 (Simulation time: 0 hr 17 min 33 sec) 
Heartbeat CPU  0 instructions:  397000001 cycles:  816549791 heartbeat IPC: 0.56398 cumulative IPC: 0.39772 (Simulation time: 0 hr 17 min 36 sec) 
Heartbeat CPU  0 instructions:  398000003 cycles:  818468916 heartbeat IPC: 0.52107 cumulative IPC: 0.39804 (Simulation time: 0 hr 17 min 39 sec) 
Heartbeat CPU  0 instructions:  399000001 cycles:  822389581 heartbeat IPC: 0.25506 cumulative IPC: 0.39729 (Simulation time: 0 hr 17 min 42 sec) 
Heartbeat CPU  0 instructions:  400000000 cycles:  836630016 heartbeat IPC: 0.07022 cumulative IPC: 0.39122 (Simulation time: 0 hr 17 min 46 sec) 
Heartbeat CPU  0 instructions:  401000002 cycles:  838564653 heartbeat IPC: 0.51689 cumulative IPC: 0.39153 (Simulation time: 0 hr 17 min 48 sec) 
Heartbeat CPU  0 instructions:  402000001 cycles:  840511324 heartbeat IPC: 0.51370 cumulative IPC: 0.39184 (Simulation time: 0 hr 17 min 51 sec) 
Heartbeat CPU  0 instructions:  403000003 cycles:  842368584 heartbeat IPC: 0.53843 cumulative IPC: 0.39220 (Simulation time: 0 hr 17 min 54 sec) 
Heartbeat CPU  0 instructions:  404000000 cycles:  844204093 heartbeat IPC: 0.54481 cumulative IPC: 0.39256 (Simulation time: 0 hr 17 min 56 sec) 
Heartbeat CPU  0 instructions:  405000001 cycles:  846146901 heartbeat IPC: 0.51472 cumulative IPC: 0.39286 (Simulation time: 0 hr 17 min 59 sec) 
Heartbeat CPU  0 instructions:  406000002 cycles:  848068939 heartbeat IPC: 0.52028 cumulative IPC: 0.39318 (Simulation time: 0 hr 18 min 2 sec) 
Heartbeat CPU  0 instructions:  407000001 cycles:  849841068 heartbeat IPC: 0.56429 cumulative IPC: 0.39357 (Simulation time: 0 hr 18 min 4 sec) 
Heartbeat CPU  0 instructions:  408000000 cycles:  851770282 heartbeat IPC: 0.51835 cumulative IPC: 0.39387 (Simulation time: 0 hr 18 min 7 sec) 
Heartbeat CPU  0 instructions:  409000001 cycles:  853699932 heartbeat IPC: 0.51823 cumulative IPC: 0.39418 (Simulation time: 0 hr 18 min 10 sec) 
Heartbeat CPU  0 instructions:  410000003 cycles:  855495137 heartbeat IPC: 0.55704 cumulative IPC: 0.39455 (Simulation time: 0 hr 18 min 13 sec) 
Heartbeat CPU  0 instructions:  411000000 cycles:  857383864 heartbeat IPC: 0.52946 cumulative IPC: 0.39488 (Simulation time: 0 hr 18 min 15 sec) 
Heartbeat CPU  0 instructions:  412000000 cycles:  859318840 heartbeat IPC: 0.51680 cumulative IPC: 0.39517 (Simulation time: 0 hr 18 min 18 sec) 
Heartbeat CPU  0 instructions:  413000002 cycles:  861190089 heartbeat IPC: 0.53440 cumulative IPC: 0.39550 (Simulation time: 0 hr 18 min 21 sec) 
Heartbeat CPU  0 instructions:  414000003 cycles:  863000298 heartbeat IPC: 0.55242 cumulative IPC: 0.39586 (Simulation time: 0 hr 18 min 23 sec) 
Heartbeat CPU  0 instructions:  415000002 cycles:  864927711 heartbeat IPC: 0.51883 cumulative IPC: 0.39616 (Simulation time: 0 hr 18 min 26 sec) 
Heartbeat CPU  0 instructions:  416000000 cycles:  866849566 heartbeat IPC: 0.52033 cumulative IPC: 0.39646 (Simulation time: 0 hr 18 min 29 sec) 
Heartbeat CPU  0 instructions:  417000003 cycles:  868626645 heartbeat IPC: 0.56272 cumulative IPC: 0.39683 (Simulation time: 0 hr 18 min 32 sec) 
Heartbeat CPU  0 instructions:  418000003 cycles:  870543978 heartbeat IPC: 0.52156 cumulative IPC: 0.39713 (Simulation time: 0 hr 18 min 34 sec) 
Heartbeat CPU  0 instructions:  419000003 cycles:  872475422 heartbeat IPC: 0.51775 cumulative IPC: 0.39742 (Simulation time: 0 hr 18 min 37 sec) 
Heartbeat CPU  0 instructions:  420000000 cycles:  874290608 heartbeat IPC: 0.55091 cumulative IPC: 0.39776 (Simulation time: 0 hr 18 min 40 sec) 
Heartbeat CPU  0 instructions:  421000001 cycles:  876153663 heartbeat IPC: 0.53675 cumulative IPC: 0.39809 (Simulation time: 0 hr 18 min 42 sec) 
Heartbeat CPU  0 instructions:  422000002 cycles:  887306692 heartbeat IPC: 0.08966 cumulative IPC: 0.39388 (Simulation time: 0 hr 18 min 46 sec) 
Heartbeat CPU  0 instructions:  423000003 cycles:  894339431 heartbeat IPC: 0.14219 cumulative IPC: 0.39173 (Simulation time: 0 hr 18 min 49 sec) 
Heartbeat CPU  0 instructions:  424000000 cycles:  896157314 heartbeat IPC: 0.55009 cumulative IPC: 0.39208 (Simulation time: 0 hr 18 min 52 sec) 
Heartbeat CPU  0 instructions:  425000003 cycles:  898093033 heartbeat IPC: 0.51661 cumulative IPC: 0.39237 (Simulation time: 0 hr 18 min 55 sec) 
Heartbeat CPU  0 instructions:  426000001 cycles:  900019095 heartbeat IPC: 0.51919 cumulative IPC: 0.39266 (Simulation time: 0 hr 18 min 57 sec) 
Heartbeat CPU  0 instructions:  427000000 cycles:  901799547 heartbeat IPC: 0.56165 cumulative IPC: 0.39303 (Simulation time: 0 hr 19 min 0 sec) 
Heartbeat CPU  0 instructions:  428000000 cycles:  903709255 heartbeat IPC: 0.52364 cumulative IPC: 0.39333 (Simulation time: 0 hr 19 min 3 sec) 
Heartbeat CPU  0 instructions:  429000002 cycles:  905640201 heartbeat IPC: 0.51788 cumulative IPC: 0.39361 (Simulation time: 0 hr 19 min 5 sec) 
Heartbeat CPU  0 instructions:  430000000 cycles:  907449935 heartbeat IPC: 0.55257 cumulative IPC: 0.39396 (Simulation time: 0 hr 19 min 8 sec) 
Heartbeat CPU  0 instructions:  431000000 cycles:  909318639 heartbeat IPC: 0.53513 cumulative IPC: 0.39427 (Simulation time: 0 hr 19 min 11 sec) 
Heartbeat CPU  0 instructions:  432000000 cycles:  911241665 heartbeat IPC: 0.52001 cumulative IPC: 0.39456 (Simulation time: 0 hr 19 min 14 sec) 
Heartbeat CPU  0 instructions:  433000003 cycles:  913263400 heartbeat IPC: 0.49463 cumulative IPC: 0.39480 (Simulation time: 0 hr 19 min 16 sec) 
Heartbeat CPU  0 instructions:  434000002 cycles:  915049118 heartbeat IPC: 0.56000 cumulative IPC: 0.39515 (Simulation time: 0 hr 19 min 19 sec) 
Heartbeat CPU  0 instructions:  435000001 cycles:  916976608 heartbeat IPC: 0.51881 cumulative IPC: 0.39543 (Simulation time: 0 hr 19 min 22 sec) 
Heartbeat CPU  0 instructions:  436000000 cycles:  918893182 heartbeat IPC: 0.52176 cumulative IPC: 0.39571 (Simulation time: 0 hr 19 min 24 sec) 
Heartbeat CPU  0 instructions:  437000000 cycles:  920667516 heartbeat IPC: 0.56359 cumulative IPC: 0.39606 (Simulation time: 0 hr 19 min 27 sec) 
Heartbeat CPU  0 instructions:  438000000 cycles:  922573398 heartbeat IPC: 0.52469 cumulative IPC: 0.39635 (Simulation time: 0 hr 19 min 30 sec) 
Heartbeat CPU  0 instructions:  439000001 cycles:  924503319 heartbeat IPC: 0.51816 cumulative IPC: 0.39663 (Simulation time: 0 hr 19 min 33 sec) 
Heartbeat CPU  0 instructions:  440000000 cycles:  926325892 heartbeat IPC: 0.54867 cumulative IPC: 0.39695 (Simulation time: 0 hr 19 min 35 sec) 
Heartbeat CPU  0 instructions:  441000001 cycles:  928171230 heartbeat IPC: 0.54191 cumulative IPC: 0.39726 (Simulation time: 0 hr 19 min 38 sec) 
Heartbeat CPU  0 instructions:  442000001 cycles:  930099072 heartbeat IPC: 0.51871 cumulative IPC: 0.39753 (Simulation time: 0 hr 19 min 41 sec) 
Heartbeat CPU  0 instructions:  443000002 cycles:  931999557 heartbeat IPC: 0.52618 cumulative IPC: 0.39782 (Simulation time: 0 hr 19 min 43 sec) 
Heartbeat CPU  0 instructions:  444000000 cycles:  937723201 heartbeat IPC: 0.17471 cumulative IPC: 0.39635 (Simulation time: 0 hr 19 min 46 sec) 
Heartbeat CPU  0 instructions:  445000003 cycles:  950352210 heartbeat IPC: 0.07918 cumulative IPC: 0.39180 (Simulation time: 0 hr 19 min 50 sec) 
Heartbeat CPU  0 instructions:  446000000 cycles:  952288949 heartbeat IPC: 0.51633 cumulative IPC: 0.39207 (Simulation time: 0 hr 19 min 53 sec) 
Heartbeat CPU  0 instructions:  447000003 cycles:  954047185 heartbeat IPC: 0.56875 cumulative IPC: 0.39242 (Simulation time: 0 hr 19 min 56 sec) 
Heartbeat CPU  0 instructions:  448000000 cycles:  955960458 heartbeat IPC: 0.52266 cumulative IPC: 0.39270 (Simulation time: 0 hr 19 min 59 sec) 
Heartbeat CPU  0 instructions:  449000000 cycles:  957891413 heartbeat IPC: 0.51788 cumulative IPC: 0.39298 (Simulation time: 0 hr 20 min 1 sec) 
Heartbeat CPU  0 instructions:  450000000 cycles:  959712789 heartbeat IPC: 0.54904 cumulative IPC: 0.39329 (Simulation time: 0 hr 20 min 4 sec) 
Heartbeat CPU  0 instructions:  451000000 cycles:  961536569 heartbeat IPC: 0.54831 cumulative IPC: 0.39361 (Simulation time: 0 hr 20 min 7 sec) 
Heartbeat CPU  0 instructions:  452000000 cycles:  963453852 heartbeat IPC: 0.52157 cumulative IPC: 0.39389 (Simulation time: 0 hr 20 min 9 sec) 
Heartbeat CPU  0 instructions:  453000001 cycles:  965336983 heartbeat IPC: 0.53103 cumulative IPC: 0.39417 (Simulation time: 0 hr 20 min 12 sec) 
Heartbeat CPU  0 instructions:  454000001 cycles:  967079488 heartbeat IPC: 0.57389 cumulative IPC: 0.39452 (Simulation time: 0 hr 20 min 15 sec) 
Heartbeat CPU  0 instructions:  455000000 cycles:  968984451 heartbeat IPC: 0.52494 cumulative IPC: 0.39480 (Simulation time: 0 hr 20 min 18 sec) 
Heartbeat CPU  0 instructions:  456000000 cycles:  970889890 heartbeat IPC: 0.52481 cumulative IPC: 0.39507 (Simulation time: 0 hr 20 min 20 sec) 
Heartbeat CPU  0 instructions:  457000000 cycles:  972642695 heartbeat IPC: 0.57051 cumulative IPC: 0.39542 (Simulation time: 0 hr 20 min 23 sec) 
Heartbeat CPU  0 instructions:  458000003 cycles:  974516006 heartbeat IPC: 0.53382 cumulative IPC: 0.39570 (Simulation time: 0 hr 20 min 26 sec) 
Heartbeat CPU  0 instructions:  459000000 cycles:  976435798 heartbeat IPC: 0.52089 cumulative IPC: 0.39597 (Simulation time: 0 hr 20 min 28 sec) 
Heartbeat CPU  0 instructions:  460000000 cycles:  978260311 heartbeat IPC: 0.54809 cumulative IPC: 0.39627 (Simulation time: 0 hr 20 min 31 sec) 
Heartbeat CPU  0 instructions:  461000000 cycles:  980062919 heartbeat IPC: 0.55475 cumulative IPC: 0.39659 (Simulation time: 0 hr 20 min 34 sec) 
Heartbeat CPU  0 instructions:  462000003 cycles:  981973911 heartbeat IPC: 0.52329 cumulative IPC: 0.39685 (Simulation time: 0 hr 20 min 37 sec) 
Heartbeat CPU  0 instructions:  463000003 cycles:  983865828 heartbeat IPC: 0.52856 cumulative IPC: 0.39712 (Simulation time: 0 hr 20 min 39 sec) 
Heartbeat CPU  0 instructions:  464000000 cycles:  985600885 heartbeat IPC: 0.57635 cumulative IPC: 0.39746 (Simulation time: 0 hr 20 min 42 sec) 
Heartbeat CPU  0 instructions:  465000000 cycles:  987501287 heartbeat IPC: 0.52620 cumulative IPC: 0.39773 (Simulation time: 0 hr 20 min 45 sec) 
Heartbeat CPU  0 instructions:  466000000 cycles:  989406461 heartbeat IPC: 0.52489 cumulative IPC: 0.39799 (Simulation time: 0 hr 20 min 47 sec) 
Heartbeat CPU  0 instructions:  467000000 cycles: 1002486044 heartbeat IPC: 0.07646 cumulative IPC: 0.39348 (Simulation time: 0 hr 20 min 51 sec) 
Heartbeat CPU  0 instructions:  468000000 cycles: 1007426336 heartbeat IPC: 0.20242 cumulative IPC: 0.39248 (Simulation time: 0 hr 20 min 54 sec) 
Heartbeat CPU  0 instructions:  469000002 cycles: 1009353608 heartbeat IPC: 0.51887 cumulative IPC: 0.39274 (Simulation time: 0 hr 20 min 57 sec) 
Heartbeat CPU  0 instructions:  470000000 cycles: 1011200707 heartbeat IPC: 0.54139 cumulative IPC: 0.39303 (Simulation time: 0 hr 21 min 0 sec) 
Heartbeat CPU  0 instructions:  471000002 cycles: 1013006661 heartbeat IPC: 0.55373 cumulative IPC: 0.39334 (Simulation time: 0 hr 21 min 2 sec) 
Heartbeat CPU  0 instructions:  472000000 cycles: 1014936579 heartbeat IPC: 0.51816 cumulative IPC: 0.39359 (Simulation time: 0 hr 21 min 5 sec) 
Heartbeat CPU  0 instructions:  473000003 cycles: 1016842790 heartbeat IPC: 0.52460 cumulative IPC: 0.39386 (Simulation time: 0 hr 21 min 8 sec) 
Heartbeat CPU  0 instructions:  474000002 cycles: 1018599791 heartbeat IPC: 0.56915 cumulative IPC: 0.39418 (Simulation time: 0 hr 21 min 11 sec) 
Heartbeat CPU  0 instructions:  475000003 cycles: 1020505581 heartbeat IPC: 0.52472 cumulative IPC: 0.39444 (Simulation time: 0 hr 21 min 13 sec) 
Heartbeat CPU  0 instructions:  476000000 cycles: 1022416333 heartbeat IPC: 0.52335 cumulative IPC: 0.39470 (Simulation time: 0 hr 21 min 16 sec) 
Heartbeat CPU  0 instructions:  477000003 cycles: 1024178461 heartbeat IPC: 0.56750 cumulative IPC: 0.39502 (Simulation time: 0 hr 21 min 19 sec) 
Heartbeat CPU  0 instructions:  478000003 cycles: 1026033216 heartbeat IPC: 0.53915 cumulative IPC: 0.39530 (Simulation time: 0 hr 21 min 21 sec) 
Heartbeat CPU  0 instructions:  479000000 cycles: 1027951306 heartbeat IPC: 0.52135 cumulative IPC: 0.39555 (Simulation time: 0 hr 21 min 24 sec) 
Heartbeat CPU  0 instructions:  480000000 cycles: 1029791907 heartbeat IPC: 0.54330 cumulative IPC: 0.39583 (Simulation time: 0 hr 21 min 27 sec) 
Heartbeat CPU  0 instructions:  481000000 cycles: 1031564245 heartbeat IPC: 0.56423 cumulative IPC: 0.39614 (Simulation time: 0 hr 21 min 30 sec) 
Heartbeat CPU  0 instructions:  482000000 cycles: 1033476194 heartbeat IPC: 0.52303 cumulative IPC: 0.39640 (Simulation time: 0 hr 21 min 32 sec) 
Heartbeat CPU  0 instructions:  483000001 cycles: 1035476554 heartbeat IPC: 0.49991 cumulative IPC: 0.39661 (Simulation time: 0 hr 21 min 35 sec) 
Heartbeat CPU  0 instructions:  484000000 cycles: 1037341711 heartbeat IPC: 0.53615 cumulative IPC: 0.39688 (Simulation time: 0 hr 21 min 38 sec) 
Heartbeat CPU  0 instructions:  485000001 cycles: 1039351965 heartbeat IPC: 0.49745 cumulative IPC: 0.39709 (Simulation time: 0 hr 21 min 40 sec) 
Heartbeat CPU  0 instructions:  486000001 cycles: 1041269330 heartbeat IPC: 0.52155 cumulative IPC: 0.39733 (Simulation time: 0 hr 21 min 43 sec) 
Heartbeat CPU  0 instructions:  487000000 cycles: 1043054307 heartbeat IPC: 0.56023 cumulative IPC: 0.39763 (Simulation time: 0 hr 21 min 46 sec) 
Heartbeat CPU  0 instructions:  488000000 cycles: 1044887894 heartbeat IPC: 0.54538 cumulative IPC: 0.39791 (Simulation time: 0 hr 21 min 49 sec) 
Heartbeat CPU  0 instructions:  489000001 cycles: 1052563838 heartbeat IPC: 0.13028 cumulative IPC: 0.39582 (Simulation time: 0 hr 21 min 52 sec) 
Heartbeat CPU  0 instructions:  490000003 cycles: 1063003871 heartbeat IPC: 0.09579 cumulative IPC: 0.39267 (Simulation time: 0 hr 21 min 55 sec) 
Heartbeat CPU  0 instructions:  491000001 cycles: 1064805783 heartbeat IPC: 0.55496 cumulative IPC: 0.39296 (Simulation time: 0 hr 21 min 58 sec) 
Heartbeat CPU  0 instructions:  492000000 cycles: 1066739732 heartbeat IPC: 0.51708 cumulative IPC: 0.39320 (Simulation time: 0 hr 22 min 1 sec) 
Heartbeat CPU  0 instructions:  493000000 cycles: 1068654815 heartbeat IPC: 0.52217 cumulative IPC: 0.39345 (Simulation time: 0 hr 22 min 4 sec) 
Heartbeat CPU  0 instructions:  494000002 cycles: 1070408493 heartbeat IPC: 0.57023 cumulative IPC: 0.39376 (Simulation time: 0 hr 22 min 6 sec) 
Heartbeat CPU  0 instructions:  495000000 cycles: 1072319780 heartbeat IPC: 0.52321 cumulative IPC: 0.39401 (Simulation time: 0 hr 22 min 9 sec) 
Heartbeat CPU  0 instructions:  496000000 cycles: 1074240658 heartbeat IPC: 0.52060 cumulative IPC: 0.39425 (Simulation time: 0 hr 22 min 12 sec) 
Heartbeat CPU  0 instructions:  497000001 cycles: 1076052919 heartbeat IPC: 0.55180 cumulative IPC: 0.39453 (Simulation time: 0 hr 22 min 14 sec) 
Heartbeat CPU  0 instructions:  498000001 cycles: 1077895659 heartbeat IPC: 0.54267 cumulative IPC: 0.39480 (Simulation time: 0 hr 22 min 17 sec) 
Heartbeat CPU  0 instructions:  499000001 cycles: 1079819124 heartbeat IPC: 0.51990 cumulative IPC: 0.39504 (Simulation time: 0 hr 22 min 20 sec) 
Heartbeat CPU  0 instructions:  500000000 cycles: 1081688949 heartbeat IPC: 0.53481 cumulative IPC: 0.39530 (Simulation time: 0 hr 22 min 23 sec) 
Heartbeat CPU  0 instructions:  501000002 cycles: 1083457451 heartbeat IPC: 0.56545 cumulative IPC: 0.39560 (Simulation time: 0 hr 22 min 26 sec) 
Heartbeat CPU  0 instructions:  502000002 cycles: 1085370972 heartbeat IPC: 0.52260 cumulative IPC: 0.39583 (Simulation time: 0 hr 22 min 28 sec) 
Heartbeat CPU  0 instructions:  503000002 cycles: 1087282160 heartbeat IPC: 0.52323 cumulative IPC: 0.39607 (Simulation time: 0 hr 22 min 31 sec) 
Heartbeat CPU  0 instructions:  504000000 cycles: 1089029492 heartbeat IPC: 0.57230 cumulative IPC: 0.39638 (Simulation time: 0 hr 22 min 34 sec) 
Heartbeat CPU  0 instructions:  505000002 cycles: 1090925800 heartbeat IPC: 0.52734 cumulative IPC: 0.39662 (Simulation time: 0 hr 22 min 36 sec) 
Heartbeat CPU  0 instructions:  506000002 cycles: 1092841778 heartbeat IPC: 0.52193 cumulative IPC: 0.39685 (Simulation time: 0 hr 22 min 39 sec) 
Heartbeat CPU  0 instructions:  507000001 cycles: 1094643915 heartbeat IPC: 0.55490 cumulative IPC: 0.39713 (Simulation time: 0 hr 22 min 42 sec) 
Heartbeat CPU  0 instructions:  508000000 cycles: 1096467312 heartbeat IPC: 0.54843 cumulative IPC: 0.39740 (Simulation time: 0 hr 22 min 45 sec) 
Heartbeat CPU  0 instructions:  509000000 cycles: 1098392224 heartbeat IPC: 0.51950 cumulative IPC: 0.39763 (Simulation time: 0 hr 22 min 47 sec) 
Heartbeat CPU  0 instructions:  510000003 cycles: 1100276937 heartbeat IPC: 0.53059 cumulative IPC: 0.39787 (Simulation time: 0 hr 22 min 50 sec) 
Heartbeat CPU  0 instructions:  511000001 cycles: 1102348511 heartbeat IPC: 0.48272 cumulative IPC: 0.39804 (Simulation time: 0 hr 22 min 53 sec) 
Heartbeat CPU  0 instructions:  512000000 cycles: 1117089273 heartbeat IPC: 0.06784 cumulative IPC: 0.39339 (Simulation time: 0 hr 22 min 57 sec) 
Heartbeat CPU  0 instructions:  513000000 cycles: 1120218359 heartbeat IPC: 0.31958 cumulative IPC: 0.39317 (Simulation time: 0 hr 23 min 0 sec) 
Heartbeat CPU  0 instructions:  514000001 cycles: 1122013860 heartbeat IPC: 0.55695 cumulative IPC: 0.39345 (Simulation time: 0 hr 23 min 2 sec) 
Heartbeat CPU  0 instructions:  515000002 cycles: 1123929475 heartbeat IPC: 0.52203 cumulative IPC: 0.39369 (Simulation time: 0 hr 23 min 5 sec) 
Heartbeat CPU  0 instructions:  516000000 cycles: 1125872877 heartbeat IPC: 0.51456 cumulative IPC: 0.39391 (Simulation time: 0 hr 23 min 8 sec) 
Heartbeat CPU  0 instructions:  517000002 cycles: 1127704727 heartbeat IPC: 0.54590 cumulative IPC: 0.39417 (Simulation time: 0 hr 23 min 10 sec) 
Heartbeat CPU  0 instructions:  518000000 cycles: 1129569082 heartbeat IPC: 0.53638 cumulative IPC: 0.39442 (Simulation time: 0 hr 23 min 13 sec) 
Heartbeat CPU  0 instructions:  519000000 cycles: 1131507509 heartbeat IPC: 0.51588 cumulative IPC: 0.39465 (Simulation time: 0 hr 23 min 16 sec) 
Heartbeat CPU  0 instructions:  520000000 cycles: 1133408784 heartbeat IPC: 0.52596 cumulative IPC: 0.39488 (Simulation time: 0 hr 23 min 19 sec) 
Heartbeat CPU  0 instructions:  521000003 cycles: 1135197220 heartbeat IPC: 0.55915 cumulative IPC: 0.39516 (Simulation time: 0 hr 23 min 21 sec) 
Heartbeat CPU  0 instructions:  522000001 cycles: 1137131169 heartbeat IPC: 0.51708 cumulative IPC: 0.39538 (Simulation time: 0 hr 23 min 24 sec) 
Heartbeat CPU  0 instructions:  523000001 cycles: 1139065126 heartbeat IPC: 0.51707 cumulative IPC: 0.39560 (Simulation time: 0 hr 23 min 27 sec) 
Heartbeat CPU  0 instructions:  524000000 cycles: 1140845018 heartbeat IPC: 0.56183 cumulative IPC: 0.39587 (Simulation time: 0 hr 23 min 29 sec) 
Heartbeat CPU  0 instructions:  525000000 cycles: 1142749842 heartbeat IPC: 0.52498 cumulative IPC: 0.39610 (Simulation time: 0 hr 23 min 32 sec) 
Heartbeat CPU  0 instructions:  526000002 cycles: 1144690357 heartbeat IPC: 0.51533 cumulative IPC: 0.39632 (Simulation time: 0 hr 23 min 35 sec) 
Heartbeat CPU  0 instructions:  527000002 cycles: 1146534935 heartbeat IPC: 0.54213 cumulative IPC: 0.39657 (Simulation time: 0 hr 23 min 38 sec) 
Heartbeat CPU  0 instructions:  528000000 cycles: 1148371902 heartbeat IPC: 0.54437 cumulative IPC: 0.39682 (Simulation time: 0 hr 23 min 40 sec) 
Heartbeat CPU  0 instructions:  529000001 cycles: 1150304378 heartbeat IPC: 0.51747 cumulative IPC: 0.39703 (Simulation time: 0 hr 23 min 43 sec) 
Heartbeat CPU  0 instructions:  530000002 cycles: 1152221711 heartbeat IPC: 0.52156 cumulative IPC: 0.39726 (Simulation time: 0 hr 23 min 46 sec) 
Heartbeat CPU  0 instructions:  531000001 cycles: 1153997419 heartbeat IPC: 0.56316 cumulative IPC: 0.39753 (Simulation time: 0 hr 23 min 48 sec) 
Heartbeat CPU  0 instructions:  532000000 cycles: 1155921921 heartbeat IPC: 0.51961 cumulative IPC: 0.39774 (Simulation time: 0 hr 23 min 51 sec) 
Heartbeat CPU  0 instructions:  533000002 cycles: 1157850778 heartbeat IPC: 0.51844 cumulative IPC: 0.39796 (Simulation time: 0 hr 23 min 54 sec) 
Heartbeat CPU  0 instructions:  534000003 cycles: 1167224851 heartbeat IPC: 0.10668 cumulative IPC: 0.39547 (Simulation time: 0 hr 23 min 57 sec) 
Heartbeat CPU  0 instructions:  535000000 cycles: 1175909667 heartbeat IPC: 0.11514 cumulative IPC: 0.39327 (Simulation time: 0 hr 24 min 1 sec) 
Heartbeat CPU  0 instructions:  536000000 cycles: 1177948223 heartbeat IPC: 0.49054 cumulative IPC: 0.39345 (Simulation time: 0 hr 24 min 3 sec) 
Heartbeat CPU  0 instructions:  537000000 cycles: 1179802991 heartbeat IPC: 0.53915 cumulative IPC: 0.39369 (Simulation time: 0 hr 24 min 6 sec) 
Heartbeat CPU  0 instructions:  538000003 cycles: 1181648220 heartbeat IPC: 0.54194 cumulative IPC: 0.39394 (Simulation time: 0 hr 24 min 9 sec) 
Heartbeat CPU  0 instructions:  539000000 cycles: 1183593009 heartbeat IPC: 0.51419 cumulative IPC: 0.39415 (Simulation time: 0 hr 24 min 12 sec) 
Heartbeat CPU  0 instructions:  540000000 cycles: 1185520763 heartbeat IPC: 0.51874 cumulative IPC: 0.39436 (Simulation time: 0 hr 24 min 14 sec) 
Heartbeat CPU  0 instructions:  541000000 cycles: 1187298657 heartbeat IPC: 0.56246 cumulative IPC: 0.39463 (Simulation time: 0 hr 24 min 17 sec) 
Heartbeat CPU  0 instructions:  542000000 cycles: 1189220814 heartbeat IPC: 0.52025 cumulative IPC: 0.39485 (Simulation time: 0 hr 24 min 20 sec) 
Heartbeat CPU  0 instructions:  543000002 cycles: 1191154738 heartbeat IPC: 0.51708 cumulative IPC: 0.39506 (Simulation time: 0 hr 24 min 22 sec) 
Heartbeat CPU  0 instructions:  544000000 cycles: 1192938539 heartbeat IPC: 0.56060 cumulative IPC: 0.39532 (Simulation time: 0 hr 24 min 25 sec) 
Heartbeat CPU  0 instructions:  545000001 cycles: 1194833004 heartbeat IPC: 0.52785 cumulative IPC: 0.39554 (Simulation time: 0 hr 24 min 28 sec) 
Heartbeat CPU  0 instructions:  546000001 cycles: 1196767671 heartbeat IPC: 0.51688 cumulative IPC: 0.39575 (Simulation time: 0 hr 24 min 30 sec) 
Heartbeat CPU  0 instructions:  547000000 cycles: 1198624008 heartbeat IPC: 0.53869 cumulative IPC: 0.39599 (Simulation time: 0 hr 24 min 33 sec) 
Heartbeat CPU  0 instructions:  548000000 cycles: 1200454838 heartbeat IPC: 0.54620 cumulative IPC: 0.39623 (Simulation time: 0 hr 24 min 36 sec) 
Heartbeat CPU  0 instructions:  549000001 cycles: 1202385048 heartbeat IPC: 0.51808 cumulative IPC: 0.39644 (Simulation time: 0 hr 24 min 39 sec) 
Heartbeat CPU  0 instructions:  550000000 cycles: 1204301552 heartbeat IPC: 0.52178 cumulative IPC: 0.39665 (Simulation time: 0 hr 24 min 41 sec) 
Heartbeat CPU  0 instructions:  551000001 cycles: 1206076030 heartbeat IPC: 0.56355 cumulative IPC: 0.39691 (Simulation time: 0 hr 24 min 44 sec) 
Heartbeat CPU  0 instructions:  552000000 cycles: 1207993745 heartbeat IPC: 0.52145 cumulative IPC: 0.39712 (Simulation time: 0 hr 24 min 47 sec) 
Heartbeat CPU  0 instructions:  553000002 cycles: 1209929404 heartbeat IPC: 0.51662 cumulative IPC: 0.39732 (Simulation time: 0 hr 24 min 49 sec) 
Heartbeat CPU  0 instructions:  554000002 cycles: 1211733510 heartbeat IPC: 0.55429 cumulative IPC: 0.39757 (Simulation time: 0 hr 24 min 52 sec) 
Heartbeat CPU  0 instructions:  555000003 cycles: 1213605380 heartbeat IPC: 0.53423 cumulative IPC: 0.39779 (Simulation time: 0 hr 24 min 55 sec) 
Heartbeat CPU  0 instructions:  556000000 cycles: 1217595242 heartbeat IPC: 0.25063 cumulative IPC: 0.39728 (Simulation time: 0 hr 24 min 58 sec) 
Heartbeat CPU  0 instructions:  557000002 cycles: 1231851228 heartbeat IPC: 0.07015 cumulative IPC: 0.39327 (Simulation time: 0 hr 25 min 2 sec) 
Heartbeat CPU  0 instructions:  558000003 cycles: 1233712689 heartbeat IPC: 0.53721 cumulative IPC: 0.39350 (Simulation time: 0 hr 25 min 4 sec) 
Heartbeat CPU  0 instructions:  559000000 cycles: 1235659457 heartbeat IPC: 0.51367 cumulative IPC: 0.39370 (Simulation time: 0 hr 25 min 7 sec) 
Heartbeat CPU  0 instructions:  560000000 cycles: 1237585015 heartbeat IPC: 0.51933 cumulative IPC: 0.39391 (Simulation time: 0 hr 25 min 10 sec) 
Heartbeat CPU  0 instructions:  561000002 cycles: 1239377681 heartbeat IPC: 0.55783 cumulative IPC: 0.39416 (Simulation time: 0 hr 25 min 13 sec) 
Heartbeat CPU  0 instructions:  562000002 cycles: 1241306221 heartbeat IPC: 0.51853 cumulative IPC: 0.39436 (Simulation time: 0 hr 25 min 15 sec) 
Heartbeat CPU  0 instructions:  563000001 cycles: 1243241056 heartbeat IPC: 0.51684 cumulative IPC: 0.39456 (Simulation time: 0 hr 25 min 18 sec) 
Heartbeat CPU  0 instructions:  564000000 cycles: 1245043574 heartbeat IPC: 0.55478 cumulative IPC: 0.39481 (Simulation time: 0 hr 25 min 21 sec) 
Heartbeat CPU  0 instructions:  565000003 cycles: 1246923678 heartbeat IPC: 0.53189 cumulative IPC: 0.39503 (Simulation time: 0 hr 25 min 24 sec) 
Heartbeat CPU  0 instructions:  566000000 cycles: 1248859166 heartbeat IPC: 0.51666 cumulative IPC: 0.39523 (Simulation time: 0 hr 25 min 26 sec) 
Heartbeat CPU  0 instructions:  567000003 cycles: 1250733263 heartbeat IPC: 0.53359 cumulative IPC: 0.39545 (Simulation time: 0 hr 25 min 29 sec) 
Heartbeat CPU  0 instructions:  568000000 cycles: 1252540219 heartbeat IPC: 0.55342 cumulative IPC: 0.39569 (Simulation time: 0 hr 25 min 32 sec) 
Heartbeat CPU  0 instructions:  569000000 cycles: 1254472174 heartbeat IPC: 0.51761 cumulative IPC: 0.39589 (Simulation time: 0 hr 25 min 34 sec) 
Heartbeat CPU  0 instructions:  570000002 cycles: 1256396940 heartbeat IPC: 0.51954 cumulative IPC: 0.39609 (Simulation time: 0 hr 25 min 37 sec) 
Heartbeat CPU  0 instructions:  571000000 cycles: 1258175750 heartbeat IPC: 0.56217 cumulative IPC: 0.39634 (Simulation time: 0 hr 25 min 40 sec) 
Heartbeat CPU  0 instructions:  572000000 cycles: 1260083914 heartbeat IPC: 0.52406 cumulative IPC: 0.39654 (Simulation time: 0 hr 25 min 42 sec) 
Heartbeat CPU  0 instructions:  573000002 cycles: 1262024064 heartbeat IPC: 0.51543 cumulative IPC: 0.39674 (Simulation time: 0 hr 25 min 45 sec) 
Heartbeat CPU  0 instructions:  574000001 cycles: 1263835849 heartbeat IPC: 0.55194 cumulative IPC: 0.39697 (Simulation time: 0 hr 25 min 48 sec) 
Heartbeat CPU  0 instructions:  575000003 cycles: 1265696967 heartbeat IPC: 0.53731 cumulative IPC: 0.39719 (Simulation time: 0 hr 25 min 51 sec) 
Heartbeat CPU  0 instructions:  576000000 cycles: 1267628218 heartbeat IPC: 0.51780 cumulative IPC: 0.39738 (Simulation time: 0 hr 25 min 53 sec) 
Heartbeat CPU  0 instructions:  577000002 cycles: 1269522067 heartbeat IPC: 0.52803 cumulative IPC: 0.39759 (Simulation time: 0 hr 25 min 56 sec) 
Heartbeat CPU  0 instructions:  578000002 cycles: 1271310532 heartbeat IPC: 0.55914 cumulative IPC: 0.39783 (Simulation time: 0 hr 25 min 59 sec) 
Heartbeat CPU  0 instructions:  579000003 cycles: 1282615604 heartbeat IPC: 0.08846 cumulative IPC: 0.39495 (Simulation time: 0 hr 26 min 3 sec) 
Heartbeat CPU  0 instructions:  580000000 cycles: 1289571706 heartbeat IPC: 0.14376 cumulative IPC: 0.39351 (Simulation time: 0 hr 26 min 6 sec) 
Heartbeat CPU  0 instructions:  581000003 cycles: 1291329755 heartbeat IPC: 0.56881 cumulative IPC: 0.39377 (Simulation time: 0 hr 26 min 9 sec) 
Heartbeat CPU  0 instructions:  582000001 cycles: 1293227899 heartbeat IPC: 0.52683 cumulative IPC: 0.39397 (Simulation time: 0 hr 26 min 11 sec) 
Heartbeat CPU  0 instructions:  583000002 cycles: 1295151755 heartbeat IPC: 0.51979 cumulative IPC: 0.39417 (Simulation time: 0 hr 26 min 14 sec) 
Heartbeat CPU  0 instructions:  584000000 cycles: 1296962289 heartbeat IPC: 0.55232 cumulative IPC: 0.39440 (Simulation time: 0 hr 26 min 17 sec) 
Heartbeat CPU  0 instructions:  585000003 cycles: 1298816563 heartbeat IPC: 0.53930 cumulative IPC: 0.39462 (Simulation time: 0 hr 26 min 19 sec) 
Heartbeat CPU  0 instructions:  586000003 cycles: 1300886564 heartbeat IPC: 0.48309 cumulative IPC: 0.39477 (Simulation time: 0 hr 26 min 22 sec) 
Heartbeat CPU  0 instructions:  587000001 cycles: 1302929056 heartbeat IPC: 0.48960 cumulative IPC: 0.39493 (Simulation time: 0 hr 26 min 25 sec) 
Heartbeat CPU  0 instructions:  588000000 cycles: 1304687690 heartbeat IPC: 0.56862 cumulative IPC: 0.39518 (Simulation time: 0 hr 26 min 28 sec) 
Heartbeat CPU  0 instructions:  589000000 cycles: 1306600062 heartbeat IPC: 0.52291 cumulative IPC: 0.39537 (Simulation time: 0 hr 26 min 30 sec) 
Heartbeat CPU  0 instructions:  590000001 cycles: 1308508458 heartbeat IPC: 0.52400 cumulative IPC: 0.39557 (Simulation time: 0 hr 26 min 33 sec) 
Heartbeat CPU  0 instructions:  591000000 cycles: 1310254979 heartbeat IPC: 0.57257 cumulative IPC: 0.39582 (Simulation time: 0 hr 26 min 36 sec) 
Heartbeat CPU  0 instructions:  592000000 cycles: 1312139075 heartbeat IPC: 0.53076 cumulative IPC: 0.39603 (Simulation time: 0 hr 26 min 38 sec) 
Heartbeat CPU  0 instructions:  593000002 cycles: 1314054715 heartbeat IPC: 0.52202 cumulative IPC: 0.39622 (Simulation time: 0 hr 26 min 41 sec) 
Heartbeat CPU  0 instructions:  594000002 cycles: 1315873350 heartbeat IPC: 0.54986 cumulative IPC: 0.39644 (Simulation time: 0 hr 26 min 44 sec) 
Heartbeat CPU  0 instructions:  595000003 cycles: 1317683195 heartbeat IPC: 0.55253 cumulative IPC: 0.39667 (Simulation time: 0 hr 26 min 47 sec) 
Heartbeat CPU  0 instructions:  596000000 cycles: 1319598623 heartbeat IPC: 0.52207 cumulative IPC: 0.39686 (Simulation time: 0 hr 26 min 49 sec) 
Heartbeat CPU  0 instructions:  597000003 cycles: 1321492521 heartbeat IPC: 0.52801 cumulative IPC: 0.39706 (Simulation time: 0 hr 26 min 52 sec) 
Heartbeat CPU  0 instructions:  598000000 cycles: 1323226540 heartbeat IPC: 0.57669 cumulative IPC: 0.39731 (Simulation time: 0 hr 26 min 55 sec) 
Heartbeat CPU  0 instructions:  599000000 cycles: 1325136335 heartbeat IPC: 0.52362 cumulative IPC: 0.39750 (Simulation time: 0 hr 26 min 58 sec) 
Heartbeat CPU  0 instructions:  600000000 cycles: 1327047370 heartbeat IPC: 0.52328 cumulative IPC: 0.39769 (Simulation time: 0 hr 27 min 0 sec) 
Finished CPU 0 instructions: 500000000 cycles: 1257252758 cumulative IPC: 0.39769 (Simulation time: 0 hr 27 min 0 sec) 

ChampSim completed all CPUs

[ROI Statistics]
Core_0_instructions 500000000
Core_0_cycles 1257252758
Core_0_IPC 0.39769

Core_0_branch_prediction_accuracy 99.17161
Core_0_branch_MPKI 0.01066
Core_0_average_ROB_occupancy_at_mispredict 253.69732

Core_0_L1D_total_access 253808140
Core_0_L1D_total_hit 249818430
Core_0_L1D_total_miss 3989710
Core_0_L1D_loads 171256667
Core_0_L1D_load_hit 168019494
Core_0_L1D_load_miss 3237173
Core_0_L1D_RFOs 82551473
Core_0_L1D_RFO_hit 81798936
Core_0_L1D_RFO_miss 752537
Core_0_L1D_prefetches 0
Core_0_L1D_prefetch_hit 0
Core_0_L1D_prefetch_miss 0
Core_0_L1D_writebacks 0
Core_0_L1D_writeback_hit 0
Core_0_L1D_writeback_miss 0
Core_0_L1D_prefetch_requested 0
Core_0_L1D_prefetch_dropped 0
Core_0_L1D_prefetch_issued 0
Core_0_L1D_prefetch_filled 0
Core_0_L1D_prefetch_useful 0
Core_0_L1D_prefetch_useless 0
Core_0_L1D_prefetch_late 0
Core_0_L1D_average_miss_latency 148.62450

Core_0_L1D_rq_access 255819376
Core_0_L1D_rq_forward 0
Core_0_L1D_rq_merged 84058237
Core_0_L1D_rq_to_cache 171288447
Core_0_L1D_rq_full 0

Core_0_L1D_wq_access 84479085
Core_0_L1D_wq_forward 472692
Core_0_L1D_wq_merged 1320899
Core_0_L1D_wq_to_cache 83158186
Core_0_L1D_wq_full 892102

Core_0_L1D_pq_access 0
Core_0_L1D_pq_forward 0
Core_0_L1D_pq_merged 0
Core_0_L1D_pq_to_cache 0
Core_0_L1D_pq_full 0

Core_0_L1D_acc_epochs 667547
Core_0_L1D_acc_level_0 667547
Core_0_L1D_acc_level_1 0
Core_0_L1D_acc_level_2 0
Core_0_L1D_acc_level_3 0
Core_0_L1D_acc_level_4 0
Core_0_L1D_acc_level_5 0
Core_0_L1D_acc_level_6 0
Core_0_L1D_acc_level_7 0
Core_0_L1D_acc_level_8 0
Core_0_L1D_acc_level_9 0

Core_0_L1I_total_access 133228502
Core_0_L1I_total_hit 133228502
Core_0_L1I_total_miss 0
Core_0_L1I_loads 133228502
Core_0_L1I_load_hit 133228502
Core_0_L1I_load_miss 0
Core_0_L1I_RFOs 0
Core_0_L1I_RFO_hit 0
Core_0_L1I_RFO_miss 0
Core_0_L1I_prefetches 0
Core_0_L1I_prefetch_hit 0
Core_0_L1I_prefetch_miss 0
Core_0_L1I_writebacks 0
Core_0_L1I_writeback_hit 0
Core_0_L1I_writeback_miss 0
Core_0_L1I_prefetch_requested 0
Core_0_L1I_prefetch_dropped 0
Core_0_L1I_prefetch_issued 0
Core_0_L1I_prefetch_filled 0
Core_0_L1I_prefetch_useful 0
Core_0_L1I_prefetch_useless 0
Core_0_L1I_prefetch_late 0
Core_0_L1I_average_miss_latency -nan

Core_0_L1I_rq_access 500000000
Core_0_L1I_rq_forward 0
Core_0_L1I_rq_merged 366771498
Core_0_L1I_rq_to_cache 133228502
Core_0_L1I_rq_full 0

Core_0_L1I_wq_access 0
Core_0_L1I_wq_forward 0
Core_0_L1I_wq_merged 0
Core_0_L1I_wq_to_cache 0
Core_0_L1I_wq_full 0

Core_0_L1I_pq_access 0
Core_0_L1I_pq_forward 0
Core_0_L1I_pq_merged 0
Core_0_L1I_pq_to_cache 0
Core_0_L1I_pq_full 0

Core_0_L1I_acc_epochs 667547
Core_0_L1I_acc_level_0 667547
Core_0_L1I_acc_level_1 0
Core_0_L1I_acc_level_2 0
Core_0_L1I_acc_level_3 0
Core_0_L1I_acc_level_4 0
Core_0_L1I_acc_level_5 0
Core_0_L1I_acc_level_6 0
Core_0_L1I_acc_level_7 0
Core_0_L1I_acc_level_8 0
Core_0_L1I_acc_level_9 0

Core_0_L2C_total_access 6554217
Core_0_L2C_total_hit 3951361
Core_0_L2C_total_miss 2602856
Core_0_L2C_loads 3237172
Core_0_L2C_load_hit 3152805
Core_0_L2C_load_miss 84367
Core_0_L2C_RFOs 752537
Core_0_L2C_RFO_hit 2032
Core_0_L2C_RFO_miss 750505
Core_0_L2C_prefetches 1778210
Core_0_L2C_prefetch_hit 11068
Core_0_L2C_prefetch_miss 1767142
Core_0_L2C_writebacks 786298
Core_0_L2C_writeback_hit 785456
Core_0_L2C_writeback_miss 842
Core_0_L2C_prefetch_requested 2125841
Core_0_L2C_prefetch_dropped 0
Core_0_L2C_prefetch_issued 2125841
Core_0_L2C_prefetch_filled 2101986
Core_0_L2C_prefetch_useful 2078569
Core_0_L2C_prefetch_useless 22970
Core_0_L2C_prefetch_late 747
Core_0_L2C_average_miss_latency 636.70756

Core_0_L2C_rq_access 3989710
Core_0_L2C_rq_forward 0
Core_0_L2C_rq_merged 0
Core_0_L2C_rq_to_cache 3989709
Core_0_L2C_rq_full 0

Core_0_L2C_wq_access 786298
Core_0_L2C_wq_forward 1
Core_0_L2C_wq_merged 0
Core_0_L2C_wq_to_cache 786298
Core_0_L2C_wq_full 0

Core_0_L2C_pq_access 2125841
Core_0_L2C_pq_forward 0
Core_0_L2C_pq_merged 0
Core_0_L2C_pq_to_cache 2125841
Core_0_L2C_pq_full 0

Core_0_L2C_acc_epochs 667547
Core_0_L2C_acc_level_0 383972
Core_0_L2C_acc_level_1 51129
Core_0_L2C_acc_level_2 39024
Core_0_L2C_acc_level_3 16635
Core_0_L2C_acc_level_4 12913
Core_0_L2C_acc_level_5 28943
Core_0_L2C_acc_level_6 8507
Core_0_L2C_acc_level_7 9369
Core_0_L2C_acc_level_8 6800
Core_0_L2C_acc_level_9 110255

Core_0_LLC_total_access 3365401
Core_0_LLC_total_hit 917461
Core_0_LLC_total_miss 2447940
Core_0_LLC_loads 83619
Core_0_LLC_load_hit 28329
Core_0_LLC_load_miss 55290
Core_0_LLC_RFOs 750505
Core_0_LLC_RFO_hit 145146
Core_0_LLC_RFO_miss 605359
Core_0_LLC_prefetches 1778261
Core_0_LLC_prefetch_hit 484425
Core_0_LLC_prefetch_miss 1293836
Core_0_LLC_writebacks 753016
Core_0_LLC_writeback_hit 259561
Core_0_LLC_writeback_miss 493455
Core_0_LLC_prefetch_requested 0
Core_0_LLC_prefetch_dropped 0
Core_0_LLC_prefetch_issued 0
Core_0_LLC_prefetch_filled 1564319
Core_0_LLC_prefetch_useful 8855
Core_0_LLC_prefetch_useless 1553644
Core_0_LLC_prefetch_late 0
Core_0_LLC_average_miss_latency 613.91877

Core_0_LLC_rq_access 834126
Core_0_LLC_rq_forward 0
Core_0_LLC_rq_merged 0
Core_0_LLC_rq_to_cache 834124
Core_0_LLC_rq_full 0

Core_0_LLC_wq_access 753016
Core_0_LLC_wq_forward 2
Core_0_LLC_wq_merged 0
Core_0_LLC_wq_to_cache 753016
Core_0_LLC_wq_full 0

Core_0_LLC_pq_access 2114009
Core_0_LLC_pq_forward 0
Core_0_LLC_pq_merged 0
Core_0_LLC_pq_to_cache 2114009
Core_0_LLC_pq_full 0

Core_0_LLC_acc_epochs 1295945
Core_0_LLC_acc_level_0 1292738
Core_0_LLC_acc_level_1 1359
Core_0_LLC_acc_level_2 933
Core_0_LLC_acc_level_3 53
Core_0_LLC_acc_level_4 28
Core_0_LLC_acc_level_5 673
Core_0_LLC_acc_level_6 8
Core_0_LLC_acc_level_7 19
Core_0_LLC_acc_level_8 9
Core_0_LLC_acc_level_9 125

Core_0_major_page_fault 0
Core_0_minor_page_fault 23870

[Bingo] PHT Access: 71839
[Bingo] PHT Hit PC+Addr: 2038
[Bingo] PHT Hit PC+Offs: 68133
[Bingo] PHT Miss: 1668
[Bingo] Prefetch PC+Addr: 0
[Bingo] Prefetch PC+Offs: 0
[Bingo] Useful PC+Addr: 0
[Bingo] Useful PC+Offs: 0
[Bingo] Useless PC+Addr: 0
[Bingo] Useless PC+Offs: 0
[Bingo] L1 Prefetch per Region: 0.00000
[Bingo] L2 Prefetch per Region: 31.16478
[Bingo] L3 Prefetch per Region: 0.16732
[Bingo] No Prefetch per Region: 0.66790
[Bingo] Number of Voters Mean: 14.81219
[Bingo] Number of Voters SD: 2.97722

Channel_0_RQ_row_buffer_hit 1120543
Channel_0_RQ_row_buffer_miss 833941
Channel_0_WQ_row_buffer_hit 168419
Channel_0_WQ_row_buffer_miss 441173
Channel_0_WQ_full 0
Channel_0_dbus_congested 2036997

avg_congested_cycle 49

DRAM_bw_pochs 5183779
DRAM_bw_level_0 4794468
DRAM_bw_level_1 110480
DRAM_bw_level_2 60092
DRAM_bw_level_3 218739
