*************************************************
   ChampSim Multicore Out-of-Order Simulator
   Last compiled: Dec 11 2024 17:59:53
*************************************************
parsing config file: /home/functionmain/桌面/Pythia/config/spp_dev2.ini

trace_0 /home/functionmain/桌面/Pythia/traces/436.cactusADM-1804B.champsimtrace.xz
adding L2C_PREFETCHER: SPP_dev2
Initialize SIGNATURE TABLE
ST_SET: 1
ST_WAY: 256
ST_TAG_BIT: 16
ST_TAG_MASK: ffff

Initialize PATTERN TABLE
PT_SET: 512
PT_WAY: 4
SIG_DELTA_BIT: 7
C_SIG_BIT: 4
C_DELTA_BIT: 4

Initialize PREFETCH FILTER
FILTER_SET: 1024
fill_threshold: 90
pf_threshold: 40

Initialize SHIP state
warmup_instructions 100000000
simulation_instructions 500000000
champsim_seed 271
measure_ipc 0
measure_ipc_epoch 1000
measure_dram_bw 1
measure_dram_bw_epoch 256
measure_cache_acc 1
measure_cache_acc_epoch 1024
l1d_perfect 0
l2c_perfect 0
llc_perfect 0
l1d_semi_perfect 0
l2c_semi_perfect 0
llc_semi_perfect 0
semi_perfect_cache_page_buffer_size 64

num_cpus 1
cpu_freq 4000
dram_io_freq 2400
page_size 4096
block_size 64
max_read_per_cycle 8
max_fill_per_cycle 1
dram_channels 1
log2_dram_channels 0
dram_ranks 1
dram_banks 8
dram_rows 65536
dram_columns 128
dram_row_size 8
dram_size 4096
dram_pages 1048576

fetch_width 6
decode_width 6
exec_width 4
lq_width 2
sq_width 2
retire_width 4
scheduler_size 128
branch_mispredict_penalty 20
rob_size 256
lq_size 72
sq_size 56
num_instr_destinations_sparc 4
num_instr_destinations 2
num_instr_sources 4

itlb_set 16
itlb_way 8
itlb_rq_size 16
itlb_wq_size 16
itlb_pq_size 0
itlb_mshr_size 8
itlb_latency 1

dtlb_set 16
dtlb_way 4
dtlb_rq_size 16
dtlb_wq_size 16
dtlb_pq_size 0
dtlb_mshr_size 8
dtlb_latency 1

stlb_set 128
stlb_way 12
stlb_rq_size 32
stlb_wq_size 32
stlb_pq_size 0
stlb_mshr_size 16
stlb_latency 8

l1i_size 32
l1i_set 64
l1i_way 8
l1i_rq_size 64
l1i_wq_size 64
l1i_pq_size 8
l1i_mshr_size 8
l1i_latency 1

l1d_size 32
l1d_set 64
l1d_way 8
l1d_rq_size 64
l1d_wq_size 64
l1d_pq_size 8
l1d_mshr_size 16
l1d_latency 4

l2c_size 256
l2c_set 512
l2c_way 8
l2c_rq_size 32
l2c_wq_size 32
l2c_pq_size 32
l2c_mshr_size 32
l2c_latency 10

llc_size 2048
llc_set 2048
llc_way 16
llc_rq_size 32
llc_wq_size 32
llc_pq_size 32
llc_mshr_size 64
llc_latency 20

dram_channel_width 8
dram_wq_size 64
dram_rq_size 64
tRP 15
tRCD 15
tCAS 12.5
dram_dbus_turn_around_time 30
dram_write_high_wm 56
dram_write_low_wm 48
min_dram_writes_per_switch 16
dram_mtps 2400
dram_dbus_return_time 13


Heartbeat CPU  0 instructions:    1000000 cycles:     702346 heartbeat IPC: 1.42380 cumulative IPC: 1.42380 (Simulation time: 0 hr 0 min 3 sec) 
Heartbeat CPU  0 instructions:    2000000 cycles:    1404560 heartbeat IPC: 1.42407 cumulative IPC: 1.42393 (Simulation time: 0 hr 0 min 6 sec) 
Heartbeat CPU  0 instructions:    3000000 cycles:    2106930 heartbeat IPC: 1.42375 cumulative IPC: 1.42387 (Simulation time: 0 hr 0 min 8 sec) 
Heartbeat CPU  0 instructions:    4000000 cycles:    2809292 heartbeat IPC: 1.42377 cumulative IPC: 1.42385 (Simulation time: 0 hr 0 min 11 sec) 
Heartbeat CPU  0 instructions:    5000000 cycles:    3511500 heartbeat IPC: 1.42408 cumulative IPC: 1.42389 (Simulation time: 0 hr 0 min 14 sec) 
Heartbeat CPU  0 instructions:    6000000 cycles:    4213918 heartbeat IPC: 1.42365 cumulative IPC: 1.42385 (Simulation time: 0 hr 0 min 16 sec) 
Heartbeat CPU  0 instructions:    7000001 cycles:    4916339 heartbeat IPC: 1.42365 cumulative IPC: 1.42382 (Simulation time: 0 hr 0 min 19 sec) 
Heartbeat CPU  0 instructions:    8000000 cycles:    5618454 heartbeat IPC: 1.42427 cumulative IPC: 1.42388 (Simulation time: 0 hr 0 min 22 sec) 
Heartbeat CPU  0 instructions:    9000001 cycles:    6320932 heartbeat IPC: 1.42353 cumulative IPC: 1.42384 (Simulation time: 0 hr 0 min 24 sec) 
Heartbeat CPU  0 instructions:   10000000 cycles:    7023154 heartbeat IPC: 1.42405 cumulative IPC: 1.42386 (Simulation time: 0 hr 0 min 27 sec) 
Heartbeat CPU  0 instructions:   11000002 cycles:    7725368 heartbeat IPC: 1.42407 cumulative IPC: 1.42388 (Simulation time: 0 hr 0 min 30 sec) 
Heartbeat CPU  0 instructions:   12000000 cycles:    8427564 heartbeat IPC: 1.42410 cumulative IPC: 1.42390 (Simulation time: 0 hr 0 min 33 sec) 
Heartbeat CPU  0 instructions:   13000000 cycles:    9130107 heartbeat IPC: 1.42340 cumulative IPC: 1.42386 (Simulation time: 0 hr 0 min 35 sec) 
Heartbeat CPU  0 instructions:   14000002 cycles:    9832352 heartbeat IPC: 1.42401 cumulative IPC: 1.42387 (Simulation time: 0 hr 0 min 38 sec) 
Heartbeat CPU  0 instructions:   15000002 cycles:   10534339 heartbeat IPC: 1.42453 cumulative IPC: 1.42391 (Simulation time: 0 hr 0 min 41 sec) 
Heartbeat CPU  0 instructions:   16000000 cycles:   11236902 heartbeat IPC: 1.42336 cumulative IPC: 1.42388 (Simulation time: 0 hr 0 min 43 sec) 
Heartbeat CPU  0 instructions:   17000000 cycles:   11939517 heartbeat IPC: 1.42325 cumulative IPC: 1.42384 (Simulation time: 0 hr 0 min 46 sec) 
Heartbeat CPU  0 instructions:   18000001 cycles:   12600735 heartbeat IPC: 1.51236 cumulative IPC: 1.42849 (Simulation time: 0 hr 0 min 49 sec) 
Heartbeat CPU  0 instructions:   19000000 cycles:   13236230 heartbeat IPC: 1.57357 cumulative IPC: 1.43545 (Simulation time: 0 hr 0 min 51 sec) 
Heartbeat CPU  0 instructions:   20000000 cycles:   13938792 heartbeat IPC: 1.42336 cumulative IPC: 1.43484 (Simulation time: 0 hr 0 min 54 sec) 
Heartbeat CPU  0 instructions:   21000000 cycles:   14641251 heartbeat IPC: 1.42357 cumulative IPC: 1.43430 (Simulation time: 0 hr 0 min 57 sec) 
Heartbeat CPU  0 instructions:   22000002 cycles:   15343530 heartbeat IPC: 1.42394 cumulative IPC: 1.43383 (Simulation time: 0 hr 0 min 59 sec) 
Heartbeat CPU  0 instructions:   23000001 cycles:   16045981 heartbeat IPC: 1.42359 cumulative IPC: 1.43338 (Simulation time: 0 hr 1 min 2 sec) 
Heartbeat CPU  0 instructions:   24000000 cycles:   16748131 heartbeat IPC: 1.42420 cumulative IPC: 1.43300 (Simulation time: 0 hr 1 min 5 sec) 
Heartbeat CPU  0 instructions:   25000001 cycles:   17450456 heartbeat IPC: 1.42384 cumulative IPC: 1.43263 (Simulation time: 0 hr 1 min 7 sec) 
Heartbeat CPU  0 instructions:   26000003 cycles:   18153109 heartbeat IPC: 1.42318 cumulative IPC: 1.43226 (Simulation time: 0 hr 1 min 10 sec) 
Heartbeat CPU  0 instructions:   27000003 cycles:   18855399 heartbeat IPC: 1.42391 cumulative IPC: 1.43195 (Simulation time: 0 hr 1 min 13 sec) 
Heartbeat CPU  0 instructions:   28000000 cycles:   19557596 heartbeat IPC: 1.42410 cumulative IPC: 1.43167 (Simulation time: 0 hr 1 min 16 sec) 
Heartbeat CPU  0 instructions:   29000000 cycles:   20260050 heartbeat IPC: 1.42358 cumulative IPC: 1.43139 (Simulation time: 0 hr 1 min 18 sec) 
Heartbeat CPU  0 instructions:   30000003 cycles:   20962466 heartbeat IPC: 1.42366 cumulative IPC: 1.43113 (Simulation time: 0 hr 1 min 21 sec) 
Heartbeat CPU  0 instructions:   31000003 cycles:   21664400 heartbeat IPC: 1.42464 cumulative IPC: 1.43092 (Simulation time: 0 hr 1 min 24 sec) 
Heartbeat CPU  0 instructions:   32000000 cycles:   22366507 heartbeat IPC: 1.42428 cumulative IPC: 1.43071 (Simulation time: 0 hr 1 min 26 sec) 
Heartbeat CPU  0 instructions:   33000001 cycles:   23069272 heartbeat IPC: 1.42295 cumulative IPC: 1.43047 (Simulation time: 0 hr 1 min 29 sec) 
Heartbeat CPU  0 instructions:   34000000 cycles:   23771441 heartbeat IPC: 1.42416 cumulative IPC: 1.43029 (Simulation time: 0 hr 1 min 32 sec) 
Heartbeat CPU  0 instructions:   35000001 cycles:   24473695 heartbeat IPC: 1.42399 cumulative IPC: 1.43011 (Simulation time: 0 hr 1 min 34 sec) 
Heartbeat CPU  0 instructions:   36000000 cycles:   25175917 heartbeat IPC: 1.42405 cumulative IPC: 1.42994 (Simulation time: 0 hr 1 min 37 sec) 
Heartbeat CPU  0 instructions:   37000000 cycles:   25878526 heartbeat IPC: 1.42327 cumulative IPC: 1.42976 (Simulation time: 0 hr 1 min 40 sec) 
Heartbeat CPU  0 instructions:   38000001 cycles:   26580767 heartbeat IPC: 1.42401 cumulative IPC: 1.42961 (Simulation time: 0 hr 1 min 43 sec) 
Heartbeat CPU  0 instructions:   39000000 cycles:   27283049 heartbeat IPC: 1.42393 cumulative IPC: 1.42946 (Simulation time: 0 hr 1 min 45 sec) 
Heartbeat CPU  0 instructions:   40000000 cycles:   27985330 heartbeat IPC: 1.42393 cumulative IPC: 1.42932 (Simulation time: 0 hr 1 min 48 sec) 
Heartbeat CPU  0 instructions:   41000000 cycles:   28590920 heartbeat IPC: 1.65128 cumulative IPC: 1.43402 (Simulation time: 0 hr 1 min 51 sec) 
Heartbeat CPU  0 instructions:   42000002 cycles:   29282348 heartbeat IPC: 1.44629 cumulative IPC: 1.43431 (Simulation time: 0 hr 1 min 53 sec) 
Heartbeat CPU  0 instructions:   43000002 cycles:   29984801 heartbeat IPC: 1.42358 cumulative IPC: 1.43406 (Simulation time: 0 hr 1 min 56 sec) 
Heartbeat CPU  0 instructions:   44000000 cycles:   30687294 heartbeat IPC: 1.42350 cumulative IPC: 1.43382 (Simulation time: 0 hr 1 min 59 sec) 
Heartbeat CPU  0 instructions:   45000003 cycles:   31389617 heartbeat IPC: 1.42385 cumulative IPC: 1.43360 (Simulation time: 0 hr 2 min 2 sec) 
Heartbeat CPU  0 instructions:   46000003 cycles:   32091871 heartbeat IPC: 1.42399 cumulative IPC: 1.43338 (Simulation time: 0 hr 2 min 4 sec) 
Heartbeat CPU  0 instructions:   47000000 cycles:   32794095 heartbeat IPC: 1.42404 cumulative IPC: 1.43318 (Simulation time: 0 hr 2 min 7 sec) 
Heartbeat CPU  0 instructions:   48000000 cycles:   33496795 heartbeat IPC: 1.42308 cumulative IPC: 1.43297 (Simulation time: 0 hr 2 min 10 sec) 
Heartbeat CPU  0 instructions:   49000000 cycles:   34198786 heartbeat IPC: 1.42452 cumulative IPC: 1.43280 (Simulation time: 0 hr 2 min 12 sec) 
Heartbeat CPU  0 instructions:   50000000 cycles:   34901146 heartbeat IPC: 1.42377 cumulative IPC: 1.43262 (Simulation time: 0 hr 2 min 15 sec) 
Heartbeat CPU  0 instructions:   51000000 cycles:   35603721 heartbeat IPC: 1.42334 cumulative IPC: 1.43243 (Simulation time: 0 hr 2 min 18 sec) 
Heartbeat CPU  0 instructions:   52000000 cycles:   36305844 heartbeat IPC: 1.42425 cumulative IPC: 1.43228 (Simulation time: 0 hr 2 min 20 sec) 
Heartbeat CPU  0 instructions:   53000000 cycles:   37008283 heartbeat IPC: 1.42361 cumulative IPC: 1.43211 (Simulation time: 0 hr 2 min 23 sec) 
Heartbeat CPU  0 instructions:   54000001 cycles:   37710446 heartbeat IPC: 1.42417 cumulative IPC: 1.43196 (Simulation time: 0 hr 2 min 26 sec) 
Heartbeat CPU  0 instructions:   55000001 cycles:   38412794 heartbeat IPC: 1.42380 cumulative IPC: 1.43181 (Simulation time: 0 hr 2 min 29 sec) 
Heartbeat CPU  0 instructions:   56000000 cycles:   39115282 heartbeat IPC: 1.42351 cumulative IPC: 1.43167 (Simulation time: 0 hr 2 min 31 sec) 
Heartbeat CPU  0 instructions:   57000000 cycles:   39817785 heartbeat IPC: 1.42348 cumulative IPC: 1.43152 (Simulation time: 0 hr 2 min 34 sec) 
Heartbeat CPU  0 instructions:   58000003 cycles:   40520110 heartbeat IPC: 1.42385 cumulative IPC: 1.43139 (Simulation time: 0 hr 2 min 37 sec) 
Heartbeat CPU  0 instructions:   59000000 cycles:   41222298 heartbeat IPC: 1.42412 cumulative IPC: 1.43126 (Simulation time: 0 hr 2 min 39 sec) 
Heartbeat CPU  0 instructions:   60000000 cycles:   41924790 heartbeat IPC: 1.42350 cumulative IPC: 1.43113 (Simulation time: 0 hr 2 min 42 sec) 
Heartbeat CPU  0 instructions:   61000000 cycles:   42627029 heartbeat IPC: 1.42402 cumulative IPC: 1.43102 (Simulation time: 0 hr 2 min 45 sec) 
Heartbeat CPU  0 instructions:   62000002 cycles:   43329251 heartbeat IPC: 1.42405 cumulative IPC: 1.43090 (Simulation time: 0 hr 2 min 47 sec) 
Heartbeat CPU  0 instructions:   63000000 cycles:   43976888 heartbeat IPC: 1.54407 cumulative IPC: 1.43257 (Simulation time: 0 hr 2 min 50 sec) 
Heartbeat CPU  0 instructions:   64000000 cycles:   44628313 heartbeat IPC: 1.53510 cumulative IPC: 1.43407 (Simulation time: 0 hr 2 min 53 sec) 
Heartbeat CPU  0 instructions:   65000000 cycles:   45330465 heartbeat IPC: 1.42419 cumulative IPC: 1.43391 (Simulation time: 0 hr 2 min 56 sec) 
Heartbeat CPU  0 instructions:   66000001 cycles:   46032560 heartbeat IPC: 1.42431 cumulative IPC: 1.43377 (Simulation time: 0 hr 2 min 58 sec) 
Heartbeat CPU  0 instructions:   67000002 cycles:   46734703 heartbeat IPC: 1.42421 cumulative IPC: 1.43362 (Simulation time: 0 hr 3 min 1 sec) 
Heartbeat CPU  0 instructions:   68000000 cycles:   47437145 heartbeat IPC: 1.42360 cumulative IPC: 1.43348 (Simulation time: 0 hr 3 min 4 sec) 
Heartbeat CPU  0 instructions:   69000000 cycles:   48139326 heartbeat IPC: 1.42413 cumulative IPC: 1.43334 (Simulation time: 0 hr 3 min 6 sec) 
Heartbeat CPU  0 instructions:   70000002 cycles:   48841469 heartbeat IPC: 1.42421 cumulative IPC: 1.43321 (Simulation time: 0 hr 3 min 9 sec) 
Heartbeat CPU  0 instructions:   71000003 cycles:   49544108 heartbeat IPC: 1.42321 cumulative IPC: 1.43307 (Simulation time: 0 hr 3 min 12 sec) 
Heartbeat CPU  0 instructions:   72000000 cycles:   50246206 heartbeat IPC: 1.42430 cumulative IPC: 1.43294 (Simulation time: 0 hr 3 min 14 sec) 
Heartbeat CPU  0 instructions:   73000001 cycles:   50948316 heartbeat IPC: 1.42428 cumulative IPC: 1.43282 (Simulation time: 0 hr 3 min 17 sec) 
Heartbeat CPU  0 instructions:   74000003 cycles:   51650697 heartbeat IPC: 1.42373 cumulative IPC: 1.43270 (Simulation time: 0 hr 3 min 20 sec) 
Heartbeat CPU  0 instructions:   75000002 cycles:   52353405 heartbeat IPC: 1.42306 cumulative IPC: 1.43257 (Simulation time: 0 hr 3 min 22 sec) 
Heartbeat CPU  0 instructions:   76000000 cycles:   53055654 heartbeat IPC: 1.42399 cumulative IPC: 1.43246 (Simulation time: 0 hr 3 min 25 sec) 
Heartbeat CPU  0 instructions:   77000003 cycles:   53758301 heartbeat IPC: 1.42319 cumulative IPC: 1.43234 (Simulation time: 0 hr 3 min 28 sec) 
Heartbeat CPU  0 instructions:   78000001 cycles:   54460826 heartbeat IPC: 1.42343 cumulative IPC: 1.43222 (Simulation time: 0 hr 3 min 31 sec) 
Heartbeat CPU  0 instructions:   79000001 cycles:   55162785 heartbeat IPC: 1.42458 cumulative IPC: 1.43212 (Simulation time: 0 hr 3 min 33 sec) 
Heartbeat CPU  0 instructions:   80000000 cycles:   55864832 heartbeat IPC: 1.42440 cumulative IPC: 1.43203 (Simulation time: 0 hr 3 min 36 sec) 
Heartbeat CPU  0 instructions:   81000002 cycles:   56567213 heartbeat IPC: 1.42373 cumulative IPC: 1.43192 (Simulation time: 0 hr 3 min 39 sec) 
Heartbeat CPU  0 instructions:   82000003 cycles:   57269448 heartbeat IPC: 1.42403 cumulative IPC: 1.43183 (Simulation time: 0 hr 3 min 41 sec) 
Heartbeat CPU  0 instructions:   83000001 cycles:   57971703 heartbeat IPC: 1.42398 cumulative IPC: 1.43173 (Simulation time: 0 hr 3 min 44 sec) 
Heartbeat CPU  0 instructions:   84000000 cycles:   58673976 heartbeat IPC: 1.42395 cumulative IPC: 1.43164 (Simulation time: 0 hr 3 min 47 sec) 
Heartbeat CPU  0 instructions:   85000000 cycles:   59362737 heartbeat IPC: 1.45188 cumulative IPC: 1.43187 (Simulation time: 0 hr 3 min 49 sec) 
Heartbeat CPU  0 instructions:   86000002 cycles:   59972379 heartbeat IPC: 1.64031 cumulative IPC: 1.43399 (Simulation time: 0 hr 3 min 52 sec) 
Heartbeat CPU  0 instructions:   87000002 cycles:   60674837 heartbeat IPC: 1.42357 cumulative IPC: 1.43387 (Simulation time: 0 hr 3 min 55 sec) 
Heartbeat CPU  0 instructions:   88000000 cycles:   61377487 heartbeat IPC: 1.42318 cumulative IPC: 1.43375 (Simulation time: 0 hr 3 min 58 sec) 
Heartbeat CPU  0 instructions:   89000001 cycles:   62079522 heartbeat IPC: 1.42443 cumulative IPC: 1.43365 (Simulation time: 0 hr 4 min 0 sec) 
Heartbeat CPU  0 instructions:   90000003 cycles:   62781901 heartbeat IPC: 1.42374 cumulative IPC: 1.43353 (Simulation time: 0 hr 4 min 3 sec) 
Heartbeat CPU  0 instructions:   91000003 cycles:   63484341 heartbeat IPC: 1.42361 cumulative IPC: 1.43342 (Simulation time: 0 hr 4 min 6 sec) 
Heartbeat CPU  0 instructions:   92000000 cycles:   64186575 heartbeat IPC: 1.42402 cumulative IPC: 1.43332 (Simulation time: 0 hr 4 min 8 sec) 
Heartbeat CPU  0 instructions:   93000002 cycles:   64888991 heartbeat IPC: 1.42366 cumulative IPC: 1.43322 (Simulation time: 0 hr 4 min 11 sec) 
Heartbeat CPU  0 instructions:   94000002 cycles:   65591009 heartbeat IPC: 1.42446 cumulative IPC: 1.43312 (Simulation time: 0 hr 4 min 14 sec) 
Heartbeat CPU  0 instructions:   95000003 cycles:   66293225 heartbeat IPC: 1.42406 cumulative IPC: 1.43303 (Simulation time: 0 hr 4 min 16 sec) 
Heartbeat CPU  0 instructions:   96000000 cycles:   66995564 heartbeat IPC: 1.42381 cumulative IPC: 1.43293 (Simulation time: 0 hr 4 min 19 sec) 
Heartbeat CPU  0 instructions:   97000000 cycles:   67697961 heartbeat IPC: 1.42370 cumulative IPC: 1.43283 (Simulation time: 0 hr 4 min 22 sec) 
Heartbeat CPU  0 instructions:   98000002 cycles:   68400208 heartbeat IPC: 1.42400 cumulative IPC: 1.43274 (Simulation time: 0 hr 4 min 25 sec) 
Heartbeat CPU  0 instructions:   99000003 cycles:   69102450 heartbeat IPC: 1.42401 cumulative IPC: 1.43266 (Simulation time: 0 hr 4 min 27 sec) 
Heartbeat CPU  0 instructions:  100000000 cycles:   69804809 heartbeat IPC: 1.42377 cumulative IPC: 1.43257 (Simulation time: 0 hr 4 min 30 sec) 

Warmup complete CPU  0 instructions:  100000001 cycles:   69804829 (Simulation time: 0 hr 4 min 30 sec) 

Heartbeat CPU  0 instructions:  101000000 cycles:   71758990 heartbeat IPC: 0.51172 cumulative IPC: 0.51173 (Simulation time: 0 hr 4 min 33 sec) 
Heartbeat CPU  0 instructions:  102000003 cycles:   73549300 heartbeat IPC: 0.55856 cumulative IPC: 0.53412 (Simulation time: 0 hr 4 min 36 sec) 
Heartbeat CPU  0 instructions:  103000003 cycles:   75447361 heartbeat IPC: 0.52685 cumulative IPC: 0.53168 (Simulation time: 0 hr 4 min 39 sec) 
Heartbeat CPU  0 instructions:  104000000 cycles:   77388728 heartbeat IPC: 0.51510 cumulative IPC: 0.52743 (Simulation time: 0 hr 4 min 43 sec) 
Heartbeat CPU  0 instructions:  105000002 cycles:   79257282 heartbeat IPC: 0.53517 cumulative IPC: 0.52896 (Simulation time: 0 hr 4 min 46 sec) 
Heartbeat CPU  0 instructions:  106000000 cycles:   81078917 heartbeat IPC: 0.54896 cumulative IPC: 0.53219 (Simulation time: 0 hr 4 min 49 sec) 
Heartbeat CPU  0 instructions:  107000003 cycles:   83016981 heartbeat IPC: 0.51598 cumulative IPC: 0.52982 (Simulation time: 0 hr 4 min 52 sec) 
Heartbeat CPU  0 instructions:  108000000 cycles:   93832968 heartbeat IPC: 0.09246 cumulative IPC: 0.33294 (Simulation time: 0 hr 4 min 56 sec) 
Heartbeat CPU  0 instructions:  109000003 cycles:  100673308 heartbeat IPC: 0.14619 cumulative IPC: 0.29156 (Simulation time: 0 hr 5 min 0 sec) 
Heartbeat CPU  0 instructions:  110000001 cycles:  102610372 heartbeat IPC: 0.51624 cumulative IPC: 0.30483 (Simulation time: 0 hr 5 min 3 sec) 
Heartbeat CPU  0 instructions:  111000000 cycles:  104552833 heartbeat IPC: 0.51481 cumulative IPC: 0.31656 (Simulation time: 0 hr 5 min 6 sec) 
Heartbeat CPU  0 instructions:  112000000 cycles:  106352382 heartbeat IPC: 0.55569 cumulative IPC: 0.32834 (Simulation time: 0 hr 5 min 9 sec) 
Heartbeat CPU  0 instructions:  113000000 cycles:  108252551 heartbeat IPC: 0.52627 cumulative IPC: 0.33812 (Simulation time: 0 hr 5 min 12 sec) 
Heartbeat CPU  0 instructions:  114000000 cycles:  110210961 heartbeat IPC: 0.51062 cumulative IPC: 0.34648 (Simulation time: 0 hr 5 min 15 sec) 
Heartbeat CPU  0 instructions:  115000001 cycles:  112075024 heartbeat IPC: 0.53646 cumulative IPC: 0.35486 (Simulation time: 0 hr 5 min 18 sec) 
Heartbeat CPU  0 instructions:  116000000 cycles:  113900808 heartbeat IPC: 0.54771 cumulative IPC: 0.36284 (Simulation time: 0 hr 5 min 22 sec) 
Heartbeat CPU  0 instructions:  117000003 cycles:  115848331 heartbeat IPC: 0.51347 cumulative IPC: 0.36922 (Simulation time: 0 hr 5 min 25 sec) 
Heartbeat CPU  0 instructions:  118000002 cycles:  117777522 heartbeat IPC: 0.51835 cumulative IPC: 0.37521 (Simulation time: 0 hr 5 min 28 sec) 
Heartbeat CPU  0 instructions:  119000002 cycles:  119550491 heartbeat IPC: 0.56403 cumulative IPC: 0.38194 (Simulation time: 0 hr 5 min 31 sec) 
Heartbeat CPU  0 instructions:  120000000 cycles:  121484990 heartbeat IPC: 0.51693 cumulative IPC: 0.38700 (Simulation time: 0 hr 5 min 34 sec) 
Heartbeat CPU  0 instructions:  121000003 cycles:  123427046 heartbeat IPC: 0.51492 cumulative IPC: 0.39163 (Simulation time: 0 hr 5 min 37 sec) 
Heartbeat CPU  0 instructions:  122000000 cycles:  125233781 heartbeat IPC: 0.55348 cumulative IPC: 0.39690 (Simulation time: 0 hr 5 min 40 sec) 
Heartbeat CPU  0 instructions:  123000002 cycles:  127116975 heartbeat IPC: 0.53101 cumulative IPC: 0.40131 (Simulation time: 0 hr 5 min 44 sec) 
Heartbeat CPU  0 instructions:  124000000 cycles:  129059875 heartbeat IPC: 0.51469 cumulative IPC: 0.40503 (Simulation time: 0 hr 5 min 47 sec) 
Heartbeat CPU  0 instructions:  125000000 cycles:  130944041 heartbeat IPC: 0.53074 cumulative IPC: 0.40890 (Simulation time: 0 hr 5 min 50 sec) 
Heartbeat CPU  0 instructions:  126000002 cycles:  132765710 heartbeat IPC: 0.54895 cumulative IPC: 0.41295 (Simulation time: 0 hr 5 min 53 sec) 
Heartbeat CPU  0 instructions:  127000002 cycles:  134827348 heartbeat IPC: 0.48505 cumulative IPC: 0.41524 (Simulation time: 0 hr 5 min 56 sec) 
Heartbeat CPU  0 instructions:  128000000 cycles:  136760156 heartbeat IPC: 0.51738 cumulative IPC: 0.41819 (Simulation time: 0 hr 5 min 59 sec) 
Heartbeat CPU  0 instructions:  129000001 cycles:  138528748 heartbeat IPC: 0.56542 cumulative IPC: 0.42198 (Simulation time: 0 hr 6 min 2 sec) 
Heartbeat CPU  0 instructions:  130000000 cycles:  144091309 heartbeat IPC: 0.17977 cumulative IPC: 0.40384 (Simulation time: 0 hr 6 min 6 sec) 
Heartbeat CPU  0 instructions:  131000003 cycles:  156295616 heartbeat IPC: 0.08194 cumulative IPC: 0.35842 (Simulation time: 0 hr 6 min 10 sec) 
Heartbeat CPU  0 instructions:  132000000 cycles:  158109313 heartbeat IPC: 0.55136 cumulative IPC: 0.36238 (Simulation time: 0 hr 6 min 13 sec) 
Heartbeat CPU  0 instructions:  133000000 cycles:  159991821 heartbeat IPC: 0.53121 cumulative IPC: 0.36591 (Simulation time: 0 hr 6 min 16 sec) 
Heartbeat CPU  0 instructions:  134000000 cycles:  161937294 heartbeat IPC: 0.51401 cumulative IPC: 0.36903 (Simulation time: 0 hr 6 min 20 sec) 
Heartbeat CPU  0 instructions:  135000000 cycles:  163820887 heartbeat IPC: 0.53090 cumulative IPC: 0.37228 (Simulation time: 0 hr 6 min 23 sec) 
Heartbeat CPU  0 instructions:  136000000 cycles:  165628999 heartbeat IPC: 0.55306 cumulative IPC: 0.37569 (Simulation time: 0 hr 6 min 26 sec) 
Heartbeat CPU  0 instructions:  137000002 cycles:  167577178 heartbeat IPC: 0.51330 cumulative IPC: 0.37843 (Simulation time: 0 hr 6 min 29 sec) 
Heartbeat CPU  0 instructions:  138000000 cycles:  169515207 heartbeat IPC: 0.51599 cumulative IPC: 0.38110 (Simulation time: 0 hr 6 min 32 sec) 
Heartbeat CPU  0 instructions:  139000001 cycles:  171284760 heartbeat IPC: 0.56512 cumulative IPC: 0.38431 (Simulation time: 0 hr 6 min 35 sec) 
Heartbeat CPU  0 instructions:  140000000 cycles:  173222916 heartbeat IPC: 0.51595 cumulative IPC: 0.38678 (Simulation time: 0 hr 6 min 38 sec) 
Heartbeat CPU  0 instructions:  141000000 cycles:  175172482 heartbeat IPC: 0.51293 cumulative IPC: 0.38911 (Simulation time: 0 hr 6 min 42 sec) 
Heartbeat CPU  0 instructions:  142000001 cycles:  176993188 heartbeat IPC: 0.54924 cumulative IPC: 0.39183 (Simulation time: 0 hr 6 min 45 sec) 
Heartbeat CPU  0 instructions:  143000001 cycles:  178859390 heartbeat IPC: 0.53585 cumulative IPC: 0.39430 (Simulation time: 0 hr 6 min 48 sec) 
Heartbeat CPU  0 instructions:  144000000 cycles:  180811892 heartbeat IPC: 0.51216 cumulative IPC: 0.39637 (Simulation time: 0 hr 6 min 51 sec) 
Heartbeat CPU  0 instructions:  145000000 cycles:  182711280 heartbeat IPC: 0.52649 cumulative IPC: 0.39856 (Simulation time: 0 hr 6 min 54 sec) 
Heartbeat CPU  0 instructions:  146000002 cycles:  184505697 heartbeat IPC: 0.55729 cumulative IPC: 0.40104 (Simulation time: 0 hr 6 min 57 sec) 
Heartbeat CPU  0 instructions:  147000003 cycles:  186451104 heartbeat IPC: 0.51403 cumulative IPC: 0.40293 (Simulation time: 0 hr 7 min 0 sec) 
Heartbeat CPU  0 instructions:  148000000 cycles:  188386165 heartbeat IPC: 0.51678 cumulative IPC: 0.40479 (Simulation time: 0 hr 7 min 4 sec) 
Heartbeat CPU  0 instructions:  149000002 cycles:  190163027 heartbeat IPC: 0.56279 cumulative IPC: 0.40712 (Simulation time: 0 hr 7 min 7 sec) 
Heartbeat CPU  0 instructions:  150000003 cycles:  192085188 heartbeat IPC: 0.52025 cumulative IPC: 0.40890 (Simulation time: 0 hr 7 min 10 sec) 
Heartbeat CPU  0 instructions:  151000003 cycles:  194026896 heartbeat IPC: 0.51501 cumulative IPC: 0.41056 (Simulation time: 0 hr 7 min 13 sec) 
Heartbeat CPU  0 instructions:  152000000 cycles:  195881728 heartbeat IPC: 0.53913 cumulative IPC: 0.41245 (Simulation time: 0 hr 7 min 16 sec) 
Heartbeat CPU  0 instructions:  153000003 cycles:  208792772 heartbeat IPC: 0.07745 cumulative IPC: 0.38133 (Simulation time: 0 hr 7 min 20 sec) 
Heartbeat CPU  0 instructions:  154000000 cycles:  213807202 heartbeat IPC: 0.19942 cumulative IPC: 0.37499 (Simulation time: 0 hr 7 min 24 sec) 
Heartbeat CPU  0 instructions:  155000000 cycles:  215707492 heartbeat IPC: 0.52624 cumulative IPC: 0.37696 (Simulation time: 0 hr 7 min 27 sec) 
Heartbeat CPU  0 instructions:  156000000 cycles:  217501175 heartbeat IPC: 0.55751 cumulative IPC: 0.37916 (Simulation time: 0 hr 7 min 30 sec) 
Heartbeat CPU  0 instructions:  157000001 cycles:  219445216 heartbeat IPC: 0.51439 cumulative IPC: 0.38091 (Simulation time: 0 hr 7 min 33 sec) 
Heartbeat CPU  0 instructions:  158000001 cycles:  221386089 heartbeat IPC: 0.51523 cumulative IPC: 0.38263 (Simulation time: 0 hr 7 min 36 sec) 
Heartbeat CPU  0 instructions:  159000000 cycles:  223159183 heartbeat IPC: 0.56399 cumulative IPC: 0.38473 (Simulation time: 0 hr 7 min 40 sec) 
Heartbeat CPU  0 instructions:  160000000 cycles:  225084162 heartbeat IPC: 0.51949 cumulative IPC: 0.38640 (Simulation time: 0 hr 7 min 43 sec) 
Heartbeat CPU  0 instructions:  161000003 cycles:  227033453 heartbeat IPC: 0.51301 cumulative IPC: 0.38797 (Simulation time: 0 hr 7 min 46 sec) 
Heartbeat CPU  0 instructions:  162000000 cycles:  228873618 heartbeat IPC: 0.54343 cumulative IPC: 0.38977 (Simulation time: 0 hr 7 min 49 sec) 
Heartbeat CPU  0 instructions:  163000003 cycles:  230722455 heartbeat IPC: 0.54088 cumulative IPC: 0.39150 (Simulation time: 0 hr 7 min 52 sec) 
Heartbeat CPU  0 instructions:  164000000 cycles:  232668870 heartbeat IPC: 0.51376 cumulative IPC: 0.39297 (Simulation time: 0 hr 7 min 55 sec) 
Heartbeat CPU  0 instructions:  165000000 cycles:  234593594 heartbeat IPC: 0.51956 cumulative IPC: 0.39444 (Simulation time: 0 hr 7 min 59 sec) 
Heartbeat CPU  0 instructions:  166000001 cycles:  236366508 heartbeat IPC: 0.56404 cumulative IPC: 0.39625 (Simulation time: 0 hr 8 min 2 sec) 
Heartbeat CPU  0 instructions:  167000000 cycles:  238304838 heartbeat IPC: 0.51591 cumulative IPC: 0.39763 (Simulation time: 0 hr 8 min 5 sec) 
Heartbeat CPU  0 instructions:  168000000 cycles:  240247924 heartbeat IPC: 0.51465 cumulative IPC: 0.39896 (Simulation time: 0 hr 8 min 8 sec) 
Heartbeat CPU  0 instructions:  169000001 cycles:  242032676 heartbeat IPC: 0.56030 cumulative IPC: 0.40063 (Simulation time: 0 hr 8 min 11 sec) 
Heartbeat CPU  0 instructions:  170000002 cycles:  243939830 heartbeat IPC: 0.52434 cumulative IPC: 0.40199 (Simulation time: 0 hr 8 min 14 sec) 
Heartbeat CPU  0 instructions:  171000001 cycles:  245889949 heartbeat IPC: 0.51279 cumulative IPC: 0.40321 (Simulation time: 0 hr 8 min 17 sec) 
Heartbeat CPU  0 instructions:  172000000 cycles:  247748656 heartbeat IPC: 0.53801 cumulative IPC: 0.40462 (Simulation time: 0 hr 8 min 21 sec) 
Heartbeat CPU  0 instructions:  173000000 cycles:  249580715 heartbeat IPC: 0.54583 cumulative IPC: 0.40606 (Simulation time: 0 hr 8 min 24 sec) 
Heartbeat CPU  0 instructions:  174000003 cycles:  251527690 heartbeat IPC: 0.51362 cumulative IPC: 0.40721 (Simulation time: 0 hr 8 min 27 sec) 
Heartbeat CPU  0 instructions:  175000000 cycles:  258764822 heartbeat IPC: 0.13818 cumulative IPC: 0.39691 (Simulation time: 0 hr 8 min 30 sec) 
Heartbeat CPU  0 instructions:  176000000 cycles:  269141224 heartbeat IPC: 0.09637 cumulative IPC: 0.38127 (Simulation time: 0 hr 8 min 34 sec) 
Heartbeat CPU  0 instructions:  177000001 cycles:  271154334 heartbeat IPC: 0.49674 cumulative IPC: 0.38242 (Simulation time: 0 hr 8 min 38 sec) 
Heartbeat CPU  0 instructions:  178000003 cycles:  273249224 heartbeat IPC: 0.47735 cumulative IPC: 0.38340 (Simulation time: 0 hr 8 min 41 sec) 
Heartbeat CPU  0 instructions:  179000002 cycles:  275207269 heartbeat IPC: 0.51071 cumulative IPC: 0.38461 (Simulation time: 0 hr 8 min 44 sec) 
Heartbeat CPU  0 instructions:  180000000 cycles:  277141539 heartbeat IPC: 0.51699 cumulative IPC: 0.38585 (Simulation time: 0 hr 8 min 47 sec) 
Heartbeat CPU  0 instructions:  181000003 cycles:  279103551 heartbeat IPC: 0.50968 cumulative IPC: 0.38701 (Simulation time: 0 hr 8 min 50 sec) 
Heartbeat CPU  0 instructions:  182000003 cycles:  280979904 heartbeat IPC: 0.53295 cumulative IPC: 0.38830 (Simulation time: 0 hr 8 min 53 sec) 
Heartbeat CPU  0 instructions:  183000000 cycles:  282845150 heartbeat IPC: 0.53612 cumulative IPC: 0.38960 (Simulation time: 0 hr 8 min 57 sec) 
Heartbeat CPU  0 instructions:  184000000 cycles:  284807427 heartbeat IPC: 0.50961 cumulative IPC: 0.39069 (Simulation time: 0 hr 9 min 0 sec) 
Heartbeat CPU  0 instructions:  185000002 cycles:  286753214 heartbeat IPC: 0.51393 cumulative IPC: 0.39180 (Simulation time: 0 hr 9 min 3 sec) 
Heartbeat CPU  0 instructions:  186000001 cycles:  288560659 heartbeat IPC: 0.55327 cumulative IPC: 0.39313 (Simulation time: 0 hr 9 min 6 sec) 
Heartbeat CPU  0 instructions:  187000000 cycles:  290509079 heartbeat IPC: 0.51324 cumulative IPC: 0.39419 (Simulation time: 0 hr 9 min 9 sec) 
Heartbeat CPU  0 instructions:  188000000 cycles:  292467218 heartbeat IPC: 0.51069 cumulative IPC: 0.39522 (Simulation time: 0 hr 9 min 12 sec) 
Heartbeat CPU  0 instructions:  189000000 cycles:  294288307 heartbeat IPC: 0.54912 cumulative IPC: 0.39647 (Simulation time: 0 hr 9 min 16 sec) 
Heartbeat CPU  0 instructions:  190000000 cycles:  296206330 heartbeat IPC: 0.52137 cumulative IPC: 0.39752 (Simulation time: 0 hr 9 min 19 sec) 
Heartbeat CPU  0 instructions:  191000000 cycles:  298168903 heartbeat IPC: 0.50954 cumulative IPC: 0.39849 (Simulation time: 0 hr 9 min 22 sec) 
Heartbeat CPU  0 instructions:  192000000 cycles:  300060583 heartbeat IPC: 0.52863 cumulative IPC: 0.39956 (Simulation time: 0 hr 9 min 25 sec) 
Heartbeat CPU  0 instructions:  193000001 cycles:  301907748 heartbeat IPC: 0.54137 cumulative IPC: 0.40068 (Simulation time: 0 hr 9 min 28 sec) 
Heartbeat CPU  0 instructions:  194000000 cycles:  303869626 heartbeat IPC: 0.50972 cumulative IPC: 0.40160 (Simulation time: 0 hr 9 min 31 sec) 
Heartbeat CPU  0 instructions:  195000002 cycles:  305820584 heartbeat IPC: 0.51257 cumulative IPC: 0.40252 (Simulation time: 0 hr 9 min 34 sec) 
Heartbeat CPU  0 instructions:  196000000 cycles:  307623316 heartbeat IPC: 0.55471 cumulative IPC: 0.40367 (Simulation time: 0 hr 9 min 38 sec) 
Heartbeat CPU  0 instructions:  197000000 cycles:  309680342 heartbeat IPC: 0.48614 cumulative IPC: 0.40438 (Simulation time: 0 hr 9 min 41 sec) 
Heartbeat CPU  0 instructions:  198000003 cycles:  324091783 heartbeat IPC: 0.06939 cumulative IPC: 0.38539 (Simulation time: 0 hr 9 min 45 sec) 
Heartbeat CPU  0 instructions:  199000001 cycles:  327262583 heartbeat IPC: 0.31538 cumulative IPC: 0.38453 (Simulation time: 0 hr 9 min 48 sec) 
Heartbeat CPU  0 instructions:  200000000 cycles:  329186140 heartbeat IPC: 0.51987 cumulative IPC: 0.38553 (Simulation time: 0 hr 9 min 52 sec) 
Heartbeat CPU  0 instructions:  201000002 cycles:  331146847 heartbeat IPC: 0.51002 cumulative IPC: 0.38647 (Simulation time: 0 hr 9 min 55 sec) 
Heartbeat CPU  0 instructions:  202000003 cycles:  333043776 heartbeat IPC: 0.52717 cumulative IPC: 0.38748 (Simulation time: 0 hr 9 min 58 sec) 
Heartbeat CPU  0 instructions:  203000002 cycles:  334887588 heartbeat IPC: 0.54235 cumulative IPC: 0.38856 (Simulation time: 0 hr 10 min 1 sec) 
Heartbeat CPU  0 instructions:  204000000 cycles:  336852128 heartbeat IPC: 0.50902 cumulative IPC: 0.38944 (Simulation time: 0 hr 10 min 4 sec) 
Heartbeat CPU  0 instructions:  205000002 cycles:  338796053 heartbeat IPC: 0.51442 cumulative IPC: 0.39035 (Simulation time: 0 hr 10 min 8 sec) 
Heartbeat CPU  0 instructions:  206000000 cycles:  340601536 heartbeat IPC: 0.55387 cumulative IPC: 0.39144 (Simulation time: 0 hr 10 min 11 sec) 
Heartbeat CPU  0 instructions:  207000002 cycles:  342547998 heartbeat IPC: 0.51375 cumulative IPC: 0.39231 (Simulation time: 0 hr 10 min 14 sec) 
Heartbeat CPU  0 instructions:  208000000 cycles:  344507303 heartbeat IPC: 0.51038 cumulative IPC: 0.39315 (Simulation time: 0 hr 10 min 17 sec) 
Heartbeat CPU  0 instructions:  209000002 cycles:  346345053 heartbeat IPC: 0.54414 cumulative IPC: 0.39416 (Simulation time: 0 hr 10 min 20 sec) 
Heartbeat CPU  0 instructions:  210000000 cycles:  348249424 heartbeat IPC: 0.52511 cumulative IPC: 0.39505 (Simulation time: 0 hr 10 min 23 sec) 
Heartbeat CPU  0 instructions:  211000000 cycles:  350211527 heartbeat IPC: 0.50966 cumulative IPC: 0.39585 (Simulation time: 0 hr 10 min 27 sec) 
Heartbeat CPU  0 instructions:  212000000 cycles:  352123283 heartbeat IPC: 0.52308 cumulative IPC: 0.39672 (Simulation time: 0 hr 10 min 30 sec) 
Heartbeat CPU  0 instructions:  213000003 cycles:  353947522 heartbeat IPC: 0.54818 cumulative IPC: 0.39769 (Simulation time: 0 hr 10 min 33 sec) 
Heartbeat CPU  0 instructions:  214000003 cycles:  355906210 heartbeat IPC: 0.51055 cumulative IPC: 0.39846 (Simulation time: 0 hr 10 min 36 sec) 
Heartbeat CPU  0 instructions:  215000003 cycles:  357859723 heartbeat IPC: 0.51190 cumulative IPC: 0.39923 (Simulation time: 0 hr 10 min 39 sec) 
Heartbeat CPU  0 instructions:  216000000 cycles:  359671621 heartbeat IPC: 0.55191 cumulative IPC: 0.40018 (Simulation time: 0 hr 10 min 42 sec) 
Heartbeat CPU  0 instructions:  217000002 cycles:  361604724 heartbeat IPC: 0.51730 cumulative IPC: 0.40096 (Simulation time: 0 hr 10 min 45 sec) 
Heartbeat CPU  0 instructions:  218000001 cycles:  363567229 heartbeat IPC: 0.50955 cumulative IPC: 0.40169 (Simulation time: 0 hr 10 min 49 sec) 
Heartbeat CPU  0 instructions:  219000002 cycles:  365415646 heartbeat IPC: 0.54100 cumulative IPC: 0.40256 (Simulation time: 0 hr 10 min 52 sec) 
Heartbeat CPU  0 instructions:  220000000 cycles:  374432169 heartbeat IPC: 0.11091 cumulative IPC: 0.39392 (Simulation time: 0 hr 10 min 55 sec) 
Heartbeat CPU  0 instructions:  221000000 cycles:  383247895 heartbeat IPC: 0.11343 cumulative IPC: 0.38604 (Simulation time: 0 hr 10 min 59 sec) 
Heartbeat CPU  0 instructions:  222000000 cycles:  385162972 heartbeat IPC: 0.52217 cumulative IPC: 0.38686 (Simulation time: 0 hr 11 min 2 sec) 
Heartbeat CPU  0 instructions:  223000001 cycles:  386992462 heartbeat IPC: 0.54660 cumulative IPC: 0.38778 (Simulation time: 0 hr 11 min 6 sec) 
Heartbeat CPU  0 instructions:  224000000 cycles:  388950437 heartbeat IPC: 0.51073 cumulative IPC: 0.38854 (Simulation time: 0 hr 11 min 9 sec) 
Heartbeat CPU  0 instructions:  225000002 cycles:  390910381 heartbeat IPC: 0.51022 cumulative IPC: 0.38928 (Simulation time: 0 hr 11 min 12 sec) 
Heartbeat CPU  0 instructions:  226000002 cycles:  392714266 heartbeat IPC: 0.55436 cumulative IPC: 0.39020 (Simulation time: 0 hr 11 min 15 sec) 
Heartbeat CPU  0 instructions:  227000003 cycles:  394653702 heartbeat IPC: 0.51561 cumulative IPC: 0.39095 (Simulation time: 0 hr 11 min 18 sec) 
Heartbeat CPU  0 instructions:  228000000 cycles:  396612826 heartbeat IPC: 0.51043 cumulative IPC: 0.39167 (Simulation time: 0 hr 11 min 21 sec) 
Heartbeat CPU  0 instructions:  229000003 cycles:  398606364 heartbeat IPC: 0.50162 cumulative IPC: 0.39233 (Simulation time: 0 hr 11 min 25 sec) 
Heartbeat CPU  0 instructions:  230000001 cycles:  400486459 heartbeat IPC: 0.53189 cumulative IPC: 0.39313 (Simulation time: 0 hr 11 min 28 sec) 
Heartbeat CPU  0 instructions:  231000003 cycles:  402449189 heartbeat IPC: 0.50950 cumulative IPC: 0.39381 (Simulation time: 0 hr 11 min 31 sec) 
Heartbeat CPU  0 instructions:  232000000 cycles:  404374272 heartbeat IPC: 0.51946 cumulative IPC: 0.39454 (Simulation time: 0 hr 11 min 34 sec) 
Heartbeat CPU  0 instructions:  233000002 cycles:  406194826 heartbeat IPC: 0.54928 cumulative IPC: 0.39537 (Simulation time: 0 hr 11 min 37 sec) 
Heartbeat CPU  0 instructions:  234000001 cycles:  408149754 heartbeat IPC: 0.51153 cumulative IPC: 0.39605 (Simulation time: 0 hr 11 min 40 sec) 
Heartbeat CPU  0 instructions:  235000003 cycles:  410101735 heartbeat IPC: 0.51230 cumulative IPC: 0.39671 (Simulation time: 0 hr 11 min 43 sec) 
Heartbeat CPU  0 instructions:  236000000 cycles:  411913698 heartbeat IPC: 0.55189 cumulative IPC: 0.39753 (Simulation time: 0 hr 11 min 47 sec) 
Heartbeat CPU  0 instructions:  237000002 cycles:  413847149 heartbeat IPC: 0.51721 cumulative IPC: 0.39821 (Simulation time: 0 hr 11 min 50 sec) 
Heartbeat CPU  0 instructions:  238000002 cycles:  415810449 heartbeat IPC: 0.50935 cumulative IPC: 0.39884 (Simulation time: 0 hr 11 min 53 sec) 
Heartbeat CPU  0 instructions:  239000001 cycles:  417683480 heartbeat IPC: 0.53389 cumulative IPC: 0.39956 (Simulation time: 0 hr 11 min 56 sec) 
Heartbeat CPU  0 instructions:  240000000 cycles:  419546198 heartbeat IPC: 0.53685 cumulative IPC: 0.40030 (Simulation time: 0 hr 11 min 59 sec) 
Heartbeat CPU  0 instructions:  241000003 cycles:  421511382 heartbeat IPC: 0.50886 cumulative IPC: 0.40090 (Simulation time: 0 hr 12 min 2 sec) 
Heartbeat CPU  0 instructions:  242000002 cycles:  425259373 heartbeat IPC: 0.26681 cumulative IPC: 0.39949 (Simulation time: 0 hr 12 min 6 sec) 
Heartbeat CPU  0 instructions:  243000003 cycles:  439486574 heartbeat IPC: 0.07029 cumulative IPC: 0.38682 (Simulation time: 0 hr 12 min 10 sec) 
Heartbeat CPU  0 instructions:  244000000 cycles:  441443121 heartbeat IPC: 0.51110 cumulative IPC: 0.38747 (Simulation time: 0 hr 12 min 13 sec) 
Heartbeat CPU  0 instructions:  245000000 cycles:  443400956 heartbeat IPC: 0.51077 cumulative IPC: 0.38812 (Simulation time: 0 hr 12 min 16 sec) 
Heartbeat CPU  0 instructions:  246000000 cycles:  445214987 heartbeat IPC: 0.55126 cumulative IPC: 0.38891 (Simulation time: 0 hr 12 min 19 sec) 
Heartbeat CPU  0 instructions:  247000000 cycles:  447144674 heartbeat IPC: 0.51822 cumulative IPC: 0.38957 (Simulation time: 0 hr 12 min 23 sec) 
Heartbeat CPU  0 instructions:  248000000 cycles:  449104253 heartbeat IPC: 0.51031 cumulative IPC: 0.39019 (Simulation time: 0 hr 12 min 26 sec) 
Heartbeat CPU  0 instructions:  249000001 cycles:  450978817 heartbeat IPC: 0.53346 cumulative IPC: 0.39090 (Simulation time: 0 hr 12 min 29 sec) 
Heartbeat CPU  0 instructions:  250000003 cycles:  452844298 heartbeat IPC: 0.53606 cumulative IPC: 0.39160 (Simulation time: 0 hr 12 min 32 sec) 
Heartbeat CPU  0 instructions:  251000002 cycles:  454803904 heartbeat IPC: 0.51031 cumulative IPC: 0.39221 (Simulation time: 0 hr 12 min 35 sec) 
Heartbeat CPU  0 instructions:  252000000 cycles:  456745653 heartbeat IPC: 0.51500 cumulative IPC: 0.39282 (Simulation time: 0 hr 12 min 38 sec) 
Heartbeat CPU  0 instructions:  253000000 cycles:  458552039 heartbeat IPC: 0.55359 cumulative IPC: 0.39357 (Simulation time: 0 hr 12 min 42 sec) 
Heartbeat CPU  0 instructions:  254000002 cycles:  460503492 heartbeat IPC: 0.51244 cumulative IPC: 0.39417 (Simulation time: 0 hr 12 min 45 sec) 
Heartbeat CPU  0 instructions:  255000000 cycles:  462467056 heartbeat IPC: 0.50928 cumulative IPC: 0.39474 (Simulation time: 0 hr 12 min 48 sec) 
Heartbeat CPU  0 instructions:  256000000 cycles:  464279304 heartbeat IPC: 0.55180 cumulative IPC: 0.39546 (Simulation time: 0 hr 12 min 51 sec) 
Heartbeat CPU  0 instructions:  257000000 cycles:  466200115 heartbeat IPC: 0.52061 cumulative IPC: 0.39607 (Simulation time: 0 hr 12 min 54 sec) 
Heartbeat CPU  0 instructions:  258000003 cycles:  468162382 heartbeat IPC: 0.50962 cumulative IPC: 0.39663 (Simulation time: 0 hr 12 min 57 sec) 
Heartbeat CPU  0 instructions:  259000000 cycles:  470051484 heartbeat IPC: 0.52935 cumulative IPC: 0.39726 (Simulation time: 0 hr 13 min 1 sec) 
Heartbeat CPU  0 instructions:  260000000 cycles:  471901468 heartbeat IPC: 0.54055 cumulative IPC: 0.39791 (Simulation time: 0 hr 13 min 4 sec) 
Heartbeat CPU  0 instructions:  261000000 cycles:  473858584 heartbeat IPC: 0.51096 cumulative IPC: 0.39846 (Simulation time: 0 hr 13 min 7 sec) 
Heartbeat CPU  0 instructions:  262000002 cycles:  475807332 heartbeat IPC: 0.51315 cumulative IPC: 0.39901 (Simulation time: 0 hr 13 min 10 sec) 
Heartbeat CPU  0 instructions:  263000001 cycles:  477613675 heartbeat IPC: 0.55360 cumulative IPC: 0.39970 (Simulation time: 0 hr 13 min 13 sec) 
Heartbeat CPU  0 instructions:  264000000 cycles:  479557111 heartbeat IPC: 0.51455 cumulative IPC: 0.40024 (Simulation time: 0 hr 13 min 16 sec) 
Heartbeat CPU  0 instructions:  265000002 cycles:  490425102 heartbeat IPC: 0.09201 cumulative IPC: 0.39228 (Simulation time: 0 hr 13 min 20 sec) 
Heartbeat CPU  0 instructions:  266000001 cycles:  497320013 heartbeat IPC: 0.14503 cumulative IPC: 0.38829 (Simulation time: 0 hr 13 min 24 sec) 
Heartbeat CPU  0 instructions:  267000002 cycles:  499243625 heartbeat IPC: 0.51986 cumulative IPC: 0.38888 (Simulation time: 0 hr 13 min 27 sec) 
Heartbeat CPU  0 instructions:  268000000 cycles:  501204873 heartbeat IPC: 0.50988 cumulative IPC: 0.38943 (Simulation time: 0 hr 13 min 30 sec) 
Heartbeat CPU  0 instructions:  269000000 cycles:  503099232 heartbeat IPC: 0.52788 cumulative IPC: 0.39004 (Simulation time: 0 hr 13 min 34 sec) 
Heartbeat CPU  0 instructions:  270000003 cycles:  504948717 heartbeat IPC: 0.54069 cumulative IPC: 0.39068 (Simulation time: 0 hr 13 min 37 sec) 
Heartbeat CPU  0 instructions:  271000002 cycles:  506907375 heartbeat IPC: 0.51055 cumulative IPC: 0.39121 (Simulation time: 0 hr 13 min 40 sec) 
Heartbeat CPU  0 instructions:  272000000 cycles:  508857679 heartbeat IPC: 0.51274 cumulative IPC: 0.39175 (Simulation time: 0 hr 13 min 43 sec) 
Heartbeat CPU  0 instructions:  273000002 cycles:  510666712 heartbeat IPC: 0.55278 cumulative IPC: 0.39241 (Simulation time: 0 hr 13 min 46 sec) 
Heartbeat CPU  0 instructions:  274000000 cycles:  512610909 heartbeat IPC: 0.51435 cumulative IPC: 0.39295 (Simulation time: 0 hr 13 min 49 sec) 
Heartbeat CPU  0 instructions:  275000000 cycles:  514568722 heartbeat IPC: 0.51077 cumulative IPC: 0.39347 (Simulation time: 0 hr 13 min 53 sec) 
Heartbeat CPU  0 instructions:  276000000 cycles:  516399598 heartbeat IPC: 0.54619 cumulative IPC: 0.39409 (Simulation time: 0 hr 13 min 56 sec) 
Heartbeat CPU  0 instructions:  277000001 cycles:  518305274 heartbeat IPC: 0.52475 cumulative IPC: 0.39465 (Simulation time: 0 hr 13 min 59 sec) 
Heartbeat CPU  0 instructions:  278000000 cycles:  520267067 heartbeat IPC: 0.50974 cumulative IPC: 0.39515 (Simulation time: 0 hr 14 min 2 sec) 
Heartbeat CPU  0 instructions:  279000003 cycles:  522294280 heartbeat IPC: 0.49329 cumulative IPC: 0.39559 (Simulation time: 0 hr 14 min 6 sec) 
Heartbeat CPU  0 instructions:  280000000 cycles:  524239254 heartbeat IPC: 0.51414 cumulative IPC: 0.39610 (Simulation time: 0 hr 14 min 9 sec) 
Heartbeat CPU  0 instructions:  281000002 cycles:  526310693 heartbeat IPC: 0.48276 cumulative IPC: 0.39649 (Simulation time: 0 hr 14 min 12 sec) 
Heartbeat CPU  0 instructions:  282000002 cycles:  528266251 heartbeat IPC: 0.51136 cumulative IPC: 0.39698 (Simulation time: 0 hr 14 min 15 sec) 
Heartbeat CPU  0 instructions:  283000000 cycles:  530066622 heartbeat IPC: 0.55544 cumulative IPC: 0.39760 (Simulation time: 0 hr 14 min 18 sec) 
Heartbeat CPU  0 instructions:  284000000 cycles:  532003806 heartbeat IPC: 0.51621 cumulative IPC: 0.39810 (Simulation time: 0 hr 14 min 22 sec) 
Heartbeat CPU  0 instructions:  285000001 cycles:  533968412 heartbeat IPC: 0.50901 cumulative IPC: 0.39857 (Simulation time: 0 hr 14 min 25 sec) 
Heartbeat CPU  0 instructions:  286000003 cycles:  535814308 heartbeat IPC: 0.54174 cumulative IPC: 0.39913 (Simulation time: 0 hr 14 min 28 sec) 
Heartbeat CPU  0 instructions:  287000002 cycles:  541413054 heartbeat IPC: 0.17861 cumulative IPC: 0.39652 (Simulation time: 0 hr 14 min 32 sec) 
Heartbeat CPU  0 instructions:  288000000 cycles:  553582280 heartbeat IPC: 0.08217 cumulative IPC: 0.38861 (Simulation time: 0 hr 14 min 36 sec) 
Heartbeat CPU  0 instructions:  289000003 cycles:  555492547 heartbeat IPC: 0.52349 cumulative IPC: 0.38914 (Simulation time: 0 hr 14 min 39 sec) 
Heartbeat CPU  0 instructions:  290000003 cycles:  557327892 heartbeat IPC: 0.54486 cumulative IPC: 0.38973 (Simulation time: 0 hr 14 min 42 sec) 
Heartbeat CPU  0 instructions:  291000002 cycles:  559284222 heartbeat IPC: 0.51116 cumulative IPC: 0.39021 (Simulation time: 0 hr 14 min 45 sec) 
Heartbeat CPU  0 instructions:  292000000 cycles:  561232259 heartbeat IPC: 0.51334 cumulative IPC: 0.39070 (Simulation time: 0 hr 14 min 48 sec) 
Heartbeat CPU  0 instructions:  293000001 cycles:  563054225 heartbeat IPC: 0.54886 cumulative IPC: 0.39128 (Simulation time: 0 hr 14 min 52 sec) 
Heartbeat CPU  0 instructions:  294000000 cycles:  565000172 heartbeat IPC: 0.51389 cumulative IPC: 0.39176 (Simulation time: 0 hr 14 min 55 sec) 
Heartbeat CPU  0 instructions:  295000002 cycles:  566962939 heartbeat IPC: 0.50949 cumulative IPC: 0.39223 (Simulation time: 0 hr 14 min 58 sec) 
Heartbeat CPU  0 instructions:  296000000 cycles:  568809898 heartbeat IPC: 0.54143 cumulative IPC: 0.39278 (Simulation time: 0 hr 15 min 1 sec) 
Heartbeat CPU  0 instructions:  297000001 cycles:  570701801 heartbeat IPC: 0.52857 cumulative IPC: 0.39329 (Simulation time: 0 hr 15 min 4 sec) 
Heartbeat CPU  0 instructions:  298000003 cycles:  572663663 heartbeat IPC: 0.50972 cumulative IPC: 0.39375 (Simulation time: 0 hr 15 min 7 sec) 
Heartbeat CPU  0 instructions:  299000000 cycles:  574585228 heartbeat IPC: 0.52041 cumulative IPC: 0.39423 (Simulation time: 0 hr 15 min 10 sec) 
Heartbeat CPU  0 instructions:  300000000 cycles:  576406845 heartbeat IPC: 0.54896 cumulative IPC: 0.39479 (Simulation time: 0 hr 15 min 14 sec) 
Heartbeat CPU  0 instructions:  301000003 cycles:  578361580 heartbeat IPC: 0.51158 cumulative IPC: 0.39524 (Simulation time: 0 hr 15 min 17 sec) 
Heartbeat CPU  0 instructions:  302000000 cycles:  580315947 heartbeat IPC: 0.51167 cumulative IPC: 0.39568 (Simulation time: 0 hr 15 min 20 sec) 
Heartbeat CPU  0 instructions:  303000000 cycles:  582126630 heartbeat IPC: 0.55228 cumulative IPC: 0.39624 (Simulation time: 0 hr 15 min 23 sec) 
Heartbeat CPU  0 instructions:  304000000 cycles:  584060187 heartbeat IPC: 0.51718 cumulative IPC: 0.39669 (Simulation time: 0 hr 15 min 26 sec) 
Heartbeat CPU  0 instructions:  305000000 cycles:  586026130 heartbeat IPC: 0.50866 cumulative IPC: 0.39712 (Simulation time: 0 hr 15 min 30 sec) 
Heartbeat CPU  0 instructions:  306000002 cycles:  587889870 heartbeat IPC: 0.53656 cumulative IPC: 0.39762 (Simulation time: 0 hr 15 min 33 sec) 
Heartbeat CPU  0 instructions:  307000003 cycles:  589760060 heartbeat IPC: 0.53471 cumulative IPC: 0.39811 (Simulation time: 0 hr 15 min 36 sec) 
Heartbeat CPU  0 instructions:  308000000 cycles:  591723685 heartbeat IPC: 0.50926 cumulative IPC: 0.39853 (Simulation time: 0 hr 15 min 39 sec) 
Heartbeat CPU  0 instructions:  309000003 cycles:  593666665 heartbeat IPC: 0.51467 cumulative IPC: 0.39896 (Simulation time: 0 hr 15 min 42 sec) 
Heartbeat CPU  0 instructions:  310000002 cycles:  606366658 heartbeat IPC: 0.07874 cumulative IPC: 0.39138 (Simulation time: 0 hr 15 min 46 sec) 
Heartbeat CPU  0 instructions:  311000000 cycles:  611306688 heartbeat IPC: 0.20243 cumulative IPC: 0.38966 (Simulation time: 0 hr 15 min 50 sec) 
Heartbeat CPU  0 instructions:  312000000 cycles:  613265232 heartbeat IPC: 0.51058 cumulative IPC: 0.39009 (Simulation time: 0 hr 15 min 53 sec) 
Heartbeat CPU  0 instructions:  313000003 cycles:  615081952 heartbeat IPC: 0.55044 cumulative IPC: 0.39063 (Simulation time: 0 hr 15 min 56 sec) 
Heartbeat CPU  0 instructions:  314000000 cycles:  617022624 heartbeat IPC: 0.51528 cumulative IPC: 0.39107 (Simulation time: 0 hr 15 min 59 sec) 
Heartbeat CPU  0 instructions:  315000000 cycles:  618983519 heartbeat IPC: 0.50997 cumulative IPC: 0.39149 (Simulation time: 0 hr 16 min 2 sec) 
Heartbeat CPU  0 instructions:  316000000 cycles:  620848018 heartbeat IPC: 0.53634 cumulative IPC: 0.39198 (Simulation time: 0 hr 16 min 6 sec) 
Heartbeat CPU  0 instructions:  317000001 cycles:  622720138 heartbeat IPC: 0.53415 cumulative IPC: 0.39247 (Simulation time: 0 hr 16 min 9 sec) 
Heartbeat CPU  0 instructions:  318000002 cycles:  624684448 heartbeat IPC: 0.50909 cumulative IPC: 0.39288 (Simulation time: 0 hr 16 min 12 sec) 
Heartbeat CPU  0 instructions:  319000001 cycles:  626623115 heartbeat IPC: 0.51582 cumulative IPC: 0.39331 (Simulation time: 0 hr 16 min 15 sec) 
Heartbeat CPU  0 instructions:  320000000 cycles:  628434308 heartbeat IPC: 0.55212 cumulative IPC: 0.39382 (Simulation time: 0 hr 16 min 18 sec) 
Heartbeat CPU  0 instructions:  321000002 cycles:  630387862 heartbeat IPC: 0.51189 cumulative IPC: 0.39423 (Simulation time: 0 hr 16 min 21 sec) 
Heartbeat CPU  0 instructions:  322000001 cycles:  632343170 heartbeat IPC: 0.51143 cumulative IPC: 0.39464 (Simulation time: 0 hr 16 min 24 sec) 
Heartbeat CPU  0 instructions:  323000002 cycles:  634154552 heartbeat IPC: 0.55207 cumulative IPC: 0.39515 (Simulation time: 0 hr 16 min 28 sec) 
Heartbeat CPU  0 instructions:  324000000 cycles:  636078996 heartbeat IPC: 0.51963 cumulative IPC: 0.39557 (Simulation time: 0 hr 16 min 31 sec) 
Heartbeat CPU  0 instructions:  325000001 cycles:  638039897 heartbeat IPC: 0.50997 cumulative IPC: 0.39596 (Simulation time: 0 hr 16 min 34 sec) 
Heartbeat CPU  0 instructions:  326000002 cycles:  639925010 heartbeat IPC: 0.53047 cumulative IPC: 0.39641 (Simulation time: 0 hr 16 min 37 sec) 
Heartbeat CPU  0 instructions:  327000002 cycles:  641776251 heartbeat IPC: 0.54018 cumulative IPC: 0.39687 (Simulation time: 0 hr 16 min 40 sec) 
Heartbeat CPU  0 instructions:  328000000 cycles:  643739730 heartbeat IPC: 0.50930 cumulative IPC: 0.39726 (Simulation time: 0 hr 16 min 43 sec) 
Heartbeat CPU  0 instructions:  329000002 cycles:  645687472 heartbeat IPC: 0.51342 cumulative IPC: 0.39765 (Simulation time: 0 hr 16 min 47 sec) 
Heartbeat CPU  0 instructions:  330000001 cycles:  647502300 heartbeat IPC: 0.55102 cumulative IPC: 0.39813 (Simulation time: 0 hr 16 min 50 sec) 
Heartbeat CPU  0 instructions:  331000002 cycles:  649565016 heartbeat IPC: 0.48480 cumulative IPC: 0.39844 (Simulation time: 0 hr 16 min 53 sec) 
Heartbeat CPU  0 instructions:  332000000 cycles:  656922417 heartbeat IPC: 0.13592 cumulative IPC: 0.39515 (Simulation time: 0 hr 16 min 57 sec) 
Heartbeat CPU  0 instructions:  333000000 cycles:  667224067 heartbeat IPC: 0.09707 cumulative IPC: 0.39001 (Simulation time: 0 hr 17 min 1 sec) 
Heartbeat CPU  0 instructions:  334000001 cycles:  669153492 heartbeat IPC: 0.51829 cumulative IPC: 0.39042 (Simulation time: 0 hr 17 min 4 sec) 
Heartbeat CPU  0 instructions:  335000001 cycles:  671117481 heartbeat IPC: 0.50917 cumulative IPC: 0.39081 (Simulation time: 0 hr 17 min 7 sec) 
Heartbeat CPU  0 instructions:  336000000 cycles:  673002393 heartbeat IPC: 0.53053 cumulative IPC: 0.39125 (Simulation time: 0 hr 17 min 10 sec) 
Heartbeat CPU  0 instructions:  337000003 cycles:  674854540 heartbeat IPC: 0.53992 cumulative IPC: 0.39170 (Simulation time: 0 hr 17 min 13 sec) 
Heartbeat CPU  0 instructions:  338000002 cycles:  676819023 heartbeat IPC: 0.50904 cumulative IPC: 0.39208 (Simulation time: 0 hr 17 min 16 sec) 
Heartbeat CPU  0 instructions:  339000000 cycles:  678765294 heartbeat IPC: 0.51380 cumulative IPC: 0.39247 (Simulation time: 0 hr 17 min 20 sec) 
Heartbeat CPU  0 instructions:  340000000 cycles:  680566322 heartbeat IPC: 0.55524 cumulative IPC: 0.39295 (Simulation time: 0 hr 17 min 23 sec) 
Heartbeat CPU  0 instructions:  341000000 cycles:  682514652 heartbeat IPC: 0.51326 cumulative IPC: 0.39333 (Simulation time: 0 hr 17 min 26 sec) 
Heartbeat CPU  0 instructions:  342000001 cycles:  684472792 heartbeat IPC: 0.51069 cumulative IPC: 0.39371 (Simulation time: 0 hr 17 min 29 sec) 
Heartbeat CPU  0 instructions:  343000000 cycles:  686296150 heartbeat IPC: 0.54844 cumulative IPC: 0.39417 (Simulation time: 0 hr 17 min 32 sec) 
Heartbeat CPU  0 instructions:  344000000 cycles:  688211241 heartbeat IPC: 0.52217 cumulative IPC: 0.39456 (Simulation time: 0 hr 17 min 35 sec) 
Heartbeat CPU  0 instructions:  345000000 cycles:  690166288 heartbeat IPC: 0.51150 cumulative IPC: 0.39493 (Simulation time: 0 hr 17 min 38 sec) 
Heartbeat CPU  0 instructions:  346000001 cycles:  692067905 heartbeat IPC: 0.52587 cumulative IPC: 0.39533 (Simulation time: 0 hr 17 min 42 sec) 
Heartbeat CPU  0 instructions:  347000000 cycles:  693904859 heartbeat IPC: 0.54438 cumulative IPC: 0.39577 (Simulation time: 0 hr 17 min 45 sec) 
Heartbeat CPU  0 instructions:  348000000 cycles:  695859016 heartbeat IPC: 0.51173 cumulative IPC: 0.39613 (Simulation time: 0 hr 17 min 48 sec) 
Heartbeat CPU  0 instructions:  349000001 cycles:  697811538 heartbeat IPC: 0.51216 cumulative IPC: 0.39649 (Simulation time: 0 hr 17 min 51 sec) 
Heartbeat CPU  0 instructions:  350000003 cycles:  699619699 heartbeat IPC: 0.55305 cumulative IPC: 0.39694 (Simulation time: 0 hr 17 min 54 sec) 
Heartbeat CPU  0 instructions:  351000003 cycles:  701558920 heartbeat IPC: 0.51567 cumulative IPC: 0.39731 (Simulation time: 0 hr 17 min 57 sec) 
Heartbeat CPU  0 instructions:  352000000 cycles:  703521975 heartbeat IPC: 0.50941 cumulative IPC: 0.39765 (Simulation time: 0 hr 18 min 1 sec) 
Heartbeat CPU  0 instructions:  353000001 cycles:  705364031 heartbeat IPC: 0.54287 cumulative IPC: 0.39807 (Simulation time: 0 hr 18 min 4 sec) 
Heartbeat CPU  0 instructions:  354000003 cycles:  707473240 heartbeat IPC: 0.47411 cumulative IPC: 0.39833 (Simulation time: 0 hr 18 min 7 sec) 
Heartbeat CPU  0 instructions:  355000003 cycles:  722084031 heartbeat IPC: 0.06844 cumulative IPC: 0.39094 (Simulation time: 0 hr 18 min 11 sec) 
Heartbeat CPU  0 instructions:  356000000 cycles:  725218099 heartbeat IPC: 0.31907 cumulative IPC: 0.39059 (Simulation time: 0 hr 18 min 15 sec) 
Heartbeat CPU  0 instructions:  357000003 cycles:  727059485 heartbeat IPC: 0.54307 cumulative IPC: 0.39102 (Simulation time: 0 hr 18 min 18 sec) 
Heartbeat CPU  0 instructions:  358000002 cycles:  729012852 heartbeat IPC: 0.51194 cumulative IPC: 0.39138 (Simulation time: 0 hr 18 min 21 sec) 
Heartbeat CPU  0 instructions:  359000000 cycles:  730969500 heartbeat IPC: 0.51108 cumulative IPC: 0.39173 (Simulation time: 0 hr 18 min 24 sec) 
Heartbeat CPU  0 instructions:  360000000 cycles:  732774157 heartbeat IPC: 0.55412 cumulative IPC: 0.39218 (Simulation time: 0 hr 18 min 27 sec) 
Heartbeat CPU  0 instructions:  361000003 cycles:  734712850 heartbeat IPC: 0.51581 cumulative IPC: 0.39254 (Simulation time: 0 hr 18 min 30 sec) 
Heartbeat CPU  0 instructions:  362000000 cycles:  736680956 heartbeat IPC: 0.50810 cumulative IPC: 0.39288 (Simulation time: 0 hr 18 min 34 sec) 
Heartbeat CPU  0 instructions:  363000000 cycles:  738521711 heartbeat IPC: 0.54326 cumulative IPC: 0.39329 (Simulation time: 0 hr 18 min 37 sec) 
Heartbeat CPU  0 instructions:  364000000 cycles:  740410975 heartbeat IPC: 0.52931 cumulative IPC: 0.39367 (Simulation time: 0 hr 18 min 40 sec) 
Heartbeat CPU  0 instructions:  365000000 cycles:  742377737 heartbeat IPC: 0.50845 cumulative IPC: 0.39401 (Simulation time: 0 hr 18 min 43 sec) 
Heartbeat CPU  0 instructions:  366000001 cycles:  744295372 heartbeat IPC: 0.52148 cumulative IPC: 0.39437 (Simulation time: 0 hr 18 min 46 sec) 
Heartbeat CPU  0 instructions:  367000001 cycles:  746116657 heartbeat IPC: 0.54906 cumulative IPC: 0.39479 (Simulation time: 0 hr 18 min 49 sec) 
Heartbeat CPU  0 instructions:  368000000 cycles:  748072664 heartbeat IPC: 0.51125 cumulative IPC: 0.39512 (Simulation time: 0 hr 18 min 52 sec) 
Heartbeat CPU  0 instructions:  369000003 cycles:  750036533 heartbeat IPC: 0.50920 cumulative IPC: 0.39545 (Simulation time: 0 hr 18 min 56 sec) 
Heartbeat CPU  0 instructions:  370000000 cycles:  751835992 heartbeat IPC: 0.55572 cumulative IPC: 0.39588 (Simulation time: 0 hr 18 min 59 sec) 
Heartbeat CPU  0 instructions:  371000001 cycles:  753771198 heartbeat IPC: 0.51674 cumulative IPC: 0.39622 (Simulation time: 0 hr 19 min 2 sec) 
Heartbeat CPU  0 instructions:  372000000 cycles:  755733129 heartbeat IPC: 0.50970 cumulative IPC: 0.39654 (Simulation time: 0 hr 19 min 5 sec) 
Heartbeat CPU  0 instructions:  373000003 cycles:  757592045 heartbeat IPC: 0.53795 cumulative IPC: 0.39693 (Simulation time: 0 hr 19 min 8 sec) 
Heartbeat CPU  0 instructions:  374000001 cycles:  759465321 heartbeat IPC: 0.53382 cumulative IPC: 0.39730 (Simulation time: 0 hr 19 min 11 sec) 
Heartbeat CPU  0 instructions:  375000001 cycles:  761428327 heartbeat IPC: 0.50942 cumulative IPC: 0.39762 (Simulation time: 0 hr 19 min 15 sec) 
Heartbeat CPU  0 instructions:  376000000 cycles:  763365552 heartbeat IPC: 0.51620 cumulative IPC: 0.39795 (Simulation time: 0 hr 19 min 18 sec) 
Heartbeat CPU  0 instructions:  377000002 cycles:  772400734 heartbeat IPC: 0.11068 cumulative IPC: 0.39425 (Simulation time: 0 hr 19 min 22 sec) 
Heartbeat CPU  0 instructions:  378000003 cycles:  781030529 heartbeat IPC: 0.11588 cumulative IPC: 0.39087 (Simulation time: 0 hr 19 min 25 sec) 
Heartbeat CPU  0 instructions:  379000001 cycles:  782985173 heartbeat IPC: 0.51160 cumulative IPC: 0.39121 (Simulation time: 0 hr 19 min 29 sec) 
Heartbeat CPU  0 instructions:  380000000 cycles:  784791085 heartbeat IPC: 0.55374 cumulative IPC: 0.39162 (Simulation time: 0 hr 19 min 32 sec) 
Heartbeat CPU  0 instructions:  381000002 cycles:  786773536 heartbeat IPC: 0.50443 cumulative IPC: 0.39193 (Simulation time: 0 hr 19 min 35 sec) 
Heartbeat CPU  0 instructions:  382000002 cycles:  788885611 heartbeat IPC: 0.47347 cumulative IPC: 0.39217 (Simulation time: 0 hr 19 min 38 sec) 
Heartbeat CPU  0 instructions:  383000002 cycles:  790897096 heartbeat IPC: 0.49715 cumulative IPC: 0.39246 (Simulation time: 0 hr 19 min 41 sec) 
Heartbeat CPU  0 instructions:  384000000 cycles:  792768171 heartbeat IPC: 0.53445 cumulative IPC: 0.39283 (Simulation time: 0 hr 19 min 45 sec) 
Heartbeat CPU  0 instructions:  385000003 cycles:  794730766 heartbeat IPC: 0.50953 cumulative IPC: 0.39314 (Simulation time: 0 hr 19 min 48 sec) 
Heartbeat CPU  0 instructions:  386000002 cycles:  796672268 heartbeat IPC: 0.51506 cumulative IPC: 0.39347 (Simulation time: 0 hr 19 min 51 sec) 
Heartbeat CPU  0 instructions:  387000001 cycles:  798478484 heartbeat IPC: 0.55364 cumulative IPC: 0.39387 (Simulation time: 0 hr 19 min 54 sec) 
Heartbeat CPU  0 instructions:  388000000 cycles:  800430395 heartbeat IPC: 0.51232 cumulative IPC: 0.39418 (Simulation time: 0 hr 19 min 57 sec) 
Heartbeat CPU  0 instructions:  389000003 cycles:  802387556 heartbeat IPC: 0.51095 cumulative IPC: 0.39449 (Simulation time: 0 hr 20 min 0 sec) 
Heartbeat CPU  0 instructions:  390000003 cycles:  804197416 heartbeat IPC: 0.55253 cumulative IPC: 0.39488 (Simulation time: 0 hr 20 min 3 sec) 
Heartbeat CPU  0 instructions:  391000001 cycles:  806122305 heartbeat IPC: 0.51951 cumulative IPC: 0.39521 (Simulation time: 0 hr 20 min 7 sec) 
Heartbeat CPU  0 instructions:  392000000 cycles:  808083745 heartbeat IPC: 0.50983 cumulative IPC: 0.39551 (Simulation time: 0 hr 20 min 10 sec) 
Heartbeat CPU  0 instructions:  393000000 cycles:  809965498 heartbeat IPC: 0.53142 cumulative IPC: 0.39586 (Simulation time: 0 hr 20 min 13 sec) 
Heartbeat CPU  0 instructions:  394000000 cycles:  811814485 heartbeat IPC: 0.54084 cumulative IPC: 0.39622 (Simulation time: 0 hr 20 min 16 sec) 
Heartbeat CPU  0 instructions:  395000002 cycles:  813787787 heartbeat IPC: 0.50677 cumulative IPC: 0.39651 (Simulation time: 0 hr 20 min 19 sec) 
Heartbeat CPU  0 instructions:  396000000 cycles:  815731664 heartbeat IPC: 0.51443 cumulative IPC: 0.39682 (Simulation time: 0 hr 20 min 22 sec) 
Heartbeat CPU  0 instructions:  397000001 cycles:  817530221 heartbeat IPC: 0.55600 cumulative IPC: 0.39720 (Simulation time: 0 hr 20 min 26 sec) 
Heartbeat CPU  0 instructions:  398000003 cycles:  819478655 heartbeat IPC: 0.51323 cumulative IPC: 0.39751 (Simulation time: 0 hr 20 min 29 sec) 
Heartbeat CPU  0 instructions:  399000001 cycles:  823307086 heartbeat IPC: 0.26120 cumulative IPC: 0.39681 (Simulation time: 0 hr 20 min 32 sec) 
Heartbeat CPU  0 instructions:  400000000 cycles:  837171558 heartbeat IPC: 0.07213 cumulative IPC: 0.39095 (Simulation time: 0 hr 20 min 36 sec) 
Heartbeat CPU  0 instructions:  401000002 cycles:  839108661 heartbeat IPC: 0.51624 cumulative IPC: 0.39126 (Simulation time: 0 hr 20 min 39 sec) 
Heartbeat CPU  0 instructions:  402000001 cycles:  841068533 heartbeat IPC: 0.51024 cumulative IPC: 0.39157 (Simulation time: 0 hr 20 min 43 sec) 
Heartbeat CPU  0 instructions:  403000003 cycles:  842949597 heartbeat IPC: 0.53162 cumulative IPC: 0.39191 (Simulation time: 0 hr 20 min 46 sec) 
Heartbeat CPU  0 instructions:  404000000 cycles:  844808411 heartbeat IPC: 0.53798 cumulative IPC: 0.39226 (Simulation time: 0 hr 20 min 49 sec) 
Heartbeat CPU  0 instructions:  405000001 cycles:  846773321 heartbeat IPC: 0.50893 cumulative IPC: 0.39255 (Simulation time: 0 hr 20 min 52 sec) 
Heartbeat CPU  0 instructions:  406000002 cycles:  848719373 heartbeat IPC: 0.51386 cumulative IPC: 0.39285 (Simulation time: 0 hr 20 min 55 sec) 
Heartbeat CPU  0 instructions:  407000001 cycles:  850517134 heartbeat IPC: 0.55625 cumulative IPC: 0.39323 (Simulation time: 0 hr 20 min 58 sec) 
Heartbeat CPU  0 instructions:  408000000 cycles:  852478891 heartbeat IPC: 0.50975 cumulative IPC: 0.39352 (Simulation time: 0 hr 21 min 2 sec) 
Heartbeat CPU  0 instructions:  409000001 cycles:  854435743 heartbeat IPC: 0.51103 cumulative IPC: 0.39382 (Simulation time: 0 hr 21 min 5 sec) 
Heartbeat CPU  0 instructions:  410000003 cycles:  856259498 heartbeat IPC: 0.54832 cumulative IPC: 0.39417 (Simulation time: 0 hr 21 min 8 sec) 
Heartbeat CPU  0 instructions:  411000000 cycles:  858174667 heartbeat IPC: 0.52215 cumulative IPC: 0.39448 (Simulation time: 0 hr 21 min 11 sec) 
Heartbeat CPU  0 instructions:  412000000 cycles:  860132469 heartbeat IPC: 0.51078 cumulative IPC: 0.39477 (Simulation time: 0 hr 21 min 14 sec) 
Heartbeat CPU  0 instructions:  413000002 cycles:  862033915 heartbeat IPC: 0.52592 cumulative IPC: 0.39509 (Simulation time: 0 hr 21 min 17 sec) 
Heartbeat CPU  0 instructions:  414000003 cycles:  863871237 heartbeat IPC: 0.54427 cumulative IPC: 0.39543 (Simulation time: 0 hr 21 min 20 sec) 
Heartbeat CPU  0 instructions:  415000002 cycles:  865827258 heartbeat IPC: 0.51124 cumulative IPC: 0.39572 (Simulation time: 0 hr 21 min 24 sec) 
Heartbeat CPU  0 instructions:  416000000 cycles:  867780154 heartbeat IPC: 0.51206 cumulative IPC: 0.39600 (Simulation time: 0 hr 21 min 27 sec) 
Heartbeat CPU  0 instructions:  417000003 cycles:  869586792 heartbeat IPC: 0.55352 cumulative IPC: 0.39636 (Simulation time: 0 hr 21 min 30 sec) 
Heartbeat CPU  0 instructions:  418000003 cycles:  871529615 heartbeat IPC: 0.51471 cumulative IPC: 0.39664 (Simulation time: 0 hr 21 min 33 sec) 
Heartbeat CPU  0 instructions:  419000003 cycles:  873492766 heartbeat IPC: 0.50939 cumulative IPC: 0.39692 (Simulation time: 0 hr 21 min 36 sec) 
Heartbeat CPU  0 instructions:  420000000 cycles:  875338775 heartbeat IPC: 0.54171 cumulative IPC: 0.39725 (Simulation time: 0 hr 21 min 39 sec) 
Heartbeat CPU  0 instructions:  421000001 cycles:  877230766 heartbeat IPC: 0.52854 cumulative IPC: 0.39756 (Simulation time: 0 hr 21 min 42 sec) 
Heartbeat CPU  0 instructions:  422000002 cycles:  888119955 heartbeat IPC: 0.09183 cumulative IPC: 0.39349 (Simulation time: 0 hr 21 min 46 sec) 
Heartbeat CPU  0 instructions:  423000003 cycles:  895042369 heartbeat IPC: 0.14446 cumulative IPC: 0.39140 (Simulation time: 0 hr 21 min 50 sec) 
Heartbeat CPU  0 instructions:  424000000 cycles:  896875152 heartbeat IPC: 0.54562 cumulative IPC: 0.39174 (Simulation time: 0 hr 21 min 53 sec) 
Heartbeat CPU  0 instructions:  425000003 cycles:  898834111 heartbeat IPC: 0.51048 cumulative IPC: 0.39202 (Simulation time: 0 hr 21 min 56 sec) 
Heartbeat CPU  0 instructions:  426000001 cycles:  900781261 heartbeat IPC: 0.51357 cumulative IPC: 0.39231 (Simulation time: 0 hr 22 min 0 sec) 
Heartbeat CPU  0 instructions:  427000000 cycles:  902581977 heartbeat IPC: 0.55533 cumulative IPC: 0.39266 (Simulation time: 0 hr 22 min 3 sec) 
Heartbeat CPU  0 instructions:  428000000 cycles:  904514133 heartbeat IPC: 0.51756 cumulative IPC: 0.39295 (Simulation time: 0 hr 22 min 6 sec) 
Heartbeat CPU  0 instructions:  429000002 cycles:  906474346 heartbeat IPC: 0.51015 cumulative IPC: 0.39323 (Simulation time: 0 hr 22 min 9 sec) 
Heartbeat CPU  0 instructions:  430000000 cycles:  908307168 heartbeat IPC: 0.54561 cumulative IPC: 0.39356 (Simulation time: 0 hr 22 min 12 sec) 
Heartbeat CPU  0 instructions:  431000000 cycles:  910200445 heartbeat IPC: 0.52818 cumulative IPC: 0.39386 (Simulation time: 0 hr 22 min 15 sec) 
Heartbeat CPU  0 instructions:  432000000 cycles:  912151537 heartbeat IPC: 0.51253 cumulative IPC: 0.39414 (Simulation time: 0 hr 22 min 19 sec) 
Heartbeat CPU  0 instructions:  433000003 cycles:  914203621 heartbeat IPC: 0.48731 cumulative IPC: 0.39436 (Simulation time: 0 hr 22 min 22 sec) 
Heartbeat CPU  0 instructions:  434000002 cycles:  916022430 heartbeat IPC: 0.54981 cumulative IPC: 0.39470 (Simulation time: 0 hr 22 min 25 sec) 
Heartbeat CPU  0 instructions:  435000001 cycles:  917977550 heartbeat IPC: 0.51148 cumulative IPC: 0.39497 (Simulation time: 0 hr 22 min 28 sec) 
Heartbeat CPU  0 instructions:  436000000 cycles:  919925799 heartbeat IPC: 0.51328 cumulative IPC: 0.39524 (Simulation time: 0 hr 22 min 31 sec) 
Heartbeat CPU  0 instructions:  437000000 cycles:  921727741 heartbeat IPC: 0.55496 cumulative IPC: 0.39558 (Simulation time: 0 hr 22 min 34 sec) 
Heartbeat CPU  0 instructions:  438000000 cycles:  923660100 heartbeat IPC: 0.51750 cumulative IPC: 0.39585 (Simulation time: 0 hr 22 min 38 sec) 
Heartbeat CPU  0 instructions:  439000001 cycles:  925617433 heartbeat IPC: 0.51090 cumulative IPC: 0.39611 (Simulation time: 0 hr 22 min 41 sec) 
Heartbeat CPU  0 instructions:  440000000 cycles:  927472571 heartbeat IPC: 0.53904 cumulative IPC: 0.39642 (Simulation time: 0 hr 22 min 44 sec) 
Heartbeat CPU  0 instructions:  441000001 cycles:  929343894 heartbeat IPC: 0.53438 cumulative IPC: 0.39672 (Simulation time: 0 hr 22 min 47 sec) 
Heartbeat CPU  0 instructions:  442000001 cycles:  931301018 heartbeat IPC: 0.51095 cumulative IPC: 0.39698 (Simulation time: 0 hr 22 min 50 sec) 
Heartbeat CPU  0 instructions:  443000002 cycles:  933230774 heartbeat IPC: 0.51820 cumulative IPC: 0.39725 (Simulation time: 0 hr 22 min 53 sec) 
Heartbeat CPU  0 instructions:  444000000 cycles:  938774846 heartbeat IPC: 0.18037 cumulative IPC: 0.39587 (Simulation time: 0 hr 22 min 57 sec) 
Heartbeat CPU  0 instructions:  445000003 cycles:  951127913 heartbeat IPC: 0.08095 cumulative IPC: 0.39146 (Simulation time: 0 hr 23 min 1 sec) 
Heartbeat CPU  0 instructions:  446000000 cycles:  953078176 heartbeat IPC: 0.51275 cumulative IPC: 0.39172 (Simulation time: 0 hr 23 min 4 sec) 
Heartbeat CPU  0 instructions:  447000003 cycles:  954846175 heartbeat IPC: 0.56561 cumulative IPC: 0.39207 (Simulation time: 0 hr 23 min 8 sec) 
Heartbeat CPU  0 instructions:  448000000 cycles:  956760649 heartbeat IPC: 0.52234 cumulative IPC: 0.39235 (Simulation time: 0 hr 23 min 11 sec) 
Heartbeat CPU  0 instructions:  449000000 cycles:  958701438 heartbeat IPC: 0.51525 cumulative IPC: 0.39262 (Simulation time: 0 hr 23 min 14 sec) 
Heartbeat CPU  0 instructions:  450000000 cycles:  960534091 heartbeat IPC: 0.54566 cumulative IPC: 0.39294 (Simulation time: 0 hr 23 min 17 sec) 
Heartbeat CPU  0 instructions:  451000000 cycles:  962378727 heartbeat IPC: 0.54211 cumulative IPC: 0.39324 (Simulation time: 0 hr 23 min 20 sec) 
Heartbeat CPU  0 instructions:  452000000 cycles:  964318135 heartbeat IPC: 0.51562 cumulative IPC: 0.39351 (Simulation time: 0 hr 23 min 24 sec) 
Heartbeat CPU  0 instructions:  453000001 cycles:  966224653 heartbeat IPC: 0.52452 cumulative IPC: 0.39379 (Simulation time: 0 hr 23 min 27 sec) 
Heartbeat CPU  0 instructions:  454000001 cycles:  968001086 heartbeat IPC: 0.56293 cumulative IPC: 0.39412 (Simulation time: 0 hr 23 min 30 sec) 
Heartbeat CPU  0 instructions:  455000000 cycles:  969935998 heartbeat IPC: 0.51682 cumulative IPC: 0.39439 (Simulation time: 0 hr 23 min 33 sec) 
Heartbeat CPU  0 instructions:  456000000 cycles:  971869107 heartbeat IPC: 0.51730 cumulative IPC: 0.39465 (Simulation time: 0 hr 23 min 37 sec) 
Heartbeat CPU  0 instructions:  457000000 cycles:  973647941 heartbeat IPC: 0.56217 cumulative IPC: 0.39498 (Simulation time: 0 hr 23 min 40 sec) 
Heartbeat CPU  0 instructions:  458000003 cycles:  975544461 heartbeat IPC: 0.52728 cumulative IPC: 0.39526 (Simulation time: 0 hr 23 min 43 sec) 
Heartbeat CPU  0 instructions:  459000000 cycles:  977489404 heartbeat IPC: 0.51415 cumulative IPC: 0.39551 (Simulation time: 0 hr 23 min 46 sec) 
Heartbeat CPU  0 instructions:  460000000 cycles:  979340358 heartbeat IPC: 0.54026 cumulative IPC: 0.39581 (Simulation time: 0 hr 23 min 50 sec) 
Heartbeat CPU  0 instructions:  461000000 cycles:  981165561 heartbeat IPC: 0.54788 cumulative IPC: 0.39611 (Simulation time: 0 hr 23 min 53 sec) 
Heartbeat CPU  0 instructions:  462000003 cycles:  983106843 heartbeat IPC: 0.51513 cumulative IPC: 0.39636 (Simulation time: 0 hr 23 min 56 sec) 
Heartbeat CPU  0 instructions:  463000003 cycles:  985024260 heartbeat IPC: 0.52153 cumulative IPC: 0.39663 (Simulation time: 0 hr 24 min 0 sec) 
Heartbeat CPU  0 instructions:  464000000 cycles:  986788594 heartbeat IPC: 0.56678 cumulative IPC: 0.39695 (Simulation time: 0 hr 24 min 3 sec) 
Heartbeat CPU  0 instructions:  465000000 cycles:  988714146 heartbeat IPC: 0.51933 cumulative IPC: 0.39721 (Simulation time: 0 hr 24 min 6 sec) 
Heartbeat CPU  0 instructions:  466000000 cycles:  990648966 heartbeat IPC: 0.51684 cumulative IPC: 0.39746 (Simulation time: 0 hr 24 min 9 sec) 
Heartbeat CPU  0 instructions:  467000000 cycles: 1003359663 heartbeat IPC: 0.07867 cumulative IPC: 0.39312 (Simulation time: 0 hr 24 min 14 sec) 
Heartbeat CPU  0 instructions:  468000000 cycles: 1008221442 heartbeat IPC: 0.20569 cumulative IPC: 0.39215 (Simulation time: 0 hr 24 min 17 sec) 
Heartbeat CPU  0 instructions:  469000002 cycles: 1010160682 heartbeat IPC: 0.51567 cumulative IPC: 0.39240 (Simulation time: 0 hr 24 min 21 sec) 
Heartbeat CPU  0 instructions:  470000000 cycles: 1012019082 heartbeat IPC: 0.53810 cumulative IPC: 0.39269 (Simulation time: 0 hr 24 min 24 sec) 
Heartbeat CPU  0 instructions:  471000002 cycles: 1013843392 heartbeat IPC: 0.54815 cumulative IPC: 0.39299 (Simulation time: 0 hr 24 min 27 sec) 
Heartbeat CPU  0 instructions:  472000000 cycles: 1015789491 heartbeat IPC: 0.51385 cumulative IPC: 0.39324 (Simulation time: 0 hr 24 min 31 sec) 
Heartbeat CPU  0 instructions:  473000003 cycles: 1017711111 heartbeat IPC: 0.52040 cumulative IPC: 0.39350 (Simulation time: 0 hr 24 min 34 sec) 
Heartbeat CPU  0 instructions:  474000002 cycles: 1019477982 heartbeat IPC: 0.56597 cumulative IPC: 0.39382 (Simulation time: 0 hr 24 min 37 sec) 
Heartbeat CPU  0 instructions:  475000003 cycles: 1021407723 heartbeat IPC: 0.51820 cumulative IPC: 0.39407 (Simulation time: 0 hr 24 min 41 sec) 
Heartbeat CPU  0 instructions:  476000000 cycles: 1023346531 heartbeat IPC: 0.51578 cumulative IPC: 0.39432 (Simulation time: 0 hr 24 min 44 sec) 
Heartbeat CPU  0 instructions:  477000003 cycles: 1025141685 heartbeat IPC: 0.55706 cumulative IPC: 0.39463 (Simulation time: 0 hr 24 min 48 sec) 
Heartbeat CPU  0 instructions:  478000003 cycles: 1027022099 heartbeat IPC: 0.53180 cumulative IPC: 0.39489 (Simulation time: 0 hr 24 min 51 sec) 
Heartbeat CPU  0 instructions:  479000000 cycles: 1028963340 heartbeat IPC: 0.51513 cumulative IPC: 0.39514 (Simulation time: 0 hr 24 min 54 sec) 
Heartbeat CPU  0 instructions:  480000000 cycles: 1030831777 heartbeat IPC: 0.53521 cumulative IPC: 0.39541 (Simulation time: 0 hr 24 min 58 sec) 
Heartbeat CPU  0 instructions:  481000000 cycles: 1032634046 heartbeat IPC: 0.55486 cumulative IPC: 0.39571 (Simulation time: 0 hr 25 min 1 sec) 
Heartbeat CPU  0 instructions:  482000000 cycles: 1034575055 heartbeat IPC: 0.51520 cumulative IPC: 0.39595 (Simulation time: 0 hr 25 min 4 sec) 
Heartbeat CPU  0 instructions:  483000001 cycles: 1036600774 heartbeat IPC: 0.49365 cumulative IPC: 0.39615 (Simulation time: 0 hr 25 min 8 sec) 
Heartbeat CPU  0 instructions:  484000000 cycles: 1038494785 heartbeat IPC: 0.52798 cumulative IPC: 0.39641 (Simulation time: 0 hr 25 min 11 sec) 
Heartbeat CPU  0 instructions:  485000001 cycles: 1040533975 heartbeat IPC: 0.49039 cumulative IPC: 0.39661 (Simulation time: 0 hr 25 min 15 sec) 
Heartbeat CPU  0 instructions:  486000001 cycles: 1042478365 heartbeat IPC: 0.51430 cumulative IPC: 0.39684 (Simulation time: 0 hr 25 min 18 sec) 
Heartbeat CPU  0 instructions:  487000000 cycles: 1044289844 heartbeat IPC: 0.55203 cumulative IPC: 0.39713 (Simulation time: 0 hr 25 min 20 sec) 
Heartbeat CPU  0 instructions:  488000000 cycles: 1046150722 heartbeat IPC: 0.53738 cumulative IPC: 0.39740 (Simulation time: 0 hr 25 min 23 sec) 
Heartbeat CPU  0 instructions:  489000001 cycles: 1053562824 heartbeat IPC: 0.13491 cumulative IPC: 0.39542 (Simulation time: 0 hr 25 min 26 sec) 
Heartbeat CPU  0 instructions:  490000003 cycles: 1063801737 heartbeat IPC: 0.09767 cumulative IPC: 0.39236 (Simulation time: 0 hr 25 min 30 sec) 
Heartbeat CPU  0 instructions:  491000001 cycles: 1065614048 heartbeat IPC: 0.55178 cumulative IPC: 0.39265 (Simulation time: 0 hr 25 min 33 sec) 
Heartbeat CPU  0 instructions:  492000000 cycles: 1067565085 heartbeat IPC: 0.51255 cumulative IPC: 0.39288 (Simulation time: 0 hr 25 min 35 sec) 
Heartbeat CPU  0 instructions:  493000000 cycles: 1069497534 heartbeat IPC: 0.51748 cumulative IPC: 0.39312 (Simulation time: 0 hr 25 min 38 sec) 
Heartbeat CPU  0 instructions:  494000002 cycles: 1071266722 heartbeat IPC: 0.56523 cumulative IPC: 0.39342 (Simulation time: 0 hr 25 min 41 sec) 
Heartbeat CPU  0 instructions:  495000000 cycles: 1073199315 heartbeat IPC: 0.51744 cumulative IPC: 0.39366 (Simulation time: 0 hr 25 min 44 sec) 
Heartbeat CPU  0 instructions:  496000000 cycles: 1075144082 heartbeat IPC: 0.51420 cumulative IPC: 0.39390 (Simulation time: 0 hr 25 min 46 sec) 
Heartbeat CPU  0 instructions:  497000001 cycles: 1076977406 heartbeat IPC: 0.54546 cumulative IPC: 0.39417 (Simulation time: 0 hr 25 min 49 sec) 
Heartbeat CPU  0 instructions:  498000001 cycles: 1078840146 heartbeat IPC: 0.53684 cumulative IPC: 0.39444 (Simulation time: 0 hr 25 min 52 sec) 
Heartbeat CPU  0 instructions:  499000001 cycles: 1080784195 heartbeat IPC: 0.51439 cumulative IPC: 0.39467 (Simulation time: 0 hr 25 min 55 sec) 
Heartbeat CPU  0 instructions:  500000000 cycles: 1082676630 heartbeat IPC: 0.52842 cumulative IPC: 0.39492 (Simulation time: 0 hr 25 min 58 sec) 
Heartbeat CPU  0 instructions:  501000002 cycles: 1084469593 heartbeat IPC: 0.55774 cumulative IPC: 0.39520 (Simulation time: 0 hr 26 min 0 sec) 
Heartbeat CPU  0 instructions:  502000002 cycles: 1086412114 heartbeat IPC: 0.51479 cumulative IPC: 0.39543 (Simulation time: 0 hr 26 min 3 sec) 
Heartbeat CPU  0 instructions:  503000002 cycles: 1088349813 heartbeat IPC: 0.51608 cumulative IPC: 0.39566 (Simulation time: 0 hr 26 min 6 sec) 
Heartbeat CPU  0 instructions:  504000000 cycles: 1090120531 heartbeat IPC: 0.56474 cumulative IPC: 0.39596 (Simulation time: 0 hr 26 min 8 sec) 
Heartbeat CPU  0 instructions:  505000002 cycles: 1092042571 heartbeat IPC: 0.52028 cumulative IPC: 0.39619 (Simulation time: 0 hr 26 min 12 sec) 
Heartbeat CPU  0 instructions:  506000002 cycles: 1093987824 heartbeat IPC: 0.51407 cumulative IPC: 0.39641 (Simulation time: 0 hr 26 min 14 sec) 
Heartbeat CPU  0 instructions:  507000001 cycles: 1095819739 heartbeat IPC: 0.54588 cumulative IPC: 0.39668 (Simulation time: 0 hr 26 min 17 sec) 
Heartbeat CPU  0 instructions:  508000000 cycles: 1097673217 heartbeat IPC: 0.53953 cumulative IPC: 0.39694 (Simulation time: 0 hr 26 min 20 sec) 
Heartbeat CPU  0 instructions:  509000000 cycles: 1099629543 heartbeat IPC: 0.51116 cumulative IPC: 0.39715 (Simulation time: 0 hr 26 min 23 sec) 
Heartbeat CPU  0 instructions:  510000003 cycles: 1101539638 heartbeat IPC: 0.52354 cumulative IPC: 0.39739 (Simulation time: 0 hr 26 min 26 sec) 
Heartbeat CPU  0 instructions:  511000001 cycles: 1103632344 heartbeat IPC: 0.47785 cumulative IPC: 0.39755 (Simulation time: 0 hr 26 min 28 sec) 
Heartbeat CPU  0 instructions:  512000000 cycles: 1117985374 heartbeat IPC: 0.06967 cumulative IPC: 0.39306 (Simulation time: 0 hr 26 min 32 sec) 
Heartbeat CPU  0 instructions:  513000000 cycles: 1121061236 heartbeat IPC: 0.32511 cumulative IPC: 0.39286 (Simulation time: 0 hr 26 min 35 sec) 
Heartbeat CPU  0 instructions:  514000001 cycles: 1122870670 heartbeat IPC: 0.55266 cumulative IPC: 0.39314 (Simulation time: 0 hr 26 min 38 sec) 
Heartbeat CPU  0 instructions:  515000002 cycles: 1124806791 heartbeat IPC: 0.51650 cumulative IPC: 0.39336 (Simulation time: 0 hr 26 min 41 sec) 
Heartbeat CPU  0 instructions:  516000000 cycles: 1126771985 heartbeat IPC: 0.50885 cumulative IPC: 0.39358 (Simulation time: 0 hr 26 min 44 sec) 
Heartbeat CPU  0 instructions:  517000002 cycles: 1128623288 heartbeat IPC: 0.54016 cumulative IPC: 0.39384 (Simulation time: 0 hr 26 min 47 sec) 
Heartbeat CPU  0 instructions:  518000000 cycles: 1130509610 heartbeat IPC: 0.53013 cumulative IPC: 0.39408 (Simulation time: 0 hr 26 min 50 sec) 
Heartbeat CPU  0 instructions:  519000000 cycles: 1132474311 heartbeat IPC: 0.50898 cumulative IPC: 0.39429 (Simulation time: 0 hr 26 min 53 sec) 
Heartbeat CPU  0 instructions:  520000000 cycles: 1134399154 heartbeat IPC: 0.51952 cumulative IPC: 0.39452 (Simulation time: 0 hr 26 min 56 sec) 
Heartbeat CPU  0 instructions:  521000003 cycles: 1136219306 heartbeat IPC: 0.54941 cumulative IPC: 0.39478 (Simulation time: 0 hr 26 min 59 sec) 
Heartbeat CPU  0 instructions:  522000001 cycles: 1138181740 heartbeat IPC: 0.50957 cumulative IPC: 0.39499 (Simulation time: 0 hr 27 min 2 sec) 
Heartbeat CPU  0 instructions:  523000001 cycles: 1140143395 heartbeat IPC: 0.50977 cumulative IPC: 0.39520 (Simulation time: 0 hr 27 min 5 sec) 
Heartbeat CPU  0 instructions:  524000000 cycles: 1141948549 heartbeat IPC: 0.55397 cumulative IPC: 0.39547 (Simulation time: 0 hr 27 min 9 sec) 
Heartbeat CPU  0 instructions:  525000000 cycles: 1143880185 heartbeat IPC: 0.51770 cumulative IPC: 0.39569 (Simulation time: 0 hr 27 min 12 sec) 
Heartbeat CPU  0 instructions:  526000002 cycles: 1145846305 heartbeat IPC: 0.50862 cumulative IPC: 0.39590 (Simulation time: 0 hr 27 min 15 sec) 
Heartbeat CPU  0 instructions:  527000002 cycles: 1147713297 heartbeat IPC: 0.53562 cumulative IPC: 0.39614 (Simulation time: 0 hr 27 min 17 sec) 
Heartbeat CPU  0 instructions:  528000000 cycles: 1149578009 heartbeat IPC: 0.53627 cumulative IPC: 0.39638 (Simulation time: 0 hr 27 min 20 sec) 
[...]
Heartbeat CPU  0 instructions:  551000001 cycles: 1207348043 heartbeat IPC: 0.55479 cumulative IPC: 0.39647 (Simulation time: 0 hr 28 min 27 sec) 
Heartbeat CPU  0 instructions:  552000000 cycles: 1209297425 heartbeat IPC: 0.51298 cumulative IPC: 0.39667 (Simulation time: 0 hr 28 min 30 sec) 
Heartbeat CPU  0 instructions:  553000002 cycles: 1211257745 heartbeat IPC: 0.51012 cumulative IPC: 0.39686 (Simulation time: 0 hr 28 min 33 sec) 
Heartbeat CPU  0 instructions:  554000002 cycles: 1213086292 heartbeat IPC: 0.54688 cumulative IPC: 0.39710 (Simulation time: 0 hr 28 min 36 sec) 
Heartbeat CPU  0 instructions:  555000003 cycles: 1214986779 heartbeat IPC: 0.52618 cumulative IPC: 0.39732 (Simulation time: 0 hr 28 min 39 sec) 
Heartbeat CPU  0 instructions:  556000000 cycles: 1218903700 heartbeat IPC: 0.25530 cumulative IPC: 0.39683 (Simulation time: 0 hr 28 min 42 sec) 
Heartbeat CPU  0 instructions:  557000002 cycles: 1232881683 heartbeat IPC: 0.07154 cumulative IPC: 0.39292 (Simulation time: 0 hr 28 min 46 sec) 
Heartbeat CPU  0 instructions:  558000003 cycles: 1234733892 heartbeat IPC: 0.53990 cumulative IPC: 0.39316 (Simulation time: 0 hr 28 min 49 sec) 
Heartbeat CPU  0 instructions:  559000000 cycles: 1236700862 heartbeat IPC: 0.50839 cumulative IPC: 0.39335 (Simulation time: 0 hr 28 min 52 sec) 
Heartbeat CPU  0 instructions:  560000000 cycles: 1238647307 heartbeat IPC: 0.51376 cumulative IPC: 0.39355 (Simulation time: 0 hr 28 min 55 sec) 
Heartbeat CPU  0 instructions:  561000002 cycles: 1240454477 heartbeat IPC: 0.55335 cumulative IPC: 0.39380 (Simulation time: 0 hr 28 min 58 sec) 
Heartbeat CPU  0 instructions:  562000002 cycles: 1242395916 heartbeat IPC: 0.51508 cumulative IPC: 0.39400 (Simulation time: 0 hr 29 min 1 sec) 
Heartbeat CPU  0 instructions:  563000001 cycles: 1244357716 heartbeat IPC: 0.50974 cumulative IPC: 0.39419 (Simulation time: 0 hr 29 min 3 sec) 
Heartbeat CPU  0 instructions:  564000000 cycles: 1246185398 heartbeat IPC: 0.54714 cumulative IPC: 0.39443 (Simulation time: 0 hr 29 min 6 sec) 
Heartbeat CPU  0 instructions:  565000003 cycles: 1248089349 heartbeat IPC: 0.52523 cumulative IPC: 0.39464 (Simulation time: 0 hr 29 min 9 sec) 
Heartbeat CPU  0 instructions:  566000000 cycles: 1250055223 heartbeat IPC: 0.50868 cumulative IPC: 0.39483 (Simulation time: 0 hr 29 min 12 sec) 
Heartbeat CPU  0 instructions:  567000003 cycles: 1251959855 heartbeat IPC: 0.52504 cumulative IPC: 0.39504 (Simulation time: 0 hr 29 min 15 sec) 
Heartbeat CPU  0 instructions:  568000000 cycles: 1253789270 heartbeat IPC: 0.54662 cumulative IPC: 0.39528 (Simulation time: 0 hr 29 min 18 sec) 
Heartbeat CPU  0 instructions:  569000000 cycles: 1255750908 heartbeat IPC: 0.50978 cumulative IPC: 0.39546 (Simulation time: 0 hr 29 min 21 sec) 
Heartbeat CPU  0 instructions:  570000002 cycles: 1257703948 heartbeat IPC: 0.51202 cumulative IPC: 0.39566 (Simulation time: 0 hr 29 min 24 sec) 
Heartbeat CPU  0 instructions:  571000000 cycles: 1259505988 heartbeat IPC: 0.55493 cumulative IPC: 0.39590 (Simulation time: 0 hr 29 min 26 sec) 
Heartbeat CPU  0 instructions:  572000000 cycles: 1261439787 heartbeat IPC: 0.51712 cumulative IPC: 0.39609 (Simulation time: 0 hr 29 min 29 sec) 
Heartbeat CPU  0 instructions:  573000002 cycles: 1263409321 heartbeat IPC: 0.50774 cumulative IPC: 0.39628 (Simulation time: 0 hr 29 min 32 sec) 
Heartbeat CPU  0 instructions:  574000001 cycles: 1265251014 heartbeat IPC: 0.54298 cumulative IPC: 0.39650 (Simulation time: 0 hr 29 min 35 sec) 
Heartbeat CPU  0 instructions:  575000003 cycles: 1267141468 heartbeat IPC: 0.52897 cumulative IPC: 0.39671 (Simulation time: 0 hr 29 min 38 sec) 
Heartbeat CPU  0 instructions:  576000000 cycles: 1269100930 heartbeat IPC: 0.51034 cumulative IPC: 0.39690 (Simulation time: 0 hr 29 min 41 sec) 
Heartbeat CPU  0 instructions:  577000002 cycles: 1271023021 heartbeat IPC: 0.52027 cumulative IPC: 0.39710 (Simulation time: 0 hr 29 min 44 sec) 
Heartbeat CPU  0 instructions:  578000002 cycles: 1272841237 heartbeat IPC: 0.54999 cumulative IPC: 0.39733 (Simulation time: 0 hr 29 min 46 sec) 
Heartbeat CPU  0 instructions:  579000003 cycles: 1283812834 heartbeat IPC: 0.09114 cumulative IPC: 0.39456 (Simulation time: 0 hr 29 min 50 sec) 
Heartbeat CPU  0 instructions:  580000000 cycles: 1290646995 heartbeat IPC: 0.14632 cumulative IPC: 0.39317 (Simulation time: 0 hr 29 min 53 sec) 
Heartbeat CPU  0 instructions:  581000003 cycles: 1292420221 heartbeat IPC: 0.56395 cumulative IPC: 0.39342 (Simulation time: 0 hr 29 min 56 sec) 
Heartbeat CPU  0 instructions:  582000001 cycles: 1294337850 heartbeat IPC: 0.52148 cumulative IPC: 0.39362 (Simulation time: 0 hr 29 min 59 sec) 
Heartbeat CPU  0 instructions:  583000002 cycles: 1296287721 heartbeat IPC: 0.51285 cumulative IPC: 0.39381 (Simulation time: 0 hr 30 min 2 sec) 
Heartbeat CPU  0 instructions:  584000000 cycles: 1298121414 heartbeat IPC: 0.54535 cumulative IPC: 0.39404 (Simulation time: 0 hr 30 min 5 sec) 
Heartbeat CPU  0 instructions:  585000003 cycles: 1300000039 heartbeat IPC: 0.53231 cumulative IPC: 0.39425 (Simulation time: 0 hr 30 min 8 sec) 
Heartbeat CPU  0 instructions:  586000003 cycles: 1302096272 heartbeat IPC: 0.47705 cumulative IPC: 0.39439 (Simulation time: 0 hr 30 min 10 sec) 
Heartbeat CPU  0 instructions:  587000001 cycles: 1304167334 heartbeat IPC: 0.48284 cumulative IPC: 0.39454 (Simulation time: 0 hr 30 min 13 sec) 
Heartbeat CPU  0 instructions:  588000000 cycles: 1305952418 heartbeat IPC: 0.56020 cumulative IPC: 0.39477 (Simulation time: 0 hr 30 min 16 sec) 
Heartbeat CPU  0 instructions:  589000000 cycles: 1307891753 heartbeat IPC: 0.51564 cumulative IPC: 0.39496 (Simulation time: 0 hr 30 min 19 sec) 
Heartbeat CPU  0 instructions:  590000001 cycles: 1309831417 heartbeat IPC: 0.51555 cumulative IPC: 0.39515 (Simulation time: 0 hr 30 min 22 sec) 
Heartbeat CPU  0 instructions:  591000000 cycles: 1311606019 heartbeat IPC: 0.56351 cumulative IPC: 0.39539 (Simulation time: 0 hr 30 min 25 sec) 
Heartbeat CPU  0 instructions:  592000000 cycles: 1313517384 heartbeat IPC: 0.52319 cumulative IPC: 0.39559 (Simulation time: 0 hr 30 min 27 sec) 
Heartbeat CPU  0 instructions:  593000002 cycles: 1315465557 heartbeat IPC: 0.51330 cumulative IPC: 0.39577 (Simulation time: 0 hr 30 min 30 sec) 
Heartbeat CPU  0 instructions:  594000002 cycles: 1317315155 heartbeat IPC: 0.54066 cumulative IPC: 0.39599 (Simulation time: 0 hr 30 min 33 sec) 
Heartbeat CPU  0 instructions:  595000003 cycles: 1319152538 heartbeat IPC: 0.54425 cumulative IPC: 0.39621 (Simulation time: 0 hr 30 min 36 sec) 
Heartbeat CPU  0 instructions:  596000000 cycles: 1321097069 heartbeat IPC: 0.51426 cumulative IPC: 0.39639 (Simulation time: 0 hr 30 min 39 sec) 
Heartbeat CPU  0 instructions:  597000003 cycles: 1323021496 heartbeat IPC: 0.51964 cumulative IPC: 0.39658 (Simulation time: 0 hr 30 min 42 sec) 
Heartbeat CPU  0 instructions:  598000000 cycles: 1324784581 heartbeat IPC: 0.56719 cumulative IPC: 0.39682 (Simulation time: 0 hr 30 min 44 sec) 
Heartbeat CPU  0 instructions:  599000000 cycles: 1326727525 heartbeat IPC: 0.51468 cumulative IPC: 0.39700 (Simulation time: 0 hr 30 min 47 sec) 
Heartbeat CPU  0 instructions:  600000000 cycles: 1328666790 heartbeat IPC: 0.51566 cumulative IPC: 0.39718 (Simulation time: 0 hr 30 min 50 sec) 
Finished CPU 0 instructions: 500000000 cycles: 1258861982 cumulative IPC: 0.39718 (Simulation time: 0 hr 30 min 50 sec) 

ChampSim completed all CPUs

[ROI Statistics]
Core_0_instructions 500000000
Core_0_cycles 1258861982
Core_0_IPC 0.39718

Core_0_branch_prediction_accuracy 99.17161
Core_0_branch_MPKI 0.01066
Core_0_average_ROB_occupancy_at_mispredict 253.69469

Core_0_L1D_total_access 254280988
Core_0_L1D_total_hit 250291090
Core_0_L1D_total_miss 3989898
Core_0_L1D_loads 171418331
Core_0_L1D_load_hit 168180971
Core_0_L1D_load_miss 3237360
Core_0_L1D_RFOs 82862657
Core_0_L1D_RFO_hit 82110119
Core_0_L1D_RFO_miss 752538
Core_0_L1D_prefetches 0
Core_0_L1D_prefetch_hit 0
Core_0_L1D_prefetch_miss 0
Core_0_L1D_writebacks 0
Core_0_L1D_writeback_hit 0
Core_0_L1D_writeback_miss 0
Core_0_L1D_prefetch_requested 0
Core_0_L1D_prefetch_dropped 0
Core_0_L1D_prefetch_issued 0
Core_0_L1D_prefetch_filled 0
Core_0_L1D_prefetch_useful 0
Core_0_L1D_prefetch_useless 0
Core_0_L1D_prefetch_late 0
Core_0_L1D_average_miss_latency 110.38462

Core_0_L1D_rq_access 255854359
Core_0_L1D_rq_forward 0
Core_0_L1D_rq_merged 84008888
Core_0_L1D_rq_to_cache 171450683
Core_0_L1D_rq_full 0

Core_0_L1D_wq_access 84479085
Core_0_L1D_wq_forward 394788
Core_0_L1D_wq_merged 1202262
Core_0_L1D_wq_to_cache 83276823
Core_0_L1D_wq_full 1200

Core_0_L1D_pq_access 0
Core_0_L1D_pq_forward 0
Core_0_L1D_pq_merged 0
Core_0_L1D_pq_to_cache 0
Core_0_L1D_pq_full 0

Core_0_L1D_acc_epochs 669433
Core_0_L1D_acc_level_0 669433
Core_0_L1D_acc_level_1 0
Core_0_L1D_acc_level_2 0
Core_0_L1D_acc_level_3 0
Core_0_L1D_acc_level_4 0
Core_0_L1D_acc_level_5 0
Core_0_L1D_acc_level_6 0
Core_0_L1D_acc_level_7 0
Core_0_L1D_acc_level_8 0
Core_0_L1D_acc_level_9 0

Core_0_L1I_total_access 133614236
Core_0_L1I_total_hit 133614236
Core_0_L1I_total_miss 0
Core_0_L1I_loads 133614236
Core_0_L1I_load_hit 133614236
Core_0_L1I_load_miss 0
Core_0_L1I_RFOs 0
Core_0_L1I_RFO_hit 0
Core_0_L1I_RFO_miss 0
Core_0_L1I_prefetches 0
Core_0_L1I_prefetch_hit 0
Core_0_L1I_prefetch_miss 0
Core_0_L1I_writebacks 0
Core_0_L1I_writeback_hit 0
Core_0_L1I_writeback_miss 0
Core_0_L1I_prefetch_requested 0
Core_0_L1I_prefetch_dropped 0
Core_0_L1I_prefetch_issued 0
Core_0_L1I_prefetch_filled 0
Core_0_L1I_prefetch_useful 0
Core_0_L1I_prefetch_useless 0
Core_0_L1I_prefetch_late 0
Core_0_L1I_average_miss_latency -nan

Core_0_L1I_rq_access 500000000
Core_0_L1I_rq_forward 0
Core_0_L1I_rq_merged 366385764
Core_0_L1I_rq_to_cache 133614236
Core_0_L1I_rq_full 0

Core_0_L1I_wq_access 0
Core_0_L1I_wq_forward 0
Core_0_L1I_wq_merged 0
Core_0_L1I_wq_to_cache 0
Core_0_L1I_wq_full 0

Core_0_L1I_pq_access 0
Core_0_L1I_pq_forward 0
Core_0_L1I_pq_merged 0
Core_0_L1I_pq_to_cache 0
Core_0_L1I_pq_full 0

Core_0_L1I_acc_epochs 669433
Core_0_L1I_acc_level_0 669433
Core_0_L1I_acc_level_1 0
Core_0_L1I_acc_level_2 0
Core_0_L1I_acc_level_3 0
Core_0_L1I_acc_level_4 0
Core_0_L1I_acc_level_5 0
Core_0_L1I_acc_level_6 0
Core_0_L1I_acc_level_7 0
Core_0_L1I_acc_level_8 0
Core_0_L1I_acc_level_9 0

Core_0_L2C_total_access 9965663
Core_0_L2C_total_hit 7381808
Core_0_L2C_total_miss 2583855
Core_0_L2C_loads 3237360
Core_0_L2C_load_hit 2461923
Core_0_L2C_load_miss 775437
Core_0_L2C_RFOs 752538
Core_0_L2C_RFO_hit 83
Core_0_L2C_RFO_miss 752455
Core_0_L2C_prefetches 5189449
Core_0_L2C_prefetch_hit 4134277
Core_0_L2C_prefetch_miss 1055172
Core_0_L2C_writebacks 786316
Core_0_L2C_writeback_hit 785525
Core_0_L2C_writeback_miss 791
Core_0_L2C_prefetch_requested 16839099
Core_0_L2C_prefetch_dropped 1463652
Core_0_L2C_prefetch_issued 15375447
Core_0_L2C_prefetch_filled 1237205
Core_0_L2C_prefetch_useful 1236139
Core_0_L2C_prefetch_useless 1053
Core_0_L2C_prefetch_late 25240
Core_0_L2C_average_miss_latency 136.21568

Core_0_L2C_rq_access 3989898
Core_0_L2C_rq_forward 0
Core_0_L2C_rq_merged 0
Core_0_L2C_rq_to_cache 3989898
Core_0_L2C_rq_full 0

Core_0_L2C_wq_access 786316
Core_0_L2C_wq_forward 0
Core_0_L2C_wq_merged 0
Core_0_L2C_wq_to_cache 786316
Core_0_L2C_wq_full 0

Core_0_L2C_pq_access 15375447
Core_0_L2C_pq_forward 0
Core_0_L2C_pq_merged 494975
Core_0_L2C_pq_to_cache 14880472
Core_0_L2C_pq_full 0

Core_0_L2C_acc_epochs 669433
Core_0_L2C_acc_level_0 190503
Core_0_L2C_acc_level_1 82787
Core_0_L2C_acc_level_2 73845
Core_0_L2C_acc_level_3 55397
Core_0_L2C_acc_level_4 32693
Core_0_L2C_acc_level_5 60087
Core_0_L2C_acc_level_6 32849
Core_0_L2C_acc_level_7 26731
Core_0_L2C_acc_level_8 19812
Core_0_L2C_acc_level_9 94729

Core_0_LLC_total_access 10576221
Core_0_LLC_total_hit 7311382
Core_0_LLC_total_miss 3264839
Core_0_LLC_loads 750208
Core_0_LLC_load_hit 671372
Core_0_LLC_load_miss 78836
Core_0_LLC_RFOs 752455
Core_0_LLC_RFO_hit 17207
Core_0_LLC_RFO_miss 735248
Core_0_LLC_prefetches 8320567
Core_0_LLC_prefetch_hit 6564984
Core_0_LLC_prefetch_miss 1755583
Core_0_LLC_writebacks 752991
Core_0_LLC_writeback_hit 57819
Core_0_LLC_writeback_miss 695172
Core_0_LLC_prefetch_requested 0
Core_0_LLC_prefetch_dropped 0
Core_0_LLC_prefetch_issued 0
Core_0_LLC_prefetch_filled 2078239
Core_0_LLC_prefetch_useful 823737
Core_0_LLC_prefetch_useless 1237838
Core_0_LLC_prefetch_late 1514
Core_0_LLC_average_miss_latency 177.96905

Core_0_LLC_rq_access 1502663
Core_0_LLC_rq_forward 0
Core_0_LLC_rq_merged 0
Core_0_LLC_rq_to_cache 1502663
Core_0_LLC_rq_full 0

Core_0_LLC_wq_access 752991
Core_0_LLC_wq_forward 0
Core_0_LLC_wq_merged 0
Core_0_LLC_wq_to_cache 752991
Core_0_LLC_wq_full 0

Core_0_LLC_pq_access 9860510
Core_0_LLC_pq_forward 0
Core_0_LLC_pq_merged 16371
Core_0_LLC_pq_to_cache 9844139
Core_0_LLC_pq_full 0

Core_0_LLC_acc_epochs 1297527
Core_0_LLC_acc_level_0 751350
Core_0_LLC_acc_level_1 191874
Core_0_LLC_acc_level_2 137414
Core_0_LLC_acc_level_3 59365
Core_0_LLC_acc_level_4 21637
Core_0_LLC_acc_level_5 78331
Core_0_LLC_acc_level_6 17757
Core_0_LLC_acc_level_7 11383
Core_0_LLC_acc_level_8 5026
Core_0_LLC_acc_level_9 23390

Core_0_major_page_fault 0
Core_0_minor_page_fault 23870

spp.pref.total 16839099
spp.pref.at_L2 2107749
spp.pref.at_LLC 14731350

spp.depth.max 10
spp.depth.min 0
spp.depth.avg 5

spp.breadth.max 2
spp.breadth.min 0
spp.breadth.avg 0

delta_1 9464492
delta_15 2856220
delta_16 2807255
delta_-30 2004695
delta_-15 976199
delta_-14 913172
delta_2 56520
delta_-1 30647
delta_-5 21036
delta_31 14938
delta_30 10303
delta_-2 10103
delta_-3 8761
delta_4 6918
delta_-7 6607
delta_-22 4944
delta_-26 4294
delta_26 4287
delta_8 3951
delta_27 3828
delta_-19 3566
delta_-6 2265
delta_18 2262
delta_-23 2244
delta_48 2123
delta_-4 2011
delta_7 1377
delta_20 1237
delta_-44 643
delta_24 553
delta_-46 414
delta_-56 367
delta_52 267
delta_51 241
delta_11 231
delta_25 228
delta_6 169
delta_29 146
delta_21 129
delta_-11 112
delta_13 104
delta_5 101
delta_-50 95
delta_-27 73
delta_-24 66
delta_17 58
delta_-12 43
delta_-35 40
delta_-49 38
delta_3 35
delta_55 28
delta_-38 27
delta_33 24
delta_14 22
delta_-32 22
delta_19 13
delta_-10 13
delta_-55 12
delta_36 11
delta_-47 9
delta_39 6
delta_53 6
delta_10 5
delta_56 5
delta_54 5
delta_40 3
delta_-17 2
delta_-57 2
delta_-18 1
delta_23 1

depth_1_delta_1 1722369
depth_1_delta_16 596178
depth_1_delta_15 571769
depth_1_delta_-30 383780
depth_1_delta_-15 230552
depth_1_delta_-14 209065
depth_1_delta_2 12422
depth_1_delta_30 10036
depth_1_delta_-1 9985
depth_1_delta_31 9939
depth_1_delta_-2 6139
depth_1_delta_-5 4599
depth_1_delta_8 2839
depth_1_delta_-3 2521
depth_1_delta_4 2397
depth_1_delta_-22 2352
depth_1_delta_48 2123
depth_1_delta_-7 1903
depth_1_delta_26 1580
depth_1_delta_27 1512
depth_1_delta_-26 1399
depth_1_delta_-6 1183
depth_1_delta_-19 1034
depth_1_delta_-4 1024
depth_1_delta_18 763
depth_1_delta_7 556
depth_1_delta_-23 470
depth_1_delta_20 424
depth_1_delta_24 369
depth_1_delta_-44 329
depth_1_delta_52 266
depth_1_delta_-46 227
depth_1_delta_-56 219
depth_1_delta_11 213
depth_1_delta_51 196
depth_1_delta_25 165
depth_1_delta_29 146
depth_1_delta_6 129
depth_1_delta_21 107
depth_1_delta_-50 94
depth_1_delta_5 82
depth_1_delta_-24 62
depth_1_delta_13 62
depth_1_delta_-27 57
depth_1_delta_17 57
depth_1_delta_-11 53
depth_1_delta_-49 38
depth_1_delta_3 35
depth_1_delta_-12 35
depth_1_delta_-35 32
depth_1_delta_55 28
depth_1_delta_-38 25
depth_1_delta_33 23
depth_1_delta_14 21
depth_1_delta_-32 20
depth_1_delta_19 13
depth_1_delta_-10 13
depth_1_delta_-55 11
depth_1_delta_36 11
depth_1_delta_-47 9
depth_1_delta_39 6
depth_1_delta_53 6
depth_1_delta_10 5
depth_1_delta_56 5
depth_1_delta_54 5
depth_1_delta_40 3
depth_1_delta_-17 2
depth_1_delta_-57 2
depth_1_delta_-18 1
depth_1_delta_23 1
depth_2_delta_1 1677967
depth_2_delta_15 578549
depth_2_delta_16 559643
depth_2_delta_-30 393988
depth_2_delta_-15 221937
depth_2_delta_-14 195460
depth_2_delta_2 11380
depth_2_delta_-1 8640
depth_2_delta_-5 4656
depth_2_delta_31 4102
depth_2_delta_-2 3132
depth_2_delta_-3 2622
depth_2_delta_-22 2053
depth_2_delta_4 1518
depth_2_delta_-7 1512
depth_2_delta_26 1384
depth_2_delta_-26 1322
depth_2_delta_27 1257
depth_2_delta_-19 1026
depth_2_delta_8 932
depth_2_delta_-6 835
depth_2_delta_18 730
depth_2_delta_-4 494
depth_2_delta_-23 473
depth_2_delta_7 338
depth_2_delta_20 292
depth_2_delta_30 258
depth_2_delta_-44 218
depth_2_delta_-46 182
depth_2_delta_-56 144
depth_2_delta_24 112
depth_2_delta_25 63
depth_2_delta_51 45
depth_2_delta_13 42
depth_2_delta_6 26
depth_2_delta_-11 26
depth_2_delta_21 19
depth_2_delta_5 19
depth_2_delta_-27 16
depth_2_delta_11 15
depth_2_delta_-12 7
depth_2_delta_-35 6
depth_2_delta_-24 4
depth_2_delta_-38 2
depth_2_delta_-32 2
depth_2_delta_14 1
depth_2_delta_-50 1
depth_2_delta_52 1
depth_2_delta_-55 1
depth_2_delta_17 1
depth_2_delta_33 1
depth_3_delta_1 1630923
depth_3_delta_15 561157
depth_3_delta_16 547603
depth_3_delta_-30 389388
depth_3_delta_-15 180255
depth_3_delta_-14 176537
depth_3_delta_2 10121
depth_3_delta_-1 4540
depth_3_delta_-5 4380
depth_3_delta_-3 2450
depth_3_delta_-7 2256
depth_3_delta_4 1290
depth_3_delta_26 1147
depth_3_delta_-26 1064
depth_3_delta_31 897
depth_3_delta_27 839
depth_3_delta_-19 801
depth_3_delta_-2 697
depth_3_delta_-22 522
depth_3_delta_18 491
depth_3_delta_-23 470
depth_3_delta_20 297
depth_3_delta_7 274
depth_3_delta_-4 253
depth_3_delta_-6 225
depth_3_delta_8 105
depth_3_delta_-44 96
depth_3_delta_24 72
depth_3_delta_-11 15
depth_3_delta_6 14
depth_3_delta_30 9
depth_3_delta_-46 5
depth_3_delta_-56 4
depth_3_delta_21 3
depth_3_delta_11 3
depth_3_delta_-35 2
depth_3_delta_-12 1
depth_4_delta_1 1577074
depth_4_delta_16 510303
depth_4_delta_15 509037
depth_4_delta_-30 364378
depth_4_delta_-15 167105
depth_4_delta_-14 162726
depth_4_delta_2 9162
depth_4_delta_-1 3055
depth_4_delta_-5 2947
depth_4_delta_-3 1147
depth_4_delta_4 1086
depth_4_delta_-7 930
depth_4_delta_-19 483
depth_4_delta_-26 463
depth_4_delta_-23 456
depth_4_delta_18 271
depth_4_delta_20 211
depth_4_delta_27 202
depth_4_delta_7 198
depth_4_delta_-4 190
depth_4_delta_26 168
depth_4_delta_-2 135
depth_4_delta_8 75
depth_4_delta_-6 22
depth_4_delta_-22 17
depth_4_delta_-11 10
depth_5_delta_1 1376592
depth_5_delta_15 431475
depth_5_delta_16 402616
depth_5_delta_-30 308680
depth_5_delta_-15 124636
depth_5_delta_-14 115643
depth_5_delta_2 8428
depth_5_delta_-1 2825
depth_5_delta_-5 2804
depth_5_delta_4 581
depth_5_delta_-23 319
depth_5_delta_-19 222
depth_5_delta_-4 50
depth_5_delta_-26 46
depth_5_delta_-3 21
depth_5_delta_27 16
depth_5_delta_20 13
depth_5_delta_7 11
depth_5_delta_26 8
depth_5_delta_18 7
depth_5_delta_-7 6
depth_5_delta_-11 6
depth_6_delta_1 956977
depth_6_delta_15 186000
depth_6_delta_16 172942
depth_6_delta_-30 150211
depth_6_delta_-14 49149
depth_6_delta_-15 46771
depth_6_delta_2 4640
depth_6_delta_-5 1527
depth_6_delta_-1 1479
depth_6_delta_-23 55
depth_6_delta_4 46
depth_6_delta_-11 2
depth_6_delta_27 2
depth_7_delta_1 417825
depth_7_delta_15 18015
depth_7_delta_16 17773
depth_7_delta_-30 14090
depth_7_delta_-15 4924
depth_7_delta_-14 4560
depth_7_delta_2 361
depth_7_delta_-5 123
depth_7_delta_-1 123
depth_7_delta_-23 1
depth_8_delta_1 90392
depth_8_delta_15 216
depth_8_delta_16 196
depth_8_delta_-30 178
depth_8_delta_-14 32
depth_8_delta_-15 19
depth_8_delta_2 6
depth_9_delta_1 14340
depth_9_delta_-30 2
depth_9_delta_15 2
depth_9_delta_16 1
depth_10_delta_1 33

Channel_0_RQ_row_buffer_hit 627283
Channel_0_RQ_row_buffer_miss 1942384
Channel_0_WQ_row_buffer_hit 91847
Channel_0_WQ_row_buffer_miss 660975
Channel_0_WQ_full 0
Channel_0_dbus_congested 1129338

avg_congested_cycle 10

DRAM_bw_pochs 5190105
DRAM_bw_level_0 4933874
DRAM_bw_level_1 175370
DRAM_bw_level_2 54188
DRAM_bw_level_3 26673
