*************************************************
   ChampSim Multicore Out-of-Order Simulator
   Last compiled: Dec 11 2024 17:59:53
*************************************************
parsing config file: /home/functionmain/桌面/Pythia/config/pythia.ini

trace_0 /home/functionmain/桌面/Pythia/traces/436.cactusADM-1804B.champsimtrace.xz
adding L2C_PREFETCHER: Scooby
Initialize SHIP state
warmup_instructions 100000000
simulation_instructions 500000000
champsim_seed 271
measure_ipc 0
measure_ipc_epoch 1000
measure_dram_bw 1
measure_dram_bw_epoch 256
measure_cache_acc 1
measure_cache_acc_epoch 1024
l1d_perfect 0
l2c_perfect 0
llc_perfect 0
l1d_semi_perfect 0
l2c_semi_perfect 0
llc_semi_perfect 0
semi_perfect_cache_page_buffer_size 64

num_cpus 1
cpu_freq 4000
dram_io_freq 9600
page_size 4096
block_size 64
max_read_per_cycle 8
max_fill_per_cycle 1
dram_channels 1
log2_dram_channels 0
dram_ranks 1
dram_banks 8
dram_rows 65536
dram_columns 128
dram_row_size 8
dram_size 4096
dram_pages 1048576

fetch_width 6
decode_width 6
exec_width 4
lq_width 2
sq_width 2
retire_width 4
scheduler_size 128
branch_mispredict_penalty 20
rob_size 256
lq_size 72
sq_size 56
num_instr_destinations_sparc 4
num_instr_destinations 2
num_instr_sources 4

itlb_set 16
itlb_way 8
itlb_rq_size 16
itlb_wq_size 16
itlb_pq_size 0
itlb_mshr_size 8
itlb_latency 1

dtlb_set 16
dtlb_way 4
dtlb_rq_size 16
dtlb_wq_size 16
dtlb_pq_size 0
dtlb_mshr_size 8
dtlb_latency 1

stlb_set 128
stlb_way 12
stlb_rq_size 32
stlb_wq_size 32
stlb_pq_size 0
stlb_mshr_size 16
stlb_latency 8

l1i_size 32
l1i_set 64
l1i_way 8
l1i_rq_size 64
l1i_wq_size 64
l1i_pq_size 8
l1i_mshr_size 8
l1i_latency 1

l1d_size 32
l1d_set 64
l1d_way 8
l1d_rq_size 64
l1d_wq_size 64
l1d_pq_size 8
l1d_mshr_size 16
l1d_latency 4

l2c_size 256
l2c_set 512
l2c_way 8
l2c_rq_size 32
l2c_wq_size 32
l2c_pq_size 32
l2c_mshr_size 32
l2c_latency 10

llc_size 2048
llc_set 2048
llc_way 16
llc_rq_size 32
llc_wq_size 32
llc_pq_size 32
llc_mshr_size 64
llc_latency 20

dram_channel_width 8
dram_wq_size 64
dram_rq_size 64
tRP 15
tRCD 15
tCAS 12.5
dram_dbus_turn_around_time 30
dram_write_high_wm 56
dram_write_low_wm 48
min_dram_writes_per_switch 16
dram_mtps 9600
dram_dbus_return_time 3

scooby_alpha 0.0065088
scooby_gamma 0.556301
scooby_epsilon 0.00182284
scooby_state_num_bits 10
scooby_max_states 1024
scooby_seed 200
scooby_policy EGreedy
scooby_learning_type SARSA
scooby_actions 1,3,4,5,10,11,12,22,23,30,32,-1,-3,-6,0,
scooby_max_actions 15
scooby_pt_size 256
scooby_st_size 64
scooby_max_pcs 5
scooby_max_offsets 5
scooby_max_deltas 5
scooby_reward_none -4
scooby_reward_incorrect -8
scooby_reward_correct_untimely 12
scooby_reward_correct_timely 20
scooby_brain_zero_init 0
scooby_enable_reward_all 0
scooby_enable_track_multiple 0
scooby_enable_reward_out_of_bounds 1
scooby_reward_out_of_bounds -12
scooby_state_type 1
scooby_state_hash_type 11
scooby_access_debug 0
scooby_print_access_debug 0
scooby_print_access_debug_pc deadbeef
scooby_print_access_debug_pc_count 0
scooby_print_trace 0
scooby_enable_state_action_stats 1
scooby_enable_reward_tracker_hit 0
scooby_reward_tracker_hit -2
scooby_enable_featurewise_engine 1
scooby_pref_degree 1
scooby_enable_dyn_degree 1
scooby_max_to_avg_q_thresholds 0.5,1,2,
scooby_dyn_degrees 1,2,4,4,
scooby_multi_deg_select_type 2
scooby_last_pref_offset_conf_thresholds 1,3,8,
scooby_dyn_degrees_type2 1,2,4,6,
scooby_action_tracker_size 2
scooby_high_bw_thresh 4
scooby_enable_hbw_reward 1
scooby_reward_hbw_correct_timely 20
scooby_reward_hbw_correct_untimely 12
scooby_reward_hbw_incorrect -14
scooby_reward_hbw_none -2
scooby_reward_hbw_out_of_bounds -12
scooby_reward_hbw_tracker_hit -2
scooby_last_pref_offset_conf_thresholds_hbw 1,3,8,
scooby_dyn_degrees_type2_hbw 1,2,4,6,

le_enable_trace 0
le_trace_interval 0
le_trace_file_name 
le_trace_state 0
le_enable_score_plot 0
le_plot_file_name 
le_plot_actions 
le_enable_action_trace 0
le_action_trace_interval 0
le_action_trace_name 
le_enable_action_plot 0

le_featurewise_active_features PC, PC_Delta
le_featurewise_num_tilings 3,3,
le_featurewise_num_tiles 128,128,
le_featurewise_hash_types 2,2,
le_featurewise_enable_tiling_offset 1,1,
le_featurewise_max_q_thresh 0.5
le_featurewise_enable_action_fallback 1
le_featurewise_feature_weights 1,1,
le_featurewise_enable_dynamic_weight 0
le_featurewise_weight_gradient 0.001
le_featurewise_disable_adjust_weight_all_features_align 1
le_featurewise_selective_update 0
le_featurewise_pooling_type 2
le_featurewise_enable_dyn_action_fallback 1
le_featurewise_bw_acc_check_level 1
le_featurewise_acc_thresh 2
le_featurewise_enable_trace 0
le_featurewise_trace_feature_type 0
le_featurewise_trace_feature 
le_featurewise_trace_interval 0
le_featurewise_trace_record_count 0
le_featurewise_trace_file_name 
le_featurewise_enable_score_plot 0
le_featurewise_plot_actions 
le_featurewise_plot_file_name 


Heartbeat CPU  0 instructions:    1000000 cycles:     702364 heartbeat IPC: 1.42376 cumulative IPC: 1.42376 (Simulation time: 0 hr 0 min 2 sec) 
Heartbeat CPU  0 instructions:    2000000 cycles:    1404603 heartbeat IPC: 1.42402 cumulative IPC: 1.42389 (Simulation time: 0 hr 0 min 4 sec) 
Heartbeat CPU  0 instructions:    3000000 cycles:    2106947 heartbeat IPC: 1.42380 cumulative IPC: 1.42386 (Simulation time: 0 hr 0 min 7 sec) 
Heartbeat CPU  0 instructions:    4000000 cycles:    2809274 heartbeat IPC: 1.42384 cumulative IPC: 1.42386 (Simulation time: 0 hr 0 min 9 sec) 
Heartbeat CPU  0 instructions:    5000000 cycles:    3511484 heartbeat IPC: 1.42408 cumulative IPC: 1.42390 (Simulation time: 0 hr 0 min 11 sec) 
Heartbeat CPU  0 instructions:    6000000 cycles:    4213862 heartbeat IPC: 1.42373 cumulative IPC: 1.42387 (Simulation time: 0 hr 0 min 14 sec) 
Heartbeat CPU  0 instructions:    7000001 cycles:    4916265 heartbeat IPC: 1.42369 cumulative IPC: 1.42385 (Simulation time: 0 hr 0 min 16 sec) 
Heartbeat CPU  0 instructions:    8000000 cycles:    5618385 heartbeat IPC: 1.42426 cumulative IPC: 1.42390 (Simulation time: 0 hr 0 min 19 sec) 
Heartbeat CPU  0 instructions:    9000001 cycles:    6320892 heartbeat IPC: 1.42347 cumulative IPC: 1.42385 (Simulation time: 0 hr 0 min 21 sec) 
Heartbeat CPU  0 instructions:   10000000 cycles:    7023113 heartbeat IPC: 1.42405 cumulative IPC: 1.42387 (Simulation time: 0 hr 0 min 23 sec) 
Heartbeat CPU  0 instructions:   11000002 cycles:    7725333 heartbeat IPC: 1.42406 cumulative IPC: 1.42389 (Simulation time: 0 hr 0 min 26 sec) 
Heartbeat CPU  0 instructions:   12000000 cycles:    8427510 heartbeat IPC: 1.42414 cumulative IPC: 1.42391 (Simulation time: 0 hr 0 min 28 sec) 
Heartbeat CPU  0 instructions:   13000000 cycles:    9130101 heartbeat IPC: 1.42330 cumulative IPC: 1.42386 (Simulation time: 0 hr 0 min 31 sec) 
Heartbeat CPU  0 instructions:   14000002 cycles:    9832363 heartbeat IPC: 1.42397 cumulative IPC: 1.42387 (Simulation time: 0 hr 0 min 33 sec) 
Heartbeat CPU  0 instructions:   15000002 cycles:   10534322 heartbeat IPC: 1.42458 cumulative IPC: 1.42392 (Simulation time: 0 hr 0 min 35 sec) 
Heartbeat CPU  0 instructions:   16000000 cycles:   11236896 heartbeat IPC: 1.42333 cumulative IPC: 1.42388 (Simulation time: 0 hr 0 min 38 sec) 
Heartbeat CPU  0 instructions:   17000000 cycles:   11939437 heartbeat IPC: 1.42340 cumulative IPC: 1.42385 (Simulation time: 0 hr 0 min 40 sec) 
Heartbeat CPU  0 instructions:   18000002 cycles:   12600024 heartbeat IPC: 1.51381 cumulative IPC: 1.42857 (Simulation time: 0 hr 0 min 43 sec) 
Heartbeat CPU  0 instructions:   19000000 cycles:   13234571 heartbeat IPC: 1.57592 cumulative IPC: 1.43563 (Simulation time: 0 hr 0 min 45 sec) 
Heartbeat CPU  0 instructions:   20000000 cycles:   13937094 heartbeat IPC: 1.42344 cumulative IPC: 1.43502 (Simulation time: 0 hr 0 min 48 sec) 
Heartbeat CPU  0 instructions:   21000000 cycles:   14639521 heartbeat IPC: 1.42364 cumulative IPC: 1.43447 (Simulation time: 0 hr 0 min 50 sec) 
Heartbeat CPU  0 instructions:   22000002 cycles:   15341847 heartbeat IPC: 1.42384 cumulative IPC: 1.43399 (Simulation time: 0 hr 0 min 52 sec) 
Heartbeat CPU  0 instructions:   23000001 cycles:   16044228 heartbeat IPC: 1.42373 cumulative IPC: 1.43354 (Simulation time: 0 hr 0 min 55 sec) 
Heartbeat CPU  0 instructions:   24000000 cycles:   16746387 heartbeat IPC: 1.42418 cumulative IPC: 1.43314 (Simulation time: 0 hr 0 min 57 sec) 
Heartbeat CPU  0 instructions:   25000001 cycles:   17448715 heartbeat IPC: 1.42384 cumulative IPC: 1.43277 (Simulation time: 0 hr 1 min 0 sec) 
Heartbeat CPU  0 instructions:   26000003 cycles:   18151313 heartbeat IPC: 1.42329 cumulative IPC: 1.43240 (Simulation time: 0 hr 1 min 2 sec) 
Heartbeat CPU  0 instructions:   27000003 cycles:   18853561 heartbeat IPC: 1.42400 cumulative IPC: 1.43209 (Simulation time: 0 hr 1 min 5 sec) 
Heartbeat CPU  0 instructions:   28000000 cycles:   19555707 heartbeat IPC: 1.42420 cumulative IPC: 1.43181 (Simulation time: 0 hr 1 min 7 sec) 
Heartbeat CPU  0 instructions:   29000000 cycles:   20258177 heartbeat IPC: 1.42355 cumulative IPC: 1.43152 (Simulation time: 0 hr 1 min 9 sec) 
Heartbeat CPU  0 instructions:   30000003 cycles:   20960598 heartbeat IPC: 1.42365 cumulative IPC: 1.43126 (Simulation time: 0 hr 1 min 12 sec) 
Heartbeat CPU  0 instructions:   31000003 cycles:   21662570 heartbeat IPC: 1.42456 cumulative IPC: 1.43104 (Simulation time: 0 hr 1 min 14 sec) 
Heartbeat CPU  0 instructions:   32000000 cycles:   22364640 heartbeat IPC: 1.42436 cumulative IPC: 1.43083 (Simulation time: 0 hr 1 min 17 sec) 
Heartbeat CPU  0 instructions:   33000001 cycles:   23067432 heartbeat IPC: 1.42290 cumulative IPC: 1.43059 (Simulation time: 0 hr 1 min 19 sec) 
Heartbeat CPU  0 instructions:   34000000 cycles:   23769560 heartbeat IPC: 1.42424 cumulative IPC: 1.43040 (Simulation time: 0 hr 1 min 21 sec) 
Heartbeat CPU  0 instructions:   35000001 cycles:   24471809 heartbeat IPC: 1.42400 cumulative IPC: 1.43022 (Simulation time: 0 hr 1 min 24 sec) 
Heartbeat CPU  0 instructions:   36000000 cycles:   25174099 heartbeat IPC: 1.42391 cumulative IPC: 1.43004 (Simulation time: 0 hr 1 min 26 sec) 
Heartbeat CPU  0 instructions:   37000000 cycles:   25876708 heartbeat IPC: 1.42327 cumulative IPC: 1.42986 (Simulation time: 0 hr 1 min 29 sec) 
Heartbeat CPU  0 instructions:   38000001 cycles:   26578919 heartbeat IPC: 1.42407 cumulative IPC: 1.42970 (Simulation time: 0 hr 1 min 31 sec) 
Heartbeat CPU  0 instructions:   39000000 cycles:   27281218 heartbeat IPC: 1.42389 cumulative IPC: 1.42955 (Simulation time: 0 hr 1 min 33 sec) 
Heartbeat CPU  0 instructions:   40000000 cycles:   27983518 heartbeat IPC: 1.42389 cumulative IPC: 1.42941 (Simulation time: 0 hr 1 min 36 sec) 
Heartbeat CPU  0 instructions:   41000000 cycles:   28587720 heartbeat IPC: 1.65508 cumulative IPC: 1.43418 (Simulation time: 0 hr 1 min 39 sec) 
Heartbeat CPU  0 instructions:   42000002 cycles:   29279007 heartbeat IPC: 1.44658 cumulative IPC: 1.43447 (Simulation time: 0 hr 1 min 41 sec) 
Heartbeat CPU  0 instructions:   43000002 cycles:   29981417 heartbeat IPC: 1.42367 cumulative IPC: 1.43422 (Simulation time: 0 hr 1 min 43 sec) 
Heartbeat CPU  0 instructions:   44000000 cycles:   30683836 heartbeat IPC: 1.42365 cumulative IPC: 1.43398 (Simulation time: 0 hr 1 min 46 sec) 
Heartbeat CPU  0 instructions:   45000003 cycles:   31386144 heartbeat IPC: 1.42388 cumulative IPC: 1.43375 (Simulation time: 0 hr 1 min 48 sec) 
Heartbeat CPU  0 instructions:   46000003 cycles:   32088361 heartbeat IPC: 1.42406 cumulative IPC: 1.43354 (Simulation time: 0 hr 1 min 51 sec) 
Heartbeat CPU  0 instructions:   47000000 cycles:   32790580 heartbeat IPC: 1.42405 cumulative IPC: 1.43334 (Simulation time: 0 hr 1 min 53 sec) 
Heartbeat CPU  0 instructions:   48000000 cycles:   33493234 heartbeat IPC: 1.42318 cumulative IPC: 1.43313 (Simulation time: 0 hr 1 min 55 sec) 
Heartbeat CPU  0 instructions:   49000000 cycles:   34195268 heartbeat IPC: 1.42443 cumulative IPC: 1.43295 (Simulation time: 0 hr 1 min 58 sec) 
Heartbeat CPU  0 instructions:   50000000 cycles:   34897572 heartbeat IPC: 1.42388 cumulative IPC: 1.43276 (Simulation time: 0 hr 2 min 0 sec) 
Heartbeat CPU  0 instructions:   51000000 cycles:   35600144 heartbeat IPC: 1.42334 cumulative IPC: 1.43258 (Simulation time: 0 hr 2 min 3 sec) 
Heartbeat CPU  0 instructions:   52000000 cycles:   36302337 heartbeat IPC: 1.42411 cumulative IPC: 1.43241 (Simulation time: 0 hr 2 min 5 sec) 
Heartbeat CPU  0 instructions:   53000000 cycles:   37004740 heartbeat IPC: 1.42368 cumulative IPC: 1.43225 (Simulation time: 0 hr 2 min 7 sec) 
Heartbeat CPU  0 instructions:   54000001 cycles:   37706853 heartbeat IPC: 1.42427 cumulative IPC: 1.43210 (Simulation time: 0 hr 2 min 10 sec) 
Heartbeat CPU  0 instructions:   55000001 cycles:   38409160 heartbeat IPC: 1.42388 cumulative IPC: 1.43195 (Simulation time: 0 hr 2 min 12 sec) 
Heartbeat CPU  0 instructions:   56000000 cycles:   39111654 heartbeat IPC: 1.42350 cumulative IPC: 1.43180 (Simulation time: 0 hr 2 min 15 sec) 
Heartbeat CPU  0 instructions:   57000000 cycles:   39814173 heartbeat IPC: 1.42345 cumulative IPC: 1.43165 (Simulation time: 0 hr 2 min 17 sec) 
Heartbeat CPU  0 instructions:   58000003 cycles:   40516492 heartbeat IPC: 1.42386 cumulative IPC: 1.43152 (Simulation time: 0 hr 2 min 19 sec) 
Heartbeat CPU  0 instructions:   59000000 cycles:   41218637 heartbeat IPC: 1.42420 cumulative IPC: 1.43139 (Simulation time: 0 hr 2 min 22 sec) 
Heartbeat CPU  0 instructions:   60000000 cycles:   41921117 heartbeat IPC: 1.42353 cumulative IPC: 1.43126 (Simulation time: 0 hr 2 min 24 sec) 
Heartbeat CPU  0 instructions:   61000000 cycles:   42623343 heartbeat IPC: 1.42404 cumulative IPC: 1.43114 (Simulation time: 0 hr 2 min 27 sec) 
Heartbeat CPU  0 instructions:   62000002 cycles:   43325610 heartbeat IPC: 1.42396 cumulative IPC: 1.43102 (Simulation time: 0 hr 2 min 29 sec) 
Heartbeat CPU  0 instructions:   63000000 cycles:   43972331 heartbeat IPC: 1.54626 cumulative IPC: 1.43272 (Simulation time: 0 hr 2 min 32 sec) 
Heartbeat CPU  0 instructions:   64000000 cycles:   44622923 heartbeat IPC: 1.53706 cumulative IPC: 1.43424 (Simulation time: 0 hr 2 min 34 sec) 
Heartbeat CPU  0 instructions:   65000000 cycles:   45325021 heartbeat IPC: 1.42430 cumulative IPC: 1.43409 (Simulation time: 0 hr 2 min 37 sec) 
Heartbeat CPU  0 instructions:   66000001 cycles:   46027142 heartbeat IPC: 1.42426 cumulative IPC: 1.43394 (Simulation time: 0 hr 2 min 39 sec) 
Heartbeat CPU  0 instructions:   67000002 cycles:   46729261 heartbeat IPC: 1.42426 cumulative IPC: 1.43379 (Simulation time: 0 hr 2 min 41 sec) 
Heartbeat CPU  0 instructions:   68000000 cycles:   47431677 heartbeat IPC: 1.42365 cumulative IPC: 1.43364 (Simulation time: 0 hr 2 min 44 sec) 
Heartbeat CPU  0 instructions:   69000000 cycles:   48133900 heartbeat IPC: 1.42405 cumulative IPC: 1.43350 (Simulation time: 0 hr 2 min 46 sec) 
Heartbeat CPU  0 instructions:   70000002 cycles:   48836028 heartbeat IPC: 1.42424 cumulative IPC: 1.43337 (Simulation time: 0 hr 2 min 49 sec) 
Heartbeat CPU  0 instructions:   71000003 cycles:   49538675 heartbeat IPC: 1.42319 cumulative IPC: 1.43322 (Simulation time: 0 hr 2 min 51 sec) 
Heartbeat CPU  0 instructions:   72000000 cycles:   50240768 heartbeat IPC: 1.42431 cumulative IPC: 1.43310 (Simulation time: 0 hr 2 min 53 sec) 
Heartbeat CPU  0 instructions:   73000001 cycles:   50942949 heartbeat IPC: 1.42414 cumulative IPC: 1.43298 (Simulation time: 0 hr 2 min 56 sec) 
Heartbeat CPU  0 instructions:   74000003 cycles:   51645291 heartbeat IPC: 1.42381 cumulative IPC: 1.43285 (Simulation time: 0 hr 2 min 58 sec) 
Heartbeat CPU  0 instructions:   75000002 cycles:   52347994 heartbeat IPC: 1.42307 cumulative IPC: 1.43272 (Simulation time: 0 hr 3 min 1 sec) 
Heartbeat CPU  0 instructions:   76000000 cycles:   53050210 heartbeat IPC: 1.42406 cumulative IPC: 1.43261 (Simulation time: 0 hr 3 min 3 sec) 
Heartbeat CPU  0 instructions:   77000003 cycles:   53752789 heartbeat IPC: 1.42333 cumulative IPC: 1.43248 (Simulation time: 0 hr 3 min 6 sec) 
Heartbeat CPU  0 instructions:   78000001 cycles:   54455357 heartbeat IPC: 1.42335 cumulative IPC: 1.43237 (Simulation time: 0 hr 3 min 8 sec) 
Heartbeat CPU  0 instructions:   79000001 cycles:   55157326 heartbeat IPC: 1.42456 cumulative IPC: 1.43227 (Simulation time: 0 hr 3 min 10 sec) 
Heartbeat CPU  0 instructions:   80000000 cycles:   55859366 heartbeat IPC: 1.42442 cumulative IPC: 1.43217 (Simulation time: 0 hr 3 min 13 sec) 
Heartbeat CPU  0 instructions:   81000002 cycles:   56561735 heartbeat IPC: 1.42376 cumulative IPC: 1.43206 (Simulation time: 0 hr 3 min 15 sec) 
Heartbeat CPU  0 instructions:   82000003 cycles:   57263995 heartbeat IPC: 1.42398 cumulative IPC: 1.43196 (Simulation time: 0 hr 3 min 18 sec) 
Heartbeat CPU  0 instructions:   83000001 cycles:   57966265 heartbeat IPC: 1.42395 cumulative IPC: 1.43187 (Simulation time: 0 hr 3 min 20 sec) 
Heartbeat CPU  0 instructions:   84000000 cycles:   58668524 heartbeat IPC: 1.42397 cumulative IPC: 1.43177 (Simulation time: 0 hr 3 min 22 sec) 
Heartbeat CPU  0 instructions:   85000000 cycles:   59357019 heartbeat IPC: 1.45244 cumulative IPC: 1.43201 (Simulation time: 0 hr 3 min 25 sec) 
Heartbeat CPU  0 instructions:   86000002 cycles:   59965095 heartbeat IPC: 1.64453 cumulative IPC: 1.43417 (Simulation time: 0 hr 3 min 27 sec) 
Heartbeat CPU  0 instructions:   87000002 cycles:   60667563 heartbeat IPC: 1.42355 cumulative IPC: 1.43404 (Simulation time: 0 hr 3 min 30 sec) 
Heartbeat CPU  0 instructions:   88000000 cycles:   61370194 heartbeat IPC: 1.42322 cumulative IPC: 1.43392 (Simulation time: 0 hr 3 min 32 sec) 
Heartbeat CPU  0 instructions:   89000001 cycles:   62072259 heartbeat IPC: 1.42437 cumulative IPC: 1.43381 (Simulation time: 0 hr 3 min 35 sec) 
Heartbeat CPU  0 instructions:   90000003 cycles:   62774615 heartbeat IPC: 1.42378 cumulative IPC: 1.43370 (Simulation time: 0 hr 3 min 37 sec) 
Heartbeat CPU  0 instructions:   91000003 cycles:   63477047 heartbeat IPC: 1.42363 cumulative IPC: 1.43359 (Simulation time: 0 hr 3 min 40 sec) 
Heartbeat CPU  0 instructions:   92000000 cycles:   64179281 heartbeat IPC: 1.42402 cumulative IPC: 1.43348 (Simulation time: 0 hr 3 min 42 sec) 
Heartbeat CPU  0 instructions:   93000002 cycles:   64881668 heartbeat IPC: 1.42372 cumulative IPC: 1.43338 (Simulation time: 0 hr 3 min 44 sec) 
Heartbeat CPU  0 instructions:   94000002 cycles:   65583707 heartbeat IPC: 1.42442 cumulative IPC: 1.43328 (Simulation time: 0 hr 3 min 47 sec) 
Heartbeat CPU  0 instructions:   95000003 cycles:   66285898 heartbeat IPC: 1.42412 cumulative IPC: 1.43319 (Simulation time: 0 hr 3 min 49 sec) 
Heartbeat CPU  0 instructions:   96000000 cycles:   66988188 heartbeat IPC: 1.42391 cumulative IPC: 1.43309 (Simulation time: 0 hr 3 min 52 sec) 
Heartbeat CPU  0 instructions:   97000000 cycles:   67690549 heartbeat IPC: 1.42377 cumulative IPC: 1.43299 (Simulation time: 0 hr 3 min 54 sec) 
Heartbeat CPU  0 instructions:   98000002 cycles:   68392740 heartbeat IPC: 1.42412 cumulative IPC: 1.43290 (Simulation time: 0 hr 3 min 56 sec) 
Heartbeat CPU  0 instructions:   99000003 cycles:   69094986 heartbeat IPC: 1.42400 cumulative IPC: 1.43281 (Simulation time: 0 hr 3 min 59 sec) 
Heartbeat CPU  0 instructions:  100000000 cycles:   69797371 heartbeat IPC: 1.42372 cumulative IPC: 1.43272 (Simulation time: 0 hr 4 min 1 sec) 

Warmup complete CPU  0 instructions:  100000001 cycles:   69797391 (Simulation time: 0 hr 4 min 1 sec) 

Heartbeat CPU  0 instructions:  101000000 cycles:   71729146 heartbeat IPC: 0.51766 cumulative IPC: 0.51766 (Simulation time: 0 hr 4 min 4 sec) 
Heartbeat CPU  0 instructions:  102000003 cycles:   73492961 heartbeat IPC: 0.56695 cumulative IPC: 0.54119 (Simulation time: 0 hr 4 min 7 sec) 
Heartbeat CPU  0 instructions:  103000003 cycles:   75363213 heartbeat IPC: 0.53469 cumulative IPC: 0.53900 (Simulation time: 0 hr 4 min 10 sec) 
Heartbeat CPU  0 instructions:  104000000 cycles:   77283829 heartbeat IPC: 0.52066 cumulative IPC: 0.53430 (Simulation time: 0 hr 4 min 12 sec) 
Heartbeat CPU  0 instructions:  105000002 cycles:   79124742 heartbeat IPC: 0.54321 cumulative IPC: 0.53606 (Simulation time: 0 hr 4 min 15 sec) 
Heartbeat CPU  0 instructions:  106000000 cycles:   80924987 heartbeat IPC: 0.55548 cumulative IPC: 0.53920 (Simulation time: 0 hr 4 min 18 sec) 
Heartbeat CPU  0 instructions:  107000003 cycles:   82841213 heartbeat IPC: 0.52186 cumulative IPC: 0.53665 (Simulation time: 0 hr 4 min 21 sec) 
Heartbeat CPU  0 instructions:  108000000 cycles:   93615459 heartbeat IPC: 0.09281 cumulative IPC: 0.33588 (Simulation time: 0 hr 4 min 24 sec) 
Heartbeat CPU  0 instructions:  109000003 cycles:  100385954 heartbeat IPC: 0.14770 cumulative IPC: 0.29423 (Simulation time: 0 hr 4 min 28 sec) 
Heartbeat CPU  0 instructions:  110000001 cycles:  102304716 heartbeat IPC: 0.52117 cumulative IPC: 0.30762 (Simulation time: 0 hr 4 min 30 sec) 
Heartbeat CPU  0 instructions:  111000000 cycles:  104230263 heartbeat IPC: 0.51933 cumulative IPC: 0.31946 (Simulation time: 0 hr 4 min 33 sec) 
Heartbeat CPU  0 instructions:  112000000 cycles:  106002909 heartbeat IPC: 0.56413 cumulative IPC: 0.33144 (Simulation time: 0 hr 4 min 36 sec) 
Heartbeat CPU  0 instructions:  113000000 cycles:  107878572 heartbeat IPC: 0.53314 cumulative IPC: 0.34138 (Simulation time: 0 hr 4 min 39 sec) 
Heartbeat CPU  0 instructions:  114000000 cycles:  109813352 heartbeat IPC: 0.51685 cumulative IPC: 0.34986 (Simulation time: 0 hr 4 min 42 sec) 
Heartbeat CPU  0 instructions:  115000001 cycles:  111652262 heartbeat IPC: 0.54380 cumulative IPC: 0.35838 (Simulation time: 0 hr 4 min 44 sec) 
Heartbeat CPU  0 instructions:  116000000 cycles:  113452077 heartbeat IPC: 0.55561 cumulative IPC: 0.36651 (Simulation time: 0 hr 4 min 47 sec) 
Heartbeat CPU  0 instructions:  117000003 cycles:  115380750 heartbeat IPC: 0.51849 cumulative IPC: 0.37294 (Simulation time: 0 hr 4 min 50 sec) 
Heartbeat CPU  0 instructions:  118000002 cycles:  117286607 heartbeat IPC: 0.52470 cumulative IPC: 0.37903 (Simulation time: 0 hr 4 min 53 sec) 
Heartbeat CPU  0 instructions:  119000002 cycles:  119033183 heartbeat IPC: 0.57255 cumulative IPC: 0.38590 (Simulation time: 0 hr 4 min 56 sec) 
Heartbeat CPU  0 instructions:  120000000 cycles:  120946096 heartbeat IPC: 0.52276 cumulative IPC: 0.39102 (Simulation time: 0 hr 4 min 58 sec) 
Heartbeat CPU  0 instructions:  121000003 cycles:  122867365 heartbeat IPC: 0.52049 cumulative IPC: 0.39570 (Simulation time: 0 hr 5 min 1 sec) 
Heartbeat CPU  0 instructions:  122000002 cycles:  124652951 heartbeat IPC: 0.56004 cumulative IPC: 0.40105 (Simulation time: 0 hr 5 min 4 sec) 
Heartbeat CPU  0 instructions:  123000002 cycles:  126511416 heartbeat IPC: 0.53808 cumulative IPC: 0.40554 (Simulation time: 0 hr 5 min 7 sec) 
Heartbeat CPU  0 instructions:  124000000 cycles:  128435645 heartbeat IPC: 0.51969 cumulative IPC: 0.40929 (Simulation time: 0 hr 5 min 10 sec) 
Heartbeat CPU  0 instructions:  125000000 cycles:  130296545 heartbeat IPC: 0.53737 cumulative IPC: 0.41323 (Simulation time: 0 hr 5 min 12 sec) 
Heartbeat CPU  0 instructions:  126000002 cycles:  132092177 heartbeat IPC: 0.55691 cumulative IPC: 0.41737 (Simulation time: 0 hr 5 min 15 sec) 
Heartbeat CPU  0 instructions:  127000002 cycles:  134133198 heartbeat IPC: 0.48995 cumulative IPC: 0.41967 (Simulation time: 0 hr 5 min 18 sec) 
Heartbeat CPU  0 instructions:  128000000 cycles:  136044532 heartbeat IPC: 0.52319 cumulative IPC: 0.42266 (Simulation time: 0 hr 5 min 21 sec) 
Heartbeat CPU  0 instructions:  129000001 cycles:  137792503 heartbeat IPC: 0.57209 cumulative IPC: 0.42650 (Simulation time: 0 hr 5 min 24 sec) 
Heartbeat CPU  0 instructions:  130000000 cycles:  143336271 heartbeat IPC: 0.18038 cumulative IPC: 0.40795 (Simulation time: 0 hr 5 min 27 sec) 
Heartbeat CPU  0 instructions:  131000003 cycles:  155473920 heartbeat IPC: 0.08239 cumulative IPC: 0.36183 (Simulation time: 0 hr 5 min 31 sec) 
Heartbeat CPU  0 instructions:  132000000 cycles:  157264423 heartbeat IPC: 0.55850 cumulative IPC: 0.36585 (Simulation time: 0 hr 5 min 33 sec) 
Heartbeat CPU  0 instructions:  133000000 cycles:  159122509 heartbeat IPC: 0.53819 cumulative IPC: 0.36944 (Simulation time: 0 hr 5 min 36 sec) 
Heartbeat CPU  0 instructions:  134000000 cycles:  161050386 heartbeat IPC: 0.51871 cumulative IPC: 0.37259 (Simulation time: 0 hr 5 min 39 sec) 
Heartbeat CPU  0 instructions:  135000000 cycles:  162915575 heartbeat IPC: 0.53614 cumulative IPC: 0.37587 (Simulation time: 0 hr 5 min 42 sec) 
Heartbeat CPU  0 instructions:  136000000 cycles:  164700060 heartbeat IPC: 0.56039 cumulative IPC: 0.37934 (Simulation time: 0 hr 5 min 45 sec) 
Heartbeat CPU  0 instructions:  137000002 cycles:  166624108 heartbeat IPC: 0.51974 cumulative IPC: 0.38213 (Simulation time: 0 hr 5 min 47 sec) 
Heartbeat CPU  0 instructions:  138000001 cycles:  168539359 heartbeat IPC: 0.52212 cumulative IPC: 0.38484 (Simulation time: 0 hr 5 min 50 sec) 
Heartbeat CPU  0 instructions:  139000001 cycles:  170288692 heartbeat IPC: 0.57165 cumulative IPC: 0.38809 (Simulation time: 0 hr 5 min 53 sec) 
Heartbeat CPU  0 instructions:  140000000 cycles:  172200784 heartbeat IPC: 0.52299 cumulative IPC: 0.39061 (Simulation time: 0 hr 5 min 56 sec) 
Heartbeat CPU  0 instructions:  141000000 cycles:  174127329 heartbeat IPC: 0.51906 cumulative IPC: 0.39298 (Simulation time: 0 hr 5 min 59 sec) 
Heartbeat CPU  0 instructions:  142000001 cycles:  175925836 heartbeat IPC: 0.55602 cumulative IPC: 0.39575 (Simulation time: 0 hr 6 min 1 sec) 
Heartbeat CPU  0 instructions:  143000001 cycles:  177766559 heartbeat IPC: 0.54326 cumulative IPC: 0.39826 (Simulation time: 0 hr 6 min 4 sec) 
Heartbeat CPU  0 instructions:  144000000 cycles:  179697317 heartbeat IPC: 0.51793 cumulative IPC: 0.40036 (Simulation time: 0 hr 6 min 7 sec) 
Heartbeat CPU  0 instructions:  145000000 cycles:  181572815 heartbeat IPC: 0.53319 cumulative IPC: 0.40259 (Simulation time: 0 hr 6 min 10 sec) 
Heartbeat CPU  0 instructions:  146000002 cycles:  183341218 heartbeat IPC: 0.56548 cumulative IPC: 0.40513 (Simulation time: 0 hr 6 min 13 sec) 
Heartbeat CPU  0 instructions:  147000003 cycles:  185264682 heartbeat IPC: 0.51990 cumulative IPC: 0.40704 (Simulation time: 0 hr 6 min 15 sec) 
Heartbeat CPU  0 instructions:  148000000 cycles:  187179049 heartbeat IPC: 0.52236 cumulative IPC: 0.40892 (Simulation time: 0 hr 6 min 18 sec) 
Heartbeat CPU  0 instructions:  149000002 cycles:  188933152 heartbeat IPC: 0.57009 cumulative IPC: 0.41130 (Simulation time: 0 hr 6 min 21 sec) 
Heartbeat CPU  0 instructions:  150000003 cycles:  190830802 heartbeat IPC: 0.52697 cumulative IPC: 0.41311 (Simulation time: 0 hr 6 min 24 sec) 
Heartbeat CPU  0 instructions:  151000003 cycles:  192748735 heartbeat IPC: 0.52139 cumulative IPC: 0.41480 (Simulation time: 0 hr 6 min 27 sec) 
Heartbeat CPU  0 instructions:  152000000 cycles:  194582330 heartbeat IPC: 0.54538 cumulative IPC: 0.41672 (Simulation time: 0 hr 6 min 29 sec) 
Heartbeat CPU  0 instructions:  153000003 cycles:  207436236 heartbeat IPC: 0.07780 cumulative IPC: 0.38507 (Simulation time: 0 hr 6 min 33 sec) 
Heartbeat CPU  0 instructions:  154000000 cycles:  212386719 heartbeat IPC: 0.20200 cumulative IPC: 0.37871 (Simulation time: 0 hr 6 min 36 sec) 
Heartbeat CPU  0 instructions:  155000000 cycles:  214267582 heartbeat IPC: 0.53167 cumulative IPC: 0.38070 (Simulation time: 0 hr 6 min 39 sec) 
Heartbeat CPU  0 instructions:  156000000 cycles:  216039679 heartbeat IPC: 0.56430 cumulative IPC: 0.38293 (Simulation time: 0 hr 6 min 42 sec) 
Heartbeat CPU  0 instructions:  157000001 cycles:  217961768 heartbeat IPC: 0.52027 cumulative IPC: 0.38471 (Simulation time: 0 hr 6 min 45 sec) 
Heartbeat CPU  0 instructions:  158000001 cycles:  219883503 heartbeat IPC: 0.52036 cumulative IPC: 0.38644 (Simulation time: 0 hr 6 min 47 sec) 
Heartbeat CPU  0 instructions:  159000000 cycles:  221637565 heartbeat IPC: 0.57010 cumulative IPC: 0.38857 (Simulation time: 0 hr 6 min 50 sec) 
Heartbeat CPU  0 instructions:  160000000 cycles:  223540246 heartbeat IPC: 0.52557 cumulative IPC: 0.39026 (Simulation time: 0 hr 6 min 53 sec) 
Heartbeat CPU  0 instructions:  161000003 cycles:  225469352 heartbeat IPC: 0.51838 cumulative IPC: 0.39185 (Simulation time: 0 hr 6 min 56 sec) 
Heartbeat CPU  0 instructions:  162000000 cycles:  227291896 heartbeat IPC: 0.54868 cumulative IPC: 0.39366 (Simulation time: 0 hr 6 min 59 sec) 
Heartbeat CPU  0 instructions:  163000003 cycles:  229115957 heartbeat IPC: 0.54823 cumulative IPC: 0.39543 (Simulation time: 0 hr 7 min 1 sec) 
Heartbeat CPU  0 instructions:  164000000 cycles:  231038747 heartbeat IPC: 0.52008 cumulative IPC: 0.39692 (Simulation time: 0 hr 7 min 4 sec) 
Heartbeat CPU  0 instructions:  165000000 cycles:  232944631 heartbeat IPC: 0.52469 cumulative IPC: 0.39841 (Simulation time: 0 hr 7 min 7 sec) 
Heartbeat CPU  0 instructions:  166000001 cycles:  234696792 heartbeat IPC: 0.57072 cumulative IPC: 0.40024 (Simulation time: 0 hr 7 min 10 sec) 
Heartbeat CPU  0 instructions:  167000000 cycles:  236611719 heartbeat IPC: 0.52221 cumulative IPC: 0.40164 (Simulation time: 0 hr 7 min 13 sec) 
Heartbeat CPU  0 instructions:  168000000 cycles:  238535530 heartbeat IPC: 0.51980 cumulative IPC: 0.40299 (Simulation time: 0 hr 7 min 15 sec) 
Heartbeat CPU  0 instructions:  169000001 cycles:  240296939 heartbeat IPC: 0.56773 cumulative IPC: 0.40469 (Simulation time: 0 hr 7 min 18 sec) 
Heartbeat CPU  0 instructions:  170000002 cycles:  242177111 heartbeat IPC: 0.53187 cumulative IPC: 0.40608 (Simulation time: 0 hr 7 min 21 sec) 
Heartbeat CPU  0 instructions:  171000001 cycles:  244107354 heartbeat IPC: 0.51807 cumulative IPC: 0.40732 (Simulation time: 0 hr 7 min 24 sec) 
Heartbeat CPU  0 instructions:  172000000 cycles:  245941575 heartbeat IPC: 0.54519 cumulative IPC: 0.40876 (Simulation time: 0 hr 7 min 27 sec) 
Heartbeat CPU  0 instructions:  173000000 cycles:  247747629 heartbeat IPC: 0.55369 cumulative IPC: 0.41023 (Simulation time: 0 hr 7 min 29 sec) 
Heartbeat CPU  0 instructions:  174000003 cycles:  249675660 heartbeat IPC: 0.51867 cumulative IPC: 0.41139 (Simulation time: 0 hr 7 min 32 sec) 
Heartbeat CPU  0 instructions:  175000000 cycles:  256883784 heartbeat IPC: 0.13873 cumulative IPC: 0.40088 (Simulation time: 0 hr 7 min 36 sec) 
Heartbeat CPU  0 instructions:  176000000 cycles:  267183516 heartbeat IPC: 0.09709 cumulative IPC: 0.38503 (Simulation time: 0 hr 7 min 39 sec) 
Heartbeat CPU  0 instructions:  177000001 cycles:  269178286 heartbeat IPC: 0.50131 cumulative IPC: 0.38620 (Simulation time: 0 hr 7 min 42 sec) 
Heartbeat CPU  0 instructions:  178000003 cycles:  271253592 heartbeat IPC: 0.48186 cumulative IPC: 0.38718 (Simulation time: 0 hr 7 min 45 sec) 
Heartbeat CPU  0 instructions:  179000002 cycles:  273191770 heartbeat IPC: 0.51595 cumulative IPC: 0.38841 (Simulation time: 0 hr 7 min 48 sec) 
Heartbeat CPU  0 instructions:  180000000 cycles:  275105802 heartbeat IPC: 0.52246 cumulative IPC: 0.38966 (Simulation time: 0 hr 7 min 50 sec) 
Heartbeat CPU  0 instructions:  181000003 cycles:  277046609 heartbeat IPC: 0.51525 cumulative IPC: 0.39083 (Simulation time: 0 hr 7 min 53 sec) 
Heartbeat CPU  0 instructions:  182000003 cycles:  278902886 heartbeat IPC: 0.53871 cumulative IPC: 0.39215 (Simulation time: 0 hr 7 min 56 sec) 
Heartbeat CPU  0 instructions:  183000000 cycles:  280741789 heartbeat IPC: 0.54380 cumulative IPC: 0.39347 (Simulation time: 0 hr 7 min 59 sec) 
Heartbeat CPU  0 instructions:  184000000 cycles:  282678699 heartbeat IPC: 0.51629 cumulative IPC: 0.39459 (Simulation time: 0 hr 8 min 2 sec) 
Heartbeat CPU  0 instructions:  185000002 cycles:  284605512 heartbeat IPC: 0.51899 cumulative IPC: 0.39570 (Simulation time: 0 hr 8 min 4 sec) 
Heartbeat CPU  0 instructions:  186000001 cycles:  286389672 heartbeat IPC: 0.56049 cumulative IPC: 0.39706 (Simulation time: 0 hr 8 min 7 sec) 
Heartbeat CPU  0 instructions:  187000000 cycles:  288315446 heartbeat IPC: 0.51927 cumulative IPC: 0.39814 (Simulation time: 0 hr 8 min 10 sec) 
Heartbeat CPU  0 instructions:  188000000 cycles:  290255219 heartbeat IPC: 0.51552 cumulative IPC: 0.39917 (Simulation time: 0 hr 8 min 13 sec) 
Heartbeat CPU  0 instructions:  189000000 cycles:  292054685 heartbeat IPC: 0.55572 cumulative IPC: 0.40044 (Simulation time: 0 hr 8 min 15 sec) 
Heartbeat CPU  0 instructions:  190000000 cycles:  293948640 heartbeat IPC: 0.52800 cumulative IPC: 0.40151 (Simulation time: 0 hr 8 min 18 sec) 
Heartbeat CPU  0 instructions:  191000000 cycles:  295891480 heartbeat IPC: 0.51471 cumulative IPC: 0.40249 (Simulation time: 0 hr 8 min 21 sec) 
Heartbeat CPU  0 instructions:  192000000 cycles:  297761843 heartbeat IPC: 0.53466 cumulative IPC: 0.40357 (Simulation time: 0 hr 8 min 24 sec) 
Heartbeat CPU  0 instructions:  193000001 cycles:  299582465 heartbeat IPC: 0.54926 cumulative IPC: 0.40473 (Simulation time: 0 hr 8 min 27 sec) 
Heartbeat CPU  0 instructions:  194000000 cycles:  301519897 heartbeat IPC: 0.51615 cumulative IPC: 0.40566 (Simulation time: 0 hr 8 min 29 sec) 
Heartbeat CPU  0 instructions:  195000002 cycles:  303448184 heartbeat IPC: 0.51860 cumulative IPC: 0.40659 (Simulation time: 0 hr 8 min 32 sec) 
Heartbeat CPU  0 instructions:  196000000 cycles:  305227732 heartbeat IPC: 0.56194 cumulative IPC: 0.40776 (Simulation time: 0 hr 8 min 35 sec) 
Heartbeat CPU  0 instructions:  197000000 cycles:  307260704 heartbeat IPC: 0.49189 cumulative IPC: 0.40848 (Simulation time: 0 hr 8 min 38 sec) 
Heartbeat CPU  0 instructions:  198000003 cycles:  321623603 heartbeat IPC: 0.06962 cumulative IPC: 0.38916 (Simulation time: 0 hr 8 min 42 sec) 
Heartbeat CPU  0 instructions:  199000001 cycles:  324748862 heartbeat IPC: 0.31997 cumulative IPC: 0.38831 (Simulation time: 0 hr 8 min 45 sec) 
Heartbeat CPU  0 instructions:  200000000 cycles:  326651805 heartbeat IPC: 0.52550 cumulative IPC: 0.38933 (Simulation time: 0 hr 8 min 48 sec) 
Heartbeat CPU  0 instructions:  201000002 cycles:  328594124 heartbeat IPC: 0.51485 cumulative IPC: 0.39027 (Simulation time: 0 hr 8 min 50 sec) 
Heartbeat CPU  0 instructions:  202000003 cycles:  330466688 heartbeat IPC: 0.53403 cumulative IPC: 0.39130 (Simulation time: 0 hr 8 min 53 sec) 
Heartbeat CPU  0 instructions:  203000002 cycles:  332286626 heartbeat IPC: 0.54947 cumulative IPC: 0.39240 (Simulation time: 0 hr 8 min 56 sec) 
Heartbeat CPU  0 instructions:  204000000 cycles:  334231677 heartbeat IPC: 0.51412 cumulative IPC: 0.39329 (Simulation time: 0 hr 8 min 59 sec) 
Heartbeat CPU  0 instructions:  205000002 cycles:  336154820 heartbeat IPC: 0.51998 cumulative IPC: 0.39421 (Simulation time: 0 hr 9 min 2 sec) 
Heartbeat CPU  0 instructions:  206000000 cycles:  337943495 heartbeat IPC: 0.55907 cumulative IPC: 0.39531 (Simulation time: 0 hr 9 min 4 sec) 
Heartbeat CPU  0 instructions:  207000002 cycles:  339867103 heartbeat IPC: 0.51986 cumulative IPC: 0.39619 (Simulation time: 0 hr 9 min 7 sec) 
Heartbeat CPU  0 instructions:  208000000 cycles:  341799558 heartbeat IPC: 0.51748 cumulative IPC: 0.39706 (Simulation time: 0 hr 9 min 10 sec) 
Heartbeat CPU  0 instructions:  209000002 cycles:  343616126 heartbeat IPC: 0.55049 cumulative IPC: 0.39807 (Simulation time: 0 hr 9 min 13 sec) 
Heartbeat CPU  0 instructions:  210000000 cycles:  345499361 heartbeat IPC: 0.53100 cumulative IPC: 0.39898 (Simulation time: 0 hr 9 min 16 sec) 
Heartbeat CPU  0 instructions:  211000003 cycles:  347438077 heartbeat IPC: 0.51581 cumulative IPC: 0.39980 (Simulation time: 0 hr 9 min 18 sec) 
Heartbeat CPU  0 instructions:  212000000 cycles:  349329276 heartbeat IPC: 0.52876 cumulative IPC: 0.40067 (Simulation time: 0 hr 9 min 21 sec) 
Heartbeat CPU  0 instructions:  213000003 cycles:  351132478 heartbeat IPC: 0.55457 cumulative IPC: 0.40166 (Simulation time: 0 hr 9 min 24 sec) 
Heartbeat CPU  0 instructions:  214000003 cycles:  353069553 heartbeat IPC: 0.51624 cumulative IPC: 0.40244 (Simulation time: 0 hr 9 min 27 sec) 
Heartbeat CPU  0 instructions:  215000003 cycles:  354997021 heartbeat IPC: 0.51882 cumulative IPC: 0.40323 (Simulation time: 0 hr 9 min 30 sec) 
Heartbeat CPU  0 instructions:  216000000 cycles:  356787468 heartbeat IPC: 0.55852 cumulative IPC: 0.40420 (Simulation time: 0 hr 9 min 32 sec) 
Heartbeat CPU  0 instructions:  217000002 cycles:  358701203 heartbeat IPC: 0.52254 cumulative IPC: 0.40498 (Simulation time: 0 hr 9 min 35 sec) 
Heartbeat CPU  0 instructions:  218000001 cycles:  360639845 heartbeat IPC: 0.51582 cumulative IPC: 0.40572 (Simulation time: 0 hr 9 min 38 sec) 
Heartbeat CPU  0 instructions:  219000002 cycles:  362471088 heartbeat IPC: 0.54608 cumulative IPC: 0.40660 (Simulation time: 0 hr 9 min 41 sec) 
Heartbeat CPU  0 instructions:  220000000 cycles:  371458868 heartbeat IPC: 0.11126 cumulative IPC: 0.39780 (Simulation time: 0 hr 9 min 44 sec) 
Heartbeat CPU  0 instructions:  221000000 cycles:  380196143 heartbeat IPC: 0.11445 cumulative IPC: 0.38982 (Simulation time: 0 hr 9 min 48 sec) 
Heartbeat CPU  0 instructions:  222000000 cycles:  382090573 heartbeat IPC: 0.52786 cumulative IPC: 0.39066 (Simulation time: 0 hr 9 min 50 sec) 
Heartbeat CPU  0 instructions:  223000001 cycles:  383895690 heartbeat IPC: 0.55398 cumulative IPC: 0.39160 (Simulation time: 0 hr 9 min 53 sec) 
Heartbeat CPU  0 instructions:  224000000 cycles:  385835114 heartbeat IPC: 0.51562 cumulative IPC: 0.39236 (Simulation time: 0 hr 9 min 56 sec) 
Heartbeat CPU  0 instructions:  225000002 cycles:  387771606 heartbeat IPC: 0.51640 cumulative IPC: 0.39311 (Simulation time: 0 hr 9 min 59 sec) 
Heartbeat CPU  0 instructions:  226000002 cycles:  389555817 heartbeat IPC: 0.56047 cumulative IPC: 0.39405 (Simulation time: 0 hr 10 min 2 sec) 
Heartbeat CPU  0 instructions:  227000003 cycles:  391475687 heartbeat IPC: 0.52087 cumulative IPC: 0.39480 (Simulation time: 0 hr 10 min 4 sec) 
Heartbeat CPU  0 instructions:  228000000 cycles:  393416127 heartbeat IPC: 0.51535 cumulative IPC: 0.39553 (Simulation time: 0 hr 10 min 7 sec) 
Heartbeat CPU  0 instructions:  229000003 cycles:  395384019 heartbeat IPC: 0.50816 cumulative IPC: 0.39621 (Simulation time: 0 hr 10 min 10 sec) 
Heartbeat CPU  0 instructions:  230000001 cycles:  397245026 heartbeat IPC: 0.53734 cumulative IPC: 0.39701 (Simulation time: 0 hr 10 min 13 sec) 
Heartbeat CPU  0 instructions:  231000003 cycles:  399185535 heartbeat IPC: 0.51533 cumulative IPC: 0.39771 (Simulation time: 0 hr 10 min 16 sec) 
Heartbeat CPU  0 instructions:  232000000 cycles:  401087216 heartbeat IPC: 0.52585 cumulative IPC: 0.39844 (Simulation time: 0 hr 10 min 18 sec) 
Heartbeat CPU  0 instructions:  233000002 cycles:  402884983 heartbeat IPC: 0.55625 cumulative IPC: 0.39929 (Simulation time: 0 hr 10 min 21 sec) 
Heartbeat CPU  0 instructions:  234000001 cycles:  404817298 heartbeat IPC: 0.51751 cumulative IPC: 0.39998 (Simulation time: 0 hr 10 min 24 sec) 
Heartbeat CPU  0 instructions:  235000003 cycles:  406747335 heartbeat IPC: 0.51813 cumulative IPC: 0.40065 (Simulation time: 0 hr 10 min 27 sec) 
Heartbeat CPU  0 instructions:  236000000 cycles:  408537825 heartbeat IPC: 0.55850 cumulative IPC: 0.40149 (Simulation time: 0 hr 10 min 30 sec) 
Heartbeat CPU  0 instructions:  237000002 cycles:  410450853 heartbeat IPC: 0.52273 cumulative IPC: 0.40217 (Simulation time: 0 hr 10 min 32 sec) 
Heartbeat CPU  0 instructions:  238000002 cycles:  412389389 heartbeat IPC: 0.51585 cumulative IPC: 0.40281 (Simulation time: 0 hr 10 min 35 sec) 
Heartbeat CPU  0 instructions:  239000001 cycles:  414237917 heartbeat IPC: 0.54097 cumulative IPC: 0.40355 (Simulation time: 0 hr 10 min 38 sec) 
Heartbeat CPU  0 instructions:  240000000 cycles:  416080426 heartbeat IPC: 0.54274 cumulative IPC: 0.40429 (Simulation time: 0 hr 10 min 41 sec) 
Heartbeat CPU  0 instructions:  241000003 cycles:  418024079 heartbeat IPC: 0.51450 cumulative IPC: 0.40491 (Simulation time: 0 hr 10 min 43 sec) 
Heartbeat CPU  0 instructions:  242000002 cycles:  421748138 heartbeat IPC: 0.26852 cumulative IPC: 0.40347 (Simulation time: 0 hr 10 min 46 sec) 
Heartbeat CPU  0 instructions:  243000003 cycles:  435899459 heartbeat IPC: 0.07066 cumulative IPC: 0.39060 (Simulation time: 0 hr 10 min 50 sec) 
Heartbeat CPU  0 instructions:  244000000 cycles:  437829971 heartbeat IPC: 0.51800 cumulative IPC: 0.39127 (Simulation time: 0 hr 10 min 53 sec) 
Heartbeat CPU  0 instructions:  245000000 cycles:  439767270 heartbeat IPC: 0.51618 cumulative IPC: 0.39192 (Simulation time: 0 hr 10 min 56 sec) 
Heartbeat CPU  0 instructions:  246000000 cycles:  441562218 heartbeat IPC: 0.55712 cumulative IPC: 0.39272 (Simulation time: 0 hr 10 min 59 sec) 
Heartbeat CPU  0 instructions:  247000000 cycles:  443468952 heartbeat IPC: 0.52446 cumulative IPC: 0.39339 (Simulation time: 0 hr 11 min 2 sec) 
Heartbeat CPU  0 instructions:  248000000 cycles:  445411003 heartbeat IPC: 0.51492 cumulative IPC: 0.39402 (Simulation time: 0 hr 11 min 4 sec) 
Heartbeat CPU  0 instructions:  249000001 cycles:  447263097 heartbeat IPC: 0.53993 cumulative IPC: 0.39474 (Simulation time: 0 hr 11 min 7 sec) 
Heartbeat CPU  0 instructions:  250000003 cycles:  449108415 heartbeat IPC: 0.54191 cumulative IPC: 0.39545 (Simulation time: 0 hr 11 min 10 sec) 
Heartbeat CPU  0 instructions:  251000002 cycles:  451048450 heartbeat IPC: 0.51545 cumulative IPC: 0.39606 (Simulation time: 0 hr 11 min 13 sec) 
Heartbeat CPU  0 instructions:  252000000 cycles:  452972217 heartbeat IPC: 0.51981 cumulative IPC: 0.39669 (Simulation time: 0 hr 11 min 16 sec) 
Heartbeat CPU  0 instructions:  253000000 cycles:  454756093 heartbeat IPC: 0.56058 cumulative IPC: 0.39745 (Simulation time: 0 hr 11 min 18 sec) 
Heartbeat CPU  0 instructions:  254000002 cycles:  456687446 heartbeat IPC: 0.51777 cumulative IPC: 0.39805 (Simulation time: 0 hr 11 min 21 sec) 
Heartbeat CPU  0 instructions:  255000000 cycles:  458634040 heartbeat IPC: 0.51372 cumulative IPC: 0.39862 (Simulation time: 0 hr 11 min 24 sec) 
Heartbeat CPU  0 instructions:  256000000 cycles:  460421837 heartbeat IPC: 0.55935 cumulative IPC: 0.39936 (Simulation time: 0 hr 11 min 27 sec) 
Heartbeat CPU  0 instructions:  257000000 cycles:  462325480 heartbeat IPC: 0.52531 cumulative IPC: 0.39997 (Simulation time: 0 hr 11 min 30 sec) 
Heartbeat CPU  0 instructions:  258000003 cycles:  464267847 heartbeat IPC: 0.51484 cumulative IPC: 0.40054 (Simulation time: 0 hr 11 min 32 sec) 
Heartbeat CPU  0 instructions:  259000000 cycles:  466133261 heartbeat IPC: 0.53607 cumulative IPC: 0.40117 (Simulation time: 0 hr 11 min 35 sec) 
Heartbeat CPU  0 instructions:  260000000 cycles:  467958919 heartbeat IPC: 0.54775 cumulative IPC: 0.40185 (Simulation time: 0 hr 11 min 38 sec) 
Heartbeat CPU  0 instructions:  261000000 cycles:  469894894 heartbeat IPC: 0.51654 cumulative IPC: 0.40240 (Simulation time: 0 hr 11 min 41 sec) 
Heartbeat CPU  0 instructions:  262000002 cycles:  471818569 heartbeat IPC: 0.51984 cumulative IPC: 0.40296 (Simulation time: 0 hr 11 min 44 sec) 
Heartbeat CPU  0 instructions:  263000001 cycles:  473603330 heartbeat IPC: 0.56030 cumulative IPC: 0.40366 (Simulation time: 0 hr 11 min 46 sec) 
Heartbeat CPU  0 instructions:  264000000 cycles:  475526034 heartbeat IPC: 0.52010 cumulative IPC: 0.40421 (Simulation time: 0 hr 11 min 49 sec) 
Heartbeat CPU  0 instructions:  265000002 cycles:  486367828 heartbeat IPC: 0.09224 cumulative IPC: 0.39609 (Simulation time: 0 hr 11 min 53 sec) 
Heartbeat CPU  0 instructions:  266000001 cycles:  493190267 heartbeat IPC: 0.14658 cumulative IPC: 0.39207 (Simulation time: 0 hr 11 min 56 sec) 
Heartbeat CPU  0 instructions:  267000002 cycles:  495092205 heartbeat IPC: 0.52578 cumulative IPC: 0.39267 (Simulation time: 0 hr 11 min 59 sec) 
Heartbeat CPU  0 instructions:  268000000 cycles:  497037135 heartbeat IPC: 0.51416 cumulative IPC: 0.39322 (Simulation time: 0 hr 12 min 2 sec) 
Heartbeat CPU  0 instructions:  269000000 cycles:  498909988 heartbeat IPC: 0.53394 cumulative IPC: 0.39384 (Simulation time: 0 hr 12 min 4 sec) 
Heartbeat CPU  0 instructions:  270000003 cycles:  500738663 heartbeat IPC: 0.54685 cumulative IPC: 0.39449 (Simulation time: 0 hr 12 min 7 sec) 
Heartbeat CPU  0 instructions:  271000002 cycles:  502680204 heartbeat IPC: 0.51505 cumulative IPC: 0.39503 (Simulation time: 0 hr 12 min 10 sec) 
Heartbeat CPU  0 instructions:  272000000 cycles:  504609072 heartbeat IPC: 0.51844 cumulative IPC: 0.39557 (Simulation time: 0 hr 12 min 13 sec) 
Heartbeat CPU  0 instructions:  273000002 cycles:  506398084 heartbeat IPC: 0.55897 cumulative IPC: 0.39624 (Simulation time: 0 hr 12 min 16 sec) 
Heartbeat CPU  0 instructions:  274000000 cycles:  508317117 heartbeat IPC: 0.52109 cumulative IPC: 0.39679 (Simulation time: 0 hr 12 min 18 sec) 
Heartbeat CPU  0 instructions:  275000000 cycles:  510255290 heartbeat IPC: 0.51595 cumulative IPC: 0.39731 (Simulation time: 0 hr 12 min 21 sec) 
Heartbeat CPU  0 instructions:  276000000 cycles:  512065478 heartbeat IPC: 0.55243 cumulative IPC: 0.39795 (Simulation time: 0 hr 12 min 24 sec) 
Heartbeat CPU  0 instructions:  277000001 cycles:  513949611 heartbeat IPC: 0.53075 cumulative IPC: 0.39851 (Simulation time: 0 hr 12 min 27 sec) 
Heartbeat CPU  0 instructions:  278000000 cycles:  515890124 heartbeat IPC: 0.51533 cumulative IPC: 0.39902 (Simulation time: 0 hr 12 min 30 sec) 
Heartbeat CPU  0 instructions:  279000003 cycles:  517894322 heartbeat IPC: 0.49895 cumulative IPC: 0.39947 (Simulation time: 0 hr 12 min 32 sec) 
Heartbeat CPU  0 instructions:  280000000 cycles:  519811781 heartbeat IPC: 0.52152 cumulative IPC: 0.39999 (Simulation time: 0 hr 12 min 35 sec) 
Heartbeat CPU  0 instructions:  281000002 cycles:  521866438 heartbeat IPC: 0.48670 cumulative IPC: 0.40038 (Simulation time: 0 hr 12 min 38 sec) 
Heartbeat CPU  0 instructions:  282000002 cycles:  523799492 heartbeat IPC: 0.51732 cumulative IPC: 0.40088 (Simulation time: 0 hr 12 min 41 sec) 
Heartbeat CPU  0 instructions:  283000000 cycles:  525578518 heartbeat IPC: 0.56210 cumulative IPC: 0.40151 (Simulation time: 0 hr 12 min 44 sec) 
Heartbeat CPU  0 instructions:  284000000 cycles:  527499281 heartbeat IPC: 0.52063 cumulative IPC: 0.40201 (Simulation time: 0 hr 12 min 46 sec) 
Heartbeat CPU  0 instructions:  285000001 cycles:  529440704 heartbeat IPC: 0.51509 cumulative IPC: 0.40249 (Simulation time: 0 hr 12 min 49 sec) 
Heartbeat CPU  0 instructions:  286000003 cycles:  531264359 heartbeat IPC: 0.54835 cumulative IPC: 0.40306 (Simulation time: 0 hr 12 min 52 sec) 
Heartbeat CPU  0 instructions:  287000002 cycles:  536836078 heartbeat IPC: 0.17948 cumulative IPC: 0.40040 (Simulation time: 0 hr 12 min 55 sec) 
Heartbeat CPU  0 instructions:  288000000 cycles:  548923089 heartbeat IPC: 0.08273 cumulative IPC: 0.39238 (Simulation time: 0 hr 12 min 59 sec) 
Heartbeat CPU  0 instructions:  289000003 cycles:  550811950 heartbeat IPC: 0.52942 cumulative IPC: 0.39292 (Simulation time: 0 hr 13 min 2 sec) 
Heartbeat CPU  0 instructions:  290000003 cycles:  552624256 heartbeat IPC: 0.55178 cumulative IPC: 0.39352 (Simulation time: 0 hr 13 min 5 sec) 
Heartbeat CPU  0 instructions:  291000002 cycles:  554561846 heartbeat IPC: 0.51610 cumulative IPC: 0.39401 (Simulation time: 0 hr 13 min 7 sec) 
Heartbeat CPU  0 instructions:  292000000 cycles:  556488547 heartbeat IPC: 0.51902 cumulative IPC: 0.39450 (Simulation time: 0 hr 13 min 10 sec) 
Heartbeat CPU  0 instructions:  293000001 cycles:  558285359 heartbeat IPC: 0.55654 cumulative IPC: 0.39510 (Simulation time: 0 hr 13 min 13 sec) 
Heartbeat CPU  0 instructions:  294000000 cycles:  560202909 heartbeat IPC: 0.52150 cumulative IPC: 0.39559 (Simulation time: 0 hr 13 min 16 sec) 
Heartbeat CPU  0 instructions:  295000002 cycles:  562146651 heartbeat IPC: 0.51447 cumulative IPC: 0.39606 (Simulation time: 0 hr 13 min 19 sec) 
Heartbeat CPU  0 instructions:  296000000 cycles:  563973933 heartbeat IPC: 0.54726 cumulative IPC: 0.39662 (Simulation time: 0 hr 13 min 21 sec) 
Heartbeat CPU  0 instructions:  297000001 cycles:  565839151 heartbeat IPC: 0.53613 cumulative IPC: 0.39714 (Simulation time: 0 hr 13 min 24 sec) 
Heartbeat CPU  0 instructions:  298000003 cycles:  567776567 heartbeat IPC: 0.51615 cumulative IPC: 0.39761 (Simulation time: 0 hr 13 min 27 sec) 
Heartbeat CPU  0 instructions:  299000000 cycles:  569681260 heartbeat IPC: 0.52502 cumulative IPC: 0.39809 (Simulation time: 0 hr 13 min 30 sec) 
Heartbeat CPU  0 instructions:  300000000 cycles:  571479753 heartbeat IPC: 0.55602 cumulative IPC: 0.39866 (Simulation time: 0 hr 13 min 33 sec) 
Heartbeat CPU  0 instructions:  301000003 cycles:  573409067 heartbeat IPC: 0.51832 cumulative IPC: 0.39912 (Simulation time: 0 hr 13 min 36 sec) 
Heartbeat CPU  0 instructions:  302000000 cycles:  575344039 heartbeat IPC: 0.51680 cumulative IPC: 0.39957 (Simulation time: 0 hr 13 min 39 sec) 
Heartbeat CPU  0 instructions:  303000000 cycles:  577132662 heartbeat IPC: 0.55909 cumulative IPC: 0.40013 (Simulation time: 0 hr 13 min 41 sec) 
Heartbeat CPU  0 instructions:  304000000 cycles:  579039173 heartbeat IPC: 0.52452 cumulative IPC: 0.40060 (Simulation time: 0 hr 13 min 44 sec) 
Heartbeat CPU  0 instructions:  305000000 cycles:  580983363 heartbeat IPC: 0.51435 cumulative IPC: 0.40103 (Simulation time: 0 hr 13 min 47 sec) 
Heartbeat CPU  0 instructions:  306000002 cycles:  582826912 heartbeat IPC: 0.54243 cumulative IPC: 0.40154 (Simulation time: 0 hr 13 min 50 sec) 
Heartbeat CPU  0 instructions:  307000003 cycles:  584669787 heartbeat IPC: 0.54263 cumulative IPC: 0.40204 (Simulation time: 0 hr 13 min 52 sec) 
Heartbeat CPU  0 instructions:  308000000 cycles:  586609870 heartbeat IPC: 0.51544 cumulative IPC: 0.40247 (Simulation time: 0 hr 13 min 55 sec) 
Heartbeat CPU  0 instructions:  309000003 cycles:  588529960 heartbeat IPC: 0.52081 cumulative IPC: 0.40291 (Simulation time: 0 hr 13 min 58 sec) 
Heartbeat CPU  0 instructions:  310000002 cycles:  601173123 heartbeat IPC: 0.07909 cumulative IPC: 0.39520 (Simulation time: 0 hr 14 min 2 sec) 
Heartbeat CPU  0 instructions:  311000000 cycles:  606056880 heartbeat IPC: 0.20476 cumulative IPC: 0.39347 (Simulation time: 0 hr 14 min 5 sec) 
Heartbeat CPU  0 instructions:  312000000 cycles:  607996748 heartbeat IPC: 0.51550 cumulative IPC: 0.39391 (Simulation time: 0 hr 14 min 8 sec) 
Heartbeat CPU  0 instructions:  313000003 cycles:  609784000 heartbeat IPC: 0.55952 cumulative IPC: 0.39445 (Simulation time: 0 hr 14 min 11 sec) 
Heartbeat CPU  0 instructions:  314000003 cycles:  611699019 heartbeat IPC: 0.52219 cumulative IPC: 0.39491 (Simulation time: 0 hr 14 min 13 sec) 
Heartbeat CPU  0 instructions:  315000000 cycles:  613639328 heartbeat IPC: 0.51538 cumulative IPC: 0.39534 (Simulation time: 0 hr 14 min 16 sec) 
Heartbeat CPU  0 instructions:  316000000 cycles:  615481142 heartbeat IPC: 0.54294 cumulative IPC: 0.39583 (Simulation time: 0 hr 14 min 19 sec) 
Heartbeat CPU  0 instructions:  317000001 cycles:  617328882 heartbeat IPC: 0.54120 cumulative IPC: 0.39632 (Simulation time: 0 hr 14 min 22 sec) 
Heartbeat CPU  0 instructions:  318000002 cycles:  619270991 heartbeat IPC: 0.51490 cumulative IPC: 0.39674 (Simulation time: 0 hr 14 min 25 sec) 
Heartbeat CPU  0 instructions:  319000001 cycles:  621188596 heartbeat IPC: 0.52148 cumulative IPC: 0.39718 (Simulation time: 0 hr 14 min 27 sec) 
Heartbeat CPU  0 instructions:  320000000 cycles:  622975999 heartbeat IPC: 0.55947 cumulative IPC: 0.39770 (Simulation time: 0 hr 14 min 30 sec) 
Heartbeat CPU  0 instructions:  321000002 cycles:  624905390 heartbeat IPC: 0.51830 cumulative IPC: 0.39812 (Simulation time: 0 hr 14 min 33 sec) 
Heartbeat CPU  0 instructions:  322000001 cycles:  626842116 heartbeat IPC: 0.51633 cumulative IPC: 0.39853 (Simulation time: 0 hr 14 min 36 sec) 
Heartbeat CPU  0 instructions:  323000002 cycles:  628634035 heartbeat IPC: 0.55806 cumulative IPC: 0.39904 (Simulation time: 0 hr 14 min 38 sec) 
Heartbeat CPU  0 instructions:  324000000 cycles:  630535694 heartbeat IPC: 0.52586 cumulative IPC: 0.39947 (Simulation time: 0 hr 14 min 41 sec) 
Heartbeat CPU  0 instructions:  325000001 cycles:  632473511 heartbeat IPC: 0.51605 cumulative IPC: 0.39987 (Simulation time: 0 hr 14 min 44 sec) 
Heartbeat CPU  0 instructions:  326000002 cycles:  634337532 heartbeat IPC: 0.53648 cumulative IPC: 0.40033 (Simulation time: 0 hr 14 min 47 sec) 
Heartbeat CPU  0 instructions:  327000002 cycles:  636165722 heartbeat IPC: 0.54699 cumulative IPC: 0.40080 (Simulation time: 0 hr 14 min 50 sec) 
Heartbeat CPU  0 instructions:  328000000 cycles:  638103966 heartbeat IPC: 0.51593 cumulative IPC: 0.40119 (Simulation time: 0 hr 14 min 52 sec) 
Heartbeat CPU  0 instructions:  329000002 cycles:  640030126 heartbeat IPC: 0.51917 cumulative IPC: 0.40159 (Simulation time: 0 hr 14 min 55 sec) 
Heartbeat CPU  0 instructions:  330000001 cycles:  641821209 heartbeat IPC: 0.55832 cumulative IPC: 0.40208 (Simulation time: 0 hr 14 min 58 sec) 
Heartbeat CPU  0 instructions:  331000002 cycles:  643860522 heartbeat IPC: 0.49036 cumulative IPC: 0.40239 (Simulation time: 0 hr 15 min 1 sec) 
Heartbeat CPU  0 instructions:  332000000 cycles:  651197583 heartbeat IPC: 0.13629 cumulative IPC: 0.39904 (Simulation time: 0 hr 15 min 4 sec) 
Heartbeat CPU  0 instructions:  333000000 cycles:  661414906 heartbeat IPC: 0.09787 cumulative IPC: 0.39384 (Simulation time: 0 hr 15 min 8 sec) 
Heartbeat CPU  0 instructions:  334000001 cycles:  663321403 heartbeat IPC: 0.52452 cumulative IPC: 0.39426 (Simulation time: 0 hr 15 min 11 sec) 
Heartbeat CPU  0 instructions:  335000001 cycles:  665267550 heartbeat IPC: 0.51384 cumulative IPC: 0.39465 (Simulation time: 0 hr 15 min 13 sec) 
Heartbeat CPU  0 instructions:  336000000 cycles:  667130769 heartbeat IPC: 0.53671 cumulative IPC: 0.39509 (Simulation time: 0 hr 15 min 16 sec) 
Heartbeat CPU  0 instructions:  337000003 cycles:  668959206 heartbeat IPC: 0.54692 cumulative IPC: 0.39555 (Simulation time: 0 hr 15 min 19 sec) 
Heartbeat CPU  0 instructions:  338000002 cycles:  670903824 heartbeat IPC: 0.51424 cumulative IPC: 0.39594 (Simulation time: 0 hr 15 min 22 sec) 
Heartbeat CPU  0 instructions:  339000000 cycles:  672830206 heartbeat IPC: 0.51911 cumulative IPC: 0.39633 (Simulation time: 0 hr 15 min 25 sec) 
Heartbeat CPU  0 instructions:  340000000 cycles:  674609918 heartbeat IPC: 0.56189 cumulative IPC: 0.39682 (Simulation time: 0 hr 15 min 27 sec) 
Heartbeat CPU  0 instructions:  341000000 cycles:  676536697 heartbeat IPC: 0.51900 cumulative IPC: 0.39721 (Simulation time: 0 hr 15 min 30 sec) 
Heartbeat CPU  0 instructions:  342000001 cycles:  678472396 heartbeat IPC: 0.51661 cumulative IPC: 0.39758 (Simulation time: 0 hr 15 min 33 sec) 
Heartbeat CPU  0 instructions:  343000000 cycles:  680271915 heartbeat IPC: 0.55570 cumulative IPC: 0.39805 (Simulation time: 0 hr 15 min 36 sec) 
Heartbeat CPU  0 instructions:  344000000 cycles:  682164617 heartbeat IPC: 0.52835 cumulative IPC: 0.39845 (Simulation time: 0 hr 15 min 39 sec) 
Heartbeat CPU  0 instructions:  345000000 cycles:  684099508 heartbeat IPC: 0.51682 cumulative IPC: 0.39883 (Simulation time: 0 hr 15 min 41 sec) 
Heartbeat CPU  0 instructions:  346000001 cycles:  685979178 heartbeat IPC: 0.53201 cumulative IPC: 0.39923 (Simulation time: 0 hr 15 min 44 sec) 
Heartbeat CPU  0 instructions:  347000000 cycles:  687790534 heartbeat IPC: 0.55207 cumulative IPC: 0.39968 (Simulation time: 0 hr 15 min 47 sec) 
Heartbeat CPU  0 instructions:  348000000 cycles:  689724699 heartbeat IPC: 0.51702 cumulative IPC: 0.40005 (Simulation time: 0 hr 15 min 50 sec) 
Heartbeat CPU  0 instructions:  349000001 cycles:  691653942 heartbeat IPC: 0.51834 cumulative IPC: 0.40041 (Simulation time: 0 hr 15 min 53 sec) 
Heartbeat CPU  0 instructions:  350000003 cycles:  693439409 heartbeat IPC: 0.56008 cumulative IPC: 0.40087 (Simulation time: 0 hr 15 min 55 sec) 
Heartbeat CPU  0 instructions:  351000003 cycles:  695354511 heartbeat IPC: 0.52217 cumulative IPC: 0.40124 (Simulation time: 0 hr 15 min 58 sec) 
Heartbeat CPU  0 instructions:  352000000 cycles:  697293527 heartbeat IPC: 0.51572 cumulative IPC: 0.40160 (Simulation time: 0 hr 16 min 1 sec) 
Heartbeat CPU  0 instructions:  353000001 cycles:  699113453 heartbeat IPC: 0.54947 cumulative IPC: 0.40202 (Simulation time: 0 hr 16 min 4 sec) 
Heartbeat CPU  0 instructions:  354000003 cycles:  701197312 heartbeat IPC: 0.47988 cumulative IPC: 0.40228 (Simulation time: 0 hr 16 min 7 sec) 
Heartbeat CPU  0 instructions:  355000003 cycles:  715747715 heartbeat IPC: 0.06873 cumulative IPC: 0.39477 (Simulation time: 0 hr 16 min 11 sec) 
Heartbeat CPU  0 instructions:  356000000 cycles:  718835461 heartbeat IPC: 0.32386 cumulative IPC: 0.39443 (Simulation time: 0 hr 16 min 14 sec) 
Heartbeat CPU  0 instructions:  357000003 cycles:  720656598 heartbeat IPC: 0.54911 cumulative IPC: 0.39486 (Simulation time: 0 hr 16 min 16 sec) 
Heartbeat CPU  0 instructions:  358000002 cycles:  722591033 heartbeat IPC: 0.51695 cumulative IPC: 0.39522 (Simulation time: 0 hr 16 min 19 sec) 
Heartbeat CPU  0 instructions:  359000003 cycles:  724526435 heartbeat IPC: 0.51669 cumulative IPC: 0.39558 (Simulation time: 0 hr 16 min 22 sec) 
Heartbeat CPU  0 instructions:  360000000 cycles:  726309706 heartbeat IPC: 0.56077 cumulative IPC: 0.39603 (Simulation time: 0 hr 16 min 25 sec) 
Heartbeat CPU  0 instructions:  361000003 cycles:  728226161 heartbeat IPC: 0.52180 cumulative IPC: 0.39640 (Simulation time: 0 hr 16 min 28 sec) 
Heartbeat CPU  0 instructions:  362000000 cycles:  730174303 heartbeat IPC: 0.51331 cumulative IPC: 0.39674 (Simulation time: 0 hr 16 min 30 sec) 
Heartbeat CPU  0 instructions:  363000000 cycles:  731995130 heartbeat IPC: 0.54920 cumulative IPC: 0.39716 (Simulation time: 0 hr 16 min 33 sec) 
Heartbeat CPU  0 instructions:  364000000 cycles:  733861814 heartbeat IPC: 0.53571 cumulative IPC: 0.39755 (Simulation time: 0 hr 16 min 36 sec) 
Heartbeat CPU  0 instructions:  365000000 cycles:  735804651 heartbeat IPC: 0.51471 cumulative IPC: 0.39789 (Simulation time: 0 hr 16 min 39 sec) 
Heartbeat CPU  0 instructions:  366000001 cycles:  737701507 heartbeat IPC: 0.52719 cumulative IPC: 0.39826 (Simulation time: 0 hr 16 min 42 sec) 
Heartbeat CPU  0 instructions:  367000001 cycles:  739499128 heartbeat IPC: 0.55629 cumulative IPC: 0.39868 (Simulation time: 0 hr 16 min 44 sec) 
Heartbeat CPU  0 instructions:  368000000 cycles:  741432860 heartbeat IPC: 0.51713 cumulative IPC: 0.39903 (Simulation time: 0 hr 16 min 47 sec) 
Heartbeat CPU  0 instructions:  369000003 cycles:  743373345 heartbeat IPC: 0.51534 cumulative IPC: 0.39936 (Simulation time: 0 hr 16 min 50 sec) 
Heartbeat CPU  0 instructions:  370000000 cycles:  745151485 heartbeat IPC: 0.56238 cumulative IPC: 0.39979 (Simulation time: 0 hr 16 min 53 sec) 
Heartbeat CPU  0 instructions:  371000001 cycles:  747064853 heartbeat IPC: 0.52264 cumulative IPC: 0.40014 (Simulation time: 0 hr 16 min 56 sec) 
Heartbeat CPU  0 instructions:  372000000 cycles:  749006934 heartbeat IPC: 0.51491 cumulative IPC: 0.40047 (Simulation time: 0 hr 16 min 58 sec) 
Heartbeat CPU  0 instructions:  373000003 cycles:  750843577 heartbeat IPC: 0.54447 cumulative IPC: 0.40085 (Simulation time: 0 hr 17 min 1 sec) 
Heartbeat CPU  0 instructions:  374000001 cycles:  752693980 heartbeat IPC: 0.54042 cumulative IPC: 0.40123 (Simulation time: 0 hr 17 min 4 sec) 
Heartbeat CPU  0 instructions:  375000001 cycles:  754633808 heartbeat IPC: 0.51551 cumulative IPC: 0.40156 (Simulation time: 0 hr 17 min 7 sec) 
Heartbeat CPU  0 instructions:  376000000 cycles:  756549108 heartbeat IPC: 0.52211 cumulative IPC: 0.40189 (Simulation time: 0 hr 17 min 9 sec) 
Heartbeat CPU  0 instructions:  377000002 cycles:  765545427 heartbeat IPC: 0.11116 cumulative IPC: 0.39813 (Simulation time: 0 hr 17 min 13 sec) 
Heartbeat CPU  0 instructions:  378000003 cycles:  774105763 heartbeat IPC: 0.11682 cumulative IPC: 0.39471 (Simulation time: 0 hr 17 min 16 sec) 
Heartbeat CPU  0 instructions:  379000001 cycles:  776041333 heartbeat IPC: 0.51664 cumulative IPC: 0.39505 (Simulation time: 0 hr 17 min 19 sec) 
Heartbeat CPU  0 instructions:  380000000 cycles:  777828141 heartbeat IPC: 0.55966 cumulative IPC: 0.39546 (Simulation time: 0 hr 17 min 22 sec) 
Heartbeat CPU  0 instructions:  381000002 cycles:  779787310 heartbeat IPC: 0.51042 cumulative IPC: 0.39578 (Simulation time: 0 hr 17 min 25 sec) 
Heartbeat CPU  0 instructions:  382000002 cycles:  781878067 heartbeat IPC: 0.47830 cumulative IPC: 0.39602 (Simulation time: 0 hr 17 min 28 sec) 
Heartbeat CPU  0 instructions:  383000002 cycles:  783869811 heartbeat IPC: 0.50207 cumulative IPC: 0.39632 (Simulation time: 0 hr 17 min 30 sec) 
Heartbeat CPU  0 instructions:  384000000 cycles:  785721179 heartbeat IPC: 0.54014 cumulative IPC: 0.39669 (Simulation time: 0 hr 17 min 33 sec) 
Heartbeat CPU  0 instructions:  385000003 cycles:  787661081 heartbeat IPC: 0.51549 cumulative IPC: 0.39701 (Simulation time: 0 hr 17 min 36 sec) 
Heartbeat CPU  0 instructions:  386000002 cycles:  789581714 heartbeat IPC: 0.52066 cumulative IPC: 0.39734 (Simulation time: 0 hr 17 min 39 sec) 
Heartbeat CPU  0 instructions:  387000001 cycles:  791362653 heartbeat IPC: 0.56150 cumulative IPC: 0.39775 (Simulation time: 0 hr 17 min 42 sec) 
Heartbeat CPU  0 instructions:  388000000 cycles:  793289974 heartbeat IPC: 0.51885 cumulative IPC: 0.39807 (Simulation time: 0 hr 17 min 44 sec) 
Heartbeat CPU  0 instructions:  389000003 cycles:  795229030 heartbeat IPC: 0.51572 cumulative IPC: 0.39838 (Simulation time: 0 hr 17 min 47 sec) 
Heartbeat CPU  0 instructions:  390000003 cycles:  797017917 heartbeat IPC: 0.55901 cumulative IPC: 0.39878 (Simulation time: 0 hr 17 min 50 sec) 
Heartbeat CPU  0 instructions:  391000001 cycles:  798922588 heartbeat IPC: 0.52502 cumulative IPC: 0.39911 (Simulation time: 0 hr 17 min 53 sec) 
Heartbeat CPU  0 instructions:  392000000 cycles:  800861095 heartbeat IPC: 0.51586 cumulative IPC: 0.39942 (Simulation time: 0 hr 17 min 56 sec) 
Heartbeat CPU  0 instructions:  393000000 cycles:  802715238 heartbeat IPC: 0.53933 cumulative IPC: 0.39977 (Simulation time: 0 hr 17 min 58 sec) 
Heartbeat CPU  0 instructions:  394000000 cycles:  804539732 heartbeat IPC: 0.54810 cumulative IPC: 0.40014 (Simulation time: 0 hr 18 min 1 sec) 
Heartbeat CPU  0 instructions:  395000002 cycles:  806488726 heartbeat IPC: 0.51309 cumulative IPC: 0.40044 (Simulation time: 0 hr 18 min 4 sec) 
Heartbeat CPU  0 instructions:  396000000 cycles:  808408566 heartbeat IPC: 0.52088 cumulative IPC: 0.40075 (Simulation time: 0 hr 18 min 7 sec) 
Heartbeat CPU  0 instructions:  397000001 cycles:  810187895 heartbeat IPC: 0.56201 cumulative IPC: 0.40114 (Simulation time: 0 hr 18 min 10 sec) 
Heartbeat CPU  0 instructions:  398000003 cycles:  812113319 heartbeat IPC: 0.51937 cumulative IPC: 0.40145 (Simulation time: 0 hr 18 min 12 sec) 
Heartbeat CPU  0 instructions:  399000001 cycles:  815920908 heartbeat IPC: 0.26263 cumulative IPC: 0.40074 (Simulation time: 0 hr 18 min 15 sec) 
Heartbeat CPU  0 instructions:  400000000 cycles:  829714967 heartbeat IPC: 0.07249 cumulative IPC: 0.39478 (Simulation time: 0 hr 18 min 19 sec) 
Heartbeat CPU  0 instructions:  401000002 cycles:  831629227 heartbeat IPC: 0.52240 cumulative IPC: 0.39510 (Simulation time: 0 hr 18 min 22 sec) 
Heartbeat CPU  0 instructions:  402000001 cycles:  833571912 heartbeat IPC: 0.51475 cumulative IPC: 0.39540 (Simulation time: 0 hr 18 min 25 sec) 
Heartbeat CPU  0 instructions:  403000003 cycles:  835433130 heartbeat IPC: 0.53728 cumulative IPC: 0.39575 (Simulation time: 0 hr 18 min 28 sec) 
Heartbeat CPU  0 instructions:  404000000 cycles:  837273839 heartbeat IPC: 0.54327 cumulative IPC: 0.39610 (Simulation time: 0 hr 18 min 31 sec) 
Heartbeat CPU  0 instructions:  405000001 cycles:  839217435 heartbeat IPC: 0.51451 cumulative IPC: 0.39640 (Simulation time: 0 hr 18 min 33 sec) 
Heartbeat CPU  0 instructions:  406000002 cycles:  841143878 heartbeat IPC: 0.51909 cumulative IPC: 0.39671 (Simulation time: 0 hr 18 min 36 sec) 
Heartbeat CPU  0 instructions:  407000001 cycles:  842921707 heartbeat IPC: 0.56248 cumulative IPC: 0.39709 (Simulation time: 0 hr 18 min 39 sec) 
Heartbeat CPU  0 instructions:  408000000 cycles:  844856052 heartbeat IPC: 0.51697 cumulative IPC: 0.39739 (Simulation time: 0 hr 18 min 42 sec) 
Heartbeat CPU  0 instructions:  409000001 cycles:  846790029 heartbeat IPC: 0.51707 cumulative IPC: 0.39769 (Simulation time: 0 hr 18 min 45 sec) 
Heartbeat CPU  0 instructions:  410000003 cycles:  848592823 heartbeat IPC: 0.55470 cumulative IPC: 0.39805 (Simulation time: 0 hr 18 min 47 sec) 
Heartbeat CPU  0 instructions:  411000000 cycles:  850486713 heartbeat IPC: 0.52801 cumulative IPC: 0.39837 (Simulation time: 0 hr 18 min 50 sec) 
Heartbeat CPU  0 instructions:  412000000 cycles:  852424411 heartbeat IPC: 0.51608 cumulative IPC: 0.39866 (Simulation time: 0 hr 18 min 53 sec) 
Heartbeat CPU  0 instructions:  413000002 cycles:  854308280 heartbeat IPC: 0.53082 cumulative IPC: 0.39897 (Simulation time: 0 hr 18 min 56 sec) 
Heartbeat CPU  0 instructions:  414000003 cycles:  856126296 heartbeat IPC: 0.55005 cumulative IPC: 0.39932 (Simulation time: 0 hr 18 min 59 sec) 
Heartbeat CPU  0 instructions:  415000002 cycles:  858060871 heartbeat IPC: 0.51691 cumulative IPC: 0.39961 (Simulation time: 0 hr 19 min 1 sec) 
Heartbeat CPU  0 instructions:  416000000 cycles:  859991241 heartbeat IPC: 0.51803 cumulative IPC: 0.39990 (Simulation time: 0 hr 19 min 4 sec) 
Heartbeat CPU  0 instructions:  417000003 cycles:  861776183 heartbeat IPC: 0.56024 cumulative IPC: 0.40026 (Simulation time: 0 hr 19 min 7 sec) 
Heartbeat CPU  0 instructions:  418000003 cycles:  863696401 heartbeat IPC: 0.52077 cumulative IPC: 0.40055 (Simulation time: 0 hr 19 min 10 sec) 
Heartbeat CPU  0 instructions:  419000003 cycles:  865640673 heartbeat IPC: 0.51433 cumulative IPC: 0.40083 (Simulation time: 0 hr 19 min 13 sec) 
Heartbeat CPU  0 instructions:  420000000 cycles:  867462948 heartbeat IPC: 0.54876 cumulative IPC: 0.40117 (Simulation time: 0 hr 19 min 15 sec) 
Heartbeat CPU  0 instructions:  421000001 cycles:  869332703 heartbeat IPC: 0.53483 cumulative IPC: 0.40148 (Simulation time: 0 hr 19 min 18 sec) 
Heartbeat CPU  0 instructions:  422000002 cycles:  880178956 heartbeat IPC: 0.09220 cumulative IPC: 0.39734 (Simulation time: 0 hr 19 min 22 sec) 
Heartbeat CPU  0 instructions:  423000003 cycles:  887040411 heartbeat IPC: 0.14574 cumulative IPC: 0.39523 (Simulation time: 0 hr 19 min 25 sec) 
Heartbeat CPU  0 instructions:  424000000 cycles:  888851687 heartbeat IPC: 0.55210 cumulative IPC: 0.39558 (Simulation time: 0 hr 19 min 28 sec) 
Heartbeat CPU  0 instructions:  425000003 cycles:  890792198 heartbeat IPC: 0.51533 cumulative IPC: 0.39586 (Simulation time: 0 hr 19 min 31 sec) 
Heartbeat CPU  0 instructions:  426000001 cycles:  892717548 heartbeat IPC: 0.51939 cumulative IPC: 0.39615 (Simulation time: 0 hr 19 min 34 sec) 
Heartbeat CPU  0 instructions:  427000000 cycles:  894496011 heartbeat IPC: 0.56228 cumulative IPC: 0.39651 (Simulation time: 0 hr 19 min 36 sec) 
Heartbeat CPU  0 instructions:  428000000 cycles:  896410088 heartbeat IPC: 0.52245 cumulative IPC: 0.39680 (Simulation time: 0 hr 19 min 39 sec) 
Heartbeat CPU  0 instructions:  429000002 cycles:  898346075 heartbeat IPC: 0.51653 cumulative IPC: 0.39708 (Simulation time: 0 hr 19 min 42 sec) 
Heartbeat CPU  0 instructions:  430000000 cycles:  900158305 heartbeat IPC: 0.55181 cumulative IPC: 0.39742 (Simulation time: 0 hr 19 min 45 sec) 
Heartbeat CPU  0 instructions:  431000000 cycles:  902028403 heartbeat IPC: 0.53473 cumulative IPC: 0.39773 (Simulation time: 0 hr 19 min 48 sec) 
Heartbeat CPU  0 instructions:  432000000 cycles:  903955578 heartbeat IPC: 0.51889 cumulative IPC: 0.39801 (Simulation time: 0 hr 19 min 50 sec) 
Heartbeat CPU  0 instructions:  433000003 cycles:  905983203 heartbeat IPC: 0.49319 cumulative IPC: 0.39824 (Simulation time: 0 hr 19 min 53 sec) 
Heartbeat CPU  0 instructions:  434000002 cycles:  907776757 heartbeat IPC: 0.55755 cumulative IPC: 0.39858 (Simulation time: 0 hr 19 min 56 sec) 
Heartbeat CPU  0 instructions:  435000001 cycles:  909712504 heartbeat IPC: 0.51660 cumulative IPC: 0.39885 (Simulation time: 0 hr 19 min 59 sec) 
Heartbeat CPU  0 instructions:  436000000 cycles:  911634398 heartbeat IPC: 0.52032 cumulative IPC: 0.39913 (Simulation time: 0 hr 20 min 2 sec) 
Heartbeat CPU  0 instructions:  437000000 cycles:  913413731 heartbeat IPC: 0.56201 cumulative IPC: 0.39947 (Simulation time: 0 hr 20 min 4 sec) 
Heartbeat CPU  0 instructions:  438000000 cycles:  915324808 heartbeat IPC: 0.52327 cumulative IPC: 0.39975 (Simulation time: 0 hr 20 min 7 sec) 
Heartbeat CPU  0 instructions:  439000001 cycles:  917257724 heartbeat IPC: 0.51735 cumulative IPC: 0.40002 (Simulation time: 0 hr 20 min 10 sec) 
Heartbeat CPU  0 instructions:  440000000 cycles:  919089408 heartbeat IPC: 0.54595 cumulative IPC: 0.40033 (Simulation time: 0 hr 20 min 13 sec) 
Heartbeat CPU  0 instructions:  441000001 cycles:  920938399 heartbeat IPC: 0.54084 cumulative IPC: 0.40064 (Simulation time: 0 hr 20 min 16 sec) 
Heartbeat CPU  0 instructions:  442000001 cycles:  922870344 heartbeat IPC: 0.51761 cumulative IPC: 0.40090 (Simulation time: 0 hr 20 min 18 sec) 
Heartbeat CPU  0 instructions:  443000002 cycles:  924775525 heartbeat IPC: 0.52489 cumulative IPC: 0.40118 (Simulation time: 0 hr 20 min 21 sec) 
Heartbeat CPU  0 instructions:  444000000 cycles:  930292735 heartbeat IPC: 0.18125 cumulative IPC: 0.39977 (Simulation time: 0 hr 20 min 24 sec) 
Heartbeat CPU  0 instructions:  445000003 cycles:  942567956 heartbeat IPC: 0.08147 cumulative IPC: 0.39529 (Simulation time: 0 hr 20 min 28 sec) 
Heartbeat CPU  0 instructions:  446000000 cycles:  944495783 heartbeat IPC: 0.51872 cumulative IPC: 0.39556 (Simulation time: 0 hr 20 min 31 sec) 
Heartbeat CPU  0 instructions:  447000003 cycles:  946239738 heartbeat IPC: 0.57341 cumulative IPC: 0.39592 (Simulation time: 0 hr 20 min 34 sec) 
Heartbeat CPU  0 instructions:  448000000 cycles:  948134745 heartbeat IPC: 0.52770 cumulative IPC: 0.39620 (Simulation time: 0 hr 20 min 37 sec) 
Heartbeat CPU  0 instructions:  449000000 cycles:  950055091 heartbeat IPC: 0.52074 cumulative IPC: 0.39647 (Simulation time: 0 hr 20 min 40 sec) 
Heartbeat CPU  0 instructions:  450000000 cycles:  951865467 heartbeat IPC: 0.55237 cumulative IPC: 0.39679 (Simulation time: 0 hr 20 min 42 sec) 
Heartbeat CPU  0 instructions:  451000000 cycles:  953687019 heartbeat IPC: 0.54898 cumulative IPC: 0.39711 (Simulation time: 0 hr 20 min 45 sec) 
Heartbeat CPU  0 instructions:  452000000 cycles:  955609565 heartbeat IPC: 0.52014 cumulative IPC: 0.39738 (Simulation time: 0 hr 20 min 48 sec) 
Heartbeat CPU  0 instructions:  453000001 cycles:  957493193 heartbeat IPC: 0.53089 cumulative IPC: 0.39766 (Simulation time: 0 hr 20 min 51 sec) 
Heartbeat CPU  0 instructions:  454000001 cycles:  959240721 heartbeat IPC: 0.57224 cumulative IPC: 0.39800 (Simulation time: 0 hr 20 min 54 sec) 
Heartbeat CPU  0 instructions:  455000000 cycles:  961155491 heartbeat IPC: 0.52226 cumulative IPC: 0.39827 (Simulation time: 0 hr 20 min 56 sec) 
Heartbeat CPU  0 instructions:  456000000 cycles:  963070234 heartbeat IPC: 0.52226 cumulative IPC: 0.39853 (Simulation time: 0 hr 20 min 59 sec) 
Heartbeat CPU  0 instructions:  457000000 cycles:  964825579 heartbeat IPC: 0.56969 cumulative IPC: 0.39887 (Simulation time: 0 hr 21 min 2 sec) 
Heartbeat CPU  0 instructions:  458000003 cycles:  966699679 heartbeat IPC: 0.53359 cumulative IPC: 0.39915 (Simulation time: 0 hr 21 min 5 sec) 
Heartbeat CPU  0 instructions:  459000000 cycles:  968621284 heartbeat IPC: 0.52040 cumulative IPC: 0.39941 (Simulation time: 0 hr 21 min 8 sec) 
Heartbeat CPU  0 instructions:  460000000 cycles:  970447939 heartbeat IPC: 0.54745 cumulative IPC: 0.39971 (Simulation time: 0 hr 21 min 10 sec) 
Heartbeat CPU  0 instructions:  461000000 cycles:  972247955 heartbeat IPC: 0.55555 cumulative IPC: 0.40002 (Simulation time: 0 hr 21 min 13 sec) 
Heartbeat CPU  0 instructions:  462000003 cycles:  974164989 heartbeat IPC: 0.52164 cumulative IPC: 0.40028 (Simulation time: 0 hr 21 min 16 sec) 
Heartbeat CPU  0 instructions:  463000003 cycles:  976059041 heartbeat IPC: 0.52797 cumulative IPC: 0.40055 (Simulation time: 0 hr 21 min 19 sec) 
Heartbeat CPU  0 instructions:  464000000 cycles:  977802065 heartbeat IPC: 0.57371 cumulative IPC: 0.40088 (Simulation time: 0 hr 21 min 22 sec) 
Heartbeat CPU  0 instructions:  465000000 cycles:  979708353 heartbeat IPC: 0.52458 cumulative IPC: 0.40114 (Simulation time: 0 hr 21 min 24 sec) 
Heartbeat CPU  0 instructions:  466000000 cycles:  981619391 heartbeat IPC: 0.52328 cumulative IPC: 0.40139 (Simulation time: 0 hr 21 min 27 sec) 
Heartbeat CPU  0 instructions:  467000000 cycles:  994282287 heartbeat IPC: 0.07897 cumulative IPC: 0.39698 (Simulation time: 0 hr 21 min 31 sec) 
Heartbeat CPU  0 instructions:  468000000 cycles:  999082321 heartbeat IPC: 0.20833 cumulative IPC: 0.39600 (Simulation time: 0 hr 21 min 34 sec) 
Heartbeat CPU  0 instructions:  469000002 cycles: 1001001308 heartbeat IPC: 0.52111 cumulative IPC: 0.39626 (Simulation time: 0 hr 21 min 37 sec) 
Heartbeat CPU  0 instructions:  470000000 cycles: 1002838339 heartbeat IPC: 0.54436 cumulative IPC: 0.39655 (Simulation time: 0 hr 21 min 40 sec) 
Heartbeat CPU  0 instructions:  471000002 cycles: 1004637369 heartbeat IPC: 0.55586 cumulative IPC: 0.39686 (Simulation time: 0 hr 21 min 43 sec) 
Heartbeat CPU  0 instructions:  472000000 cycles: 1006567005 heartbeat IPC: 0.51823 cumulative IPC: 0.39711 (Simulation time: 0 hr 21 min 45 sec) 
Heartbeat CPU  0 instructions:  473000003 cycles: 1008469057 heartbeat IPC: 0.52575 cumulative IPC: 0.39737 (Simulation time: 0 hr 21 min 48 sec) 
Heartbeat CPU  0 instructions:  474000002 cycles: 1010218619 heartbeat IPC: 0.57157 cumulative IPC: 0.39769 (Simulation time: 0 hr 21 min 51 sec) 
Heartbeat CPU  0 instructions:  475000003 cycles: 1012122720 heartbeat IPC: 0.52518 cumulative IPC: 0.39795 (Simulation time: 0 hr 21 min 54 sec) 
Heartbeat CPU  0 instructions:  476000000 cycles: 1014039033 heartbeat IPC: 0.52183 cumulative IPC: 0.39820 (Simulation time: 0 hr 21 min 57 sec) 
Heartbeat CPU  0 instructions:  477000003 cycles: 1015809272 heartbeat IPC: 0.56490 cumulative IPC: 0.39852 (Simulation time: 0 hr 21 min 59 sec) 
Heartbeat CPU  0 instructions:  478000003 cycles: 1017666614 heartbeat IPC: 0.53840 cumulative IPC: 0.39879 (Simulation time: 0 hr 22 min 2 sec) 
Heartbeat CPU  0 instructions:  479000000 cycles: 1019588054 heartbeat IPC: 0.52044 cumulative IPC: 0.39904 (Simulation time: 0 hr 22 min 5 sec) 
Heartbeat CPU  0 instructions:  480000000 cycles: 1021434140 heartbeat IPC: 0.54169 cumulative IPC: 0.39931 (Simulation time: 0 hr 22 min 8 sec) 
Heartbeat CPU  0 instructions:  481000000 cycles: 1023209963 heartbeat IPC: 0.56312 cumulative IPC: 0.39962 (Simulation time: 0 hr 22 min 11 sec) 
Heartbeat CPU  0 instructions:  482000000 cycles: 1025130345 heartbeat IPC: 0.52073 cumulative IPC: 0.39986 (Simulation time: 0 hr 22 min 13 sec) 
Heartbeat CPU  0 instructions:  483000001 cycles: 1027130258 heartbeat IPC: 0.50002 cumulative IPC: 0.40007 (Simulation time: 0 hr 22 min 16 sec) 
Heartbeat CPU  0 instructions:  484000000 cycles: 1028999440 heartbeat IPC: 0.53499 cumulative IPC: 0.40033 (Simulation time: 0 hr 22 min 19 sec) 
Heartbeat CPU  0 instructions:  485000001 cycles: 1031019012 heartbeat IPC: 0.49515 cumulative IPC: 0.40053 (Simulation time: 0 hr 22 min 22 sec) 
Heartbeat CPU  0 instructions:  486000001 cycles: 1032940946 heartbeat IPC: 0.52031 cumulative IPC: 0.40077 (Simulation time: 0 hr 22 min 25 sec) 
Heartbeat CPU  0 instructions:  487000000 cycles: 1034729394 heartbeat IPC: 0.55914 cumulative IPC: 0.40106 (Simulation time: 0 hr 22 min 27 sec) 
Heartbeat CPU  0 instructions:  488000000 cycles: 1036568430 heartbeat IPC: 0.54376 cumulative IPC: 0.40134 (Simulation time: 0 hr 22 min 30 sec) 
Heartbeat CPU  0 instructions:  489000001 cycles: 1043955434 heartbeat IPC: 0.13537 cumulative IPC: 0.39932 (Simulation time: 0 hr 22 min 33 sec) 
Heartbeat CPU  0 instructions:  490000003 cycles: 1054113609 heartbeat IPC: 0.09844 cumulative IPC: 0.39621 (Simulation time: 0 hr 22 min 37 sec) 
Heartbeat CPU  0 instructions:  491000001 cycles: 1055903361 heartbeat IPC: 0.55874 cumulative IPC: 0.39651 (Simulation time: 0 hr 22 min 40 sec) 
Heartbeat CPU  0 instructions:  492000000 cycles: 1057832867 heartbeat IPC: 0.51827 cumulative IPC: 0.39675 (Simulation time: 0 hr 22 min 43 sec) 
Heartbeat CPU  0 instructions:  493000000 cycles: 1059746187 heartbeat IPC: 0.52265 cumulative IPC: 0.39699 (Simulation time: 0 hr 22 min 46 sec) 
Heartbeat CPU  0 instructions:  494000002 cycles: 1061500438 heartbeat IPC: 0.57004 cumulative IPC: 0.39730 (Simulation time: 0 hr 22 min 48 sec) 
Heartbeat CPU  0 instructions:  495000000 cycles: 1063407357 heartbeat IPC: 0.52441 cumulative IPC: 0.39754 (Simulation time: 0 hr 22 min 51 sec) 
Heartbeat CPU  0 instructions:  496000000 cycles: 1065332875 heartbeat IPC: 0.51934 cumulative IPC: 0.39778 (Simulation time: 0 hr 22 min 54 sec) 
Heartbeat CPU  0 instructions:  497000001 cycles: 1067145726 heartbeat IPC: 0.55162 cumulative IPC: 0.39806 (Simulation time: 0 hr 22 min 57 sec) 
Heartbeat CPU  0 instructions:  498000001 cycles: 1068982922 heartbeat IPC: 0.54431 cumulative IPC: 0.39832 (Simulation time: 0 hr 23 min 0 sec) 
Heartbeat CPU  0 instructions:  499000001 cycles: 1070909554 heartbeat IPC: 0.51904 cumulative IPC: 0.39856 (Simulation time: 0 hr 23 min 2 sec) 
Heartbeat CPU  0 instructions:  500000000 cycles: 1072786548 heartbeat IPC: 0.53277 cumulative IPC: 0.39881 (Simulation time: 0 hr 23 min 5 sec) 
Heartbeat CPU  0 instructions:  501000002 cycles: 1074558445 heartbeat IPC: 0.56437 cumulative IPC: 0.39910 (Simulation time: 0 hr 23 min 8 sec) 
Heartbeat CPU  0 instructions:  502000002 cycles: 1076478865 heartbeat IPC: 0.52072 cumulative IPC: 0.39933 (Simulation time: 0 hr 23 min 11 sec) 
Heartbeat CPU  0 instructions:  503000002 cycles: 1078398734 heartbeat IPC: 0.52087 cumulative IPC: 0.39956 (Simulation time: 0 hr 23 min 13 sec) 
Heartbeat CPU  0 instructions:  504000000 cycles: 1080147661 heartbeat IPC: 0.57178 cumulative IPC: 0.39986 (Simulation time: 0 hr 23 min 16 sec) 
Heartbeat CPU  0 instructions:  505000002 cycles: 1082044859 heartbeat IPC: 0.52709 cumulative IPC: 0.40010 (Simulation time: 0 hr 23 min 19 sec) 
Heartbeat CPU  0 instructions:  506000002 cycles: 1083970935 heartbeat IPC: 0.51919 cumulative IPC: 0.40033 (Simulation time: 0 hr 23 min 22 sec) 
Heartbeat CPU  0 instructions:  507000001 cycles: 1085780009 heartbeat IPC: 0.55277 cumulative IPC: 0.40060 (Simulation time: 0 hr 23 min 25 sec) 
Heartbeat CPU  0 instructions:  508000000 cycles: 1087608145 heartbeat IPC: 0.54700 cumulative IPC: 0.40086 (Simulation time: 0 hr 23 min 27 sec) 
Heartbeat CPU  0 instructions:  509000000 cycles: 1089543587 heartbeat IPC: 0.51668 cumulative IPC: 0.40108 (Simulation time: 0 hr 23 min 30 sec) 
Heartbeat CPU  0 instructions:  510000003 cycles: 1091433871 heartbeat IPC: 0.52902 cumulative IPC: 0.40132 (Simulation time: 0 hr 23 min 33 sec) 
Heartbeat CPU  0 instructions:  511000001 cycles: 1093501488 heartbeat IPC: 0.48365 cumulative IPC: 0.40148 (Simulation time: 0 hr 23 min 36 sec) 
Heartbeat CPU  0 instructions:  512000000 cycles: 1107793447 heartbeat IPC: 0.06997 cumulative IPC: 0.39692 (Simulation time: 0 hr 23 min 40 sec) 
[...]
scooby_state_40d42d|39|-16 1,0,0,0,0,0,0,0,0,0,0,0,0,0,0,1,
scooby_state_410004|0|-63 1,0,0,0,0,0,0,0,0,0,0,0,0,0,0,1,
scooby_state_40ec1c|58|0 1,0,0,0,0,0,0,0,0,0,0,0,0,0,0,1,
scooby_state_40f146|5|1 1,0,0,0,0,0,0,0,0,0,0,0,0,0,0,1,
scooby_state_40e300|12|1 1,0,0,0,0,0,0,0,0,0,0,0,0,0,0,1,
scooby_state_40de83|58|1 1,0,0,0,0,0,0,0,0,0,0,0,0,0,0,1,
scooby_state_410f1f|26|1 1,0,0,0,0,0,0,0,0,0,0,0,0,0,0,1,
scooby_state_40f241|9|1 1,0,0,0,0,0,0,0,0,0,0,0,0,0,0,1,
scooby_state_40f146|23|-15 1,0,0,0,0,0,0,0,0,0,0,0,0,0,0,1,
scooby_state_40d325|41|1 1,0,0,0,0,0,0,0,0,0,0,0,0,0,0,1,
scooby_state_4100c5|3|1 1,0,0,0,0,0,0,0,0,0,0,0,0,0,0,1,
scooby_state_40e2c7|11|1 1,0,0,0,0,0,0,0,0,0,0,0,0,0,0,1,
scooby_state_411086|2|1 1,0,0,0,0,0,0,0,0,0,0,0,0,0,0,1,
scooby_state_410941|37|1 1,0,0,0,0,0,0,0,0,0,0,0,0,0,0,1,
scooby_state_410785|30|1 1,0,0,0,0,0,0,0,0,0,0,0,0,0,0,1,
scooby_state_410e43|57|1 1,0,0,0,0,0,0,0,0,0,0,0,0,0,0,1,
scooby_state_410542|21|1 1,0,0,0,0,0,0,0,0,0,0,0,0,0,0,1,
scooby_state_40de42|57|1 1,0,0,0,0,0,0,0,0,0,0,0,0,0,0,1,
scooby_state_40e5c5|23|1 1,0,0,0,0,0,0,0,0,0,0,0,0,0,0,1,
scooby_state_411040|1|1 1,0,0,0,0,0,0,0,0,0,0,0,0,0,0,1,
scooby_state_40e9c0|39|1 1,0,0,0,0,0,0,0,0,0,0,0,0,0,0,1,
scooby_state_40edfe|13|0 1,0,0,0,0,0,0,0,0,0,0,0,0,0,0,1,
scooby_state_40eb08|21|16 1,0,0,0,0,0,0,0,0,0,0,0,0,0,0,1,
scooby_state_40dd02|52|1 1,0,0,0,0,0,0,0,0,0,0,0,0,0,0,1,
scooby_state_40fe80|58|1 1,0,0,0,0,0,0,0,0,0,0,0,0,0,0,1,
scooby_state_40f342|13|1 1,0,0,0,0,0,0,0,0,0,0,0,0,0,0,1,
scooby_state_410ec5|59|1 1,0,0,0,0,0,0,0,0,0,0,0,0,0,0,1,
scooby_state_40d604|24|1 1,0,0,0,0,0,0,0,0,0,0,0,0,0,0,1,
scooby_state_40eea7|22|0 1,0,0,0,0,0,0,0,0,0,0,0,0,0,0,1,
scooby_state_4111fe|32|1 1,0,0,0,0,0,0,0,0,0,0,0,0,0,0,1,
scooby_state_40cec7|59|1 1,0,0,0,0,0,0,0,0,0,0,0,0,0,0,1,
scooby_state_40e442|17|1 1,0,0,0,0,0,0,0,0,0,0,0,0,0,0,1,
scooby_state_410807|32|1 1,0,0,0,0,0,0,0,0,0,0,0,0,0,0,1,
scooby_state_40f7c5|31|1 1,0,0,0,0,0,0,0,0,0,0,0,0,0,0,1,
scooby_state_4104c0|19|1 1,0,0,0,0,0,0,0,0,0,0,0,0,0,0,1,
scooby_state_40e929|16|-6 1,0,0,0,0,0,0,0,0,0,0,0,0,0,0,1,
scooby_state_40d685|26|1 1,0,0,0,0,0,0,0,0,0,0,0,0,0,0,1,
scooby_state_4105c3|23|1 1,0,0,0,0,0,0,0,0,0,0,0,0,0,0,1,
scooby_state_410a05|40|1 1,0,0,0,0,0,0,0,0,0,0,0,0,0,0,1,
scooby_state_40f0c4|38|-15 1,0,0,0,0,0,0,0,0,0,0,0,0,0,0,1,
scooby_state_40ed01|52|1 1,0,0,0,0,0,0,0,0,0,0,0,0,0,0,1,
scooby_state_40e6a3|39|0 1,0,0,0,0,0,0,0,0,0,0,0,0,0,0,1,
scooby_state_410c42|49|1 1,0,0,0,0,0,0,0,0,0,0,0,0,0,0,1,
scooby_state_40e6ba|35|0 1,0,0,0,0,0,0,0,0,0,0,0,0,0,0,1,
scooby_state_40dc02|48|1 1,0,0,0,0,0,0,0,0,0,0,0,0,0,0,1,
scooby_state_40ec60|41|-14 1,0,0,0,0,0,0,0,0,0,0,0,0,0,0,1,
scooby_state_4112c6|11|1 1,0,0,0,0,0,0,0,0,0,0,0,0,0,0,1,
scooby_state_40ef8a|56|17 1,0,0,0,0,0,0,0,0,0,0,0,0,0,0,1,
scooby_state_40e548|21|1 1,0,0,0,0,0,0,0,0,0,0,0,0,0,0,1,
scooby_state_40eea2|14|0 1,0,0,0,0,0,0,0,0,0,0,0,0,0,0,1,
scooby_state_40ebc2|47|1 1,0,0,0,0,0,0,0,0,0,0,0,0,0,0,1,
scooby_state_410f83|62|1 1,0,0,0,0,0,0,0,0,0,0,0,0,0,0,1,
scooby_state_410248|9|1 1,0,0,0,0,0,0,0,0,0,0,0,0,0,0,1,
scooby_state_40d844|33|1 1,0,0,0,0,0,0,0,0,0,0,0,0,0,0,1,
scooby_state_40d6c2|27|1 1,0,0,0,0,0,0,0,0,0,0,0,0,0,0,1,
scooby_state_411346|13|1 1,0,0,0,0,0,0,0,0,0,0,0,0,0,0,1,
scooby_state_411145|5|1 1,0,0,0,0,0,0,0,0,0,0,0,0,0,0,1,
scooby_state_4110c5|3|1 1,0,0,0,0,0,0,0,0,0,0,0,0,0,0,1,
scooby_state_4108c5|35|1 1,0,0,0,0,0,0,0,0,0,0,0,0,0,0,1,
scooby_state_410d02|52|1 1,0,0,0,0,0,0,0,0,0,0,0,0,0,0,1,
scooby_state_40d3ed|40|-16 1,0,0,0,0,0,0,0,0,0,0,0,0,0,0,1,
scooby_state_4111c6|7|1 1,0,0,0,0,0,0,0,0,0,0,0,0,0,0,1,
scooby_state_41042d|45|0 1,0,0,0,0,0,0,0,0,0,0,0,0,0,0,1,
scooby_state_410fcb|28|1 1,0,0,0,0,0,0,0,0,0,0,0,0,0,0,1,
scooby_state_40ed43|62|0 1,0,0,0,0,0,0,0,0,0,0,0,0,0,0,1,
scooby_state_40f4c7|19|1 1,0,0,0,0,0,0,0,0,0,0,0,0,0,0,1,
scooby_state_40e5cd|21|0 1,0,0,0,0,0,0,0,0,0,0,0,0,0,0,1,
scooby_state_40f4a5|7|0 1,0,0,0,0,0,0,0,0,0,0,0,0,0,0,1,
scooby_state_40f443|17|1 1,0,0,0,0,0,0,0,0,0,0,0,0,0,0,1,
scooby_state_40f1c0|30|15 1,0,0,0,0,0,0,0,0,0,0,0,0,0,0,1,
scooby_state_40f0b2|39|0 1,0,0,0,0,0,0,0,0,0,0,0,0,0,0,1,
scooby_state_40f07a|5|-1 1,0,0,0,0,0,0,0,0,0,0,0,0,0,0,1,
scooby_state_40dd45|53|1 1,0,0,0,0,0,0,0,0,0,0,0,0,0,0,1,
scooby_state_410444|17|1 1,0,0,0,0,0,0,0,0,0,0,0,0,0,0,1,
scooby_state_411013|29|1 1,0,0,0,0,0,0,0,0,0,0,0,0,0,0,1,
scooby_state_40f080|39|-1 1,0,0,0,0,0,0,0,0,0,0,0,0,0,0,1,
scooby_state_40f903|36|1 1,0,0,0,0,0,0,0,0,0,0,0,0,0,0,1,
scooby_state_411246|9|1 1,0,0,0,0,0,0,0,0,0,0,0,0,0,0,1,
scooby_state_40ec41|49|1 1,0,0,0,0,0,0,0,0,0,0,0,0,0,0,1,
scooby_state_40d202|8|1 1,0,0,0,0,0,0,0,0,0,0,0,0,0,0,1,
scooby_state_40d2ed|8|-14 1,0,0,0,0,0,0,0,0,0,0,0,0,0,0,1,
scooby_state_40fa02|40|1 1,0,0,0,0,0,0,0,0,0,0,0,0,0,0,1,
scooby_state_40cf28|11|-41 1,0,0,0,0,0,0,0,0,0,0,0,0,0,0,1,
scooby_state_40eaa6|61|15 1,0,0,0,0,0,0,0,0,0,0,0,0,0,0,1,
scooby_state_40fa87|42|1 1,0,0,0,0,0,0,0,0,0,0,0,0,0,0,1,
scooby_state_40fb09|44|1 1,0,0,0,0,0,0,0,0,0,0,0,0,0,0,1,
scooby_state_40e725|41|0 1,0,0,0,0,0,0,0,0,0,0,0,0,0,0,1,
scooby_state_40fb48|45|1 1,0,0,0,0,0,0,0,0,0,0,0,0,0,0,1,
scooby_state_40f403|16|1 1,0,0,0,0,0,0,0,0,0,0,0,0,0,0,1,
scooby_state_40edc0|55|1 1,0,0,0,0,0,0,0,0,0,0,0,0,0,0,1,
scooby_state_40d583|22|1 1,0,0,0,0,0,0,0,0,0,0,0,0,0,0,1,
scooby_state_40d5c3|23|1 1,0,0,0,0,0,0,0,0,0,0,0,0,0,0,1,
scooby_state_40d643|25|1 1,0,0,0,0,0,0,0,0,0,0,0,0,0,0,1,
scooby_state_40d703|28|1 1,0,0,0,0,0,0,0,0,0,0,0,0,0,0,1,
scooby_state_40d741|29|1 1,0,0,0,0,0,0,0,0,0,0,0,0,0,0,1,
scooby_state_40d783|30|1 1,0,0,0,0,0,0,0,0,0,0,0,0,0,0,1,
scooby_state_40d7c0|31|1 1,0,0,0,0,0,0,0,0,0,0,0,0,0,0,1,
scooby_state_40d806|32|1 1,0,0,0,0,0,0,0,0,0,0,0,0,0,0,1,
scooby_state_411381|14|0 1,0,0,0,0,0,0,0,0,0,0,0,0,0,0,1,
scooby_state_40d887|34|1 1,0,0,0,0,0,0,0,0,0,0,0,0,0,0,1,
scooby_state_40d902|36|1 1,0,0,0,0,0,0,0,0,0,0,0,0,0,0,1,
scooby_state_40d985|38|1 1,0,0,0,0,0,0,0,0,0,0,0,0,0,0,1,
scooby_state_40d9c7|39|1 1,0,0,0,0,0,0,0,0,0,0,0,0,0,0,1,
scooby_state_40da03|40|1 1,0,0,0,0,0,0,0,0,0,0,0,0,0,0,1,
scooby_state_411306|12|1 1,0,0,0,0,0,0,0,0,0,0,0,0,0,0,1,
scooby_state_40f5c2|23|1 1,0,0,0,0,0,0,0,0,0,0,0,0,0,0,1,
scooby_state_40f701|28|1 1,0,0,0,0,0,0,0,0,0,0,0,0,0,0,1,
scooby_state_410cc1|51|1 1,0,0,0,0,0,0,0,0,0,0,0,0,0,0,1,
scooby_state_40f483|18|1 1,0,0,0,0,0,0,0,0,0,0,0,0,0,0,1,
scooby_state_410840|33|1 1,0,0,0,0,0,0,0,0,0,0,0,0,0,0,1,
scooby_state_40f6c5|27|1 1,0,0,0,0,0,0,0,0,0,0,0,0,0,0,1,
scooby_state_410f83|27|1 1,0,0,0,0,0,0,0,0,0,0,0,0,0,0,1,
scooby_state_4101c1|7|1 1,0,0,0,0,0,0,0,0,0,0,0,0,0,0,1,
scooby_state_40d2c7|11|1 1,0,0,0,0,0,0,0,0,0,0,0,0,0,0,1,
scooby_state_410b00|44|1 1,0,0,0,0,0,0,0,0,0,0,0,0,0,0,1,
scooby_state_410bc1|47|1 1,0,0,0,0,0,0,0,0,0,0,0,0,0,0,1,
scooby_state_40f641|25|1 1,0,0,0,0,0,0,0,0,0,0,0,0,0,0,1,
scooby_state_40f0d9|46|-15 1,0,0,0,0,0,0,0,0,0,0,0,0,0,0,1,
scooby_state_40dac0|43|1 1,0,0,0,0,0,0,0,0,0,0,0,0,0,0,1,
scooby_state_40ea11|54|0 1,0,0,0,0,0,0,0,0,0,0,0,0,0,0,1,
scooby_state_40e5dc|30|0 1,0,0,0,0,0,0,0,0,0,0,0,0,0,0,1,
scooby_state_40db46|45|1 1,0,0,0,0,0,0,0,0,0,0,0,0,0,0,1,
scooby_state_40dbc5|47|1 1,0,0,0,0,0,0,0,0,0,0,0,0,0,0,1,
scooby_state_40dd85|54|1 1,0,0,0,0,0,0,0,0,0,0,0,0,0,0,1,
scooby_state_40e182|6|1 1,0,0,0,0,0,0,0,0,0,0,0,0,0,0,1,
scooby_state_40ecc6|5|-15 1,0,0,0,0,0,0,0,0,0,0,0,0,0,0,1,
scooby_state_40f602|24|1 1,0,0,0,0,0,0,0,0,0,0,0,0,0,0,1,
scooby_state_4110fd|39|-15 1,0,0,0,0,0,0,0,0,0,0,0,0,0,0,1,
scooby_state_40fcc3|51|1 1,0,0,0,0,0,0,0,0,0,0,0,0,0,0,1,
scooby_state_40f886|34|1 1,0,0,0,0,0,0,0,0,0,0,0,0,0,0,1,
scooby_state_40fd43|53|1 1,0,0,0,0,0,0,0,0,0,0,0,0,0,0,1,
scooby_state_410980|38|1 1,0,0,0,0,0,0,0,0,0,0,0,0,0,0,1,
scooby_state_40ec07|48|1 1,0,0,0,0,0,0,0,0,0,0,0,0,0,0,1,
scooby_state_410086|2|1 1,0,0,0,0,0,0,0,0,0,0,0,0,0,0,1,
scooby_state_410280|10|1 1,0,0,0,0,0,0,0,0,0,0,0,0,0,0,1,
scooby_state_410685|26|1 1,0,0,0,0,0,0,0,0,0,0,0,0,0,0,1,
scooby_state_40ec9d|55|30 1,0,0,0,0,0,0,0,0,0,0,0,0,0,0,1,
scooby_state_40e61b|23|0 1,0,0,0,0,0,0,0,0,0,0,0,0,0,0,1,
scooby_state_410381|14|1 1,0,0,0,0,0,0,0,0,0,0,0,0,0,0,1,
scooby_state_40ed43|53|1 1,0,0,0,0,0,0,0,0,0,0,0,0,0,0,1,
scooby_state_410409|16|1 1,0,0,0,0,0,0,0,0,0,0,0,0,0,0,1,
scooby_state_40d486|18|0 1,0,0,0,0,0,0,0,0,0,0,0,0,0,0,1,
scooby_state_40e6b2|18|-1 1,0,0,0,0,0,0,0,0,0,0,0,0,0,0,1,
scooby_state_410a46|41|1 1,0,0,0,0,0,0,0,0,0,0,0,0,0,0,1,
scooby_state_40e500|59|38 1,0,0,0,0,0,0,0,0,0,0,0,0,0,0,1,
scooby_state_40ce40|57|1 1,0,0,0,0,0,0,0,0,0,0,0,0,0,0,1,
scooby_state_40cc41|49|1 1,0,0,0,0,0,0,0,0,0,0,0,0,0,0,1,
scooby_state_40cc83|50|1 1,0,0,0,0,0,0,0,0,0,0,0,0,0,0,1,
scooby_state_40cd47|53|1 1,0,0,0,0,0,0,0,0,0,0,0,0,0,0,1,
scooby_state_40cd80|54|1 1,0,0,0,0,0,0,0,0,0,0,0,0,0,0,1,
scooby_state_40ecc6|25|-15 1,0,0,0,0,0,0,0,0,0,0,0,0,0,0,1,
scooby_state_410885|34|1 1,0,0,0,0,0,0,0,0,0,0,0,0,0,0,1,
scooby_state_40cdc0|55|1 1,0,0,0,0,0,0,0,0,0,0,0,0,0,0,1,
scooby_state_40ce00|56|1 1,0,0,0,0,0,0,0,0,0,0,0,0,0,0,1,
scooby_state_40ec9d|39|30 1,0,0,0,0,0,0,0,0,0,0,0,0,0,0,1,
scooby_state_40f102|4|1 1,0,0,0,0,0,0,0,0,0,0,0,0,0,0,1,
scooby_state_40cf04|60|1 1,0,0,0,0,0,0,0,0,0,0,0,0,0,0,1,
scooby_state_40cf45|61|1 1,0,0,0,0,0,0,0,0,0,0,0,0,0,0,1,
scooby_state_40cf86|62|1 1,0,0,0,0,0,0,0,0,0,0,0,0,0,0,1,
scooby_state_40cfc2|63|1 1,0,0,0,0,0,0,0,0,0,0,0,0,0,0,1,
scooby_state_40e642|25|1 1,0,0,0,0,0,0,0,0,0,0,0,0,0,0,1,
scooby_state_40d002|0|0 1,0,0,0,0,0,0,0,0,0,0,0,0,0,0,1,
scooby_state_40d043|1|1 1,0,0,0,0,0,0,0,0,0,0,0,0,0,0,1,
scooby_state_40d080|2|1 1,0,0,0,0,0,0,0,0,0,0,0,0,0,0,1,
scooby_state_411541|21|1 1,0,0,0,0,0,0,0,0,0,0,0,0,0,0,1,
scooby_state_40fc86|50|1 1,0,0,0,0,0,0,0,0,0,0,0,0,0,0,1,
scooby_state_40ee80|58|1 1,0,0,0,0,0,0,0,0,0,0,0,0,0,0,1,
scooby_state_40e94a|13|0 1,0,0,0,0,0,0,0,0,0,0,0,0,0,0,1,
scooby_state_40d325|41|-19 1,0,0,0,0,0,0,0,0,0,0,0,0,0,0,1,
scooby_state_4113c1|15|1 1,0,0,0,0,0,0,0,0,0,0,0,0,0,0,1,
scooby_state_411401|16|1 1,0,0,0,0,0,0,0,0,0,0,0,0,0,0,1,
scooby_state_411481|18|1 1,0,0,0,0,0,0,0,0,0,0,0,0,0,0,1,
scooby_state_4114c1|19|1 1,0,0,0,0,0,0,0,0,0,0,0,0,0,0,1,
scooby_state_411501|20|1 1,0,0,0,0,0,0,0,0,0,0,0,0,0,0,1,
scooby_state_40d0c2|3|1 1,0,0,0,0,0,0,0,0,0,0,0,0,0,0,1,
scooby_state_411581|22|1 1,0,0,0,0,0,0,0,0,0,0,0,0,0,0,1,
scooby_state_4115c0|23|1 1,0,0,0,0,0,0,0,0,0,0,0,0,0,0,1,
scooby_state_40cb80|46|0 1,0,0,0,0,0,0,0,0,0,0,0,0,0,0,1,
scooby_state_40e006|0|-63 1,0,0,0,0,0,0,0,0,0,0,0,0,0,0,1,
scooby_state_40cbc2|47|1 1,0,0,0,0,0,0,0,0,0,0,0,0,0,0,1,
scooby_state_40cc02|48|1 1,0,0,0,0,0,0,0,0,0,0,0,0,0,0,1,
scooby_state_40dfc2|63|1 1,0,0,0,0,0,0,0,0,0,0,0,0,0,0,1,
scooby_state_40f9c4|39|1 1,0,0,0,0,0,0,0,0,0,0,0,0,0,0,1,
scooby_state_40e681|26|1 1,0,0,0,0,0,0,0,0,0,0,0,0,0,0,1,
scooby_state_40e5ef|15|0 1,0,0,0,0,0,0,0,0,0,0,0,0,0,0,1,
scooby_state_40ff43|61|1 1,0,0,0,0,0,0,0,0,0,0,0,0,0,0,1,
scooby_state_410344|13|1 1,0,0,0,0,0,0,0,0,0,0,0,0,0,0,1,
scooby_state_40f587|22|1 1,0,0,0,0,0,0,0,0,0,0,0,0,0,0,1,
scooby_state_410704|28|1 1,0,0,0,0,0,0,0,0,0,0,0,0,0,0,1,
scooby_state_40f0b7|47|0 1,0,0,0,0,0,0,0,0,0,0,0,0,0,0,1,
scooby_state_40ea46|41|1 1,0,0,0,0,0,0,0,0,0,0,0,0,0,0,1,
scooby_state_40df41|61|1 1,0,0,0,0,0,0,0,0,0,0,0,0,0,0,1,
scooby_state_40e588|22|1 1,0,0,0,0,0,0,0,0,0,0,0,0,0,0,1,
scooby_state_40e5e1|27|0 1,0,0,0,0,0,0,0,0,0,0,0,0,0,0,1,
scooby_state_410457|53|0 1,0,0,0,0,0,0,0,0,0,0,0,0,0,0,1,
scooby_state_40e8c1|35|1 1,0,0,0,0,0,0,0,0,0,0,0,0,0,0,1,
scooby_state_40fe43|57|1 1,0,0,0,0,0,0,0,0,0,0,0,0,0,0,1,
scooby_state_410d46|53|1 1,0,0,0,0,0,0,0,0,0,0,0,0,0,0,1,
scooby_state_410b45|45|1 1,0,0,0,0,0,0,0,0,0,0,0,0,0,0,1,
scooby_state_40e53f|62|1 1,0,0,0,0,0,0,0,0,0,0,0,0,0,0,1,
scooby_state_40ec60|21|-14 1,0,0,0,0,0,0,0,0,0,0,0,0,0,0,1,
scooby_state_40ce80|58|1 1,0,0,0,0,0,0,0,0,0,0,0,0,0,0,1,
scooby_state_411001|0|0 1,0,0,0,0,0,0,0,0,0,0,0,0,0,0,1,
scooby_state_40d102|4|1 1,0,0,0,0,0,0,0,0,0,0,0,0,0,0,1,
scooby_state_40d147|5|1 1,0,0,0,0,0,0,0,0,0,0,0,0,0,0,1,
scooby_state_40d183|6|1 1,0,0,0,0,0,0,0,0,0,0,0,0,0,0,1,
scooby_state_40d1c3|7|1 1,0,0,0,0,0,0,0,0,0,0,0,0,0,0,1,
scooby_state_40d41d|40|-12 1,0,0,0,0,0,0,0,0,0,0,0,0,0,0,1,
scooby_state_40d241|9|1 1,0,0,0,0,0,0,0,0,0,0,0,0,0,0,1,
scooby_state_40d283|10|1 1,0,0,0,0,0,0,0,0,0,0,0,0,0,0,1,
scooby_state_40fac7|43|1 1,0,0,0,0,0,0,0,0,0,0,0,0,0,0,1,
scooby_state_40d305|12|1 1,0,0,0,0,0,0,0,0,0,0,0,0,0,0,1,
scooby_state_40fe01|56|1 1,0,0,0,0,0,0,0,0,0,0,0,0,0,0,1,
scooby_state_40d3c5|15|1 1,0,0,0,0,0,0,0,0,0,0,0,0,0,0,1,
scooby_state_40d445|17|1 1,0,0,0,0,0,0,0,0,0,0,0,0,0,0,1,
scooby_state_40edf0|5|0 1,0,0,0,0,0,0,0,0,0,0,0,0,0,0,1,
scooby_state_40e500|20|0 1,0,0,0,0,0,0,0,0,0,0,0,0,0,0,1,
scooby_state_40ccc0|51|1 1,0,0,0,0,0,0,0,0,0,0,0,0,0,0,1,
scooby_state_40d4c2|19|1 1,0,0,0,0,0,0,0,0,0,0,0,0,0,0,1,
scooby_state_40eb04|44|1 1,0,0,0,0,0,0,0,0,0,0,0,0,0,0,1,
scooby_state_40fa3f|61|0 1,0,0,0,0,0,0,0,0,0,0,0,0,0,0,1,

scooby_action_0_deg_dist 0,474,0,0,0,0,0,0,0,0,0,0,0,0,0,0,
scooby_action_4_deg_dist 0,474,0,0,0,0,0,0,0,0,0,0,0,0,0,0,
scooby_action_3_deg_dist 0,492,0,0,0,0,0,0,0,0,0,0,0,0,0,0,
scooby_action_32_deg_dist 0,433,0,0,0,0,0,0,0,0,0,0,0,0,0,0,
scooby_action_5_deg_dist 0,439,0,0,0,0,0,0,0,0,0,0,0,0,0,0,
scooby_action_1_deg_dist 0,180686,70546,0,180570,0,3439681,0,0,0,0,0,0,0,0,0,
scooby_action_30_deg_dist 0,482,0,0,0,0,0,0,0,0,0,0,0,0,0,0,
scooby_action_-3_deg_dist 0,456,0,0,0,0,0,0,0,0,0,0,0,0,0,0,
scooby_action_10_deg_dist 0,514,0,0,0,0,0,0,0,0,0,0,0,0,0,0,
scooby_action_-1_deg_dist 0,471,0,0,0,0,0,0,0,0,0,0,0,0,0,0,
scooby_action_23_deg_dist 0,488,0,0,0,0,0,0,0,0,0,0,0,0,0,0,
scooby_action_-6_deg_dist 0,449,0,0,0,0,0,0,0,0,0,0,0,0,0,0,
scooby_action_11_deg_dist 0,471,0,0,0,0,0,0,0,0,0,0,0,0,0,0,
scooby_action_22_deg_dist 0,465,0,0,0,0,0,0,0,0,0,0,0,0,0,0,
scooby_action_12_deg_dist 0,473,0,0,0,0,0,0,0,0,0,0,0,0,0,0,

scooby_track_called 3878064
scooby_track_same_address 7138
scooby_track_evict 3870670

scooby_reward_demand_called 3878064
scooby_reward_demand_pt_not_found 129561
scooby_reward_demand_pt_found 3748503
scooby_reward_demand_pt_found_total 3748503
scooby_reward_demand_has_reward 1469
scooby_reward_train_called 59502
scooby_reward_assign_reward_called 3870849
scooby_reward_no_pref 474
scooby_reward_incorrect 59028
scooby_reward_correct_untimely 3592437
scooby_reward_correct_timely 154597
scooby_reward_out_of_bounds 64313
scooby_reward_tracker_hit 0

scooby_reward_none_low_bw 474
scooby_reward_none_high_bw 0
scooby_reward_incorrect_low_bw 59028
scooby_reward_incorrect_high_bw 0
scooby_reward_correct_untimely_low_bw 3592437
scooby_reward_correct_untimely_high_bw 0
scooby_reward_correct_timely_low_bw 154597
scooby_reward_correct_timely_high_bw 0
scooby_reward_out_of_bounds_low_bw 64313
scooby_reward_out_of_bounds_high_bw 0
scooby_reward_tracker_hit_low_bw 0
scooby_reward_tracker_hit_high_bw 0

scooby_reward_1 0,55672,3591868,154320,63085,0,
scooby_reward_3 0,7,419,44,17,0,
scooby_reward_4 0,376,48,15,33,0,
scooby_reward_5 0,355,30,14,39,0,
scooby_reward_10 0,359,1,77,77,0,
scooby_reward_11 0,325,1,59,86,0,
scooby_reward_12 0,280,4,68,110,0,
scooby_reward_22 0,286,1,0,176,0,
scooby_reward_23 0,308,1,0,178,0,
scooby_reward_30 0,192,0,0,224,0,
scooby_reward_32 0,149,59,0,225,0,
scooby_reward_-1 0,13,2,0,6,0,
scooby_reward_-3 0,356,2,0,18,0,
scooby_reward_-6 0,350,1,0,39,0,
scooby_reward_0 474,0,0,0,0,0,

scooby_train_called 3870669
scooby_train_compute_reward 59502

scooby_register_fill_called 2102530
scooby_register_fill_set 156113
scooby_register_fill_set_total 156113

scooby_register_prefetch_hit_called 16794669
scooby_register_prefetch_hit_set 3440249
scooby_register_prefetch_hit_set_total 3440249

scooby_pref_issue_scooby 20421459

learning_engine_featurewise.action.called 3878064
learning_engine_featurewise.action.explore 7052
learning_engine_featurewise.action.exploit 3871012
learning_engine_featurewise.action.fallback 0
learning_engine_featurewise.action.dyn_fallback_saved_bw 0
learning_engine_featurewise.action.dyn_fallback_saved_bw_acc 158
learning_engine_featurewise.action.index_1_explored 472
learning_engine_featurewise.action.index_1_exploited 3871011
learning_engine_featurewise.action.index_3_explored 491
learning_engine_featurewise.action.index_3_exploited 1
learning_engine_featurewise.action.index_4_explored 474
learning_engine_featurewise.action.index_4_exploited 0
learning_engine_featurewise.action.index_5_explored 439
learning_engine_featurewise.action.index_5_exploited 0
learning_engine_featurewise.action.index_10_explored 514
learning_engine_featurewise.action.index_10_exploited 0
learning_engine_featurewise.action.index_11_explored 471
learning_engine_featurewise.action.index_11_exploited 0
learning_engine_featurewise.action.index_12_explored 473
learning_engine_featurewise.action.index_12_exploited 0
learning_engine_featurewise.action.index_22_explored 465
learning_engine_featurewise.action.index_22_exploited 0
learning_engine_featurewise.action.index_23_explored 488
learning_engine_featurewise.action.index_23_exploited 0
learning_engine_featurewise.action.index_30_explored 482
learning_engine_featurewise.action.index_30_exploited 0
learning_engine_featurewise.action.index_32_explored 433
learning_engine_featurewise.action.index_32_exploited 0
learning_engine_featurewise.action.index_-1_explored 471
learning_engine_featurewise.action.index_-1_exploited 0
learning_engine_featurewise.action.index_-3_explored 456
learning_engine_featurewise.action.index_-3_exploited 0
learning_engine_featurewise.action.index_-6_explored 449
learning_engine_featurewise.action.index_-6_exploited 0
learning_engine_featurewise.action.index_0_explored 474
learning_engine_featurewise.action.index_0_exploited 0
learning_engine_featurewise.learn.called 3870669
learning_engine_featurewise.learn.su_skip_PC 0
learning_engine_featurewise.learn.su_skip_PC_Delta 0

learning_engine_featurewise.q_value_histogram.bucket_0 0
learning_engine_featurewise.q_value_histogram.bucket_1 0
learning_engine_featurewise.q_value_histogram.bucket_2 0
learning_engine_featurewise.q_value_histogram.bucket_3 0
learning_engine_featurewise.q_value_histogram.bucket_4 1907
learning_engine_featurewise.q_value_histogram.bucket_5 6846
learning_engine_featurewise.q_value_histogram.bucket_6 3862259
learning_engine_featurewise.q_value_histogram.bucket_7 0

learning_engine_featurewise.consensus.total 3871012
learning_engine_featurewise.consensus.feature_align_PC 3859021
learning_engine_featurewise.consensus.feature_align_PC_ratio 1.00
learning_engine_featurewise.consensus.feature_align_PC_Delta 3871008
learning_engine_featurewise.consensus.feature_align_PC_Delta_ratio 1.00
learning_engine_featurewise.consensus.feature_align_all 3859017
learning_engine_featurewise.consensus.feature_align_all_ratio 1.00

learning_engine_featurewise.feature_PC_min_weight 1000000.00000000
learning_engine_featurewise.feature_PC_max_weight 0.00000000
learning_engine_featurewise.feature_PC_Delta_min_weight 1000000.00000000
learning_engine_featurewise.feature_PC_Delta_max_weight 0.00000000
unique_pcs 491
unique_pages 14953
unique_trigger_pcs 104
total_bitmaps_seen 0
unique_bitmaps_seen 0

scooby_bw_epochs 5141995
scooby_bw_level_0 5139680
scooby_bw_level_1 2315
scooby_bw_level_2 0
scooby_bw_level_3 0

scooby_ipc_epochs 0
scooby_ipc_level_0 0
scooby_ipc_level_1 0
scooby_ipc_level_2 0
scooby_ipc_level_3 0

scooby_cache_acc_epochs 656970
scooby_cache_acc_level_0 579
scooby_cache_acc_level_1 9621
scooby_cache_acc_level_2 25035
scooby_cache_acc_level_3 63256
scooby_cache_acc_level_4 66807
scooby_cache_acc_level_5 41088
scooby_cache_acc_level_6 72907
scooby_cache_acc_level_7 69319
scooby_cache_acc_level_8 66715
scooby_cache_acc_level_9 241643

Channel_0_RQ_row_buffer_hit 560087
Channel_0_RQ_row_buffer_miss 1368528
Channel_0_WQ_row_buffer_hit 80467
Channel_0_WQ_row_buffer_miss 523784
Channel_0_WQ_full 0
Channel_0_dbus_congested 338723

avg_congested_cycle 1

DRAM_bw_pochs 5141995
DRAM_bw_level_0 5139680
DRAM_bw_level_1 2315
DRAM_bw_level_2 0
DRAM_bw_level_3 0
