*************************************************
   ChampSim Multicore Out-of-Order Simulator
   Last compiled: Dec 11 2024 17:59:53
*************************************************
parsing config file: /home/functionmain/桌面/Pythia/config/mlop.ini

trace_0 /home/functionmain/桌面/Pythia/traces/436.cactusADM-1804B.champsimtrace.xz
adding L2C_PREFETCHER: MLOP
Initialize SHIP state
warmup_instructions 100000000
simulation_instructions 500000000
champsim_seed 271
measure_ipc 0
measure_ipc_epoch 1000
measure_dram_bw 1
measure_dram_bw_epoch 256
measure_cache_acc 1
measure_cache_acc_epoch 1024
l1d_perfect 0
l2c_perfect 0
llc_perfect 0
l1d_semi_perfect 0
l2c_semi_perfect 0
llc_semi_perfect 0
semi_perfect_cache_page_buffer_size 64

num_cpus 1
cpu_freq 4000
dram_io_freq 4800
page_size 4096
block_size 64
max_read_per_cycle 8
max_fill_per_cycle 1
dram_channels 1
log2_dram_channels 0
dram_ranks 1
dram_banks 8
dram_rows 65536
dram_columns 128
dram_row_size 8
dram_size 4096
dram_pages 1048576

fetch_width 6
decode_width 6
exec_width 4
lq_width 2
sq_width 2
retire_width 4
scheduler_size 128
branch_mispredict_penalty 20
rob_size 256
lq_size 72
sq_size 56
num_instr_destinations_sparc 4
num_instr_destinations 2
num_instr_sources 4

itlb_set 16
itlb_way 8
itlb_rq_size 16
itlb_wq_size 16
itlb_pq_size 0
itlb_mshr_size 8
itlb_latency 1

dtlb_set 16
dtlb_way 4
dtlb_rq_size 16
dtlb_wq_size 16
dtlb_pq_size 0
dtlb_mshr_size 8
dtlb_latency 1

stlb_set 128
stlb_way 12
stlb_rq_size 32
stlb_wq_size 32
stlb_pq_size 0
stlb_mshr_size 16
stlb_latency 8

l1i_size 32
l1i_set 64
l1i_way 8
l1i_rq_size 64
l1i_wq_size 64
l1i_pq_size 8
l1i_mshr_size 8
l1i_latency 1

l1d_size 32
l1d_set 64
l1d_way 8
l1d_rq_size 64
l1d_wq_size 64
l1d_pq_size 8
l1d_mshr_size 16
l1d_latency 4

l2c_size 256
l2c_set 512
l2c_way 8
l2c_rq_size 32
l2c_wq_size 32
l2c_pq_size 32
l2c_mshr_size 32
l2c_latency 10

llc_size 2048
llc_set 2048
llc_way 16
llc_rq_size 32
llc_wq_size 32
llc_pq_size 32
llc_mshr_size 64
llc_latency 20

dram_channel_width 8
dram_wq_size 64
dram_rq_size 64
tRP 15
tRCD 15
tCAS 12.5
dram_dbus_turn_around_time 30
dram_write_high_wm 56
dram_write_low_wm 48
min_dram_writes_per_switch 16
dram_mtps 4800
dram_dbus_return_time 6

mlop_pref_degree 16
mlop_num_updates 500
mlop_l1d_thresh 2
mlop_l2c_thresh 0.75
mlop_llc_thresh 0.3
mlop_debug_level 0
mlop_blocks_in_cache 4096
mlop_blocks_in_zone 64
mlop_amt_size 2048
mlop_PF_DEGREE 16
mlop_NUM_UPDATES 500
mlop_L1D_THRESH 1000
mlop_L2C_THRESH 375
mlop_LLC_THRESH 150
mlop_ORIGIN 63
mlop_MAX_OFFSET 63
mlop_MIN_OFFSET -63
mlop_ORIGIN 63
mlop_NUM_OFFSETS 127


Heartbeat CPU  0 instructions:    1000000 cycles:     702382 heartbeat IPC: 1.42373 cumulative IPC: 1.42373 (Simulation time: 0 hr 0 min 2 sec) 
Heartbeat CPU  0 instructions:    2000000 cycles:    1404585 heartbeat IPC: 1.42409 cumulative IPC: 1.42391 (Simulation time: 0 hr 0 min 5 sec) 
Heartbeat CPU  0 instructions:    3000000 cycles:    2106879 heartbeat IPC: 1.42391 cumulative IPC: 1.42391 (Simulation time: 0 hr 0 min 7 sec) 
Heartbeat CPU  0 instructions:    4000000 cycles:    2809194 heartbeat IPC: 1.42386 cumulative IPC: 1.42390 (Simulation time: 0 hr 0 min 9 sec) 
Heartbeat CPU  0 instructions:    5000000 cycles:    3511371 heartbeat IPC: 1.42414 cumulative IPC: 1.42395 (Simulation time: 0 hr 0 min 12 sec) 
Heartbeat CPU  0 instructions:    6000000 cycles:    4213690 heartbeat IPC: 1.42385 cumulative IPC: 1.42393 (Simulation time: 0 hr 0 min 14 sec) 
Heartbeat CPU  0 instructions:    7000001 cycles:    4916074 heartbeat IPC: 1.42372 cumulative IPC: 1.42390 (Simulation time: 0 hr 0 min 16 sec) 
Heartbeat CPU  0 instructions:    8000000 cycles:    5618187 heartbeat IPC: 1.42427 cumulative IPC: 1.42395 (Simulation time: 0 hr 0 min 19 sec) 
Heartbeat CPU  0 instructions:    9000001 cycles:    6320656 heartbeat IPC: 1.42355 cumulative IPC: 1.42390 (Simulation time: 0 hr 0 min 21 sec) 
Heartbeat CPU  0 instructions:   10000000 cycles:    7022829 heartbeat IPC: 1.42415 cumulative IPC: 1.42393 (Simulation time: 0 hr 0 min 23 sec) 
Heartbeat CPU  0 instructions:   11000002 cycles:    7725011 heartbeat IPC: 1.42414 cumulative IPC: 1.42395 (Simulation time: 0 hr 0 min 26 sec) 
Heartbeat CPU  0 instructions:   12000000 cycles:    8427137 heartbeat IPC: 1.42424 cumulative IPC: 1.42397 (Simulation time: 0 hr 0 min 28 sec) 
Heartbeat CPU  0 instructions:   13000000 cycles:    9129694 heartbeat IPC: 1.42337 cumulative IPC: 1.42393 (Simulation time: 0 hr 0 min 30 sec) 
Heartbeat CPU  0 instructions:   14000002 cycles:    9831941 heartbeat IPC: 1.42400 cumulative IPC: 1.42393 (Simulation time: 0 hr 0 min 33 sec) 
Heartbeat CPU  0 instructions:   15000002 cycles:   10533845 heartbeat IPC: 1.42470 cumulative IPC: 1.42398 (Simulation time: 0 hr 0 min 35 sec) 
Heartbeat CPU  0 instructions:   16000000 cycles:   11236365 heartbeat IPC: 1.42344 cumulative IPC: 1.42395 (Simulation time: 0 hr 0 min 37 sec) 
Heartbeat CPU  0 instructions:   17000000 cycles:   11938886 heartbeat IPC: 1.42344 cumulative IPC: 1.42392 (Simulation time: 0 hr 0 min 40 sec) 
Heartbeat CPU  0 instructions:   18000001 cycles:   12599063 heartbeat IPC: 1.51475 cumulative IPC: 1.42868 (Simulation time: 0 hr 0 min 42 sec) 
Heartbeat CPU  0 instructions:   19000000 cycles:   13232946 heartbeat IPC: 1.57758 cumulative IPC: 1.43581 (Simulation time: 0 hr 0 min 44 sec) 
Heartbeat CPU  0 instructions:   20000000 cycles:   13935456 heartbeat IPC: 1.42347 cumulative IPC: 1.43519 (Simulation time: 0 hr 0 min 47 sec) 
Heartbeat CPU  0 instructions:   21000000 cycles:   14637815 heartbeat IPC: 1.42377 cumulative IPC: 1.43464 (Simulation time: 0 hr 0 min 49 sec) 
Heartbeat CPU  0 instructions:   22000002 cycles:   15340110 heartbeat IPC: 1.42391 cumulative IPC: 1.43415 (Simulation time: 0 hr 0 min 51 sec) 
Heartbeat CPU  0 instructions:   23000001 cycles:   16042511 heartbeat IPC: 1.42369 cumulative IPC: 1.43369 (Simulation time: 0 hr 0 min 54 sec) 
Heartbeat CPU  0 instructions:   24000000 cycles:   16744622 heartbeat IPC: 1.42427 cumulative IPC: 1.43330 (Simulation time: 0 hr 0 min 56 sec) 
Heartbeat CPU  0 instructions:   25000001 cycles:   17446903 heartbeat IPC: 1.42393 cumulative IPC: 1.43292 (Simulation time: 0 hr 0 min 58 sec) 
Heartbeat CPU  0 instructions:   26000003 cycles:   18149511 heartbeat IPC: 1.42327 cumulative IPC: 1.43255 (Simulation time: 0 hr 1 min 0 sec) 
Heartbeat CPU  0 instructions:   27000003 cycles:   18851705 heartbeat IPC: 1.42411 cumulative IPC: 1.43223 (Simulation time: 0 hr 1 min 3 sec) 
Heartbeat CPU  0 instructions:   28000000 cycles:   19553850 heartbeat IPC: 1.42420 cumulative IPC: 1.43194 (Simulation time: 0 hr 1 min 5 sec) 
Heartbeat CPU  0 instructions:   29000000 cycles:   20256299 heartbeat IPC: 1.42359 cumulative IPC: 1.43165 (Simulation time: 0 hr 1 min 7 sec) 
Heartbeat CPU  0 instructions:   30000003 cycles:   20958684 heartbeat IPC: 1.42372 cumulative IPC: 1.43139 (Simulation time: 0 hr 1 min 10 sec) 
Heartbeat CPU  0 instructions:   31000003 cycles:   21660645 heartbeat IPC: 1.42458 cumulative IPC: 1.43117 (Simulation time: 0 hr 1 min 12 sec) 
Heartbeat CPU  0 instructions:   32000000 cycles:   22362739 heartbeat IPC: 1.42431 cumulative IPC: 1.43095 (Simulation time: 0 hr 1 min 14 sec) 
Heartbeat CPU  0 instructions:   33000001 cycles:   23065445 heartbeat IPC: 1.42307 cumulative IPC: 1.43071 (Simulation time: 0 hr 1 min 17 sec) 
Heartbeat CPU  0 instructions:   34000000 cycles:   23767591 heartbeat IPC: 1.42420 cumulative IPC: 1.43052 (Simulation time: 0 hr 1 min 19 sec) 
Heartbeat CPU  0 instructions:   35000001 cycles:   24469853 heartbeat IPC: 1.42397 cumulative IPC: 1.43033 (Simulation time: 0 hr 1 min 21 sec) 
Heartbeat CPU  0 instructions:   36000000 cycles:   25172081 heartbeat IPC: 1.42404 cumulative IPC: 1.43016 (Simulation time: 0 hr 1 min 24 sec) 
Heartbeat CPU  0 instructions:   37000000 cycles:   25874653 heartbeat IPC: 1.42334 cumulative IPC: 1.42997 (Simulation time: 0 hr 1 min 26 sec) 
Heartbeat CPU  0 instructions:   38000001 cycles:   26576824 heartbeat IPC: 1.42416 cumulative IPC: 1.42982 (Simulation time: 0 hr 1 min 29 sec) 
Heartbeat CPU  0 instructions:   39000000 cycles:   27279072 heartbeat IPC: 1.42400 cumulative IPC: 1.42967 (Simulation time: 0 hr 1 min 31 sec) 
Heartbeat CPU  0 instructions:   40000000 cycles:   27981299 heartbeat IPC: 1.42404 cumulative IPC: 1.42953 (Simulation time: 0 hr 1 min 33 sec) 
Heartbeat CPU  0 instructions:   41000000 cycles:   28584617 heartbeat IPC: 1.65750 cumulative IPC: 1.43434 (Simulation time: 0 hr 1 min 36 sec) 
Heartbeat CPU  0 instructions:   42000002 cycles:   29275717 heartbeat IPC: 1.44697 cumulative IPC: 1.43464 (Simulation time: 0 hr 1 min 38 sec) 
Heartbeat CPU  0 instructions:   43000002 cycles:   29978098 heartbeat IPC: 1.42373 cumulative IPC: 1.43438 (Simulation time: 0 hr 1 min 40 sec) 
Heartbeat CPU  0 instructions:   44000000 cycles:   30680528 heartbeat IPC: 1.42363 cumulative IPC: 1.43413 (Simulation time: 0 hr 1 min 43 sec) 
Heartbeat CPU  0 instructions:   45000003 cycles:   31382764 heartbeat IPC: 1.42403 cumulative IPC: 1.43391 (Simulation time: 0 hr 1 min 45 sec) 
Heartbeat CPU  0 instructions:   46000003 cycles:   32084965 heartbeat IPC: 1.42409 cumulative IPC: 1.43369 (Simulation time: 0 hr 1 min 47 sec) 
Heartbeat CPU  0 instructions:   47000000 cycles:   32787100 heartbeat IPC: 1.42422 cumulative IPC: 1.43349 (Simulation time: 0 hr 1 min 50 sec) 
Heartbeat CPU  0 instructions:   48000000 cycles:   33489631 heartbeat IPC: 1.42342 cumulative IPC: 1.43328 (Simulation time: 0 hr 1 min 52 sec) 
Heartbeat CPU  0 instructions:   49000000 cycles:   34191607 heartbeat IPC: 1.42455 cumulative IPC: 1.43310 (Simulation time: 0 hr 1 min 54 sec) 
Heartbeat CPU  0 instructions:   50000000 cycles:   34893921 heartbeat IPC: 1.42386 cumulative IPC: 1.43291 (Simulation time: 0 hr 1 min 57 sec) 
Heartbeat CPU  0 instructions:   51000000 cycles:   35596441 heartbeat IPC: 1.42345 cumulative IPC: 1.43273 (Simulation time: 0 hr 1 min 59 sec) 
Heartbeat CPU  0 instructions:   52000000 cycles:   36298553 heartbeat IPC: 1.42427 cumulative IPC: 1.43256 (Simulation time: 0 hr 2 min 1 sec) 
Heartbeat CPU  0 instructions:   53000000 cycles:   37000907 heartbeat IPC: 1.42378 cumulative IPC: 1.43240 (Simulation time: 0 hr 2 min 4 sec) 
Heartbeat CPU  0 instructions:   54000001 cycles:   37703007 heartbeat IPC: 1.42430 cumulative IPC: 1.43225 (Simulation time: 0 hr 2 min 6 sec) 
Heartbeat CPU  0 instructions:   55000001 cycles:   38405277 heartbeat IPC: 1.42395 cumulative IPC: 1.43209 (Simulation time: 0 hr 2 min 8 sec) 
Heartbeat CPU  0 instructions:   56000000 cycles:   39107750 heartbeat IPC: 1.42354 cumulative IPC: 1.43194 (Simulation time: 0 hr 2 min 11 sec) 
Heartbeat CPU  0 instructions:   57000000 cycles:   39810186 heartbeat IPC: 1.42362 cumulative IPC: 1.43179 (Simulation time: 0 hr 2 min 13 sec) 
Heartbeat CPU  0 instructions:   58000002 cycles:   40512477 heartbeat IPC: 1.42391 cumulative IPC: 1.43166 (Simulation time: 0 hr 2 min 15 sec) 
Heartbeat CPU  0 instructions:   59000000 cycles:   41214575 heartbeat IPC: 1.42430 cumulative IPC: 1.43153 (Simulation time: 0 hr 2 min 18 sec) 
Heartbeat CPU  0 instructions:   60000000 cycles:   41916951 heartbeat IPC: 1.42374 cumulative IPC: 1.43140 (Simulation time: 0 hr 2 min 20 sec) 
Heartbeat CPU  0 instructions:   61000000 cycles:   42619177 heartbeat IPC: 1.42404 cumulative IPC: 1.43128 (Simulation time: 0 hr 2 min 22 sec) 
Heartbeat CPU  0 instructions:   62000002 cycles:   43321390 heartbeat IPC: 1.42407 cumulative IPC: 1.43116 (Simulation time: 0 hr 2 min 25 sec) 
Heartbeat CPU  0 instructions:   63000000 cycles:   43967635 heartbeat IPC: 1.54740 cumulative IPC: 1.43287 (Simulation time: 0 hr 2 min 27 sec) 
Heartbeat CPU  0 instructions:   64000000 cycles:   44617641 heartbeat IPC: 1.53845 cumulative IPC: 1.43441 (Simulation time: 0 hr 2 min 29 sec) 
Heartbeat CPU  0 instructions:   65000000 cycles:   45319660 heartbeat IPC: 1.42446 cumulative IPC: 1.43426 (Simulation time: 0 hr 2 min 32 sec) 
Heartbeat CPU  0 instructions:   66000001 cycles:   46021708 heartbeat IPC: 1.42441 cumulative IPC: 1.43411 (Simulation time: 0 hr 2 min 34 sec) 
Heartbeat CPU  0 instructions:   67000002 cycles:   46723781 heartbeat IPC: 1.42435 cumulative IPC: 1.43396 (Simulation time: 0 hr 2 min 36 sec) 
Heartbeat CPU  0 instructions:   68000000 cycles:   47426183 heartbeat IPC: 1.42368 cumulative IPC: 1.43381 (Simulation time: 0 hr 2 min 39 sec) 
Heartbeat CPU  0 instructions:   69000000 cycles:   48128340 heartbeat IPC: 1.42418 cumulative IPC: 1.43367 (Simulation time: 0 hr 2 min 41 sec) 
Heartbeat CPU  0 instructions:   70000002 cycles:   48830398 heartbeat IPC: 1.42439 cumulative IPC: 1.43353 (Simulation time: 0 hr 2 min 43 sec) 
Heartbeat CPU  0 instructions:   71000003 cycles:   49533037 heartbeat IPC: 1.42321 cumulative IPC: 1.43339 (Simulation time: 0 hr 2 min 46 sec) 
Heartbeat CPU  0 instructions:   72000000 cycles:   50235115 heartbeat IPC: 1.42434 cumulative IPC: 1.43326 (Simulation time: 0 hr 2 min 48 sec) 
Heartbeat CPU  0 instructions:   73000001 cycles:   50937226 heartbeat IPC: 1.42428 cumulative IPC: 1.43314 (Simulation time: 0 hr 2 min 50 sec) 
Heartbeat CPU  0 instructions:   74000003 cycles:   51639461 heartbeat IPC: 1.42403 cumulative IPC: 1.43301 (Simulation time: 0 hr 2 min 53 sec) 
Heartbeat CPU  0 instructions:   75000002 cycles:   52342108 heartbeat IPC: 1.42319 cumulative IPC: 1.43288 (Simulation time: 0 hr 2 min 55 sec) 
Heartbeat CPU  0 instructions:   76000000 cycles:   53044326 heartbeat IPC: 1.42406 cumulative IPC: 1.43276 (Simulation time: 0 hr 2 min 57 sec) 
Heartbeat CPU  0 instructions:   77000003 cycles:   53746946 heartbeat IPC: 1.42325 cumulative IPC: 1.43264 (Simulation time: 0 hr 3 min 0 sec) 
Heartbeat CPU  0 instructions:   78000001 cycles:   54449397 heartbeat IPC: 1.42358 cumulative IPC: 1.43252 (Simulation time: 0 hr 3 min 2 sec) 
Heartbeat CPU  0 instructions:   79000001 cycles:   55151279 heartbeat IPC: 1.42474 cumulative IPC: 1.43242 (Simulation time: 0 hr 3 min 4 sec) 
Heartbeat CPU  0 instructions:   80000000 cycles:   55853258 heartbeat IPC: 1.42454 cumulative IPC: 1.43232 (Simulation time: 0 hr 3 min 7 sec) 
Heartbeat CPU  0 instructions:   81000002 cycles:   56555573 heartbeat IPC: 1.42387 cumulative IPC: 1.43222 (Simulation time: 0 hr 3 min 9 sec) 
Heartbeat CPU  0 instructions:   82000000 cycles:   57257826 heartbeat IPC: 1.42399 cumulative IPC: 1.43212 (Simulation time: 0 hr 3 min 11 sec) 
Heartbeat CPU  0 instructions:   83000001 cycles:   57960063 heartbeat IPC: 1.42402 cumulative IPC: 1.43202 (Simulation time: 0 hr 3 min 14 sec) 
Heartbeat CPU  0 instructions:   84000000 cycles:   58662261 heartbeat IPC: 1.42410 cumulative IPC: 1.43193 (Simulation time: 0 hr 3 min 16 sec) 
Heartbeat CPU  0 instructions:   85000000 cycles:   59350600 heartbeat IPC: 1.45277 cumulative IPC: 1.43217 (Simulation time: 0 hr 3 min 18 sec) 
Heartbeat CPU  0 instructions:   86000002 cycles:   59957930 heartbeat IPC: 1.64655 cumulative IPC: 1.43434 (Simulation time: 0 hr 3 min 21 sec) 
Heartbeat CPU  0 instructions:   87000002 cycles:   60660359 heartbeat IPC: 1.42363 cumulative IPC: 1.43422 (Simulation time: 0 hr 3 min 23 sec) 
Heartbeat CPU  0 instructions:   88000000 cycles:   61362989 heartbeat IPC: 1.42322 cumulative IPC: 1.43409 (Simulation time: 0 hr 3 min 26 sec) 
Heartbeat CPU  0 instructions:   89000001 cycles:   62065037 heartbeat IPC: 1.42441 cumulative IPC: 1.43398 (Simulation time: 0 hr 3 min 28 sec) 
Heartbeat CPU  0 instructions:   90000003 cycles:   62767320 heartbeat IPC: 1.42393 cumulative IPC: 1.43387 (Simulation time: 0 hr 3 min 30 sec) 
Heartbeat CPU  0 instructions:   91000003 cycles:   63469725 heartbeat IPC: 1.42368 cumulative IPC: 1.43375 (Simulation time: 0 hr 3 min 33 sec) 
Heartbeat CPU  0 instructions:   92000000 cycles:   64171955 heartbeat IPC: 1.42403 cumulative IPC: 1.43365 (Simulation time: 0 hr 3 min 35 sec) 
Heartbeat CPU  0 instructions:   93000002 cycles:   64874314 heartbeat IPC: 1.42378 cumulative IPC: 1.43354 (Simulation time: 0 hr 3 min 37 sec) 
Heartbeat CPU  0 instructions:   94000002 cycles:   65576290 heartbeat IPC: 1.42455 cumulative IPC: 1.43344 (Simulation time: 0 hr 3 min 40 sec) 
Heartbeat CPU  0 instructions:   95000003 cycles:   66278418 heartbeat IPC: 1.42424 cumulative IPC: 1.43335 (Simulation time: 0 hr 3 min 42 sec) 
Heartbeat CPU  0 instructions:   96000000 cycles:   66980603 heartbeat IPC: 1.42412 cumulative IPC: 1.43325 (Simulation time: 0 hr 3 min 44 sec) 
Heartbeat CPU  0 instructions:   97000000 cycles:   67682913 heartbeat IPC: 1.42387 cumulative IPC: 1.43315 (Simulation time: 0 hr 3 min 47 sec) 
Heartbeat CPU  0 instructions:   98000002 cycles:   68385068 heartbeat IPC: 1.42419 cumulative IPC: 1.43306 (Simulation time: 0 hr 3 min 49 sec) 
Heartbeat CPU  0 instructions:   99000003 cycles:   69087264 heartbeat IPC: 1.42411 cumulative IPC: 1.43297 (Simulation time: 0 hr 3 min 52 sec) 
Heartbeat CPU  0 instructions:  100000000 cycles:   69789643 heartbeat IPC: 1.42373 cumulative IPC: 1.43288 (Simulation time: 0 hr 3 min 54 sec) 

Warmup complete CPU  0 instructions:  100000001 cycles:   69789663 (Simulation time: 0 hr 3 min 54 sec) 

Heartbeat CPU  0 instructions:  101000000 cycles:   71810821 heartbeat IPC: 0.49476 cumulative IPC: 0.49477 (Simulation time: 0 hr 3 min 57 sec) 
Heartbeat CPU  0 instructions:  102000003 cycles:   73656590 heartbeat IPC: 0.54178 cumulative IPC: 0.51721 (Simulation time: 0 hr 3 min 59 sec) 
Heartbeat CPU  0 instructions:  103000003 cycles:   75669094 heartbeat IPC: 0.49689 cumulative IPC: 0.51025 (Simulation time: 0 hr 4 min 2 sec) 
Heartbeat CPU  0 instructions:  104000000 cycles:   77695312 heartbeat IPC: 0.49353 cumulative IPC: 0.50597 (Simulation time: 0 hr 4 min 5 sec) 
Heartbeat CPU  0 instructions:  105000002 cycles:   79607473 heartbeat IPC: 0.52297 cumulative IPC: 0.50928 (Simulation time: 0 hr 4 min 8 sec) 
Heartbeat CPU  0 instructions:  106000000 cycles:   81520455 heartbeat IPC: 0.52274 cumulative IPC: 0.51147 (Simulation time: 0 hr 4 min 11 sec) 
Heartbeat CPU  0 instructions:  107000003 cycles:   83547655 heartbeat IPC: 0.49329 cumulative IPC: 0.50880 (Simulation time: 0 hr 4 min 13 sec) 
Heartbeat CPU  0 instructions:  108000000 cycles:   94351895 heartbeat IPC: 0.09256 cumulative IPC: 0.32570 (Simulation time: 0 hr 4 min 17 sec) 
Heartbeat CPU  0 instructions:  109000003 cycles:  101195037 heartbeat IPC: 0.14613 cumulative IPC: 0.28658 (Simulation time: 0 hr 4 min 20 sec) 
Heartbeat CPU  0 instructions:  110000001 cycles:  103214353 heartbeat IPC: 0.49522 cumulative IPC: 0.29918 (Simulation time: 0 hr 4 min 23 sec) 
Heartbeat CPU  0 instructions:  111000000 cycles:  105208283 heartbeat IPC: 0.50152 cumulative IPC: 0.31057 (Simulation time: 0 hr 4 min 25 sec) 
Heartbeat CPU  0 instructions:  112000000 cycles:  107094076 heartbeat IPC: 0.53028 cumulative IPC: 0.32168 (Simulation time: 0 hr 4 min 28 sec) 
Heartbeat CPU  0 instructions:  113000000 cycles:  109086645 heartbeat IPC: 0.50186 cumulative IPC: 0.33081 (Simulation time: 0 hr 4 min 31 sec) 
Heartbeat CPU  0 instructions:  114000000 cycles:  111130965 heartbeat IPC: 0.48916 cumulative IPC: 0.33864 (Simulation time: 0 hr 4 min 34 sec) 
Heartbeat CPU  0 instructions:  115000001 cycles:  113031566 heartbeat IPC: 0.52615 cumulative IPC: 0.34689 (Simulation time: 0 hr 4 min 36 sec) 
Heartbeat CPU  0 instructions:  116000000 cycles:  114921517 heartbeat IPC: 0.52911 cumulative IPC: 0.35452 (Simulation time: 0 hr 4 min 39 sec) 
Heartbeat CPU  0 instructions:  117000003 cycles:  116914295 heartbeat IPC: 0.50181 cumulative IPC: 0.36075 (Simulation time: 0 hr 4 min 42 sec) 
Heartbeat CPU  0 instructions:  118000002 cycles:  118884017 heartbeat IPC: 0.50769 cumulative IPC: 0.36664 (Simulation time: 0 hr 4 min 45 sec) 
Heartbeat CPU  0 instructions:  119000002 cycles:  120700401 heartbeat IPC: 0.55054 cumulative IPC: 0.37320 (Simulation time: 0 hr 4 min 47 sec) 
Heartbeat CPU  0 instructions:  120000000 cycles:  122722096 heartbeat IPC: 0.49463 cumulative IPC: 0.37784 (Simulation time: 0 hr 4 min 50 sec) 
Heartbeat CPU  0 instructions:  121000003 cycles:  124723894 heartbeat IPC: 0.49955 cumulative IPC: 0.38228 (Simulation time: 0 hr 4 min 53 sec) 
Heartbeat CPU  0 instructions:  122000002 cycles:  126579361 heartbeat IPC: 0.53895 cumulative IPC: 0.38739 (Simulation time: 0 hr 4 min 56 sec) 
Heartbeat CPU  0 instructions:  123000002 cycles:  128533005 heartbeat IPC: 0.51186 cumulative IPC: 0.39153 (Simulation time: 0 hr 4 min 58 sec) 
Heartbeat CPU  0 instructions:  124000000 cycles:  130544206 heartbeat IPC: 0.49721 cumulative IPC: 0.39503 (Simulation time: 0 hr 5 min 1 sec) 
Heartbeat CPU  0 instructions:  125000000 cycles:  132521976 heartbeat IPC: 0.50562 cumulative IPC: 0.39852 (Simulation time: 0 hr 5 min 4 sec) 
Heartbeat CPU  0 instructions:  126000002 cycles:  134413408 heartbeat IPC: 0.52870 cumulative IPC: 0.40233 (Simulation time: 0 hr 5 min 6 sec) 
Heartbeat CPU  0 instructions:  127000002 cycles:  136556178 heartbeat IPC: 0.46669 cumulative IPC: 0.40439 (Simulation time: 0 hr 5 min 9 sec) 
Heartbeat CPU  0 instructions:  128000000 cycles:  138559408 heartbeat IPC: 0.49919 cumulative IPC: 0.40716 (Simulation time: 0 hr 5 min 12 sec) 
Heartbeat CPU  0 instructions:  129000001 cycles:  140416186 heartbeat IPC: 0.53857 cumulative IPC: 0.41061 (Simulation time: 0 hr 5 min 15 sec) 
Heartbeat CPU  0 instructions:  130000000 cycles:  146038914 heartbeat IPC: 0.17785 cumulative IPC: 0.39345 (Simulation time: 0 hr 5 min 18 sec) 
Heartbeat CPU  0 instructions:  131000003 cycles:  158196295 heartbeat IPC: 0.08225 cumulative IPC: 0.35065 (Simulation time: 0 hr 5 min 21 sec) 
Heartbeat CPU  0 instructions:  132000000 cycles:  160079432 heartbeat IPC: 0.53103 cumulative IPC: 0.35441 (Simulation time: 0 hr 5 min 24 sec) 
Heartbeat CPU  0 instructions:  133000000 cycles:  162024905 heartbeat IPC: 0.51401 cumulative IPC: 0.35778 (Simulation time: 0 hr 5 min 27 sec) 
Heartbeat CPU  0 instructions:  134000000 cycles:  164040224 heartbeat IPC: 0.49620 cumulative IPC: 0.36074 (Simulation time: 0 hr 5 min 30 sec) 
Heartbeat CPU  0 instructions:  135000000 cycles:  166002335 heartbeat IPC: 0.50966 cumulative IPC: 0.36378 (Simulation time: 0 hr 5 min 32 sec) 
Heartbeat CPU  0 instructions:  136000000 cycles:  167882135 heartbeat IPC: 0.53197 cumulative IPC: 0.36700 (Simulation time: 0 hr 5 min 35 sec) 
Heartbeat CPU  0 instructions:  137000002 cycles:  169917235 heartbeat IPC: 0.49138 cumulative IPC: 0.36953 (Simulation time: 0 hr 5 min 38 sec) 
Heartbeat CPU  0 instructions:  138000001 cycles:  171913844 heartbeat IPC: 0.50085 cumulative IPC: 0.37210 (Simulation time: 0 hr 5 min 41 sec) 
Heartbeat CPU  0 instructions:  139000001 cycles:  173773200 heartbeat IPC: 0.53782 cumulative IPC: 0.37506 (Simulation time: 0 hr 5 min 43 sec) 
Heartbeat CPU  0 instructions:  140000000 cycles:  175749145 heartbeat IPC: 0.50609 cumulative IPC: 0.37750 (Simulation time: 0 hr 5 min 46 sec) 
Heartbeat CPU  0 instructions:  141000000 cycles:  177766613 heartbeat IPC: 0.49567 cumulative IPC: 0.37971 (Simulation time: 0 hr 5 min 49 sec) 
Heartbeat CPU  0 instructions:  142000001 cycles:  179688498 heartbeat IPC: 0.52032 cumulative IPC: 0.38217 (Simulation time: 0 hr 5 min 52 sec) 
Heartbeat CPU  0 instructions:  143000001 cycles:  181630208 heartbeat IPC: 0.51501 cumulative IPC: 0.38448 (Simulation time: 0 hr 5 min 54 sec) 
Heartbeat CPU  0 instructions:  144000000 cycles:  183659382 heartbeat IPC: 0.49281 cumulative IPC: 0.38641 (Simulation time: 0 hr 5 min 57 sec) 
Heartbeat CPU  0 instructions:  145000000 cycles:  185625358 heartbeat IPC: 0.50865 cumulative IPC: 0.38848 (Simulation time: 0 hr 6 min 0 sec) 
Heartbeat CPU  0 instructions:  146000002 cycles:  187499623 heartbeat IPC: 0.53354 cumulative IPC: 0.39079 (Simulation time: 0 hr 6 min 3 sec) 
Heartbeat CPU  0 instructions:  147000003 cycles:  189515743 heartbeat IPC: 0.49600 cumulative IPC: 0.39256 (Simulation time: 0 hr 6 min 5 sec) 
Heartbeat CPU  0 instructions:  148000000 cycles:  191552565 heartbeat IPC: 0.49096 cumulative IPC: 0.39421 (Simulation time: 0 hr 6 min 8 sec) 
Heartbeat CPU  0 instructions:  149000002 cycles:  193423469 heartbeat IPC: 0.53450 cumulative IPC: 0.39633 (Simulation time: 0 hr 6 min 11 sec) 
Heartbeat CPU  0 instructions:  150000003 cycles:  195449483 heartbeat IPC: 0.49358 cumulative IPC: 0.39790 (Simulation time: 0 hr 6 min 14 sec) 
Heartbeat CPU  0 instructions:  151000003 cycles:  197472647 heartbeat IPC: 0.49428 cumulative IPC: 0.39943 (Simulation time: 0 hr 6 min 16 sec) 
Heartbeat CPU  0 instructions:  152000000 cycles:  199425053 heartbeat IPC: 0.51219 cumulative IPC: 0.40113 (Simulation time: 0 hr 6 min 19 sec) 
Heartbeat CPU  0 instructions:  153000003 cycles:  212292663 heartbeat IPC: 0.07771 cumulative IPC: 0.37192 (Simulation time: 0 hr 6 min 23 sec) 
Heartbeat CPU  0 instructions:  154000000 cycles:  217366610 heartbeat IPC: 0.19708 cumulative IPC: 0.36591 (Simulation time: 0 hr 6 min 26 sec) 
Heartbeat CPU  0 instructions:  155000000 cycles:  219332088 heartbeat IPC: 0.50878 cumulative IPC: 0.36779 (Simulation time: 0 hr 6 min 28 sec) 
Heartbeat CPU  0 instructions:  156000000 cycles:  221209429 heartbeat IPC: 0.53267 cumulative IPC: 0.36983 (Simulation time: 0 hr 6 min 31 sec) 
Heartbeat CPU  0 instructions:  157000001 cycles:  223222623 heartbeat IPC: 0.49672 cumulative IPC: 0.37150 (Simulation time: 0 hr 6 min 34 sec) 
Heartbeat CPU  0 instructions:  158000001 cycles:  225253721 heartbeat IPC: 0.49234 cumulative IPC: 0.37308 (Simulation time: 0 hr 6 min 37 sec) 
Heartbeat CPU  0 instructions:  159000000 cycles:  227129665 heartbeat IPC: 0.53306 cumulative IPC: 0.37498 (Simulation time: 0 hr 6 min 39 sec) 
Heartbeat CPU  0 instructions:  160000000 cycles:  229113648 heartbeat IPC: 0.50404 cumulative IPC: 0.37659 (Simulation time: 0 hr 6 min 42 sec) 
Heartbeat CPU  0 instructions:  161000003 cycles:  231128922 heartbeat IPC: 0.49621 cumulative IPC: 0.37809 (Simulation time: 0 hr 6 min 45 sec) 
Heartbeat CPU  0 instructions:  162000000 cycles:  233029949 heartbeat IPC: 0.52603 cumulative IPC: 0.37981 (Simulation time: 0 hr 6 min 48 sec) 
Heartbeat CPU  0 instructions:  163000003 cycles:  234976023 heartbeat IPC: 0.51386 cumulative IPC: 0.38139 (Simulation time: 0 hr 6 min 50 sec) 
Heartbeat CPU  0 instructions:  164000000 cycles:  237008864 heartbeat IPC: 0.49192 cumulative IPC: 0.38273 (Simulation time: 0 hr 6 min 53 sec) 
Heartbeat CPU  0 instructions:  165000000 cycles:  239015324 heartbeat IPC: 0.49839 cumulative IPC: 0.38410 (Simulation time: 0 hr 6 min 56 sec) 
Heartbeat CPU  0 instructions:  166000001 cycles:  240882298 heartbeat IPC: 0.53563 cumulative IPC: 0.38576 (Simulation time: 0 hr 6 min 59 sec) 
Heartbeat CPU  0 instructions:  167000000 cycles:  242892557 heartbeat IPC: 0.49745 cumulative IPC: 0.38705 (Simulation time: 0 hr 7 min 1 sec) 
Heartbeat CPU  0 instructions:  168000000 cycles:  244900197 heartbeat IPC: 0.49810 cumulative IPC: 0.38833 (Simulation time: 0 hr 7 min 4 sec) 
Heartbeat CPU  0 instructions:  169000001 cycles:  246761354 heartbeat IPC: 0.53730 cumulative IPC: 0.38989 (Simulation time: 0 hr 7 min 7 sec) 
Heartbeat CPU  0 instructions:  170000002 cycles:  248769472 heartbeat IPC: 0.49798 cumulative IPC: 0.39111 (Simulation time: 0 hr 7 min 10 sec) 
Heartbeat CPU  0 instructions:  171000001 cycles:  250815452 heartbeat IPC: 0.48876 cumulative IPC: 0.39221 (Simulation time: 0 hr 7 min 13 sec) 
Heartbeat CPU  0 instructions:  172000000 cycles:  252754195 heartbeat IPC: 0.51580 cumulative IPC: 0.39352 (Simulation time: 0 hr 7 min 15 sec) 
Heartbeat CPU  0 instructions:  173000000 cycles:  254641414 heartbeat IPC: 0.52988 cumulative IPC: 0.39491 (Simulation time: 0 hr 7 min 18 sec) 
Heartbeat CPU  0 instructions:  174000003 cycles:  256696216 heartbeat IPC: 0.48667 cumulative IPC: 0.39592 (Simulation time: 0 hr 7 min 21 sec) 
Heartbeat CPU  0 instructions:  175000000 cycles:  263987520 heartbeat IPC: 0.13715 cumulative IPC: 0.38620 (Simulation time: 0 hr 7 min 24 sec) 
Heartbeat CPU  0 instructions:  176000000 cycles:  274352488 heartbeat IPC: 0.09648 cumulative IPC: 0.37152 (Simulation time: 0 hr 7 min 28 sec) 
Heartbeat CPU  0 instructions:  177000001 cycles:  276497244 heartbeat IPC: 0.46625 cumulative IPC: 0.37251 (Simulation time: 0 hr 7 min 30 sec) 
Heartbeat CPU  0 instructions:  178000003 cycles:  278661328 heartbeat IPC: 0.46209 cumulative IPC: 0.37344 (Simulation time: 0 hr 7 min 33 sec) 
Heartbeat CPU  0 instructions:  179000002 cycles:  280716027 heartbeat IPC: 0.48669 cumulative IPC: 0.37454 (Simulation time: 0 hr 7 min 36 sec) 
Heartbeat CPU  0 instructions:  180000000 cycles:  282730165 heartbeat IPC: 0.49649 cumulative IPC: 0.37569 (Simulation time: 0 hr 7 min 39 sec) 
Heartbeat CPU  0 instructions:  181000003 cycles:  284777501 heartbeat IPC: 0.48844 cumulative IPC: 0.37677 (Simulation time: 0 hr 7 min 41 sec) 
Heartbeat CPU  0 instructions:  182000003 cycles:  286723697 heartbeat IPC: 0.51382 cumulative IPC: 0.37800 (Simulation time: 0 hr 7 min 44 sec) 
Heartbeat CPU  0 instructions:  183000000 cycles:  288661030 heartbeat IPC: 0.51617 cumulative IPC: 0.37922 (Simulation time: 0 hr 7 min 47 sec) 
Heartbeat CPU  0 instructions:  184000000 cycles:  290697027 heartbeat IPC: 0.49116 cumulative IPC: 0.38025 (Simulation time: 0 hr 7 min 50 sec) 
Heartbeat CPU  0 instructions:  185000002 cycles:  292725330 heartbeat IPC: 0.49302 cumulative IPC: 0.38128 (Simulation time: 0 hr 7 min 52 sec) 
Heartbeat CPU  0 instructions:  186000001 cycles:  294621435 heartbeat IPC: 0.52740 cumulative IPC: 0.38251 (Simulation time: 0 hr 7 min 55 sec) 
Heartbeat CPU  0 instructions:  187000000 cycles:  296681970 heartbeat IPC: 0.48531 cumulative IPC: 0.38344 (Simulation time: 0 hr 7 min 58 sec) 
Heartbeat CPU  0 instructions:  188000000 cycles:  298710747 heartbeat IPC: 0.49291 cumulative IPC: 0.38441 (Simulation time: 0 hr 8 min 1 sec) 
Heartbeat CPU  0 instructions:  189000000 cycles:  300606607 heartbeat IPC: 0.52747 cumulative IPC: 0.38559 (Simulation time: 0 hr 8 min 3 sec) 
Heartbeat CPU  0 instructions:  190000000 cycles:  302601178 heartbeat IPC: 0.50136 cumulative IPC: 0.38658 (Simulation time: 0 hr 8 min 6 sec) 
Heartbeat CPU  0 instructions:  191000000 cycles:  304652170 heartbeat IPC: 0.48757 cumulative IPC: 0.38746 (Simulation time: 0 hr 8 min 9 sec) 
Heartbeat CPU  0 instructions:  192000000 cycles:  306643540 heartbeat IPC: 0.50217 cumulative IPC: 0.38843 (Simulation time: 0 hr 8 min 12 sec) 
Heartbeat CPU  0 instructions:  193000001 cycles:  308588884 heartbeat IPC: 0.51405 cumulative IPC: 0.38945 (Simulation time: 0 hr 8 min 14 sec) 
Heartbeat CPU  0 instructions:  194000000 cycles:  310606286 heartbeat IPC: 0.49569 cumulative IPC: 0.39034 (Simulation time: 0 hr 8 min 17 sec) 
Heartbeat CPU  0 instructions:  195000002 cycles:  312624646 heartbeat IPC: 0.49545 cumulative IPC: 0.39121 (Simulation time: 0 hr 8 min 20 sec) 
Heartbeat CPU  0 instructions:  196000000 cycles:  314514127 heartbeat IPC: 0.52924 cumulative IPC: 0.39228 (Simulation time: 0 hr 8 min 23 sec) 
Heartbeat CPU  0 instructions:  197000000 cycles:  316688494 heartbeat IPC: 0.45990 cumulative IPC: 0.39287 (Simulation time: 0 hr 8 min 25 sec) 
Heartbeat CPU  0 instructions:  198000003 cycles:  331032799 heartbeat IPC: 0.06971 cumulative IPC: 0.37513 (Simulation time: 0 hr 8 min 29 sec) 
Heartbeat CPU  0 instructions:  199000001 cycles:  334303101 heartbeat IPC: 0.30578 cumulative IPC: 0.37427 (Simulation time: 0 hr 8 min 32 sec) 
Heartbeat CPU  0 instructions:  200000000 cycles:  336299853 heartbeat IPC: 0.50081 cumulative IPC: 0.37522 (Simulation time: 0 hr 8 min 35 sec) 
Heartbeat CPU  0 instructions:  201000002 cycles:  338344089 heartbeat IPC: 0.48918 cumulative IPC: 0.37609 (Simulation time: 0 hr 8 min 38 sec) 
Heartbeat CPU  0 instructions:  202000003 cycles:  340343229 heartbeat IPC: 0.50022 cumulative IPC: 0.37700 (Simulation time: 0 hr 8 min 40 sec) 
Heartbeat CPU  0 instructions:  203000002 cycles:  342276265 heartbeat IPC: 0.51732 cumulative IPC: 0.37800 (Simulation time: 0 hr 8 min 43 sec) 
Heartbeat CPU  0 instructions:  204000000 cycles:  344357482 heartbeat IPC: 0.48049 cumulative IPC: 0.37878 (Simulation time: 0 hr 8 min 46 sec) 
Heartbeat CPU  0 instructions:  205000002 cycles:  346401062 heartbeat IPC: 0.48934 cumulative IPC: 0.37959 (Simulation time: 0 hr 8 min 49 sec) 
Heartbeat CPU  0 instructions:  206000000 cycles:  348279090 heartbeat IPC: 0.53247 cumulative IPC: 0.38062 (Simulation time: 0 hr 8 min 51 sec) 
Heartbeat CPU  0 instructions:  207000002 cycles:  350319893 heartbeat IPC: 0.49000 cumulative IPC: 0.38142 (Simulation time: 0 hr 8 min 54 sec) 
Heartbeat CPU  0 instructions:  208000000 cycles:  352346334 heartbeat IPC: 0.49348 cumulative IPC: 0.38222 (Simulation time: 0 hr 8 min 57 sec) 
Heartbeat CPU  0 instructions:  209000002 cycles:  354242327 heartbeat IPC: 0.52743 cumulative IPC: 0.38319 (Simulation time: 0 hr 9 min 0 sec) 
Heartbeat CPU  0 instructions:  210000000 cycles:  356218013 heartbeat IPC: 0.50615 cumulative IPC: 0.38404 (Simulation time: 0 hr 9 min 2 sec) 
Heartbeat CPU  0 instructions:  211000003 cycles:  358255144 heartbeat IPC: 0.49089 cumulative IPC: 0.38479 (Simulation time: 0 hr 9 min 5 sec) 
Heartbeat CPU  0 instructions:  212000000 cycles:  360231204 heartbeat IPC: 0.50606 cumulative IPC: 0.38562 (Simulation time: 0 hr 9 min 8 sec) 
Heartbeat CPU  0 instructions:  213000003 cycles:  362158915 heartbeat IPC: 0.51875 cumulative IPC: 0.38650 (Simulation time: 0 hr 9 min 11 sec) 
Heartbeat CPU  0 instructions:  214000003 cycles:  364192239 heartbeat IPC: 0.49181 cumulative IPC: 0.38722 (Simulation time: 0 hr 9 min 13 sec) 
Heartbeat CPU  0 instructions:  215000003 cycles:  366206074 heartbeat IPC: 0.49657 cumulative IPC: 0.38797 (Simulation time: 0 hr 9 min 16 sec) 
Heartbeat CPU  0 instructions:  216000000 cycles:  368085836 heartbeat IPC: 0.53198 cumulative IPC: 0.38888 (Simulation time: 0 hr 9 min 19 sec) 
Heartbeat CPU  0 instructions:  217000002 cycles:  370112620 heartbeat IPC: 0.49339 cumulative IPC: 0.38958 (Simulation time: 0 hr 9 min 22 sec) 
Heartbeat CPU  0 instructions:  218000001 cycles:  372176929 heartbeat IPC: 0.48442 cumulative IPC: 0.39023 (Simulation time: 0 hr 9 min 24 sec) 
Heartbeat CPU  0 instructions:  219000002 cycles:  374100473 heartbeat IPC: 0.51987 cumulative IPC: 0.39105 (Simulation time: 0 hr 9 min 27 sec) 
Heartbeat CPU  0 instructions:  220000000 cycles:  383133437 heartbeat IPC: 0.11071 cumulative IPC: 0.38297 (Simulation time: 0 hr 9 min 30 sec) 
Heartbeat CPU  0 instructions:  221000000 cycles:  391946400 heartbeat IPC: 0.11347 cumulative IPC: 0.37559 (Simulation time: 0 hr 9 min 34 sec) 
Heartbeat CPU  0 instructions:  222000000 cycles:  393946782 heartbeat IPC: 0.49990 cumulative IPC: 0.37636 (Simulation time: 0 hr 9 min 37 sec) 
Heartbeat CPU  0 instructions:  223000001 cycles:  395883446 heartbeat IPC: 0.51635 cumulative IPC: 0.37719 (Simulation time: 0 hr 9 min 39 sec) 
Heartbeat CPU  0 instructions:  224000000 cycles:  397934543 heartbeat IPC: 0.48754 cumulative IPC: 0.37788 (Simulation time: 0 hr 9 min 42 sec) 
Heartbeat CPU  0 instructions:  225000002 cycles:  399979358 heartbeat IPC: 0.48904 cumulative IPC: 0.37857 (Simulation time: 0 hr 9 min 45 sec) 
Heartbeat CPU  0 instructions:  226000002 cycles:  401873241 heartbeat IPC: 0.52802 cumulative IPC: 0.37942 (Simulation time: 0 hr 9 min 48 sec) 
Heartbeat CPU  0 instructions:  227000003 cycles:  403902527 heartbeat IPC: 0.49278 cumulative IPC: 0.38011 (Simulation time: 0 hr 9 min 50 sec) 
Heartbeat CPU  0 instructions:  228000000 cycles:  405936920 heartbeat IPC: 0.49155 cumulative IPC: 0.38079 (Simulation time: 0 hr 9 min 53 sec) 
Heartbeat CPU  0 instructions:  229000003 cycles:  408005629 heartbeat IPC: 0.48339 cumulative IPC: 0.38141 (Simulation time: 0 hr 9 min 56 sec) 
Heartbeat CPU  0 instructions:  230000000 cycles:  409952515 heartbeat IPC: 0.51364 cumulative IPC: 0.38217 (Simulation time: 0 hr 9 min 59 sec) 
Heartbeat CPU  0 instructions:  231000003 cycles:  411988748 heartbeat IPC: 0.49110 cumulative IPC: 0.38282 (Simulation time: 0 hr 10 min 1 sec) 
Heartbeat CPU  0 instructions:  232000000 cycles:  413967699 heartbeat IPC: 0.50532 cumulative IPC: 0.38352 (Simulation time: 0 hr 10 min 4 sec) 
Heartbeat CPU  0 instructions:  233000002 cycles:  415835584 heartbeat IPC: 0.53537 cumulative IPC: 0.38434 (Simulation time: 0 hr 10 min 7 sec) 
Heartbeat CPU  0 instructions:  234000001 cycles:  417837824 heartbeat IPC: 0.49944 cumulative IPC: 0.38500 (Simulation time: 0 hr 10 min 10 sec) 
Heartbeat CPU  0 instructions:  235000003 cycles:  419861812 heartbeat IPC: 0.49408 cumulative IPC: 0.38563 (Simulation time: 0 hr 10 min 12 sec) 
Heartbeat CPU  0 instructions:  236000000 cycles:  421727959 heartbeat IPC: 0.53586 cumulative IPC: 0.38643 (Simulation time: 0 hr 10 min 15 sec) 
Heartbeat CPU  0 instructions:  237000002 cycles:  423731103 heartbeat IPC: 0.49922 cumulative IPC: 0.38707 (Simulation time: 0 hr 10 min 18 sec) 
Heartbeat CPU  0 instructions:  238000002 cycles:  425786260 heartbeat IPC: 0.48658 cumulative IPC: 0.38764 (Simulation time: 0 hr 10 min 21 sec) 
Heartbeat CPU  0 instructions:  239000001 cycles:  427762067 heartbeat IPC: 0.50612 cumulative IPC: 0.38830 (Simulation time: 0 hr 10 min 24 sec) 
Heartbeat CPU  0 instructions:  240000000 cycles:  429685550 heartbeat IPC: 0.51989 cumulative IPC: 0.38900 (Simulation time: 0 hr 10 min 26 sec) 
Heartbeat CPU  0 instructions:  241000003 cycles:  431738010 heartbeat IPC: 0.48722 cumulative IPC: 0.38956 (Simulation time: 0 hr 10 min 29 sec) 
Heartbeat CPU  0 instructions:  242000002 cycles:  435573582 heartbeat IPC: 0.26072 cumulative IPC: 0.38821 (Simulation time: 0 hr 10 min 32 sec) 
Heartbeat CPU  0 instructions:  243000003 cycles:  449730424 heartbeat IPC: 0.07064 cumulative IPC: 0.37637 (Simulation time: 0 hr 10 min 36 sec) 
Heartbeat CPU  0 instructions:  244000000 cycles:  451783157 heartbeat IPC: 0.48715 cumulative IPC: 0.37697 (Simulation time: 0 hr 10 min 38 sec) 
Heartbeat CPU  0 instructions:  245000000 cycles:  453809357 heartbeat IPC: 0.49353 cumulative IPC: 0.37758 (Simulation time: 0 hr 10 min 41 sec) 
Heartbeat CPU  0 instructions:  246000000 cycles:  455683866 heartbeat IPC: 0.53347 cumulative IPC: 0.37834 (Simulation time: 0 hr 10 min 44 sec) 
Heartbeat CPU  0 instructions:  247000000 cycles:  457703899 heartbeat IPC: 0.49504 cumulative IPC: 0.37895 (Simulation time: 0 hr 10 min 47 sec) 
Heartbeat CPU  0 instructions:  248000000 cycles:  459758806 heartbeat IPC: 0.48664 cumulative IPC: 0.37952 (Simulation time: 0 hr 10 min 49 sec) 
Heartbeat CPU  0 instructions:  249000001 cycles:  461716640 heartbeat IPC: 0.51077 cumulative IPC: 0.38017 (Simulation time: 0 hr 10 min 52 sec) 
Heartbeat CPU  0 instructions:  250000003 cycles:  463672427 heartbeat IPC: 0.51130 cumulative IPC: 0.38082 (Simulation time: 0 hr 10 min 55 sec) 
Heartbeat CPU  0 instructions:  251000002 cycles:  465682435 heartbeat IPC: 0.49751 cumulative IPC: 0.38142 (Simulation time: 0 hr 10 min 58 sec) 
Heartbeat CPU  0 instructions:  252000000 cycles:  467704603 heartbeat IPC: 0.49452 cumulative IPC: 0.38199 (Simulation time: 0 hr 11 min 0 sec) 
Heartbeat CPU  0 instructions:  253000000 cycles:  469580828 heartbeat IPC: 0.53299 cumulative IPC: 0.38270 (Simulation time: 0 hr 11 min 3 sec) 
Heartbeat CPU  0 instructions:  254000002 cycles:  471563340 heartbeat IPC: 0.50441 cumulative IPC: 0.38330 (Simulation time: 0 hr 11 min 6 sec) 
Heartbeat CPU  0 instructions:  255000000 cycles:  473585397 heartbeat IPC: 0.49454 cumulative IPC: 0.38386 (Simulation time: 0 hr 11 min 9 sec) 
Heartbeat CPU  0 instructions:  256000000 cycles:  475459233 heartbeat IPC: 0.53366 cumulative IPC: 0.38455 (Simulation time: 0 hr 11 min 11 sec) 
Heartbeat CPU  0 instructions:  257000000 cycles:  477465181 heartbeat IPC: 0.49852 cumulative IPC: 0.38511 (Simulation time: 0 hr 11 min 14 sec) 
Heartbeat CPU  0 instructions:  258000003 cycles:  479513124 heartbeat IPC: 0.48830 cumulative IPC: 0.38563 (Simulation time: 0 hr 11 min 17 sec) 
Heartbeat CPU  0 instructions:  259000000 cycles:  481486058 heartbeat IPC: 0.50686 cumulative IPC: 0.38621 (Simulation time: 0 hr 11 min 20 sec) 
Heartbeat CPU  0 instructions:  260000000 cycles:  483415342 heartbeat IPC: 0.51833 cumulative IPC: 0.38682 (Simulation time: 0 hr 11 min 22 sec) 
Heartbeat CPU  0 instructions:  261000000 cycles:  485450053 heartbeat IPC: 0.49147 cumulative IPC: 0.38734 (Simulation time: 0 hr 11 min 25 sec) 
Heartbeat CPU  0 instructions:  262000002 cycles:  487465915 heartbeat IPC: 0.49607 cumulative IPC: 0.38786 (Simulation time: 0 hr 11 min 28 sec) 
Heartbeat CPU  0 instructions:  263000001 cycles:  489357692 heartbeat IPC: 0.52860 cumulative IPC: 0.38849 (Simulation time: 0 hr 11 min 31 sec) 
Heartbeat CPU  0 instructions:  264000000 cycles:  491413353 heartbeat IPC: 0.48646 cumulative IPC: 0.38897 (Simulation time: 0 hr 11 min 33 sec) 
Heartbeat CPU  0 instructions:  265000002 cycles:  502279969 heartbeat IPC: 0.09203 cumulative IPC: 0.38151 (Simulation time: 0 hr 11 min 37 sec) 
Heartbeat CPU  0 instructions:  266000001 cycles:  509183124 heartbeat IPC: 0.14486 cumulative IPC: 0.37779 (Simulation time: 0 hr 11 min 40 sec) 
Heartbeat CPU  0 instructions:  267000002 cycles:  511155650 heartbeat IPC: 0.50696 cumulative IPC: 0.37837 (Simulation time: 0 hr 11 min 43 sec) 
Heartbeat CPU  0 instructions:  268000000 cycles:  513230069 heartbeat IPC: 0.48206 cumulative IPC: 0.37886 (Simulation time: 0 hr 11 min 45 sec) 
Heartbeat CPU  0 instructions:  269000000 cycles:  515202507 heartbeat IPC: 0.50699 cumulative IPC: 0.37942 (Simulation time: 0 hr 11 min 48 sec) 
Heartbeat CPU  0 instructions:  270000003 cycles:  517159756 heartbeat IPC: 0.51092 cumulative IPC: 0.38000 (Simulation time: 0 hr 11 min 51 sec) 
Heartbeat CPU  0 instructions:  271000002 cycles:  519232899 heartbeat IPC: 0.48236 cumulative IPC: 0.38047 (Simulation time: 0 hr 11 min 54 sec) 
Heartbeat CPU  0 instructions:  272000000 cycles:  521266953 heartbeat IPC: 0.49163 cumulative IPC: 0.38097 (Simulation time: 0 hr 11 min 56 sec) 
Heartbeat CPU  0 instructions:  273000002 cycles:  523164586 heartbeat IPC: 0.52697 cumulative IPC: 0.38158 (Simulation time: 0 hr 11 min 59 sec) 
Heartbeat CPU  0 instructions:  274000000 cycles:  525192184 heartbeat IPC: 0.49319 cumulative IPC: 0.38208 (Simulation time: 0 hr 12 min 2 sec) 
Heartbeat CPU  0 instructions:  275000000 cycles:  527214866 heartbeat IPC: 0.49439 cumulative IPC: 0.38258 (Simulation time: 0 hr 12 min 5 sec) 
Heartbeat CPU  0 instructions:  276000000 cycles:  529087240 heartbeat IPC: 0.53408 cumulative IPC: 0.38319 (Simulation time: 0 hr 12 min 7 sec) 
Heartbeat CPU  0 instructions:  277000001 cycles:  531064177 heartbeat IPC: 0.50583 cumulative IPC: 0.38372 (Simulation time: 0 hr 12 min 10 sec) 
Heartbeat CPU  0 instructions:  278000000 cycles:  533125306 heartbeat IPC: 0.48517 cumulative IPC: 0.38417 (Simulation time: 0 hr 12 min 13 sec) 
Heartbeat CPU  0 instructions:  279000003 cycles:  535241979 heartbeat IPC: 0.47244 cumulative IPC: 0.38457 (Simulation time: 0 hr 12 min 16 sec) 
Heartbeat CPU  0 instructions:  280000000 cycles:  537248362 heartbeat IPC: 0.49841 cumulative IPC: 0.38506 (Simulation time: 0 hr 12 min 19 sec) 
Heartbeat CPU  0 instructions:  281000002 cycles:  539403072 heartbeat IPC: 0.46410 cumulative IPC: 0.38542 (Simulation time: 0 hr 12 min 21 sec) 
Heartbeat CPU  0 instructions:  282000002 cycles:  541425214 heartbeat IPC: 0.49453 cumulative IPC: 0.38589 (Simulation time: 0 hr 12 min 24 sec) 
Heartbeat CPU  0 instructions:  283000000 cycles:  543296401 heartbeat IPC: 0.53442 cumulative IPC: 0.38648 (Simulation time: 0 hr 12 min 27 sec) 
Heartbeat CPU  0 instructions:  284000000 cycles:  545334114 heartbeat IPC: 0.49075 cumulative IPC: 0.38692 (Simulation time: 0 hr 12 min 30 sec) 
Heartbeat CPU  0 instructions:  285000001 cycles:  547381358 heartbeat IPC: 0.48846 cumulative IPC: 0.38736 (Simulation time: 0 hr 12 min 32 sec) 
Heartbeat CPU  0 instructions:  286000003 cycles:  549312811 heartbeat IPC: 0.51775 cumulative IPC: 0.38789 (Simulation time: 0 hr 12 min 35 sec) 
Heartbeat CPU  0 instructions:  287000002 cycles:  554955648 heartbeat IPC: 0.17722 cumulative IPC: 0.38544 (Simulation time: 0 hr 12 min 38 sec) 
Heartbeat CPU  0 instructions:  288000000 cycles:  567094018 heartbeat IPC: 0.08238 cumulative IPC: 0.37804 (Simulation time: 0 hr 12 min 42 sec) 
Heartbeat CPU  0 instructions:  289000003 cycles:  569084925 heartbeat IPC: 0.50229 cumulative IPC: 0.37853 (Simulation time: 0 hr 12 min 44 sec) 
Heartbeat CPU  0 instructions:  290000003 cycles:  571022630 heartbeat IPC: 0.51607 cumulative IPC: 0.37907 (Simulation time: 0 hr 12 min 47 sec) 
Heartbeat CPU  0 instructions:  291000002 cycles:  573079584 heartbeat IPC: 0.48616 cumulative IPC: 0.37950 (Simulation time: 0 hr 12 min 50 sec) 
Heartbeat CPU  0 instructions:  292000000 cycles:  575110939 heartbeat IPC: 0.49228 cumulative IPC: 0.37996 (Simulation time: 0 hr 12 min 53 sec) 
Heartbeat CPU  0 instructions:  293000001 cycles:  577006049 heartbeat IPC: 0.52767 cumulative IPC: 0.38051 (Simulation time: 0 hr 12 min 55 sec) 
Heartbeat CPU  0 instructions:  294000000 cycles:  579016493 heartbeat IPC: 0.49740 cumulative IPC: 0.38097 (Simulation time: 0 hr 12 min 58 sec) 
Heartbeat CPU  0 instructions:  295000002 cycles:  581052604 heartbeat IPC: 0.49113 cumulative IPC: 0.38141 (Simulation time: 0 hr 13 min 1 sec) 
Heartbeat CPU  0 instructions:  296000000 cycles:  582976788 heartbeat IPC: 0.51970 cumulative IPC: 0.38193 (Simulation time: 0 hr 13 min 4 sec) 
Heartbeat CPU  0 instructions:  297000001 cycles:  584929676 heartbeat IPC: 0.51206 cumulative IPC: 0.38242 (Simulation time: 0 hr 13 min 6 sec) 
Heartbeat CPU  0 instructions:  298000003 cycles:  586971504 heartbeat IPC: 0.48976 cumulative IPC: 0.38284 (Simulation time: 0 hr 13 min 9 sec) 
Heartbeat CPU  0 instructions:  299000000 cycles:  588978190 heartbeat IPC: 0.49833 cumulative IPC: 0.38329 (Simulation time: 0 hr 13 min 12 sec) 
Heartbeat CPU  0 instructions:  300000000 cycles:  590882008 heartbeat IPC: 0.52526 cumulative IPC: 0.38381 (Simulation time: 0 hr 13 min 15 sec) 
Heartbeat CPU  0 instructions:  301000003 cycles:  592899525 heartbeat IPC: 0.49566 cumulative IPC: 0.38424 (Simulation time: 0 hr 13 min 17 sec) 
Heartbeat CPU  0 instructions:  302000000 cycles:  594910092 heartbeat IPC: 0.49737 cumulative IPC: 0.38467 (Simulation time: 0 hr 13 min 20 sec) 
Heartbeat CPU  0 instructions:  303000000 cycles:  596754067 heartbeat IPC: 0.54231 cumulative IPC: 0.38523 (Simulation time: 0 hr 13 min 23 sec) 
Heartbeat CPU  0 instructions:  304000000 cycles:  598752645 heartbeat IPC: 0.50036 cumulative IPC: 0.38566 (Simulation time: 0 hr 13 min 26 sec) 
Heartbeat CPU  0 instructions:  305000000 cycles:  600792864 heartbeat IPC: 0.49014 cumulative IPC: 0.38606 (Simulation time: 0 hr 13 min 28 sec) 
Heartbeat CPU  0 instructions:  306000002 cycles:  602716792 heartbeat IPC: 0.51977 cumulative IPC: 0.38654 (Simulation time: 0 hr 13 min 31 sec) 
Heartbeat CPU  0 instructions:  307000003 cycles:  604662549 heartbeat IPC: 0.51394 cumulative IPC: 0.38701 (Simulation time: 0 hr 13 min 34 sec) 
Heartbeat CPU  0 instructions:  308000000 cycles:  606710898 heartbeat IPC: 0.48820 cumulative IPC: 0.38739 (Simulation time: 0 hr 13 min 37 sec) 
Heartbeat CPU  0 instructions:  309000003 cycles:  608745299 heartbeat IPC: 0.49155 cumulative IPC: 0.38779 (Simulation time: 0 hr 13 min 39 sec) 
Heartbeat CPU  0 instructions:  310000002 cycles:  621401898 heartbeat IPC: 0.07901 cumulative IPC: 0.38070 (Simulation time: 0 hr 13 min 43 sec) 
Heartbeat CPU  0 instructions:  311000000 cycles:  626419044 heartbeat IPC: 0.19932 cumulative IPC: 0.37907 (Simulation time: 0 hr 13 min 46 sec) 
Heartbeat CPU  0 instructions:  312000000 cycles:  628483006 heartbeat IPC: 0.48451 cumulative IPC: 0.37946 (Simulation time: 0 hr 13 min 49 sec) 
Heartbeat CPU  0 instructions:  313000003 cycles:  630383746 heartbeat IPC: 0.52611 cumulative IPC: 0.37995 (Simulation time: 0 hr 13 min 52 sec) 
Heartbeat CPU  0 instructions:  314000000 cycles:  632388590 heartbeat IPC: 0.49879 cumulative IPC: 0.38038 (Simulation time: 0 hr 13 min 54 sec) 
Heartbeat CPU  0 instructions:  315000000 cycles:  634443206 heartbeat IPC: 0.48671 cumulative IPC: 0.38076 (Simulation time: 0 hr 13 min 57 sec) 
Heartbeat CPU  0 instructions:  316000000 cycles:  636400106 heartbeat IPC: 0.51101 cumulative IPC: 0.38121 (Simulation time: 0 hr 14 min 0 sec) 
Heartbeat CPU  0 instructions:  317000001 cycles:  638313933 heartbeat IPC: 0.52251 cumulative IPC: 0.38169 (Simulation time: 0 hr 14 min 3 sec) 
Heartbeat CPU  0 instructions:  318000002 cycles:  640347940 heartbeat IPC: 0.49164 cumulative IPC: 0.38208 (Simulation time: 0 hr 14 min 5 sec) 
Heartbeat CPU  0 instructions:  319000001 cycles:  642361895 heartbeat IPC: 0.49653 cumulative IPC: 0.38248 (Simulation time: 0 hr 14 min 8 sec) 
Heartbeat CPU  0 instructions:  320000000 cycles:  644252899 heartbeat IPC: 0.52882 cumulative IPC: 0.38297 (Simulation time: 0 hr 14 min 11 sec) 
Heartbeat CPU  0 instructions:  321000002 cycles:  646263686 heartbeat IPC: 0.49732 cumulative IPC: 0.38337 (Simulation time: 0 hr 14 min 14 sec) 
Heartbeat CPU  0 instructions:  322000001 cycles:  648273156 heartbeat IPC: 0.49764 cumulative IPC: 0.38376 (Simulation time: 0 hr 14 min 16 sec) 
Heartbeat CPU  0 instructions:  323000002 cycles:  650163305 heartbeat IPC: 0.52906 cumulative IPC: 0.38424 (Simulation time: 0 hr 14 min 19 sec) 
Heartbeat CPU  0 instructions:  324000000 cycles:  652138123 heartbeat IPC: 0.50637 cumulative IPC: 0.38465 (Simulation time: 0 hr 14 min 22 sec) 
Heartbeat CPU  0 instructions:  325000001 cycles:  654183203 heartbeat IPC: 0.48898 cumulative IPC: 0.38501 (Simulation time: 0 hr 14 min 25 sec) 
Heartbeat CPU  0 instructions:  326000002 cycles:  656125792 heartbeat IPC: 0.51478 cumulative IPC: 0.38544 (Simulation time: 0 hr 14 min 27 sec) 
Heartbeat CPU  0 instructions:  327000002 cycles:  658057719 heartbeat IPC: 0.51762 cumulative IPC: 0.38588 (Simulation time: 0 hr 14 min 30 sec) 
Heartbeat CPU  0 instructions:  328000000 cycles:  660084758 heartbeat IPC: 0.49333 cumulative IPC: 0.38625 (Simulation time: 0 hr 14 min 33 sec) 
Heartbeat CPU  0 instructions:  329000002 cycles:  662120846 heartbeat IPC: 0.49114 cumulative IPC: 0.38661 (Simulation time: 0 hr 14 min 36 sec) 
Heartbeat CPU  0 instructions:  330000001 cycles:  664010674 heartbeat IPC: 0.52915 cumulative IPC: 0.38706 (Simulation time: 0 hr 14 min 38 sec) 
Heartbeat CPU  0 instructions:  331000002 cycles:  666155818 heartbeat IPC: 0.46617 cumulative IPC: 0.38735 (Simulation time: 0 hr 14 min 41 sec) 
Heartbeat CPU  0 instructions:  332000000 cycles:  673536607 heartbeat IPC: 0.13549 cumulative IPC: 0.38427 (Simulation time: 0 hr 14 min 44 sec) 
Heartbeat CPU  0 instructions:  333000000 cycles:  683823871 heartbeat IPC: 0.09721 cumulative IPC: 0.37946 (Simulation time: 0 hr 14 min 48 sec) 
Heartbeat CPU  0 instructions:  334000001 cycles:  685818401 heartbeat IPC: 0.50137 cumulative IPC: 0.37985 (Simulation time: 0 hr 14 min 50 sec) 
Heartbeat CPU  0 instructions:  335000001 cycles:  687878318 heartbeat IPC: 0.48546 cumulative IPC: 0.38020 (Simulation time: 0 hr 14 min 53 sec) 
Heartbeat CPU  0 instructions:  336000000 cycles:  689881895 heartbeat IPC: 0.49911 cumulative IPC: 0.38059 (Simulation time: 0 hr 14 min 56 sec) 
Heartbeat CPU  0 instructions:  337000003 cycles:  691824556 heartbeat IPC: 0.51476 cumulative IPC: 0.38101 (Simulation time: 0 hr 14 min 59 sec) 
Heartbeat CPU  0 instructions:  338000002 cycles:  693857924 heartbeat IPC: 0.49179 cumulative IPC: 0.38137 (Simulation time: 0 hr 15 min 2 sec) 
Heartbeat CPU  0 instructions:  339000000 cycles:  695890411 heartbeat IPC: 0.49201 cumulative IPC: 0.38173 (Simulation time: 0 hr 15 min 4 sec) 
Heartbeat CPU  0 instructions:  340000000 cycles:  697767923 heartbeat IPC: 0.53262 cumulative IPC: 0.38218 (Simulation time: 0 hr 15 min 7 sec) 
Heartbeat CPU  0 instructions:  341000000 cycles:  699804720 heartbeat IPC: 0.49097 cumulative IPC: 0.38253 (Simulation time: 0 hr 15 min 10 sec) 
Heartbeat CPU  0 instructions:  342000001 cycles:  701839604 heartbeat IPC: 0.49143 cumulative IPC: 0.38288 (Simulation time: 0 hr 15 min 13 sec) 
Heartbeat CPU  0 instructions:  343000000 cycles:  703719654 heartbeat IPC: 0.53190 cumulative IPC: 0.38332 (Simulation time: 0 hr 15 min 15 sec) 
Heartbeat CPU  0 instructions:  344000000 cycles:  705699993 heartbeat IPC: 0.50496 cumulative IPC: 0.38370 (Simulation time: 0 hr 15 min 18 sec) 
Heartbeat CPU  0 instructions:  345000000 cycles:  707727078 heartbeat IPC: 0.49332 cumulative IPC: 0.38405 (Simulation time: 0 hr 15 min 21 sec) 
Heartbeat CPU  0 instructions:  346000001 cycles:  709734357 heartbeat IPC: 0.49819 cumulative IPC: 0.38441 (Simulation time: 0 hr 15 min 24 sec) 
Heartbeat CPU  0 instructions:  347000002 cycles:  711651481 heartbeat IPC: 0.52162 cumulative IPC: 0.38482 (Simulation time: 0 hr 15 min 26 sec) 
Heartbeat CPU  0 instructions:  348000000 cycles:  713683746 heartbeat IPC: 0.49206 cumulative IPC: 0.38516 (Simulation time: 0 hr 15 min 29 sec) 
Heartbeat CPU  0 instructions:  349000001 cycles:  715698442 heartbeat IPC: 0.49635 cumulative IPC: 0.38550 (Simulation time: 0 hr 15 min 32 sec) 
Heartbeat CPU  0 instructions:  350000003 cycles:  717574692 heartbeat IPC: 0.53298 cumulative IPC: 0.38593 (Simulation time: 0 hr 15 min 35 sec) 
Heartbeat CPU  0 instructions:  351000003 cycles:  719604676 heartbeat IPC: 0.49261 cumulative IPC: 0.38626 (Simulation time: 0 hr 15 min 37 sec) 
Heartbeat CPU  0 instructions:  352000000 cycles:  721656971 heartbeat IPC: 0.48726 cumulative IPC: 0.38658 (Simulation time: 0 hr 15 min 40 sec) 
Heartbeat CPU  0 instructions:  353000001 cycles:  723562844 heartbeat IPC: 0.52469 cumulative IPC: 0.38698 (Simulation time: 0 hr 15 min 43 sec) 
Heartbeat CPU  0 instructions:  354000003 cycles:  725768201 heartbeat IPC: 0.45344 cumulative IPC: 0.38721 (Simulation time: 0 hr 15 min 46 sec) 
Heartbeat CPU  0 instructions:  355000003 cycles:  740321088 heartbeat IPC: 0.06871 cumulative IPC: 0.38030 (Simulation time: 0 hr 15 min 50 sec) 
Heartbeat CPU  0 instructions:  356000000 cycles:  743538141 heartbeat IPC: 0.31084 cumulative IPC: 0.37996 (Simulation time: 0 hr 15 min 52 sec) 
Heartbeat CPU  0 instructions:  357000003 cycles:  745480957 heartbeat IPC: 0.51472 cumulative IPC: 0.38035 (Simulation time: 0 hr 15 min 55 sec) 
Heartbeat CPU  0 instructions:  358000002 cycles:  747541448 heartbeat IPC: 0.48532 cumulative IPC: 0.38067 (Simulation time: 0 hr 15 min 58 sec) 
Heartbeat CPU  0 instructions:  359000003 cycles:  749565760 heartbeat IPC: 0.49400 cumulative IPC: 0.38101 (Simulation time: 0 hr 16 min 1 sec) 
Heartbeat CPU  0 instructions:  360000000 cycles:  751445803 heartbeat IPC: 0.53190 cumulative IPC: 0.38142 (Simulation time: 0 hr 16 min 4 sec) 
Heartbeat CPU  0 instructions:  361000003 cycles:  753490381 heartbeat IPC: 0.48910 cumulative IPC: 0.38175 (Simulation time: 0 hr 16 min 6 sec) 
Heartbeat CPU  0 instructions:  362000000 cycles:  755572679 heartbeat IPC: 0.48024 cumulative IPC: 0.38205 (Simulation time: 0 hr 16 min 9 sec) 
Heartbeat CPU  0 instructions:  363000000 cycles:  757497525 heartbeat IPC: 0.51952 cumulative IPC: 0.38243 (Simulation time: 0 hr 16 min 12 sec) 
Heartbeat CPU  0 instructions:  364000000 cycles:  759475802 heartbeat IPC: 0.50549 cumulative IPC: 0.38278 (Simulation time: 0 hr 16 min 15 sec) 
Heartbeat CPU  0 instructions:  365000000 cycles:  761502413 heartbeat IPC: 0.49343 cumulative IPC: 0.38311 (Simulation time: 0 hr 16 min 17 sec) 
Heartbeat CPU  0 instructions:  366000001 cycles:  763503452 heartbeat IPC: 0.49974 cumulative IPC: 0.38344 (Simulation time: 0 hr 16 min 20 sec) 
Heartbeat CPU  0 instructions:  367000001 cycles:  765434189 heartbeat IPC: 0.51794 cumulative IPC: 0.38382 (Simulation time: 0 hr 16 min 23 sec) 
Heartbeat CPU  0 instructions:  368000000 cycles:  767493826 heartbeat IPC: 0.48552 cumulative IPC: 0.38412 (Simulation time: 0 hr 16 min 26 sec) 
Heartbeat CPU  0 instructions:  369000003 cycles:  769531316 heartbeat IPC: 0.49080 cumulative IPC: 0.38443 (Simulation time: 0 hr 16 min 28 sec) 
Heartbeat CPU  0 instructions:  370000000 cycles:  771418733 heartbeat IPC: 0.52982 cumulative IPC: 0.38482 (Simulation time: 0 hr 16 min 31 sec) 
Heartbeat CPU  0 instructions:  371000001 cycles:  773420774 heartbeat IPC: 0.49949 cumulative IPC: 0.38515 (Simulation time: 0 hr 16 min 34 sec) 
Heartbeat CPU  0 instructions:  372000000 cycles:  775466013 heartbeat IPC: 0.48894 cumulative IPC: 0.38545 (Simulation time: 0 hr 16 min 37 sec) 
Heartbeat CPU  0 instructions:  373000003 cycles:  777435621 heartbeat IPC: 0.50772 cumulative IPC: 0.38579 (Simulation time: 0 hr 16 min 40 sec) 
Heartbeat CPU  0 instructions:  374000001 cycles:  779401171 heartbeat IPC: 0.50876 cumulative IPC: 0.38613 (Simulation time: 0 hr 16 min 42 sec) 
Heartbeat CPU  0 instructions:  375000001 cycles:  781455863 heartbeat IPC: 0.48669 cumulative IPC: 0.38642 (Simulation time: 0 hr 16 min 45 sec) 
Heartbeat CPU  0 instructions:  376000000 cycles:  783475540 heartbeat IPC: 0.49513 cumulative IPC: 0.38672 (Simulation time: 0 hr 16 min 48 sec) 
Heartbeat CPU  0 instructions:  377000002 cycles:  792530445 heartbeat IPC: 0.11044 cumulative IPC: 0.38326 (Simulation time: 0 hr 16 min 51 sec) 
Heartbeat CPU  0 instructions:  378000003 cycles:  801144827 heartbeat IPC: 0.11609 cumulative IPC: 0.38012 (Simulation time: 0 hr 16 min 54 sec) 
Heartbeat CPU  0 instructions:  379000001 cycles:  803175540 heartbeat IPC: 0.49244 cumulative IPC: 0.38043 (Simulation time: 0 hr 16 min 57 sec) 
Heartbeat CPU  0 instructions:  380000000 cycles:  805037384 heartbeat IPC: 0.53710 cumulative IPC: 0.38082 (Simulation time: 0 hr 17 min 0 sec) 
Heartbeat CPU  0 instructions:  381000002 cycles:  807096453 heartbeat IPC: 0.48566 cumulative IPC: 0.38112 (Simulation time: 0 hr 17 min 3 sec) 
Heartbeat CPU  0 instructions:  382000002 cycles:  809283400 heartbeat IPC: 0.45726 cumulative IPC: 0.38134 (Simulation time: 0 hr 17 min 5 sec) 
Heartbeat CPU  0 instructions:  383000002 cycles:  811355493 heartbeat IPC: 0.48260 cumulative IPC: 0.38162 (Simulation time: 0 hr 17 min 8 sec) 
Heartbeat CPU  0 instructions:  384000000 cycles:  813301311 heartbeat IPC: 0.51392 cumulative IPC: 0.38197 (Simulation time: 0 hr 17 min 11 sec) 
Heartbeat CPU  0 instructions:  385000003 cycles:  815329881 heartbeat IPC: 0.49296 cumulative IPC: 0.38227 (Simulation time: 0 hr 17 min 14 sec) 
Heartbeat CPU  0 instructions:  386000002 cycles:  817315481 heartbeat IPC: 0.50363 cumulative IPC: 0.38260 (Simulation time: 0 hr 17 min 16 sec) 
Heartbeat CPU  0 instructions:  387000001 cycles:  819213766 heartbeat IPC: 0.52679 cumulative IPC: 0.38296 (Simulation time: 0 hr 17 min 19 sec) 
Heartbeat CPU  0 instructions:  388000000 cycles:  821250594 heartbeat IPC: 0.49096 cumulative IPC: 0.38325 (Simulation time: 0 hr 17 min 22 sec) 
Heartbeat CPU  0 instructions:  389000003 cycles:  823290211 heartbeat IPC: 0.49029 cumulative IPC: 0.38354 (Simulation time: 0 hr 17 min 25 sec) 
Heartbeat CPU  0 instructions:  390000003 cycles:  825168606 heartbeat IPC: 0.53237 cumulative IPC: 0.38391 (Simulation time: 0 hr 17 min 27 sec) 
Heartbeat CPU  0 instructions:  391000001 cycles:  827170817 heartbeat IPC: 0.49945 cumulative IPC: 0.38422 (Simulation time: 0 hr 17 min 30 sec) 
Heartbeat CPU  0 instructions:  392000000 cycles:  829175231 heartbeat IPC: 0.49890 cumulative IPC: 0.38452 (Simulation time: 0 hr 17 min 33 sec) 
Heartbeat CPU  0 instructions:  393000000 cycles:  831134257 heartbeat IPC: 0.51046 cumulative IPC: 0.38485 (Simulation time: 0 hr 17 min 36 sec) 
Heartbeat CPU  0 instructions:  394000000 cycles:  833083209 heartbeat IPC: 0.51310 cumulative IPC: 0.38517 (Simulation time: 0 hr 17 min 38 sec) 
Heartbeat CPU  0 instructions:  395000002 cycles:  835128526 heartbeat IPC: 0.48892 cumulative IPC: 0.38545 (Simulation time: 0 hr 17 min 41 sec) 
Heartbeat CPU  0 instructions:  396000000 cycles:  837199018 heartbeat IPC: 0.48298 cumulative IPC: 0.38571 (Simulation time: 0 hr 17 min 44 sec) 
Heartbeat CPU  0 instructions:  397000001 cycles:  839067712 heartbeat IPC: 0.53513 cumulative IPC: 0.38608 (Simulation time: 0 hr 17 min 47 sec) 
Heartbeat CPU  0 instructions:  398000003 cycles:  841097611 heartbeat IPC: 0.49264 cumulative IPC: 0.38636 (Simulation time: 0 hr 17 min 50 sec) 
Heartbeat CPU  0 instructions:  399000001 cycles:  844986373 heartbeat IPC: 0.25715 cumulative IPC: 0.38571 (Simulation time: 0 hr 17 min 52 sec) 
Heartbeat CPU  0 instructions:  400000000 cycles:  858784733 heartbeat IPC: 0.07247 cumulative IPC: 0.38023 (Simulation time: 0 hr 17 min 56 sec) 
Heartbeat CPU  0 instructions:  401000002 cycles:  860801737 heartbeat IPC: 0.49579 cumulative IPC: 0.38053 (Simulation time: 0 hr 17 min 59 sec) 
Heartbeat CPU  0 instructions:  402000001 cycles:  862831385 heartbeat IPC: 0.49270 cumulative IPC: 0.38081 (Simulation time: 0 hr 18 min 2 sec) 
Heartbeat CPU  0 instructions:  403000003 cycles:  864762089 heartbeat IPC: 0.51795 cumulative IPC: 0.38115 (Simulation time: 0 hr 18 min 4 sec) 
Heartbeat CPU  0 instructions:  404000000 cycles:  866705340 heartbeat IPC: 0.51460 cumulative IPC: 0.38147 (Simulation time: 0 hr 18 min 7 sec) 
Heartbeat CPU  0 instructions:  405000001 cycles:  868732392 heartbeat IPC: 0.49333 cumulative IPC: 0.38175 (Simulation time: 0 hr 18 min 10 sec) 
Heartbeat CPU  0 instructions:  406000002 cycles:  870751904 heartbeat IPC: 0.49517 cumulative IPC: 0.38204 (Simulation time: 0 hr 18 min 13 sec) 
Heartbeat CPU  0 instructions:  407000001 cycles:  872647615 heartbeat IPC: 0.52751 cumulative IPC: 0.38238 (Simulation time: 0 hr 18 min 15 sec) 
Heartbeat CPU  0 instructions:  408000000 cycles:  874681045 heartbeat IPC: 0.49178 cumulative IPC: 0.38266 (Simulation time: 0 hr 18 min 18 sec) 
Heartbeat CPU  0 instructions:  409000001 cycles:  876708957 heartbeat IPC: 0.49312 cumulative IPC: 0.38294 (Simulation time: 0 hr 18 min 21 sec) 
Heartbeat CPU  0 instructions:  410000003 cycles:  878605472 heartbeat IPC: 0.52728 cumulative IPC: 0.38328 (Simulation time: 0 hr 18 min 24 sec) 
Heartbeat CPU  0 instructions:  411000000 cycles:  880588850 heartbeat IPC: 0.50419 cumulative IPC: 0.38357 (Simulation time: 0 hr 18 min 26 sec) 
Heartbeat CPU  0 instructions:  412000000 cycles:  882627297 heartbeat IPC: 0.49057 cumulative IPC: 0.38384 (Simulation time: 0 hr 18 min 29 sec) 
Heartbeat CPU  0 instructions:  413000002 cycles:  884584662 heartbeat IPC: 0.51089 cumulative IPC: 0.38415 (Simulation time: 0 hr 18 min 32 sec) 
Heartbeat CPU  0 instructions:  414000003 cycles:  886511470 heartbeat IPC: 0.51899 cumulative IPC: 0.38446 (Simulation time: 0 hr 18 min 35 sec) 
Heartbeat CPU  0 instructions:  415000002 cycles:  888519675 heartbeat IPC: 0.49796 cumulative IPC: 0.38474 (Simulation time: 0 hr 18 min 38 sec) 
Heartbeat CPU  0 instructions:  416000000 cycles:  890525896 heartbeat IPC: 0.49845 cumulative IPC: 0.38502 (Simulation time: 0 hr 18 min 40 sec) 
Heartbeat CPU  0 instructions:  417000000 cycles:  892403485 heartbeat IPC: 0.53260 cumulative IPC: 0.38536 (Simulation time: 0 hr 18 min 43 sec) 
Heartbeat CPU  0 instructions:  418000003 cycles:  894417109 heartbeat IPC: 0.49662 cumulative IPC: 0.38563 (Simulation time: 0 hr 18 min 46 sec) 
Heartbeat CPU  0 instructions:  419000003 cycles:  896435965 heartbeat IPC: 0.49533 cumulative IPC: 0.38590 (Simulation time: 0 hr 18 min 48 sec) 
Heartbeat CPU  0 instructions:  420000000 cycles:  898353415 heartbeat IPC: 0.52152 cumulative IPC: 0.38621 (Simulation time: 0 hr 18 min 51 sec) 
Heartbeat CPU  0 instructions:  421000001 cycles:  900332316 heartbeat IPC: 0.50533 cumulative IPC: 0.38649 (Simulation time: 0 hr 18 min 54 sec) 
Heartbeat CPU  0 instructions:  422000002 cycles:  911209050 heartbeat IPC: 0.09194 cumulative IPC: 0.38269 (Simulation time: 0 hr 18 min 57 sec) 
Heartbeat CPU  0 instructions:  423000003 cycles:  918161178 heartbeat IPC: 0.14384 cumulative IPC: 0.38073 (Simulation time: 0 hr 19 min 1 sec) 
Heartbeat CPU  0 instructions:  424000000 cycles:  920069843 heartbeat IPC: 0.52392 cumulative IPC: 0.38105 (Simulation time: 0 hr 19 min 3 sec) 
Heartbeat CPU  0 instructions:  425000003 cycles:  922128054 heartbeat IPC: 0.48586 cumulative IPC: 0.38130 (Simulation time: 0 hr 19 min 6 sec) 
Heartbeat CPU  0 instructions:  426000001 cycles:  924134073 heartbeat IPC: 0.49850 cumulative IPC: 0.38158 (Simulation time: 0 hr 19 min 9 sec) 
Heartbeat CPU  0 instructions:  427000000 cycles:  926013877 heartbeat IPC: 0.53197 cumulative IPC: 0.38191 (Simulation time: 0 hr 19 min 12 sec) 
Heartbeat CPU  0 instructions:  428000000 cycles:  928026507 heartbeat IPC: 0.49686 cumulative IPC: 0.38218 (Simulation time: 0 hr 19 min 15 sec) 
Heartbeat CPU  0 instructions:  429000002 cycles:  930038779 heartbeat IPC: 0.49695 cumulative IPC: 0.38245 (Simulation time: 0 hr 19 min 17 sec) 
Heartbeat CPU  0 instructions:  430000000 cycles:  931964934 heartbeat IPC: 0.51917 cumulative IPC: 0.38275 (Simulation time: 0 hr 19 min 20 sec) 
Heartbeat CPU  0 instructions:  431000000 cycles:  933933676 heartbeat IPC: 0.50794 cumulative IPC: 0.38304 (Simulation time: 0 hr 19 min 23 sec) 
Heartbeat CPU  0 instructions:  432000000 cycles:  936001834 heartbeat IPC: 0.48352 cumulative IPC: 0.38328 (Simulation time: 0 hr 19 min 26 sec) 
Heartbeat CPU  0 instructions:  433000003 cycles:  938147208 heartbeat IPC: 0.46612 cumulative IPC: 0.38348 (Simulation time: 0 hr 19 min 28 sec) 
Heartbeat CPU  0 instructions:  434000002 cycles:  940037996 heartbeat IPC: 0.52888 cumulative IPC: 0.38380 (Simulation time: 0 hr 19 min 31 sec) 
Heartbeat CPU  0 instructions:  435000001 cycles:  942072986 heartbeat IPC: 0.49140 cumulative IPC: 0.38405 (Simulation time: 0 hr 19 min 34 sec) 
Heartbeat CPU  0 instructions:  436000000 cycles:  944086167 heartbeat IPC: 0.49673 cumulative IPC: 0.38431 (Simulation time: 0 hr 19 min 37 sec) 
Heartbeat CPU  0 instructions:  437000000 cycles:  945946635 heartbeat IPC: 0.53750 cumulative IPC: 0.38463 (Simulation time: 0 hr 19 min 39 sec) 
Heartbeat CPU  0 instructions:  438000000 cycles:  947961746 heartbeat IPC: 0.49625 cumulative IPC: 0.38489 (Simulation time: 0 hr 19 min 42 sec) 
Heartbeat CPU  0 instructions:  439000001 cycles:  949981349 heartbeat IPC: 0.49515 cumulative IPC: 0.38514 (Simulation time: 0 hr 19 min 45 sec) 
Heartbeat CPU  0 instructions:  440000000 cycles:  951908409 heartbeat IPC: 0.51892 cumulative IPC: 0.38544 (Simulation time: 0 hr 19 min 48 sec) 
Heartbeat CPU  0 instructions:  441000001 cycles:  953853402 heartbeat IPC: 0.51414 cumulative IPC: 0.38572 (Simulation time: 0 hr 19 min 50 sec) 
Heartbeat CPU  0 instructions:  442000001 cycles:  955853999 heartbeat IPC: 0.49985 cumulative IPC: 0.38598 (Simulation time: 0 hr 19 min 53 sec) 
Heartbeat CPU  0 instructions:  443000002 cycles:  957859850 heartbeat IPC: 0.49854 cumulative IPC: 0.38623 (Simulation time: 0 hr 19 min 56 sec) 
Heartbeat CPU  0 instructions:  444000000 cycles:  963458821 heartbeat IPC: 0.17860 cumulative IPC: 0.38493 (Simulation time: 0 hr 19 min 59 sec) 
Heartbeat CPU  0 instructions:  445000003 cycles:  975765452 heartbeat IPC: 0.08126 cumulative IPC: 0.38080 (Simulation time: 0 hr 20 min 3 sec) 
Heartbeat CPU  0 instructions:  446000000 cycles:  977797329 heartbeat IPC: 0.49215 cumulative IPC: 0.38105 (Simulation time: 0 hr 20 min 5 sec) 
Heartbeat CPU  0 instructions:  447000003 cycles:  979631038 heartbeat IPC: 0.54534 cumulative IPC: 0.38139 (Simulation time: 0 hr 20 min 8 sec) 
Heartbeat CPU  0 instructions:  448000000 cycles:  981613763 heartbeat IPC: 0.50435 cumulative IPC: 0.38165 (Simulation time: 0 hr 20 min 11 sec) 
Heartbeat CPU  0 instructions:  449000000 cycles:  983642050 heartbeat IPC: 0.49303 cumulative IPC: 0.38190 (Simulation time: 0 hr 20 min 14 sec) 
Heartbeat CPU  0 instructions:  450000000 cycles:  985539977 heartbeat IPC: 0.52689 cumulative IPC: 0.38220 (Simulation time: 0 hr 20 min 16 sec) 
Heartbeat CPU  0 instructions:  451000000 cycles:  987456921 heartbeat IPC: 0.52166 cumulative IPC: 0.38249 (Simulation time: 0 hr 20 min 19 sec) 
Heartbeat CPU  0 instructions:  452000000 cycles:  989444173 heartbeat IPC: 0.50321 cumulative IPC: 0.38275 (Simulation time: 0 hr 20 min 22 sec) 
Heartbeat CPU  0 instructions:  453000001 cycles:  991436013 heartbeat IPC: 0.50205 cumulative IPC: 0.38301 (Simulation time: 0 hr 20 min 25 sec) 
Heartbeat CPU  0 instructions:  454000001 cycles:  993285496 heartbeat IPC: 0.54069 cumulative IPC: 0.38333 (Simulation time: 0 hr 20 min 27 sec) 
Heartbeat CPU  0 instructions:  455000000 cycles:  995285188 heartbeat IPC: 0.50008 cumulative IPC: 0.38358 (Simulation time: 0 hr 20 min 30 sec) 
Heartbeat CPU  0 instructions:  456000000 cycles:  997284687 heartbeat IPC: 0.50013 cumulative IPC: 0.38383 (Simulation time: 0 hr 20 min 33 sec) 
Heartbeat CPU  0 instructions:  457000000 cycles:  999138951 heartbeat IPC: 0.53930 cumulative IPC: 0.38414 (Simulation time: 0 hr 20 min 36 sec) 
Heartbeat CPU  0 instructions:  458000003 cycles: 1001119530 heartbeat IPC: 0.50490 cumulative IPC: 0.38440 (Simulation time: 0 hr 20 min 39 sec) 
Heartbeat CPU  0 instructions:  459000001 cycles: 1003150097 heartbeat IPC: 0.49247 cumulative IPC: 0.38463 (Simulation time: 0 hr 20 min 41 sec) 
Heartbeat CPU  0 instructions:  460000000 cycles: 1005042822 heartbeat IPC: 0.52834 cumulative IPC: 0.38492 (Simulation time: 0 hr 20 min 44 sec) 
Heartbeat CPU  0 instructions:  461000000 cycles: 1006921935 heartbeat IPC: 0.53217 cumulative IPC: 0.38522 (Simulation time: 0 hr 20 min 47 sec) 
Heartbeat CPU  0 instructions:  462000003 cycles: 1008926670 heartbeat IPC: 0.49882 cumulative IPC: 0.38546 (Simulation time: 0 hr 20 min 50 sec) 
Heartbeat CPU  0 instructions:  463000003 cycles: 1010892959 heartbeat IPC: 0.50857 cumulative IPC: 0.38572 (Simulation time: 0 hr 20 min 52 sec) 
Heartbeat CPU  0 instructions:  464000000 cycles: 1012725844 heartbeat IPC: 0.54559 cumulative IPC: 0.38603 (Simulation time: 0 hr 20 min 55 sec) 
Heartbeat CPU  0 instructions:  465000000 cycles: 1014720409 heartbeat IPC: 0.50136 cumulative IPC: 0.38627 (Simulation time: 0 hr 20 min 58 sec) 
Heartbeat CPU  0 instructions:  466000000 cycles: 1016744204 heartbeat IPC: 0.49412 cumulative IPC: 0.38650 (Simulation time: 0 hr 21 min 1 sec) 
Heartbeat CPU  0 instructions:  467000000 cycles: 1029417013 heartbeat IPC: 0.07891 cumulative IPC: 0.38244 (Simulation time: 0 hr 21 min 4 sec) 
Heartbeat CPU  0 instructions:  468000000 cycles: 1034316595 heartbeat IPC: 0.20410 cumulative IPC: 0.38153 (Simulation time: 0 hr 21 min 7 sec) 
Heartbeat CPU  0 instructions:  469000002 cycles: 1036330456 heartbeat IPC: 0.49656 cumulative IPC: 0.38177 (Simulation time: 0 hr 21 min 10 sec) 
Heartbeat CPU  0 instructions:  470000000 cycles: 1038263094 heartbeat IPC: 0.51743 cumulative IPC: 0.38204 (Simulation time: 0 hr 21 min 13 sec) 
Heartbeat CPU  0 instructions:  471000002 cycles: 1040144083 heartbeat IPC: 0.53164 cumulative IPC: 0.38233 (Simulation time: 0 hr 21 min 15 sec) 
Heartbeat CPU  0 instructions:  472000000 cycles: 1042149829 heartbeat IPC: 0.49857 cumulative IPC: 0.38257 (Simulation time: 0 hr 21 min 18 sec) 
Heartbeat CPU  0 instructions:  473000003 cycles: 1044175691 heartbeat IPC: 0.49362 cumulative IPC: 0.38281 (Simulation time: 0 hr 21 min 21 sec) 
Heartbeat CPU  0 instructions:  474000002 cycles: 1045999509 heartbeat IPC: 0.54830 cumulative IPC: 0.38311 (Simulation time: 0 hr 21 min 24 sec) 
Heartbeat CPU  0 instructions:  475000003 cycles: 1048010990 heartbeat IPC: 0.49715 cumulative IPC: 0.38335 (Simulation time: 0 hr 21 min 26 sec) 
Heartbeat CPU  0 instructions:  476000000 cycles: 1050002659 heartbeat IPC: 0.50209 cumulative IPC: 0.38359 (Simulation time: 0 hr 21 min 29 sec) 
Heartbeat CPU  0 instructions:  477000003 cycles: 1051860200 heartbeat IPC: 0.53835 cumulative IPC: 0.38388 (Simulation time: 0 hr 21 min 32 sec) 
Heartbeat CPU  0 instructions:  478000003 cycles: 1053840925 heartbeat IPC: 0.50487 cumulative IPC: 0.38413 (Simulation time: 0 hr 21 min 35 sec) 
Heartbeat CPU  0 instructions:  479000000 cycles: 1055871927 heartbeat IPC: 0.49237 cumulative IPC: 0.38435 (Simulation time: 0 hr 21 min 37 sec) 
Heartbeat CPU  0 instructions:  480000000 cycles: 1057830453 heartbeat IPC: 0.51059 cumulative IPC: 0.38460 (Simulation time: 0 hr 21 min 40 sec) 
Heartbeat CPU  0 instructions:  481000000 cycles: 1059699715 heartbeat IPC: 0.53497 cumulative IPC: 0.38488 (Simulation time: 0 hr 21 min 43 sec) 
Heartbeat CPU  0 instructions:  482000000 cycles: 1061731515 heartbeat IPC: 0.49217 cumulative IPC: 0.38510 (Simulation time: 0 hr 21 min 46 sec) 
Heartbeat CPU  0 instructions:  483000001 cycles: 1063855095 heartbeat IPC: 0.47090 cumulative IPC: 0.38529 (Simulation time: 0 hr 21 min 48 sec) 
Heartbeat CPU  0 instructions:  484000000 cycles: 1065805048 heartbeat IPC: 0.51283 cumulative IPC: 0.38554 (Simulation time: 0 hr 21 min 51 sec) 
Heartbeat CPU  0 instructions:  485000001 cycles: 1067935609 heartbeat IPC: 0.46936 cumulative IPC: 0.38572 (Simulation time: 0 hr 21 min 54 sec) 
Heartbeat CPU  0 instructions:  486000001 cycles: 1069954838 heartbeat IPC: 0.49524 cumulative IPC: 0.38594 (Simulation time: 0 hr 21 min 57 sec) 
Heartbeat CPU  0 instructions:  487000000 cycles: 1071825960 heartbeat IPC: 0.53444 cumulative IPC: 0.38621 (Simulation time: 0 hr 21 min 59 sec) 
Heartbeat CPU  0 instructions:  488000000 cycles: 1073780997 heartbeat IPC: 0.51150 cumulative IPC: 0.38646 (Simulation time: 0 hr 22 min 2 sec) 
Heartbeat CPU  0 instructions:  489000001 cycles: 1081222554 heartbeat IPC: 0.13438 cumulative IPC: 0.38460 (Simulation time: 0 hr 22 min 5 sec) 
Heartbeat CPU  0 instructions:  490000003 cycles: 1091438633 heartbeat IPC: 0.09789 cumulative IPC: 0.38174 (Simulation time: 0 hr 22 min 9 sec) 
Heartbeat CPU  0 instructions:  491000001 cycles: 1093304750 heartbeat IPC: 0.53587 cumulative IPC: 0.38202 (Simulation time: 0 hr 22 min 12 sec) 
Heartbeat CPU  0 instructions:  492000000 cycles: 1095360485 heartbeat IPC: 0.48644 cumulative IPC: 0.38223 (Simulation time: 0 hr 22 min 14 sec) 
Heartbeat CPU  0 instructions:  493000000 cycles: 1097377529 heartbeat IPC: 0.49578 cumulative IPC: 0.38245 (Simulation time: 0 hr 22 min 17 sec) 
Heartbeat CPU  0 instructions:  494000002 cycles: 1099245419 heartbeat IPC: 0.53536 cumulative IPC: 0.38273 (Simulation time: 0 hr 22 min 20 sec) 
Heartbeat CPU  0 instructions:  495000000 cycles: 1101263822 heartbeat IPC: 0.49544 cumulative IPC: 0.38295 (Simulation time: 0 hr 22 min 23 sec) 
Heartbeat CPU  0 instructions:  496000000 cycles: 1103289428 heartbeat IPC: 0.49368 cumulative IPC: 0.38316 (Simulation time: 0 hr 22 min 25 sec) 
Heartbeat CPU  0 instructions:  497000001 cycles: 1105205040 heartbeat IPC: 0.52203 cumulative IPC: 0.38342 (Simulation time: 0 hr 22 min 28 sec) 
Heartbeat CPU  0 instructions:  498000001 cycles: 1107134352 heartbeat IPC: 0.51832 cumulative IPC: 0.38367 (Simulation time: 0 hr 22 min 31 sec) 
Heartbeat CPU  0 instructions:  499000001 cycles: 1109149213 heartbeat IPC: 0.49631 cumulative IPC: 0.38389 (Simulation time: 0 hr 22 min 34 sec) 
Heartbeat CPU  0 instructions:  500000000 cycles: 1111100932 heartbeat IPC: 0.51237 cumulative IPC: 0.38413 (Simulation time: 0 hr 22 min 36 sec) 
Heartbeat CPU  0 instructions:  501000002 cycles: 1112957411 heartbeat IPC: 0.53866 cumulative IPC: 0.38441 (Simulation time: 0 hr 22 min 39 sec) 
Heartbeat CPU  0 instructions:  502000002 cycles: 1114969045 heartbeat IPC: 0.49711 cumulative IPC: 0.38462 (Simulation time: 0 hr 22 min 42 sec) 
Heartbeat CPU  0 instructions:  503000002 cycles: 1116968493 heartbeat IPC: 0.50014 cumulative IPC: 0.38484 (Simulation time: 0 hr 22 min 45 sec) 
Heartbeat CPU  0 instructions:  504000000 cycles: 1118838672 heartbeat IPC: 0.53471 cumulative IPC: 0.38511 (Simulation time: 0 hr 22 min 47 sec) 
Heartbeat CPU  0 instructions:  505000002 cycles: 1120832882 heartbeat IPC: 0.50145 cumulative IPC: 0.38533 (Simulation time: 0 hr 22 min 50 sec) 
Heartbeat CPU  0 instructions:  506000002 cycles: 1122872876 heartbeat IPC: 0.49020 cumulative IPC: 0.38553 (Simulation time: 0 hr 22 min 53 sec) 
Heartbeat CPU  0 instructions:  507000001 cycles: 1124777046 heartbeat IPC: 0.52516 cumulative IPC: 0.38579 (Simulation time: 0 hr 22 min 56 sec) 
Heartbeat CPU  0 instructions:  508000000 cycles: 1126710594 heartbeat IPC: 0.51718 cumulative IPC: 0.38603 (Simulation time: 0 hr 22 min 58 sec) 
Heartbeat CPU  0 instructions:  509000000 cycles: 1128756700 heartbeat IPC: 0.48873 cumulative IPC: 0.38623 (Simulation time: 0 hr 23 min 1 sec) 
Heartbeat CPU  0 instructions:  510000003 cycles: 1130728899 heartbeat IPC: 0.50705 cumulative IPC: 0.38645 (Simulation time: 0 hr 23 min 4 sec) 
Heartbeat CPU  0 instructions:  511000001 cycles: 1132910439 heartbeat IPC: 0.45839 cumulative IPC: 0.38660 (Simulation time: 0 hr 23 min 7 sec) 
Heartbeat CPU  0 instructions:  512000000 cycles: 1147199472 heartbeat IPC: 0.06998 cumulative IPC: 0.38240 (Simulation time: 0 hr 23 min 10 sec) 
Heartbeat CPU  0 instructions:  513000000 cycles: 1150365015 heartbeat IPC: 0.31590 cumulative IPC: 0.38220 (Simulation time: 0 hr 23 min 13 sec) 
Heartbeat CPU  0 instructions:  514000001 cycles: 1152266461 heartbeat IPC: 0.52592 cumulative IPC: 0.38246 (Simulation time: 0 hr 23 min 16 sec) 
Heartbeat CPU  0 instructions:  515000002 cycles: 1154314581 heartbeat IPC: 0.48825 cumulative IPC: 0.38266 (Simulation time: 0 hr 23 min 19 sec) 
Heartbeat CPU  0 instructions:  516000000 cycles: 1156343370 heartbeat IPC: 0.49290 cumulative IPC: 0.38286 (Simulation time: 0 hr 23 min 22 sec) 
Heartbeat CPU  0 instructions:  517000002 cycles: 1158275913 heartbeat IPC: 0.51745 cumulative IPC: 0.38310 (Simulation time: 0 hr 23 min 24 sec) 
Heartbeat CPU  0 instructions:  518000000 cycles: 1160240428 heartbeat IPC: 0.50903 cumulative IPC: 0.38333 (Simulation time: 0 hr 23 min 27 sec) 
Heartbeat CPU  0 instructions:  519000000 cycles: 1162268121 heartbeat IPC: 0.49317 cumulative IPC: 0.38353 (Simulation time: 0 hr 23 min 30 sec) 
Heartbeat CPU  0 instructions:  520000000 cycles: 1164251611 heartbeat IPC: 0.50416 cumulative IPC: 0.38375 (Simulation time: 0 hr 23 min 33 sec) 
Heartbeat CPU  0 instructions:  521000003 cycles: 1166127797 heartbeat IPC: 0.53300 cumulative IPC: 0.38401 (Simulation time: 0 hr 23 min 35 sec) 
Heartbeat CPU  0 instructions:  522000001 cycles: 1168173396 heartbeat IPC: 0.48885 cumulative IPC: 0.38420 (Simulation time: 0 hr 23 min 38 sec) 
Heartbeat CPU  0 instructions:  523000001 cycles: 1170227730 heartbeat IPC: 0.48678 cumulative IPC: 0.38439 (Simulation time: 0 hr 23 min 41 sec) 
Heartbeat CPU  0 instructions:  524000000 cycles: 1172115162 heartbeat IPC: 0.52982 cumulative IPC: 0.38464 (Simulation time: 0 hr 23 min 44 sec) 
Heartbeat CPU  0 instructions:  525000000 cycles: 1174135414 heartbeat IPC: 0.49499 cumulative IPC: 0.38484 (Simulation time: 0 hr 23 min 47 sec) 
Heartbeat CPU  0 instructions:  526000002 cycles: 1176158785 heartbeat IPC: 0.49423 cumulative IPC: 0.38504 (Simulation time: 0 hr 23 min 49 sec) 
Heartbeat CPU  0 instructions:  527000002 cycles: 1178117910 heartbeat IPC: 0.51043 cumulative IPC: 0.38526 (Simulation time: 0 hr 23 min 52 sec) 
Heartbeat CPU  0 instructions:  528000000 cycles: 1180045445 heartbeat IPC: 0.51880 cumulative IPC: 0.38550 (Simulation time: 0 hr 23 min 55 sec) 
[...]
Heartbeat CPU  0 instructions:  566000000 cycles: 1283267654 heartbeat IPC: 0.49917 cumulative IPC: 0.38402 (Simulation time: 0 hr 25 min 42 sec) 
Heartbeat CPU  0 instructions:  567000003 cycles: 1285229235 heartbeat IPC: 0.50979 cumulative IPC: 0.38422 (Simulation time: 0 hr 25 min 45 sec) 
Heartbeat CPU  0 instructions:  568000000 cycles: 1287123870 heartbeat IPC: 0.52780 cumulative IPC: 0.38445 (Simulation time: 0 hr 25 min 48 sec) 
Heartbeat CPU  0 instructions:  569000000 cycles: 1289144857 heartbeat IPC: 0.49481 cumulative IPC: 0.38463 (Simulation time: 0 hr 25 min 50 sec) 
Heartbeat CPU  0 instructions:  570000002 cycles: 1291150497 heartbeat IPC: 0.49859 cumulative IPC: 0.38482 (Simulation time: 0 hr 25 min 53 sec) 
Heartbeat CPU  0 instructions:  571000000 cycles: 1293017753 heartbeat IPC: 0.53554 cumulative IPC: 0.38505 (Simulation time: 0 hr 25 min 56 sec) 
Heartbeat CPU  0 instructions:  572000000 cycles: 1295019122 heartbeat IPC: 0.49966 cumulative IPC: 0.38523 (Simulation time: 0 hr 25 min 59 sec) 
Heartbeat CPU  0 instructions:  573000002 cycles: 1297043902 heartbeat IPC: 0.49388 cumulative IPC: 0.38541 (Simulation time: 0 hr 26 min 1 sec) 
Heartbeat CPU  0 instructions:  574000001 cycles: 1298987100 heartbeat IPC: 0.51462 cumulative IPC: 0.38562 (Simulation time: 0 hr 26 min 4 sec) 
Heartbeat CPU  0 instructions:  575000003 cycles: 1300968568 heartbeat IPC: 0.50468 cumulative IPC: 0.38581 (Simulation time: 0 hr 26 min 7 sec) 
Heartbeat CPU  0 instructions:  576000000 cycles: 1302998937 heartbeat IPC: 0.49252 cumulative IPC: 0.38598 (Simulation time: 0 hr 26 min 10 sec) 
Heartbeat CPU  0 instructions:  577000002 cycles: 1305017851 heartbeat IPC: 0.49532 cumulative IPC: 0.38616 (Simulation time: 0 hr 26 min 12 sec) 
Heartbeat CPU  0 instructions:  578000002 cycles: 1306922173 heartbeat IPC: 0.52512 cumulative IPC: 0.38638 (Simulation time: 0 hr 26 min 15 sec) 
Heartbeat CPU  0 instructions:  579000003 cycles: 1317890934 heartbeat IPC: 0.09117 cumulative IPC: 0.38378 (Simulation time: 0 hr 26 min 19 sec) 
Heartbeat CPU  0 instructions:  580000000 cycles: 1324729097 heartbeat IPC: 0.14624 cumulative IPC: 0.38249 (Simulation time: 0 hr 26 min 22 sec) 
Heartbeat CPU  0 instructions:  581000003 cycles: 1326561633 heartbeat IPC: 0.54569 cumulative IPC: 0.38273 (Simulation time: 0 hr 26 min 24 sec) 
Heartbeat CPU  0 instructions:  582000001 cycles: 1328551762 heartbeat IPC: 0.50248 cumulative IPC: 0.38292 (Simulation time: 0 hr 26 min 27 sec) 
Heartbeat CPU  0 instructions:  583000002 cycles: 1330546037 heartbeat IPC: 0.50144 cumulative IPC: 0.38310 (Simulation time: 0 hr 26 min 30 sec) 
Heartbeat CPU  0 instructions:  584000000 cycles: 1332451665 heartbeat IPC: 0.52476 cumulative IPC: 0.38332 (Simulation time: 0 hr 26 min 33 sec) 
Heartbeat CPU  0 instructions:  585000003 cycles: 1334402273 heartbeat IPC: 0.51266 cumulative IPC: 0.38352 (Simulation time: 0 hr 26 min 35 sec) 
Heartbeat CPU  0 instructions:  586000003 cycles: 1336574140 heartbeat IPC: 0.46043 cumulative IPC: 0.38365 (Simulation time: 0 hr 26 min 38 sec) 
Heartbeat CPU  0 instructions:  587000001 cycles: 1338725056 heartbeat IPC: 0.46492 cumulative IPC: 0.38379 (Simulation time: 0 hr 26 min 41 sec) 
Heartbeat CPU  0 instructions:  588000000 cycles: 1340575630 heartbeat IPC: 0.54037 cumulative IPC: 0.38401 (Simulation time: 0 hr 26 min 44 sec) 
Heartbeat CPU  0 instructions:  589000000 cycles: 1342582423 heartbeat IPC: 0.49831 cumulative IPC: 0.38419 (Simulation time: 0 hr 26 min 47 sec) 
Heartbeat CPU  0 instructions:  590000001 cycles: 1344578995 heartbeat IPC: 0.50086 cumulative IPC: 0.38438 (Simulation time: 0 hr 26 min 49 sec) 
Heartbeat CPU  0 instructions:  591000000 cycles: 1346406876 heartbeat IPC: 0.54708 cumulative IPC: 0.38461 (Simulation time: 0 hr 26 min 52 sec) 
Heartbeat CPU  0 instructions:  592000000 cycles: 1348387709 heartbeat IPC: 0.50484 cumulative IPC: 0.38480 (Simulation time: 0 hr 26 min 55 sec) 
Heartbeat CPU  0 instructions:  593000002 cycles: 1350401631 heartbeat IPC: 0.49654 cumulative IPC: 0.38497 (Simulation time: 0 hr 26 min 58 sec) 
Heartbeat CPU  0 instructions:  594000002 cycles: 1352309023 heartbeat IPC: 0.52428 cumulative IPC: 0.38518 (Simulation time: 0 hr 27 min 0 sec) 
Heartbeat CPU  0 instructions:  595000003 cycles: 1354227802 heartbeat IPC: 0.52117 cumulative IPC: 0.38538 (Simulation time: 0 hr 27 min 3 sec) 
Heartbeat CPU  0 instructions:  596000000 cycles: 1356273132 heartbeat IPC: 0.48892 cumulative IPC: 0.38555 (Simulation time: 0 hr 27 min 6 sec) 
Heartbeat CPU  0 instructions:  597000003 cycles: 1358259392 heartbeat IPC: 0.50346 cumulative IPC: 0.38573 (Simulation time: 0 hr 27 min 9 sec) 
Heartbeat CPU  0 instructions:  598000002 cycles: 1360096013 heartbeat IPC: 0.54448 cumulative IPC: 0.38595 (Simulation time: 0 hr 27 min 11 sec) 
Heartbeat CPU  0 instructions:  599000000 cycles: 1362133264 heartbeat IPC: 0.49086 cumulative IPC: 0.38612 (Simulation time: 0 hr 27 min 14 sec) 
Heartbeat CPU  0 instructions:  600000000 cycles: 1364176968 heartbeat IPC: 0.48931 cumulative IPC: 0.38628 (Simulation time: 0 hr 27 min 17 sec) 
Finished CPU 0 instructions: 500000000 cycles: 1294387326 cumulative IPC: 0.38628 (Simulation time: 0 hr 27 min 17 sec) 

ChampSim completed all CPUs

[ROI Statistics]
Core_0_instructions 500000000
Core_0_cycles 1294387326
Core_0_IPC 0.38628

Core_0_branch_prediction_accuracy 99.17161
Core_0_branch_MPKI 0.01066
Core_0_average_ROB_occupancy_at_mispredict 253.69431

Core_0_L1D_total_access 254436943
Core_0_L1D_total_hit 250446901
Core_0_L1D_total_miss 3990042
Core_0_L1D_loads 171443551
Core_0_L1D_load_hit 168206046
Core_0_L1D_load_miss 3237505
Core_0_L1D_RFOs 82993392
Core_0_L1D_RFO_hit 82240855
Core_0_L1D_RFO_miss 752537
Core_0_L1D_prefetches 0
Core_0_L1D_prefetch_hit 0
Core_0_L1D_prefetch_miss 0
Core_0_L1D_writebacks 0
Core_0_L1D_writeback_hit 0
Core_0_L1D_writeback_miss 0
Core_0_L1D_prefetch_requested 0
Core_0_L1D_prefetch_dropped 0
Core_0_L1D_prefetch_issued 0
Core_0_L1D_prefetch_filled 0
Core_0_L1D_prefetch_useful 0
Core_0_L1D_prefetch_useless 0
Core_0_L1D_prefetch_late 0
Core_0_L1D_average_miss_latency 112.89960

Core_0_L1D_rq_access 255814342
Core_0_L1D_rq_forward 0
Core_0_L1D_rq_merged 83945190
Core_0_L1D_rq_to_cache 171475998
Core_0_L1D_rq_full 0

Core_0_L1D_wq_access 84479085
Core_0_L1D_wq_forward 393154
Core_0_L1D_wq_merged 1198516
Core_0_L1D_wq_to_cache 83280569
Core_0_L1D_wq_full 0

Core_0_L1D_pq_access 0
Core_0_L1D_pq_forward 0
Core_0_L1D_pq_merged 0
Core_0_L1D_pq_to_cache 0
Core_0_L1D_pq_full 0

Core_0_L1D_acc_epochs 703696
Core_0_L1D_acc_level_0 703696
Core_0_L1D_acc_level_1 0
Core_0_L1D_acc_level_2 0
Core_0_L1D_acc_level_3 0
Core_0_L1D_acc_level_4 0
Core_0_L1D_acc_level_5 0
Core_0_L1D_acc_level_6 0
Core_0_L1D_acc_level_7 0
Core_0_L1D_acc_level_8 0
Core_0_L1D_acc_level_9 0

Core_0_L1I_total_access 133725996
Core_0_L1I_total_hit 133725996
Core_0_L1I_total_miss 0
Core_0_L1I_loads 133725996
Core_0_L1I_load_hit 133725996
Core_0_L1I_load_miss 0
Core_0_L1I_RFOs 0
Core_0_L1I_RFO_hit 0
Core_0_L1I_RFO_miss 0
Core_0_L1I_prefetches 0
Core_0_L1I_prefetch_hit 0
Core_0_L1I_prefetch_miss 0
Core_0_L1I_writebacks 0
Core_0_L1I_writeback_hit 0
Core_0_L1I_writeback_miss 0
Core_0_L1I_prefetch_requested 0
Core_0_L1I_prefetch_dropped 0
Core_0_L1I_prefetch_issued 0
Core_0_L1I_prefetch_filled 0
Core_0_L1I_prefetch_useful 0
Core_0_L1I_prefetch_useless 0
Core_0_L1I_prefetch_late 0
Core_0_L1I_average_miss_latency -nan

Core_0_L1I_rq_access 500000000
Core_0_L1I_rq_forward 0
Core_0_L1I_rq_merged 366274004
Core_0_L1I_rq_to_cache 133725996
Core_0_L1I_rq_full 0

Core_0_L1I_wq_access 0
Core_0_L1I_wq_forward 0
Core_0_L1I_wq_merged 0
Core_0_L1I_wq_to_cache 0
Core_0_L1I_wq_full 0

Core_0_L1I_pq_access 0
Core_0_L1I_pq_forward 0
Core_0_L1I_pq_merged 0
Core_0_L1I_pq_to_cache 0
Core_0_L1I_pq_full 0

Core_0_L1I_acc_epochs 703696
Core_0_L1I_acc_level_0 703696
Core_0_L1I_acc_level_1 0
Core_0_L1I_acc_level_2 0
Core_0_L1I_acc_level_3 0
Core_0_L1I_acc_level_4 0
Core_0_L1I_acc_level_5 0
Core_0_L1I_acc_level_6 0
Core_0_L1I_acc_level_7 0
Core_0_L1I_acc_level_8 0
Core_0_L1I_acc_level_9 0

Core_0_L2C_total_access 6198175
Core_0_L2C_total_hit 3603074
Core_0_L2C_total_miss 2595101
Core_0_L2C_loads 3237505
Core_0_L2C_load_hit 2816587
Core_0_L2C_load_miss 420918
Core_0_L2C_RFOs 752537
Core_0_L2C_RFO_hit 898
Core_0_L2C_RFO_miss 751639
Core_0_L2C_prefetches 1421804
Core_0_L2C_prefetch_hit 67
Core_0_L2C_prefetch_miss 1421737
Core_0_L2C_writebacks 786329
Core_0_L2C_writeback_hit 785522
Core_0_L2C_writeback_miss 807
Core_0_L2C_prefetch_requested 2500578
Core_0_L2C_prefetch_dropped 0
Core_0_L2C_prefetch_issued 2500578
Core_0_L2C_prefetch_filled 1733685
Core_0_L2C_prefetch_useful 1718586
Core_0_L2C_prefetch_useless 14831
Core_0_L2C_prefetch_late 26
Core_0_L2C_average_miss_latency 213.22515

Core_0_L2C_rq_access 3990042
Core_0_L2C_rq_forward 0
Core_0_L2C_rq_merged 0
Core_0_L2C_rq_to_cache 3990042
Core_0_L2C_rq_full 0

Core_0_L2C_wq_access 786329
Core_0_L2C_wq_forward 0
Core_0_L2C_wq_merged 0
Core_0_L2C_wq_to_cache 786329
Core_0_L2C_wq_full 0

Core_0_L2C_pq_access 2500578
Core_0_L2C_pq_forward 0
Core_0_L2C_pq_merged 99
Core_0_L2C_pq_to_cache 2500479
Core_0_L2C_pq_full 0

Core_0_L2C_acc_epochs 703696
Core_0_L2C_acc_level_0 97942
Core_0_L2C_acc_level_1 71058
Core_0_L2C_acc_level_2 67220
Core_0_L2C_acc_level_3 69510
Core_0_L2C_acc_level_4 41151
Core_0_L2C_acc_level_5 67448
Core_0_L2C_acc_level_6 56511
Core_0_L2C_acc_level_7 41914
Core_0_L2C_acc_level_8 36732
Core_0_L2C_acc_level_9 154210

Core_0_LLC_total_access 3964913
Core_0_LLC_total_hit 934714
Core_0_LLC_total_miss 3030199
Core_0_LLC_loads 420895
Core_0_LLC_load_hit 40794
Core_0_LLC_load_miss 380101
Core_0_LLC_RFOs 751639
Core_0_LLC_RFO_hit 75732
Core_0_LLC_RFO_miss 675907
Core_0_LLC_prefetches 2039393
Core_0_LLC_prefetch_hit 682922
Core_0_LLC_prefetch_miss 1356471
Core_0_LLC_writebacks 752986
Core_0_LLC_writeback_hit 135266
Core_0_LLC_writeback_miss 617720
Core_0_LLC_prefetch_requested 0
Core_0_LLC_prefetch_dropped 0
Core_0_LLC_prefetch_issued 0
Core_0_LLC_prefetch_filled 1661479
Core_0_LLC_prefetch_useful 72642
Core_0_LLC_prefetch_useless 1564427
Core_0_LLC_prefetch_late 2
Core_0_LLC_average_miss_latency 166.91011

Core_0_LLC_rq_access 1172534
Core_0_LLC_rq_forward 0
Core_0_LLC_rq_merged 0
Core_0_LLC_rq_to_cache 1172534
Core_0_LLC_rq_full 0

Core_0_LLC_wq_access 752986
Core_0_LLC_wq_forward 0
Core_0_LLC_wq_merged 0
Core_0_LLC_wq_to_cache 752986
Core_0_LLC_wq_full 0

Core_0_LLC_pq_access 2500244
Core_0_LLC_pq_forward 0
Core_0_LLC_pq_merged 2
Core_0_LLC_pq_to_cache 2500242
Core_0_LLC_pq_full 0

Core_0_LLC_acc_epochs 1332205
Core_0_LLC_acc_level_0 1314825
Core_0_LLC_acc_level_1 9162
Core_0_LLC_acc_level_2 4825
Core_0_LLC_acc_level_3 1250
Core_0_LLC_acc_level_4 468
Core_0_LLC_acc_level_5 1529
Core_0_LLC_acc_level_6 61
Core_0_LLC_acc_level_7 17
Core_0_LLC_acc_level_8 6
Core_0_LLC_acc_level_9 62

Core_0_major_page_fault 0
Core_0_minor_page_fault 23870

[MLOP] History of tracked zone:
IIIIIIIIIIIIIIIIIIIIIIIIIIIIIIIIIIIIIIIIIIIIIIIIIIIIIIIIIIIIIIII
A22222222222222IIIIIII44IIIIIIIIIIIIIIIIIIIIIIIIIIIIIIIIIIIIIIII
AA22222222222222IIIIII444IIIIIIIIIIIIIIIIIIIIIIIIIIIIIIIIIIIIIII
AAA22222222222222IIIII4444IIIIIIIIIIIIIIIIIIIIIIIIIIIIIIIIIIIIII
AAAA22222222222222IIII44444IIIIIIIIIIIIIIIIIIIIIIIIIIIIIIIIIIIII
AAAAA22222222222222III444444IIIIIIIIIIIIIIIIIIIIIIIIIIIIIIIIIIII
AAAAAA22222222222222II4444444IIIIIIIIIIIIIIIIIIIIIIIIIIIIIIIIIII
AAAAAAA22222222222222I44444444IIIIIIIIIIIIIIIIIIIIIIIIIIIIIIIIII
AAAAAAAA22222222222222444444444IIIIIIIIIIIIIIIIIIIIIIIIIIIIIIIII
AAAAAAAAA22222222222222444444444IIIIIIIIIIIIIIIIIIIIIIIIIIIIIIII
AAAAAAAAAA22222222222222444444444IIIIIIIIIIIIIIIIIIIIIIIIIIIIIII
AAAAAAAAAAA22222222222222444444444IIIIIIIIIIIIIIIIIIIIIIIIIIIIII
AAAAAAAAAAAA22222222222222444444444IIIIIIIIIIIIIIIIIIIIIIIIIIIII
AAAAAAAAAAAAA22222222222222444444444IIIIIIIIIIIIIIIIIIIIIIIIIIII
AAAAAAAAAAAAAA22222222222222444444444IIIIIIIIIIIIIIIIIIIIIIIIIII
AAAAAAAAAAAAAAA22222222222222444444444IIIIIIIIIIIIIIIIIIIIIIIIII
AAAAAAAAAAAAAAAA22222222222222444444444IIIIIIIIIIIIIIIIIIIIIIIII
AAAAAAAAAAAAAAAAA22222222222222444444444IIIIIIIIIIIIIIIIIIIIIIII
AAAAAAAAAAAAAAAAAA22222222222222444444444IIIIIIIIIIIIIIIIIIIIIII
AAAAAAAAAAAAAAAAAAA22222222222222444444444IIIIIIIIIIIIIIIIIIIIII
AAAAAAAAAAAAAAAAAAAA22222222222222444444444IIIIIIIIIIIIIIIIIIIII
AAAAAAAAAAAAAAAAAAAAA22222222222222444444444IIIIIIIIIIIIIIIIIIII
AAAAAAAAAAAAAAAAAAAAAA22222222222222444444444IIIIIIIIIIIIIIIIIII
AAAAAAAAAAAAAAAAAAAAAAA22222222222222444444444IIIIIIIIIIIIIIIIII
AAAAAAAAAAAAAAAAAAAAAAAA22222222222222444444444IIIIIIIIIIIIIIIII
AAAAAAAAAAAAAAAAAAAAAAAAA22222222222222444444444IIIIIIIIIIIIIIII
AAAAAAAAAAAAAAAAAAAAAAAAAA22222222222222444444444IIIIIIIIIIIIIII
AAAAAAAAAAAAAAAAAAAAAAAAAAA22222222222222444444444IIIIIIIIIIIIII
AAAAAAAAAAAAAAAAAAAAAAAAAAAA22222222222222444444444IIIIIIIIIIIII
AAAAAAAAAAAAAAAAAAAAAAAAAAAAA22222222222222444444444IIIIIIIIIIII
AAAAAAAAAAAAAAAAAAAAAAAAAAAAAA22222222222222444444444IIIIIIIIIII
AAAAAAAAAAAAAAAAAAAAAAAAAAAAAAA22222222222222444444444IIIIIIIIII
AAAAAAAAAAAAAAAAAAAAAAAAAAAAAAAA22222222222222444444444IIIIIIIII
AAAAAAAAAAAAAAAAAAAAAAAAAAAAAAAAA22222222222222444444444IIIIIIII
AAAAAAAAAAAAAAAAAAAAAAAAAAAAAAAAAA22222222222222444444444IIIIIII
AAAAAAAAAAAAAAAAAAAAAAAAAAAAAAAAAAA22222222222222444444444IIIIII
AAAAAAAAAAAAAAAAAAAAAAAAAAAAAAAAAAAA22222222222222444444444IIIII
AAAAAAAAAAAAAAAAAAAAAAAAAAAAAAAAAAAAA22222222222222444444444IIII
AAAAAAAAAAAAAAAAAAAAAAAAAAAAAAAAAAAAAA22222222222222444444444III
AAAAAAAAAAAAAAAAAAAAAAAAAAAAAAAAAAAAAAA22222222222222444444444II
AAAAAAAAAAAAAAAAAAAAAAAAAAAAAAAAAAAAAAAA22222222222222444444444I
AAAAAAAAAAAAAAAAAAAAAAAAAAAAAAAAAAAAAAAAA22222222222222444444444
AAAAAAAAAAAAAAAAAAAAAAAAAAAAAAAAAAAAAAAAAA2222222222222244444444
AAAAAAAAAAAAAAAAAAAAAAAAAAAAAAAAAAAAAAAAAAA222222222222224444444
AAAAAAAAAAAAAAAAAAAAAAAAAAAAAAAAAAAAAAAAAAAA22222222222222444444
AAAAAAAAAAAAAAAAAAAAAAAAAAAAAAAAAAAAAAAAAAAAA2222222222222244444
AAAAAAAAAAAAAAAAAAAAAAAAAAAAAAAAAAAAAAAAAAAAAA222222222222224444
AAAAAAAAAAAAAAAAAAAAAAAAAAAAAAAAAAAAAAAAAAAAAAA22222222222222444
AAAAAAAAAAAAAAAAAAAAAAAAAAAAAAAAAAAAAAAAAAAAAAAA2222222222222244
AAAAAAAAAAAAAAAAAAAAAAAAAAAAAAAAAAAAAAAAAAAAAAAAA222222222222224
AAAAAAAAAAAAAAAAAAAAAAAAAAAAAAAAAAAAAAAAAAAAAAAAAA22222222222222
AAAAAAAAAAAAAAAAAAAAAAAAAAAAAAAAAAAAAAAAAAAAAAAAAAA2222222222222
AAAAAAAAAAAAAAAAAAAAAAAAAAAAAAAAAAAAAAAAAAAAAAAAAAAA222222222222
AAAAAAAAAAAAAAAAAAAAAAAAAAAAAAAAAAAAAAAAAAAAAAAAAAAAA22222222222
AAAAAAAAAAAAAAAAAAAAAAAAAAAAAAAAAAAAAAAAAAAAAAAAAAAAAA2222222222
AAAAAAAAAAAAAAAAAAAAAAAAAAAAAAAAAAAAAAAAAAAAAAAAAAAAAAA222222222
AAAAAAAAAAAAAAAAAAAAAAAAAAAAAAAAAAAAAAAAAAAAAAAAAAAAAAAA22222222
AAAAAAAAAAAAAAAAAAAAAAAAAAAAAAAAAAAAAAAAAAAAAAAAAAAAAAAAA2222222
AAAAAAAAAAAAAAAAAAAAAAAAAAAAAAAAAAAAAAAAAAAAAAAAAAAAAAAAAA222222
AAAAAAAAAAAAAAAAAAAAAAAAAAAAAAAAAAAAAAAAAAAAAAAAAAAAAAAAAAA22222
AAAAAAAAAAAAAAAAAAAAAAAAAAAAAAAAAAAAAAAAAAAAAAAAAAAAAAAAAAAA2222
AAAAAAAAAAAAAAAAAAAAAAAAAAAAAAAAAAAAAAAAAAAAAAAAAAAAAAAAAAAAA222
AAAAAAAAAAAAAAAAAAAAAAAAAAAAAAAAAAAAAAAAAAAAAAAAAAAAAAAAAAAAAA22
AAAAAAAAAAAAAAAAAAAAAAAAAAAAAAAAAAAAAAAAAAAAAAAAAAAAAAAAAAAAAAA2
AAAAAAAAAAAAAAAAAAAAAAAAAAAAAAAAAAAAAAAAAAAAAAAAAAAAAAAAAAAAAAAA
AIAAAAAAAAAAAAAAAAAAAAAAAAAAAAAAAAAAAAAAAAAAAAAAAAAAAAAAAAAAAAAA
AIIAAAAAAAAAAAAAAAAAAAAAAAAAAAAAAAAAAAAAAAAAAAAAAAAAAAAAAAAAAAAA
AIIIAAAAAAAAAAAAAAAAAAAAAAAAAAAAAAAAAAAAAAAAAAAAAAAAAAAAAAAAAAAA
AIIIIAAAAAAAAAAAAAAAAAAAAAAAAAAAAAAAAAAAAAAAAAAAAAAAAAAAAAAAAAAA
AIIIIIAAAAAAAAAAAAAAAAAAAAAAAAAAAAAAAAAAAAAAAAAAAAAAAAAAAAAAAAAA
AIIIIIIAAAAAAAAAAAAAAAAAAAAAAAAAAAAAAAAAAAAAAAAAAAAAAAAAAAAAAAAA
AIIIIIIIAAAAAAAAAAAAAAAAAAAAAAAAAAAAAAAAAAAAAAAAAAAAAAAAAAAAAAAA
AIIIIIIIIAAAAAAAAAAAAAAAAAAAAAAAAAAAAAAAAAAAAAAAAAAAAAAAAAAAAAAA
AIIIIIIIIIAAAAAAAAAAAAAAAAAAAAAAAAAAAAAAAAAAAAAAAAAAAAAAAAAAAAAA
AIIIIIIIIIIAAAAAAAAAAAAAAAAAAAAAAAAAAAAAAAAAAAAAAAAAAAAAAAAAAAAA
AIIIIIIIIIIIAAAAAAAAAAAAAAAAAAAAAAAAAAAAAAAAAAAAAAAAAAAAAAAAAAAA
AIIIIIIIIIIIIAAAAAAAAAAAAAAAAAAAAAAAAAAAAAAAAAAAAAAAAAAAAAAAAAAA
AIIIIIIIIIIIIIAAAAAAAAAAAAAAAAAAAAAAAAAAAAAAAAAAAAAAAAAAAAAAAAAA
AIIIIIIIIIIIIIIAAAAAAAAAAAAAAAAAAAAAAAAAAAAAAAAAAAAAAAAAAAAAAAAA
AIIIIIIIIIIIIIIIAAAAAAAAAAAAAAAAAAAAAAAAAAAAAAAAAAAAAAAAAAAAAAAA
AIIIIIIIIIIIIIIIIAAAAAAAAAAAAAAAAAAAAAAAAAAAAAAAAAAAAAAAAAAAAAAA
AIIIIIIIIIIIIIIIIIAAAAAAAAAAAAAAAAAAAAAAAAAAAAAAAAAAAAAAAAAAAAAA
AIIIIIIIIIIIIIIIIIIAAAAAAAAAAAAAAAAAAAAAAAAAAAAAAAAAAAAAAAAAAAAA
AIIIIIIIIIIIIIIIIIIIAAAAAAAAAAAAAAAAAAAAAAAAAAAAAAAAAAAAAAAAAAAA
AIIIIIIIIIIIIIIIIIIIIAAAAAAAAAAAAAAAAAAAAAAAAAAAAAAAAAAAAAAAAAAA
AIIIIIIIIIIIIIIIIIIIIIAAAAAAAAAAAAAAAAAAAAAAAAAAAAAAAAAAAAAAAAAA
AIIIIIIIIIIIIIIIIIIIIIIAAAAAAAAAAAAAAAAAAAAAAAAAAAAAAAAAAAAAAAAA
AIIIIIIIIIIIIIIIIIIIIIIIAAAAAAAAAAAAAAAAAAAAAAAAAAAAAAAAAAAAAAAA
AIIIIIIIIIIIIIIIIIIIIIIIIAAAAAAAAAAAAAAAAAAAAAAAAAAAAAAAAAAAAAAA
AIIIIIIIIIIIIIIIIIIIIIIIIIAAAAAAAAAAAAAAAAAAAAAAAAAAAAAAAAAAAAAA
AIIIIIIIIIIIIIIIIIIIIIIIIIIAAAAAAAAAAAAAAAAAAAAAAAAAAAAAAAAAAAAA
AIIIIIIIIIIIIIIIIIIIIIIIIIIIAAAAAAAAAAAAAAAAAAAAAAAAAAAAAAAAAAAA
AIIIIIIIIIIIIIIIIIIIIIIIIIIIIAAAAAAAAAAAAAAAAAAAAAAAAAAAAAAAAAAA
AIIIIIIIIIIIIIIIIIIIIIIIIIIIIIAAAAAAAAAAAAAAAAAAAAAAAAAAAAAAAAAA
AIIIIIIIIIIIIIIIIIIIIIIIIIIIIIIAAAAAAAAAAAAAAAAAAAAAAAAAAAAAAAAA
AIIIIIIIIIIIIIIIIIIIIIIIIIIIIIIIAAAAAAAAAAAAAAAAAAAAAAAAAAAAAAAA
AIIIIIIIIIIIIIIIIIIIIIIIIIIIIIIIIAAAAAAAAAAAAAAAAAAAAAAAAAAAAAAA
AIIIIIIIIIIIIIIIIIIIIIIIIIIIIIIIIIAAAAAAAAAAAAAAAAAAAAAAAAAAAAAA
AIIIIIIIIIIIIIIIIIIIIIIIIIIIIIIIIIIAAAAAAAAAAAAAAAAAAAAAAAAAAAAA
AIIIIIIIIIIIIIIIIIIIIIIIIIIIIIIIIIIIAAAAAAAAAAAAAAAAAAAAAAAAAAAA
AIIIIIIIIIIIIIIIIIIIIIIIIIIIIIIIIIIIIAAAAAAAAAAAAAAAAAAAAAAAAAAA
AIIIIIIIIIIIIIIIIIIIIIIIIIIIIIIIIIIIIIAAAAAAAAAAAAAAAAAAAAAAAAAA
AIIIIIIIIIIIIIIIIIIIIIIIIIIIIIIIIIIIIIIAAAAAAAAAAAAAAAAAAAAAAAAA
AIIIIIIIIIIIIIIIIIIIIIIIIIIIIIIIIIIIIIIIAAAAAAAAAAAAAAAAAAAAAAAA
AIIIIIIIIIIIIIIIIIIIIIIIIIIIIIIIIIIIIIIIIAAAAAAAAAAAAAAAAAAAAAAA
AIIIIIIIIIIIIIIIIIIIIIIIIIIIIIIIIIIIIIIIIIAAAAAAAAAAAAAAAAAAAAAA
AIIIIIIIIIIIIIIIIIIIIIIIIIIIIIIIIIIIIIIIIIIAAAAAAAAAAAAAAAAAAAAA
AIIIIIIIIIIIIIIIIIIIIIIIIIIIIIIIIIIIIIIIIIIIAAAAAAAAAAAAAAAAAAAA
AIIIIIIIIIIIIIIIIIIIIIIIIIIIIIIIIIIIIIIIIIIIIAAAAAAAAAAAAAAAAAAA
AIIIIIIIIIIIIIIIIIIIIIIIIIIIIIIIIIIIIIIIIIIIIIAAAAAAAAAAAAAAAAAA
AIIIIIIIIIIIIIIIIIIIIIIIIIIIIIIIIIIIIIIIIIIIIIIAAAAAAAAAAAAAAAAA
AIIIIIIIIIIIIIIIIIIIIIIIIIIIIIIIIIIIIIIIIIIIIIIIAAAAAAAAAAAAAAAA
AIIIIIIIIIIIIIIIIIIIIIIIIIIIIIIIIIIIIIIIIIIIIIIIIAAAAAAAAAAAAAAA
AIIIIIIIIIIIIIIIIIIIIIIIIIIIIIIIIIIIIIIIIIIIIIIIIIAAAAAAAAAAAAAA
AIIIIIIIIIIIIIIIIIIIIIIIIIIIIIIIIIIIIIIIIIIIIIIIIIIAAAAAAAAAAAAA
AIIIIIIIIIIIIIIIIIIIIIIIIIIIIIIIIIIIIIIIIIIIIIIIIIIIAAAAAAAAAAAA
AIIIIIIIIIIIIIIIIIIIIIIIIIIIIIIIIIIIIIIIIIIIIIIIIIIIIAAAAAAAAAAA
AIIIIIIIIIIIIIIIIIIIIIIIIIIIIIIIIIIIIIIIIIIIIIIIIIIIIIAAAAAAAAAA
AIIIIIIIIIIIIIIIIIIIIIIIIIIIIIIIIIIIIIIIIIIIIIIIIIIIIIIAAAAAAAAA
AIIIIIIIIIIIIIIIIIIIIIIIIIIIIIIIIIIIIIIIIIIIIIIIIIIIIIIIAAAAAAAA
AIIIIIIIIIIIIIIIIIIIIIIIIIIIIIIIIIIIIIIIIIIIIIIIIIIIIIIIIAAAAAAA
AIIIIIIIIIIIIIIIIIIIIIIIIIIIIIIIIIIIIIIIIIIIIIIIIIIIIIIIIIAAAAAA
AIIIIIIIIIIIIIIIIIIIIIIIIIIIIIIIIIIIIIIIIIIIIIIIIIIIIIIIIIIAAAAA
AIIIIIIIIIIIIIIIIIIIIIIIIIIIIIIIIIIIIIIIIIIIIIIIIIIIIIIIIIIIAAAA
AIIIIIIIIIIIIIIIIIIIIIIIIIIIIIIIIIIIIIIIIIIIIIIIIIIIIIIIIIIIIAAA
AIIIIIIIIIIIIIIIIIIIIIIIIIIIIIIIIIIIIIIIIIIIIIIIIIIIIIIIIIIIIIAA
AIIIIIIIIIIIIIIIIIIIIIIIIIIIIIIIIIIIIIIIIIIIIIIIIIIIIIIIIIIIIIIA
AIIIIIIIIIIIIIIIIIIIIIIIIIIIIIIIIIIIIIIIIIIIIIIIIIIIIIIIIIIIIIII
[MLOP] Prefetch Degree Mean: 15.92022
[MLOP] Prefetch Degree SD: 0.64298
[MLOP] Max Score Left Mean (%): 68.22031
[MLOP] Max Score Left SD (%): 10.28889
[MLOP] Max Score Right Mean (%): 99.92457
[MLOP] Max Score Right SD (%): 0.69319

Channel_0_RQ_row_buffer_hit 669233
Channel_0_RQ_row_buffer_miss 1743234
Channel_0_WQ_row_buffer_hit 93850
Channel_0_WQ_row_buffer_miss 645824
Channel_0_WQ_full 0
Channel_0_dbus_congested 651385

avg_congested_cycle 4

DRAM_bw_pochs 5328817
DRAM_bw_level_0 5267058
DRAM_bw_level_1 52246
DRAM_bw_level_2 8927
DRAM_bw_level_3 586
