*************************************************
   ChampSim Multicore Out-of-Order Simulator
   Last compiled: Dec 11 2024 17:59:53
*************************************************
parsing config file: /home/functionmain/桌面/Pythia/config/mlop.ini

trace_0 /home/functionmain/桌面/Pythia/traces/436.cactusADM-1804B.champsimtrace.xz
adding L2C_PREFETCHER: MLOP
Initialize SHIP state
warmup_instructions 100000000
simulation_instructions 500000000
champsim_seed 271
measure_ipc 0
measure_ipc_epoch 1000
measure_dram_bw 1
measure_dram_bw_epoch 256
measure_cache_acc 1
measure_cache_acc_epoch 1024
l1d_perfect 0
l2c_perfect 0
llc_perfect 0
l1d_semi_perfect 0
l2c_semi_perfect 0
llc_semi_perfect 0
semi_perfect_cache_page_buffer_size 64

num_cpus 1
cpu_freq 4000
dram_io_freq 9600
page_size 4096
block_size 64
max_read_per_cycle 8
max_fill_per_cycle 1
dram_channels 1
log2_dram_channels 0
dram_ranks 1
dram_banks 8
dram_rows 65536
dram_columns 128
dram_row_size 8
dram_size 4096
dram_pages 1048576

fetch_width 6
decode_width 6
exec_width 4
lq_width 2
sq_width 2
retire_width 4
scheduler_size 128
branch_mispredict_penalty 20
rob_size 256
lq_size 72
sq_size 56
num_instr_destinations_sparc 4
num_instr_destinations 2
num_instr_sources 4

itlb_set 16
itlb_way 8
itlb_rq_size 16
itlb_wq_size 16
itlb_pq_size 0
itlb_mshr_size 8
itlb_latency 1

dtlb_set 16
dtlb_way 4
dtlb_rq_size 16
dtlb_wq_size 16
dtlb_pq_size 0
dtlb_mshr_size 8
dtlb_latency 1

stlb_set 128
stlb_way 12
stlb_rq_size 32
stlb_wq_size 32
stlb_pq_size 0
stlb_mshr_size 16
stlb_latency 8

l1i_size 32
l1i_set 64
l1i_way 8
l1i_rq_size 64
l1i_wq_size 64
l1i_pq_size 8
l1i_mshr_size 8
l1i_latency 1

l1d_size 32
l1d_set 64
l1d_way 8
l1d_rq_size 64
l1d_wq_size 64
l1d_pq_size 8
l1d_mshr_size 16
l1d_latency 4

l2c_size 256
l2c_set 512
l2c_way 8
l2c_rq_size 32
l2c_wq_size 32
l2c_pq_size 32
l2c_mshr_size 32
l2c_latency 10

llc_size 2048
llc_set 2048
llc_way 16
llc_rq_size 32
llc_wq_size 32
llc_pq_size 32
llc_mshr_size 64
llc_latency 20

dram_channel_width 8
dram_wq_size 64
dram_rq_size 64
tRP 15
tRCD 15
tCAS 12.5
dram_dbus_turn_around_time 30
dram_write_high_wm 56
dram_write_low_wm 48
min_dram_writes_per_switch 16
dram_mtps 9600
dram_dbus_return_time 3

mlop_pref_degree 16
mlop_num_updates 500
mlop_l1d_thresh 2
mlop_l2c_thresh 0.75
mlop_llc_thresh 0.3
mlop_debug_level 0
mlop_blocks_in_cache 4096
mlop_blocks_in_zone 64
mlop_amt_size 2048
mlop_PF_DEGREE 16
mlop_NUM_UPDATES 500
mlop_L1D_THRESH 1000
mlop_L2C_THRESH 375
mlop_LLC_THRESH 150
mlop_ORIGIN 63
mlop_MAX_OFFSET 63
mlop_MIN_OFFSET -63
mlop_ORIGIN 63
mlop_NUM_OFFSETS 127


Heartbeat CPU  0 instructions:    1000000 cycles:     702382 heartbeat IPC: 1.42373 cumulative IPC: 1.42373 (Simulation time: 0 hr 0 min 3 sec) 
Heartbeat CPU  0 instructions:    2000000 cycles:    1404585 heartbeat IPC: 1.42409 cumulative IPC: 1.42391 (Simulation time: 0 hr 0 min 5 sec) 
Heartbeat CPU  0 instructions:    3000000 cycles:    2106879 heartbeat IPC: 1.42391 cumulative IPC: 1.42391 (Simulation time: 0 hr 0 min 7 sec) 
Heartbeat CPU  0 instructions:    4000000 cycles:    2809194 heartbeat IPC: 1.42386 cumulative IPC: 1.42390 (Simulation time: 0 hr 0 min 10 sec) 
Heartbeat CPU  0 instructions:    5000000 cycles:    3511371 heartbeat IPC: 1.42414 cumulative IPC: 1.42395 (Simulation time: 0 hr 0 min 12 sec) 
Heartbeat CPU  0 instructions:    6000000 cycles:    4213690 heartbeat IPC: 1.42385 cumulative IPC: 1.42393 (Simulation time: 0 hr 0 min 14 sec) 
Heartbeat CPU  0 instructions:    7000001 cycles:    4916074 heartbeat IPC: 1.42372 cumulative IPC: 1.42390 (Simulation time: 0 hr 0 min 17 sec) 
Heartbeat CPU  0 instructions:    8000000 cycles:    5618187 heartbeat IPC: 1.42427 cumulative IPC: 1.42395 (Simulation time: 0 hr 0 min 19 sec) 
Heartbeat CPU  0 instructions:    9000001 cycles:    6320656 heartbeat IPC: 1.42355 cumulative IPC: 1.42390 (Simulation time: 0 hr 0 min 21 sec) 
Heartbeat CPU  0 instructions:   10000000 cycles:    7022829 heartbeat IPC: 1.42415 cumulative IPC: 1.42393 (Simulation time: 0 hr 0 min 24 sec) 
Heartbeat CPU  0 instructions:   11000002 cycles:    7725011 heartbeat IPC: 1.42414 cumulative IPC: 1.42395 (Simulation time: 0 hr 0 min 26 sec) 
Heartbeat CPU  0 instructions:   12000000 cycles:    8427137 heartbeat IPC: 1.42424 cumulative IPC: 1.42397 (Simulation time: 0 hr 0 min 28 sec) 
Heartbeat CPU  0 instructions:   13000000 cycles:    9129694 heartbeat IPC: 1.42337 cumulative IPC: 1.42393 (Simulation time: 0 hr 0 min 31 sec) 
Heartbeat CPU  0 instructions:   14000002 cycles:    9831941 heartbeat IPC: 1.42400 cumulative IPC: 1.42393 (Simulation time: 0 hr 0 min 33 sec) 
Heartbeat CPU  0 instructions:   15000002 cycles:   10533845 heartbeat IPC: 1.42470 cumulative IPC: 1.42398 (Simulation time: 0 hr 0 min 35 sec) 
Heartbeat CPU  0 instructions:   16000000 cycles:   11236365 heartbeat IPC: 1.42344 cumulative IPC: 1.42395 (Simulation time: 0 hr 0 min 38 sec) 
Heartbeat CPU  0 instructions:   17000000 cycles:   11938886 heartbeat IPC: 1.42344 cumulative IPC: 1.42392 (Simulation time: 0 hr 0 min 40 sec) 
Heartbeat CPU  0 instructions:   18000001 cycles:   12599063 heartbeat IPC: 1.51475 cumulative IPC: 1.42868 (Simulation time: 0 hr 0 min 42 sec) 
Heartbeat CPU  0 instructions:   19000000 cycles:   13232946 heartbeat IPC: 1.57758 cumulative IPC: 1.43581 (Simulation time: 0 hr 0 min 45 sec) 
Heartbeat CPU  0 instructions:   20000000 cycles:   13935456 heartbeat IPC: 1.42347 cumulative IPC: 1.43519 (Simulation time: 0 hr 0 min 47 sec) 
Heartbeat CPU  0 instructions:   21000000 cycles:   14637815 heartbeat IPC: 1.42377 cumulative IPC: 1.43464 (Simulation time: 0 hr 0 min 49 sec) 
Heartbeat CPU  0 instructions:   22000002 cycles:   15340110 heartbeat IPC: 1.42391 cumulative IPC: 1.43415 (Simulation time: 0 hr 0 min 52 sec) 
Heartbeat CPU  0 instructions:   23000001 cycles:   16042511 heartbeat IPC: 1.42369 cumulative IPC: 1.43369 (Simulation time: 0 hr 0 min 54 sec) 
Heartbeat CPU  0 instructions:   24000000 cycles:   16744622 heartbeat IPC: 1.42427 cumulative IPC: 1.43330 (Simulation time: 0 hr 0 min 56 sec) 
Heartbeat CPU  0 instructions:   25000001 cycles:   17446903 heartbeat IPC: 1.42393 cumulative IPC: 1.43292 (Simulation time: 0 hr 0 min 59 sec) 
Heartbeat CPU  0 instructions:   26000003 cycles:   18149511 heartbeat IPC: 1.42327 cumulative IPC: 1.43255 (Simulation time: 0 hr 1 min 1 sec) 
Heartbeat CPU  0 instructions:   27000003 cycles:   18851705 heartbeat IPC: 1.42411 cumulative IPC: 1.43223 (Simulation time: 0 hr 1 min 3 sec) 
Heartbeat CPU  0 instructions:   28000000 cycles:   19553850 heartbeat IPC: 1.42420 cumulative IPC: 1.43194 (Simulation time: 0 hr 1 min 6 sec) 
Heartbeat CPU  0 instructions:   29000000 cycles:   20256299 heartbeat IPC: 1.42359 cumulative IPC: 1.43165 (Simulation time: 0 hr 1 min 8 sec) 
Heartbeat CPU  0 instructions:   30000003 cycles:   20958684 heartbeat IPC: 1.42372 cumulative IPC: 1.43139 (Simulation time: 0 hr 1 min 10 sec) 
Heartbeat CPU  0 instructions:   31000003 cycles:   21660645 heartbeat IPC: 1.42458 cumulative IPC: 1.43117 (Simulation time: 0 hr 1 min 13 sec) 
Heartbeat CPU  0 instructions:   32000000 cycles:   22362739 heartbeat IPC: 1.42431 cumulative IPC: 1.43095 (Simulation time: 0 hr 1 min 15 sec) 
Heartbeat CPU  0 instructions:   33000001 cycles:   23065445 heartbeat IPC: 1.42307 cumulative IPC: 1.43071 (Simulation time: 0 hr 1 min 17 sec) 
Heartbeat CPU  0 instructions:   34000000 cycles:   23767591 heartbeat IPC: 1.42420 cumulative IPC: 1.43052 (Simulation time: 0 hr 1 min 20 sec) 
Heartbeat CPU  0 instructions:   35000001 cycles:   24469853 heartbeat IPC: 1.42397 cumulative IPC: 1.43033 (Simulation time: 0 hr 1 min 22 sec) 
Heartbeat CPU  0 instructions:   36000000 cycles:   25172081 heartbeat IPC: 1.42404 cumulative IPC: 1.43016 (Simulation time: 0 hr 1 min 24 sec) 
Heartbeat CPU  0 instructions:   37000000 cycles:   25874653 heartbeat IPC: 1.42334 cumulative IPC: 1.42997 (Simulation time: 0 hr 1 min 27 sec) 
Heartbeat CPU  0 instructions:   38000001 cycles:   26576824 heartbeat IPC: 1.42416 cumulative IPC: 1.42982 (Simulation time: 0 hr 1 min 29 sec) 
Heartbeat CPU  0 instructions:   39000000 cycles:   27279072 heartbeat IPC: 1.42400 cumulative IPC: 1.42967 (Simulation time: 0 hr 1 min 31 sec) 
Heartbeat CPU  0 instructions:   40000000 cycles:   27981299 heartbeat IPC: 1.42404 cumulative IPC: 1.42953 (Simulation time: 0 hr 1 min 34 sec) 
Heartbeat CPU  0 instructions:   41000000 cycles:   28584617 heartbeat IPC: 1.65750 cumulative IPC: 1.43434 (Simulation time: 0 hr 1 min 36 sec) 
Heartbeat CPU  0 instructions:   42000002 cycles:   29275717 heartbeat IPC: 1.44697 cumulative IPC: 1.43464 (Simulation time: 0 hr 1 min 38 sec) 
Heartbeat CPU  0 instructions:   43000002 cycles:   29978098 heartbeat IPC: 1.42373 cumulative IPC: 1.43438 (Simulation time: 0 hr 1 min 41 sec) 
Heartbeat CPU  0 instructions:   44000000 cycles:   30680528 heartbeat IPC: 1.42363 cumulative IPC: 1.43413 (Simulation time: 0 hr 1 min 43 sec) 
Heartbeat CPU  0 instructions:   45000003 cycles:   31382764 heartbeat IPC: 1.42403 cumulative IPC: 1.43391 (Simulation time: 0 hr 1 min 46 sec) 
Heartbeat CPU  0 instructions:   46000003 cycles:   32084965 heartbeat IPC: 1.42409 cumulative IPC: 1.43369 (Simulation time: 0 hr 1 min 48 sec) 
Heartbeat CPU  0 instructions:   47000000 cycles:   32787100 heartbeat IPC: 1.42422 cumulative IPC: 1.43349 (Simulation time: 0 hr 1 min 50 sec) 
Heartbeat CPU  0 instructions:   48000000 cycles:   33489631 heartbeat IPC: 1.42342 cumulative IPC: 1.43328 (Simulation time: 0 hr 1 min 53 sec) 
Heartbeat CPU  0 instructions:   49000000 cycles:   34191607 heartbeat IPC: 1.42455 cumulative IPC: 1.43310 (Simulation time: 0 hr 1 min 55 sec) 
Heartbeat CPU  0 instructions:   50000000 cycles:   34893921 heartbeat IPC: 1.42386 cumulative IPC: 1.43291 (Simulation time: 0 hr 1 min 57 sec) 
Heartbeat CPU  0 instructions:   51000000 cycles:   35596441 heartbeat IPC: 1.42345 cumulative IPC: 1.43273 (Simulation time: 0 hr 2 min 0 sec) 
Heartbeat CPU  0 instructions:   52000000 cycles:   36298553 heartbeat IPC: 1.42427 cumulative IPC: 1.43256 (Simulation time: 0 hr 2 min 2 sec) 
Heartbeat CPU  0 instructions:   53000000 cycles:   37000907 heartbeat IPC: 1.42378 cumulative IPC: 1.43240 (Simulation time: 0 hr 2 min 4 sec) 
Heartbeat CPU  0 instructions:   54000001 cycles:   37703007 heartbeat IPC: 1.42430 cumulative IPC: 1.43225 (Simulation time: 0 hr 2 min 7 sec) 
Heartbeat CPU  0 instructions:   55000001 cycles:   38405277 heartbeat IPC: 1.42395 cumulative IPC: 1.43209 (Simulation time: 0 hr 2 min 9 sec) 
Heartbeat CPU  0 instructions:   56000000 cycles:   39107750 heartbeat IPC: 1.42354 cumulative IPC: 1.43194 (Simulation time: 0 hr 2 min 11 sec) 
Heartbeat CPU  0 instructions:   57000000 cycles:   39810186 heartbeat IPC: 1.42362 cumulative IPC: 1.43179 (Simulation time: 0 hr 2 min 14 sec) 
Heartbeat CPU  0 instructions:   58000002 cycles:   40512477 heartbeat IPC: 1.42391 cumulative IPC: 1.43166 (Simulation time: 0 hr 2 min 16 sec) 
Heartbeat CPU  0 instructions:   59000000 cycles:   41214575 heartbeat IPC: 1.42430 cumulative IPC: 1.43153 (Simulation time: 0 hr 2 min 18 sec) 
Heartbeat CPU  0 instructions:   60000000 cycles:   41916951 heartbeat IPC: 1.42374 cumulative IPC: 1.43140 (Simulation time: 0 hr 2 min 21 sec) 
Heartbeat CPU  0 instructions:   61000000 cycles:   42619177 heartbeat IPC: 1.42404 cumulative IPC: 1.43128 (Simulation time: 0 hr 2 min 23 sec) 
Heartbeat CPU  0 instructions:   62000002 cycles:   43321390 heartbeat IPC: 1.42407 cumulative IPC: 1.43116 (Simulation time: 0 hr 2 min 25 sec) 
Heartbeat CPU  0 instructions:   63000000 cycles:   43967635 heartbeat IPC: 1.54740 cumulative IPC: 1.43287 (Simulation time: 0 hr 2 min 28 sec) 
Heartbeat CPU  0 instructions:   64000000 cycles:   44617641 heartbeat IPC: 1.53845 cumulative IPC: 1.43441 (Simulation time: 0 hr 2 min 30 sec) 
Heartbeat CPU  0 instructions:   65000000 cycles:   45319660 heartbeat IPC: 1.42446 cumulative IPC: 1.43426 (Simulation time: 0 hr 2 min 32 sec) 
Heartbeat CPU  0 instructions:   66000001 cycles:   46021708 heartbeat IPC: 1.42441 cumulative IPC: 1.43411 (Simulation time: 0 hr 2 min 35 sec) 
Heartbeat CPU  0 instructions:   67000002 cycles:   46723781 heartbeat IPC: 1.42435 cumulative IPC: 1.43396 (Simulation time: 0 hr 2 min 37 sec) 
Heartbeat CPU  0 instructions:   68000000 cycles:   47426183 heartbeat IPC: 1.42368 cumulative IPC: 1.43381 (Simulation time: 0 hr 2 min 39 sec) 
Heartbeat CPU  0 instructions:   69000000 cycles:   48128340 heartbeat IPC: 1.42418 cumulative IPC: 1.43367 (Simulation time: 0 hr 2 min 42 sec) 
Heartbeat CPU  0 instructions:   70000002 cycles:   48830398 heartbeat IPC: 1.42439 cumulative IPC: 1.43353 (Simulation time: 0 hr 2 min 44 sec) 
Heartbeat CPU  0 instructions:   71000003 cycles:   49533037 heartbeat IPC: 1.42321 cumulative IPC: 1.43339 (Simulation time: 0 hr 2 min 46 sec) 
Heartbeat CPU  0 instructions:   72000000 cycles:   50235115 heartbeat IPC: 1.42434 cumulative IPC: 1.43326 (Simulation time: 0 hr 2 min 49 sec) 
Heartbeat CPU  0 instructions:   73000001 cycles:   50937226 heartbeat IPC: 1.42428 cumulative IPC: 1.43314 (Simulation time: 0 hr 2 min 51 sec) 
Heartbeat CPU  0 instructions:   74000003 cycles:   51639461 heartbeat IPC: 1.42403 cumulative IPC: 1.43301 (Simulation time: 0 hr 2 min 54 sec) 
Heartbeat CPU  0 instructions:   75000002 cycles:   52342108 heartbeat IPC: 1.42319 cumulative IPC: 1.43288 (Simulation time: 0 hr 2 min 56 sec) 
Heartbeat CPU  0 instructions:   76000000 cycles:   53044326 heartbeat IPC: 1.42406 cumulative IPC: 1.43276 (Simulation time: 0 hr 2 min 58 sec) 
Heartbeat CPU  0 instructions:   77000003 cycles:   53746946 heartbeat IPC: 1.42325 cumulative IPC: 1.43264 (Simulation time: 0 hr 3 min 1 sec) 
Heartbeat CPU  0 instructions:   78000001 cycles:   54449397 heartbeat IPC: 1.42358 cumulative IPC: 1.43252 (Simulation time: 0 hr 3 min 3 sec) 
Heartbeat CPU  0 instructions:   79000001 cycles:   55151279 heartbeat IPC: 1.42474 cumulative IPC: 1.43242 (Simulation time: 0 hr 3 min 5 sec) 
Heartbeat CPU  0 instructions:   80000000 cycles:   55853258 heartbeat IPC: 1.42454 cumulative IPC: 1.43232 (Simulation time: 0 hr 3 min 8 sec) 
Heartbeat CPU  0 instructions:   81000002 cycles:   56555573 heartbeat IPC: 1.42387 cumulative IPC: 1.43222 (Simulation time: 0 hr 3 min 10 sec) 
Heartbeat CPU  0 instructions:   82000000 cycles:   57257826 heartbeat IPC: 1.42399 cumulative IPC: 1.43212 (Simulation time: 0 hr 3 min 12 sec) 
Heartbeat CPU  0 instructions:   83000001 cycles:   57960063 heartbeat IPC: 1.42402 cumulative IPC: 1.43202 (Simulation time: 0 hr 3 min 15 sec) 
Heartbeat CPU  0 instructions:   84000000 cycles:   58662261 heartbeat IPC: 1.42410 cumulative IPC: 1.43193 (Simulation time: 0 hr 3 min 17 sec) 
Heartbeat CPU  0 instructions:   85000000 cycles:   59350600 heartbeat IPC: 1.45277 cumulative IPC: 1.43217 (Simulation time: 0 hr 3 min 19 sec) 
Heartbeat CPU  0 instructions:   86000002 cycles:   59957930 heartbeat IPC: 1.64655 cumulative IPC: 1.43434 (Simulation time: 0 hr 3 min 22 sec) 
Heartbeat CPU  0 instructions:   87000002 cycles:   60660359 heartbeat IPC: 1.42363 cumulative IPC: 1.43422 (Simulation time: 0 hr 3 min 24 sec) 
Heartbeat CPU  0 instructions:   88000000 cycles:   61362989 heartbeat IPC: 1.42322 cumulative IPC: 1.43409 (Simulation time: 0 hr 3 min 26 sec) 
Heartbeat CPU  0 instructions:   89000001 cycles:   62065037 heartbeat IPC: 1.42441 cumulative IPC: 1.43398 (Simulation time: 0 hr 3 min 29 sec) 
Heartbeat CPU  0 instructions:   90000003 cycles:   62767320 heartbeat IPC: 1.42393 cumulative IPC: 1.43387 (Simulation time: 0 hr 3 min 31 sec) 
Heartbeat CPU  0 instructions:   91000003 cycles:   63469725 heartbeat IPC: 1.42368 cumulative IPC: 1.43375 (Simulation time: 0 hr 3 min 33 sec) 
Heartbeat CPU  0 instructions:   92000000 cycles:   64171955 heartbeat IPC: 1.42403 cumulative IPC: 1.43365 (Simulation time: 0 hr 3 min 36 sec) 
Heartbeat CPU  0 instructions:   93000002 cycles:   64874314 heartbeat IPC: 1.42378 cumulative IPC: 1.43354 (Simulation time: 0 hr 3 min 38 sec) 
Heartbeat CPU  0 instructions:   94000002 cycles:   65576290 heartbeat IPC: 1.42455 cumulative IPC: 1.43344 (Simulation time: 0 hr 3 min 40 sec) 
Heartbeat CPU  0 instructions:   95000003 cycles:   66278418 heartbeat IPC: 1.42424 cumulative IPC: 1.43335 (Simulation time: 0 hr 3 min 43 sec) 
Heartbeat CPU  0 instructions:   96000000 cycles:   66980603 heartbeat IPC: 1.42412 cumulative IPC: 1.43325 (Simulation time: 0 hr 3 min 45 sec) 
Heartbeat CPU  0 instructions:   97000000 cycles:   67682913 heartbeat IPC: 1.42387 cumulative IPC: 1.43315 (Simulation time: 0 hr 3 min 47 sec) 
Heartbeat CPU  0 instructions:   98000002 cycles:   68385068 heartbeat IPC: 1.42419 cumulative IPC: 1.43306 (Simulation time: 0 hr 3 min 50 sec) 
Heartbeat CPU  0 instructions:   99000003 cycles:   69087264 heartbeat IPC: 1.42411 cumulative IPC: 1.43297 (Simulation time: 0 hr 3 min 52 sec) 
Heartbeat CPU  0 instructions:  100000000 cycles:   69789643 heartbeat IPC: 1.42373 cumulative IPC: 1.43288 (Simulation time: 0 hr 3 min 54 sec) 

Warmup complete CPU  0 instructions:  100000001 cycles:   69789663 (Simulation time: 0 hr 3 min 54 sec) 

Heartbeat CPU  0 instructions:  101000000 cycles:   71810780 heartbeat IPC: 0.49477 cumulative IPC: 0.49478 (Simulation time: 0 hr 3 min 57 sec) 
Heartbeat CPU  0 instructions:  102000003 cycles:   73656327 heartbeat IPC: 0.54185 cumulative IPC: 0.51724 (Simulation time: 0 hr 4 min 0 sec) 
Heartbeat CPU  0 instructions:  103000003 cycles:   75668605 heartbeat IPC: 0.49695 cumulative IPC: 0.51030 (Simulation time: 0 hr 4 min 3 sec) 
Heartbeat CPU  0 instructions:  104000000 cycles:   77694588 heartbeat IPC: 0.49359 cumulative IPC: 0.50601 (Simulation time: 0 hr 4 min 5 sec) 
Heartbeat CPU  0 instructions:  105000002 cycles:   79606604 heartbeat IPC: 0.52301 cumulative IPC: 0.50932 (Simulation time: 0 hr 4 min 8 sec) 
Heartbeat CPU  0 instructions:  106000000 cycles:   81519310 heartbeat IPC: 0.52282 cumulative IPC: 0.51152 (Simulation time: 0 hr 4 min 11 sec) 
Heartbeat CPU  0 instructions:  107000003 cycles:   83546272 heartbeat IPC: 0.49335 cumulative IPC: 0.50885 (Simulation time: 0 hr 4 min 14 sec) 
Heartbeat CPU  0 instructions:  108000000 cycles:   94349478 heartbeat IPC: 0.09256 cumulative IPC: 0.32574 (Simulation time: 0 hr 4 min 17 sec) 
Heartbeat CPU  0 instructions:  109000003 cycles:  101192877 heartbeat IPC: 0.14613 cumulative IPC: 0.28659 (Simulation time: 0 hr 4 min 20 sec) 
Heartbeat CPU  0 instructions:  110000001 cycles:  103211839 heartbeat IPC: 0.49530 cumulative IPC: 0.29920 (Simulation time: 0 hr 4 min 23 sec) 
Heartbeat CPU  0 instructions:  111000000 cycles:  105205634 heartbeat IPC: 0.50156 cumulative IPC: 0.31059 (Simulation time: 0 hr 4 min 26 sec) 
Heartbeat CPU  0 instructions:  112000000 cycles:  107091237 heartbeat IPC: 0.53033 cumulative IPC: 0.32170 (Simulation time: 0 hr 4 min 28 sec) 
Heartbeat CPU  0 instructions:  113000000 cycles:  109083414 heartbeat IPC: 0.50196 cumulative IPC: 0.33084 (Simulation time: 0 hr 4 min 31 sec) 
Heartbeat CPU  0 instructions:  114000000 cycles:  111127486 heartbeat IPC: 0.48922 cumulative IPC: 0.33867 (Simulation time: 0 hr 4 min 34 sec) 
Heartbeat CPU  0 instructions:  115000001 cycles:  113027948 heartbeat IPC: 0.52619 cumulative IPC: 0.34691 (Simulation time: 0 hr 4 min 37 sec) 
Heartbeat CPU  0 instructions:  116000000 cycles:  114917602 heartbeat IPC: 0.52920 cumulative IPC: 0.35455 (Simulation time: 0 hr 4 min 39 sec) 
Heartbeat CPU  0 instructions:  117000003 cycles:  116910236 heartbeat IPC: 0.50185 cumulative IPC: 0.36078 (Simulation time: 0 hr 4 min 42 sec) 
Heartbeat CPU  0 instructions:  118000002 cycles:  118879740 heartbeat IPC: 0.50774 cumulative IPC: 0.36667 (Simulation time: 0 hr 4 min 45 sec) 
Heartbeat CPU  0 instructions:  119000002 cycles:  120695991 heartbeat IPC: 0.55058 cumulative IPC: 0.37323 (Simulation time: 0 hr 4 min 48 sec) 
Heartbeat CPU  0 instructions:  120000000 cycles:  122717444 heartbeat IPC: 0.49469 cumulative IPC: 0.37787 (Simulation time: 0 hr 4 min 50 sec) 
Heartbeat CPU  0 instructions:  121000003 cycles:  124719142 heartbeat IPC: 0.49958 cumulative IPC: 0.38231 (Simulation time: 0 hr 4 min 53 sec) 
Heartbeat CPU  0 instructions:  122000002 cycles:  126574423 heartbeat IPC: 0.53900 cumulative IPC: 0.38743 (Simulation time: 0 hr 4 min 56 sec) 
Heartbeat CPU  0 instructions:  123000002 cycles:  128527861 heartbeat IPC: 0.51192 cumulative IPC: 0.39157 (Simulation time: 0 hr 4 min 59 sec) 
Heartbeat CPU  0 instructions:  124000000 cycles:  130538813 heartbeat IPC: 0.49728 cumulative IPC: 0.39507 (Simulation time: 0 hr 5 min 1 sec) 
Heartbeat CPU  0 instructions:  125000000 cycles:  132516394 heartbeat IPC: 0.50567 cumulative IPC: 0.39855 (Simulation time: 0 hr 5 min 4 sec) 
Heartbeat CPU  0 instructions:  126000002 cycles:  134407576 heartbeat IPC: 0.52877 cumulative IPC: 0.40237 (Simulation time: 0 hr 5 min 7 sec) 
Heartbeat CPU  0 instructions:  127000002 cycles:  136550128 heartbeat IPC: 0.46673 cumulative IPC: 0.40443 (Simulation time: 0 hr 5 min 10 sec) 
Heartbeat CPU  0 instructions:  128000000 cycles:  138553181 heartbeat IPC: 0.49924 cumulative IPC: 0.40719 (Simulation time: 0 hr 5 min 12 sec) 
Heartbeat CPU  0 instructions:  129000001 cycles:  140409702 heartbeat IPC: 0.53864 cumulative IPC: 0.41065 (Simulation time: 0 hr 5 min 15 sec) 
Heartbeat CPU  0 instructions:  130000000 cycles:  146031661 heartbeat IPC: 0.17787 cumulative IPC: 0.39348 (Simulation time: 0 hr 5 min 18 sec) 
Heartbeat CPU  0 instructions:  131000003 cycles:  158188646 heartbeat IPC: 0.08226 cumulative IPC: 0.35068 (Simulation time: 0 hr 5 min 22 sec) 
Heartbeat CPU  0 instructions:  132000000 cycles:  160071598 heartbeat IPC: 0.53108 cumulative IPC: 0.35445 (Simulation time: 0 hr 5 min 24 sec) 
Heartbeat CPU  0 instructions:  133000000 cycles:  162016879 heartbeat IPC: 0.51406 cumulative IPC: 0.35781 (Simulation time: 0 hr 5 min 27 sec) 
Heartbeat CPU  0 instructions:  134000000 cycles:  164031919 heartbeat IPC: 0.49627 cumulative IPC: 0.36077 (Simulation time: 0 hr 5 min 30 sec) 
Heartbeat CPU  0 instructions:  135000000 cycles:  165993779 heartbeat IPC: 0.50972 cumulative IPC: 0.36381 (Simulation time: 0 hr 5 min 33 sec) 
Heartbeat CPU  0 instructions:  136000000 cycles:  167873293 heartbeat IPC: 0.53205 cumulative IPC: 0.36703 (Simulation time: 0 hr 5 min 35 sec) 
Heartbeat CPU  0 instructions:  137000002 cycles:  169908178 heartbeat IPC: 0.49143 cumulative IPC: 0.36956 (Simulation time: 0 hr 5 min 38 sec) 
Heartbeat CPU  0 instructions:  138000001 cycles:  171904678 heartbeat IPC: 0.50088 cumulative IPC: 0.37213 (Simulation time: 0 hr 5 min 41 sec) 
Heartbeat CPU  0 instructions:  139000001 cycles:  173764200 heartbeat IPC: 0.53777 cumulative IPC: 0.37509 (Simulation time: 0 hr 5 min 44 sec) 
Heartbeat CPU  0 instructions:  140000000 cycles:  175739976 heartbeat IPC: 0.50613 cumulative IPC: 0.37754 (Simulation time: 0 hr 5 min 46 sec) 
Heartbeat CPU  0 instructions:  141000000 cycles:  177757250 heartbeat IPC: 0.49572 cumulative IPC: 0.37974 (Simulation time: 0 hr 5 min 49 sec) 
Heartbeat CPU  0 instructions:  142000001 cycles:  179678986 heartbeat IPC: 0.52036 cumulative IPC: 0.38220 (Simulation time: 0 hr 5 min 52 sec) 
Heartbeat CPU  0 instructions:  143000001 cycles:  181620574 heartbeat IPC: 0.51504 cumulative IPC: 0.38451 (Simulation time: 0 hr 5 min 55 sec) 
Heartbeat CPU  0 instructions:  144000000 cycles:  183649602 heartbeat IPC: 0.49285 cumulative IPC: 0.38644 (Simulation time: 0 hr 5 min 57 sec) 
Heartbeat CPU  0 instructions:  145000000 cycles:  185615419 heartbeat IPC: 0.50869 cumulative IPC: 0.38851 (Simulation time: 0 hr 6 min 0 sec) 
Heartbeat CPU  0 instructions:  146000002 cycles:  187489511 heartbeat IPC: 0.53359 cumulative IPC: 0.39082 (Simulation time: 0 hr 6 min 3 sec) 
Heartbeat CPU  0 instructions:  147000003 cycles:  189505445 heartbeat IPC: 0.49605 cumulative IPC: 0.39260 (Simulation time: 0 hr 6 min 6 sec) 
Heartbeat CPU  0 instructions:  148000000 cycles:  191542092 heartbeat IPC: 0.49100 cumulative IPC: 0.39424 (Simulation time: 0 hr 6 min 8 sec) 
Heartbeat CPU  0 instructions:  149000002 cycles:  193412768 heartbeat IPC: 0.53457 cumulative IPC: 0.39637 (Simulation time: 0 hr 6 min 11 sec) 
Heartbeat CPU  0 instructions:  150000003 cycles:  195438489 heartbeat IPC: 0.49365 cumulative IPC: 0.39793 (Simulation time: 0 hr 6 min 14 sec) 
Heartbeat CPU  0 instructions:  151000003 cycles:  197461533 heartbeat IPC: 0.49430 cumulative IPC: 0.39946 (Simulation time: 0 hr 6 min 17 sec) 
Heartbeat CPU  0 instructions:  152000000 cycles:  199413724 heartbeat IPC: 0.51224 cumulative IPC: 0.40116 (Simulation time: 0 hr 6 min 19 sec) 
Heartbeat CPU  0 instructions:  153000003 cycles:  212280755 heartbeat IPC: 0.07772 cumulative IPC: 0.37195 (Simulation time: 0 hr 6 min 23 sec) 
Heartbeat CPU  0 instructions:  154000000 cycles:  217353004 heartbeat IPC: 0.19715 cumulative IPC: 0.36594 (Simulation time: 0 hr 6 min 26 sec) 
Heartbeat CPU  0 instructions:  155000000 cycles:  219318255 heartbeat IPC: 0.50884 cumulative IPC: 0.36782 (Simulation time: 0 hr 6 min 29 sec) 
Heartbeat CPU  0 instructions:  156000000 cycles:  221195149 heartbeat IPC: 0.53280 cumulative IPC: 0.36987 (Simulation time: 0 hr 6 min 31 sec) 
Heartbeat CPU  0 instructions:  157000001 cycles:  223208193 heartbeat IPC: 0.49676 cumulative IPC: 0.37153 (Simulation time: 0 hr 6 min 34 sec) 
Heartbeat CPU  0 instructions:  158000001 cycles:  225239303 heartbeat IPC: 0.49234 cumulative IPC: 0.37311 (Simulation time: 0 hr 6 min 37 sec) 
Heartbeat CPU  0 instructions:  159000000 cycles:  227115073 heartbeat IPC: 0.53311 cumulative IPC: 0.37502 (Simulation time: 0 hr 6 min 40 sec) 
Heartbeat CPU  0 instructions:  160000000 cycles:  229098764 heartbeat IPC: 0.50411 cumulative IPC: 0.37663 (Simulation time: 0 hr 6 min 43 sec) 
Heartbeat CPU  0 instructions:  161000003 cycles:  231113822 heartbeat IPC: 0.49627 cumulative IPC: 0.37812 (Simulation time: 0 hr 6 min 45 sec) 
Heartbeat CPU  0 instructions:  162000000 cycles:  233014632 heartbeat IPC: 0.52609 cumulative IPC: 0.37984 (Simulation time: 0 hr 6 min 48 sec) 
Heartbeat CPU  0 instructions:  163000003 cycles:  234960290 heartbeat IPC: 0.51397 cumulative IPC: 0.38142 (Simulation time: 0 hr 6 min 51 sec) 
Heartbeat CPU  0 instructions:  164000000 cycles:  236992893 heartbeat IPC: 0.49198 cumulative IPC: 0.38277 (Simulation time: 0 hr 6 min 54 sec) 
Heartbeat CPU  0 instructions:  165000000 cycles:  238999019 heartbeat IPC: 0.49847 cumulative IPC: 0.38414 (Simulation time: 0 hr 6 min 56 sec) 
Heartbeat CPU  0 instructions:  166000001 cycles:  240865997 heartbeat IPC: 0.53563 cumulative IPC: 0.38579 (Simulation time: 0 hr 6 min 59 sec) 
Heartbeat CPU  0 instructions:  167000000 cycles:  242876035 heartbeat IPC: 0.49750 cumulative IPC: 0.38709 (Simulation time: 0 hr 7 min 2 sec) 
Heartbeat CPU  0 instructions:  168000000 cycles:  244883475 heartbeat IPC: 0.49815 cumulative IPC: 0.38836 (Simulation time: 0 hr 7 min 5 sec) 
Heartbeat CPU  0 instructions:  169000001 cycles:  246744452 heartbeat IPC: 0.53735 cumulative IPC: 0.38993 (Simulation time: 0 hr 7 min 7 sec) 
Heartbeat CPU  0 instructions:  170000002 cycles:  248752276 heartbeat IPC: 0.49805 cumulative IPC: 0.39114 (Simulation time: 0 hr 7 min 10 sec) 
Heartbeat CPU  0 instructions:  171000001 cycles:  250798007 heartbeat IPC: 0.48882 cumulative IPC: 0.39225 (Simulation time: 0 hr 7 min 13 sec) 
Heartbeat CPU  0 instructions:  172000000 cycles:  252736480 heartbeat IPC: 0.51587 cumulative IPC: 0.39356 (Simulation time: 0 hr 7 min 16 sec) 
Heartbeat CPU  0 instructions:  173000000 cycles:  254623490 heartbeat IPC: 0.52994 cumulative IPC: 0.39495 (Simulation time: 0 hr 7 min 18 sec) 
Heartbeat CPU  0 instructions:  174000003 cycles:  256678024 heartbeat IPC: 0.48673 cumulative IPC: 0.39596 (Simulation time: 0 hr 7 min 21 sec) 
Heartbeat CPU  0 instructions:  175000000 cycles:  263968792 heartbeat IPC: 0.13716 cumulative IPC: 0.38624 (Simulation time: 0 hr 7 min 24 sec) 
Heartbeat CPU  0 instructions:  176000000 cycles:  274333004 heartbeat IPC: 0.09649 cumulative IPC: 0.37156 (Simulation time: 0 hr 7 min 28 sec) 
Heartbeat CPU  0 instructions:  177000001 cycles:  276477417 heartbeat IPC: 0.46633 cumulative IPC: 0.37254 (Simulation time: 0 hr 7 min 30 sec) 
Heartbeat CPU  0 instructions:  178000003 cycles:  278641214 heartbeat IPC: 0.46215 cumulative IPC: 0.37347 (Simulation time: 0 hr 7 min 33 sec) 
Heartbeat CPU  0 instructions:  179000002 cycles:  280695839 heartbeat IPC: 0.48671 cumulative IPC: 0.37457 (Simulation time: 0 hr 7 min 36 sec) 
Heartbeat CPU  0 instructions:  180000000 cycles:  282709811 heartbeat IPC: 0.49653 cumulative IPC: 0.37573 (Simulation time: 0 hr 7 min 39 sec) 
Heartbeat CPU  0 instructions:  181000003 cycles:  284757184 heartbeat IPC: 0.48843 cumulative IPC: 0.37680 (Simulation time: 0 hr 7 min 41 sec) 
Heartbeat CPU  0 instructions:  182000003 cycles:  286703135 heartbeat IPC: 0.51389 cumulative IPC: 0.37803 (Simulation time: 0 hr 7 min 44 sec) 
Heartbeat CPU  0 instructions:  183000000 cycles:  288640347 heartbeat IPC: 0.51620 cumulative IPC: 0.37925 (Simulation time: 0 hr 7 min 47 sec) 
Heartbeat CPU  0 instructions:  184000000 cycles:  290676132 heartbeat IPC: 0.49121 cumulative IPC: 0.38029 (Simulation time: 0 hr 7 min 50 sec) 
Heartbeat CPU  0 instructions:  185000002 cycles:  292704077 heartbeat IPC: 0.49311 cumulative IPC: 0.38131 (Simulation time: 0 hr 7 min 52 sec) 
Heartbeat CPU  0 instructions:  186000001 cycles:  294599988 heartbeat IPC: 0.52745 cumulative IPC: 0.38254 (Simulation time: 0 hr 7 min 55 sec) 
Heartbeat CPU  0 instructions:  187000000 cycles:  296660334 heartbeat IPC: 0.48535 cumulative IPC: 0.38348 (Simulation time: 0 hr 7 min 58 sec) 
Heartbeat CPU  0 instructions:  188000000 cycles:  298688646 heartbeat IPC: 0.49302 cumulative IPC: 0.38445 (Simulation time: 0 hr 8 min 1 sec) 
Heartbeat CPU  0 instructions:  189000000 cycles:  300584380 heartbeat IPC: 0.52750 cumulative IPC: 0.38562 (Simulation time: 0 hr 8 min 3 sec) 
Heartbeat CPU  0 instructions:  190000000 cycles:  302578694 heartbeat IPC: 0.50143 cumulative IPC: 0.38662 (Simulation time: 0 hr 8 min 6 sec) 
Heartbeat CPU  0 instructions:  191000000 cycles:  304629428 heartbeat IPC: 0.48763 cumulative IPC: 0.38750 (Simulation time: 0 hr 8 min 9 sec) 
Heartbeat CPU  0 instructions:  192000000 cycles:  306620971 heartbeat IPC: 0.50212 cumulative IPC: 0.38846 (Simulation time: 0 hr 8 min 12 sec) 
Heartbeat CPU  0 instructions:  193000001 cycles:  308566132 heartbeat IPC: 0.51410 cumulative IPC: 0.38949 (Simulation time: 0 hr 8 min 14 sec) 
Heartbeat CPU  0 instructions:  194000000 cycles:  310583605 heartbeat IPC: 0.49567 cumulative IPC: 0.39038 (Simulation time: 0 hr 8 min 17 sec) 
Heartbeat CPU  0 instructions:  195000002 cycles:  312601835 heartbeat IPC: 0.49548 cumulative IPC: 0.39125 (Simulation time: 0 hr 8 min 20 sec) 
Heartbeat CPU  0 instructions:  196000000 cycles:  314491423 heartbeat IPC: 0.52921 cumulative IPC: 0.39231 (Simulation time: 0 hr 8 min 23 sec) 
Heartbeat CPU  0 instructions:  197000000 cycles:  316665461 heartbeat IPC: 0.45997 cumulative IPC: 0.39291 (Simulation time: 0 hr 8 min 26 sec) 
Heartbeat CPU  0 instructions:  198000003 cycles:  331009125 heartbeat IPC: 0.06972 cumulative IPC: 0.37516 (Simulation time: 0 hr 8 min 29 sec) 
Heartbeat CPU  0 instructions:  199000001 cycles:  334280835 heartbeat IPC: 0.30565 cumulative IPC: 0.37430 (Simulation time: 0 hr 8 min 32 sec) 
Heartbeat CPU  0 instructions:  200000000 cycles:  336277047 heartbeat IPC: 0.50095 cumulative IPC: 0.37525 (Simulation time: 0 hr 8 min 35 sec) 
Heartbeat CPU  0 instructions:  201000002 cycles:  338320781 heartbeat IPC: 0.48930 cumulative IPC: 0.37612 (Simulation time: 0 hr 8 min 38 sec) 
Heartbeat CPU  0 instructions:  202000003 cycles:  340320436 heartbeat IPC: 0.50009 cumulative IPC: 0.37704 (Simulation time: 0 hr 8 min 40 sec) 
Heartbeat CPU  0 instructions:  203000002 cycles:  342253128 heartbeat IPC: 0.51741 cumulative IPC: 0.37803 (Simulation time: 0 hr 8 min 43 sec) 
Heartbeat CPU  0 instructions:  204000000 cycles:  344334710 heartbeat IPC: 0.48040 cumulative IPC: 0.37881 (Simulation time: 0 hr 8 min 46 sec) 
Heartbeat CPU  0 instructions:  205000002 cycles:  346378515 heartbeat IPC: 0.48928 cumulative IPC: 0.37962 (Simulation time: 0 hr 8 min 49 sec) 
Heartbeat CPU  0 instructions:  206000000 cycles:  348256406 heartbeat IPC: 0.53251 cumulative IPC: 0.38066 (Simulation time: 0 hr 8 min 51 sec) 
Heartbeat CPU  0 instructions:  207000002 cycles:  350297110 heartbeat IPC: 0.49003 cumulative IPC: 0.38145 (Simulation time: 0 hr 8 min 54 sec) 
Heartbeat CPU  0 instructions:  208000000 cycles:  352324331 heartbeat IPC: 0.49329 cumulative IPC: 0.38225 (Simulation time: 0 hr 8 min 57 sec) 
Heartbeat CPU  0 instructions:  209000002 cycles:  354220100 heartbeat IPC: 0.52749 cumulative IPC: 0.38322 (Simulation time: 0 hr 9 min 0 sec) 
Heartbeat CPU  0 instructions:  210000000 cycles:  356195531 heartbeat IPC: 0.50622 cumulative IPC: 0.38407 (Simulation time: 0 hr 9 min 2 sec) 
Heartbeat CPU  0 instructions:  211000003 cycles:  358233526 heartbeat IPC: 0.49068 cumulative IPC: 0.38482 (Simulation time: 0 hr 9 min 5 sec) 
Heartbeat CPU  0 instructions:  212000000 cycles:  360209547 heartbeat IPC: 0.50607 cumulative IPC: 0.38565 (Simulation time: 0 hr 9 min 8 sec) 
Heartbeat CPU  0 instructions:  213000003 cycles:  362137249 heartbeat IPC: 0.51875 cumulative IPC: 0.38653 (Simulation time: 0 hr 9 min 11 sec) 
Heartbeat CPU  0 instructions:  214000003 cycles:  364170673 heartbeat IPC: 0.49178 cumulative IPC: 0.38725 (Simulation time: 0 hr 9 min 14 sec) 
Heartbeat CPU  0 instructions:  215000003 cycles:  366185140 heartbeat IPC: 0.49641 cumulative IPC: 0.38800 (Simulation time: 0 hr 9 min 16 sec) 
Heartbeat CPU  0 instructions:  216000000 cycles:  368065525 heartbeat IPC: 0.53180 cumulative IPC: 0.38890 (Simulation time: 0 hr 9 min 19 sec) 
Heartbeat CPU  0 instructions:  217000002 cycles:  370091646 heartbeat IPC: 0.49355 cumulative IPC: 0.38961 (Simulation time: 0 hr 9 min 22 sec) 
Heartbeat CPU  0 instructions:  218000001 cycles:  372155694 heartbeat IPC: 0.48448 cumulative IPC: 0.39026 (Simulation time: 0 hr 9 min 25 sec) 
Heartbeat CPU  0 instructions:  219000002 cycles:  374080811 heartbeat IPC: 0.51945 cumulative IPC: 0.39107 (Simulation time: 0 hr 9 min 27 sec) 
Heartbeat CPU  0 instructions:  220000000 cycles:  383113120 heartbeat IPC: 0.11071 cumulative IPC: 0.38299 (Simulation time: 0 hr 9 min 31 sec) 
Heartbeat CPU  0 instructions:  221000000 cycles:  391925426 heartbeat IPC: 0.11348 cumulative IPC: 0.37562 (Simulation time: 0 hr 9 min 34 sec) 
Heartbeat CPU  0 instructions:  222000000 cycles:  393926086 heartbeat IPC: 0.49984 cumulative IPC: 0.37638 (Simulation time: 0 hr 9 min 37 sec) 
Heartbeat CPU  0 instructions:  223000001 cycles:  395862204 heartbeat IPC: 0.51650 cumulative IPC: 0.37722 (Simulation time: 0 hr 9 min 39 sec) 
Heartbeat CPU  0 instructions:  224000000 cycles:  397914096 heartbeat IPC: 0.48735 cumulative IPC: 0.37791 (Simulation time: 0 hr 9 min 42 sec) 
Heartbeat CPU  0 instructions:  225000002 cycles:  399959637 heartbeat IPC: 0.48887 cumulative IPC: 0.37859 (Simulation time: 0 hr 9 min 45 sec) 
Heartbeat CPU  0 instructions:  226000002 cycles:  401853608 heartbeat IPC: 0.52799 cumulative IPC: 0.37944 (Simulation time: 0 hr 9 min 48 sec) 
Heartbeat CPU  0 instructions:  227000003 cycles:  403883706 heartbeat IPC: 0.49259 cumulative IPC: 0.38013 (Simulation time: 0 hr 9 min 50 sec) 
Heartbeat CPU  0 instructions:  228000000 cycles:  405918064 heartbeat IPC: 0.49155 cumulative IPC: 0.38081 (Simulation time: 0 hr 9 min 53 sec) 
Heartbeat CPU  0 instructions:  229000003 cycles:  407987219 heartbeat IPC: 0.48329 cumulative IPC: 0.38143 (Simulation time: 0 hr 9 min 56 sec) 
Heartbeat CPU  0 instructions:  230000000 cycles:  409932585 heartbeat IPC: 0.51404 cumulative IPC: 0.38219 (Simulation time: 0 hr 9 min 59 sec) 
Heartbeat CPU  0 instructions:  231000003 cycles:  411966554 heartbeat IPC: 0.49165 cumulative IPC: 0.38284 (Simulation time: 0 hr 10 min 1 sec) 
Heartbeat CPU  0 instructions:  232000000 cycles:  413945668 heartbeat IPC: 0.50528 cumulative IPC: 0.38355 (Simulation time: 0 hr 10 min 4 sec) 
Heartbeat CPU  0 instructions:  233000002 cycles:  415813330 heartbeat IPC: 0.53543 cumulative IPC: 0.38437 (Simulation time: 0 hr 10 min 7 sec) 
Heartbeat CPU  0 instructions:  234000001 cycles:  417814177 heartbeat IPC: 0.49979 cumulative IPC: 0.38503 (Simulation time: 0 hr 10 min 10 sec) 
Heartbeat CPU  0 instructions:  235000003 cycles:  419837209 heartbeat IPC: 0.49431 cumulative IPC: 0.38566 (Simulation time: 0 hr 10 min 12 sec) 
Heartbeat CPU  0 instructions:  236000000 cycles:  421705871 heartbeat IPC: 0.53514 cumulative IPC: 0.38646 (Simulation time: 0 hr 10 min 15 sec) 
Heartbeat CPU  0 instructions:  237000002 cycles:  423708066 heartbeat IPC: 0.49945 cumulative IPC: 0.38709 (Simulation time: 0 hr 10 min 18 sec) 
Heartbeat CPU  0 instructions:  238000002 cycles:  425762144 heartbeat IPC: 0.48684 cumulative IPC: 0.38767 (Simulation time: 0 hr 10 min 21 sec) 
Heartbeat CPU  0 instructions:  239000001 cycles:  427738965 heartbeat IPC: 0.50586 cumulative IPC: 0.38832 (Simulation time: 0 hr 10 min 23 sec) 
Heartbeat CPU  0 instructions:  240000000 cycles:  429661967 heartbeat IPC: 0.52002 cumulative IPC: 0.38903 (Simulation time: 0 hr 10 min 26 sec) 
Heartbeat CPU  0 instructions:  241000003 cycles:  431714648 heartbeat IPC: 0.48717 cumulative IPC: 0.38958 (Simulation time: 0 hr 10 min 29 sec) 
Heartbeat CPU  0 instructions:  242000002 cycles:  435548674 heartbeat IPC: 0.26082 cumulative IPC: 0.38823 (Simulation time: 0 hr 10 min 32 sec) 
Heartbeat CPU  0 instructions:  243000003 cycles:  449705553 heartbeat IPC: 0.07064 cumulative IPC: 0.37640 (Simulation time: 0 hr 10 min 35 sec) 
Heartbeat CPU  0 instructions:  244000000 cycles:  451758415 heartbeat IPC: 0.48712 cumulative IPC: 0.37699 (Simulation time: 0 hr 10 min 38 sec) 
Heartbeat CPU  0 instructions:  245000000 cycles:  453784210 heartbeat IPC: 0.49363 cumulative IPC: 0.37761 (Simulation time: 0 hr 10 min 41 sec) 
Heartbeat CPU  0 instructions:  246000000 cycles:  455658254 heartbeat IPC: 0.53361 cumulative IPC: 0.37837 (Simulation time: 0 hr 10 min 44 sec) 
Heartbeat CPU  0 instructions:  247000000 cycles:  457678499 heartbeat IPC: 0.49499 cumulative IPC: 0.37897 (Simulation time: 0 hr 10 min 47 sec) 
Heartbeat CPU  0 instructions:  248000000 cycles:  459732592 heartbeat IPC: 0.48683 cumulative IPC: 0.37954 (Simulation time: 0 hr 10 min 49 sec) 
Heartbeat CPU  0 instructions:  249000001 cycles:  461691960 heartbeat IPC: 0.51037 cumulative IPC: 0.38020 (Simulation time: 0 hr 10 min 52 sec) 
Heartbeat CPU  0 instructions:  250000003 cycles:  463649714 heartbeat IPC: 0.51079 cumulative IPC: 0.38085 (Simulation time: 0 hr 10 min 55 sec) 
Heartbeat CPU  0 instructions:  251000002 cycles:  465658572 heartbeat IPC: 0.49779 cumulative IPC: 0.38144 (Simulation time: 0 hr 10 min 58 sec) 
Heartbeat CPU  0 instructions:  252000000 cycles:  467679477 heartbeat IPC: 0.49483 cumulative IPC: 0.38202 (Simulation time: 0 hr 11 min 0 sec) 
Heartbeat CPU  0 instructions:  253000000 cycles:  469557339 heartbeat IPC: 0.53252 cumulative IPC: 0.38272 (Simulation time: 0 hr 11 min 3 sec) 
Heartbeat CPU  0 instructions:  254000002 cycles:  471545183 heartbeat IPC: 0.50306 cumulative IPC: 0.38332 (Simulation time: 0 hr 11 min 6 sec) 
Heartbeat CPU  0 instructions:  255000000 cycles:  473566603 heartbeat IPC: 0.49470 cumulative IPC: 0.38388 (Simulation time: 0 hr 11 min 9 sec) 
Heartbeat CPU  0 instructions:  256000000 cycles:  475438278 heartbeat IPC: 0.53428 cumulative IPC: 0.38457 (Simulation time: 0 hr 11 min 11 sec) 
Heartbeat CPU  0 instructions:  257000000 cycles:  477443600 heartbeat IPC: 0.49867 cumulative IPC: 0.38513 (Simulation time: 0 hr 11 min 14 sec) 
Heartbeat CPU  0 instructions:  258000003 cycles:  479491427 heartbeat IPC: 0.48832 cumulative IPC: 0.38565 (Simulation time: 0 hr 11 min 17 sec) 
Heartbeat CPU  0 instructions:  259000000 cycles:  481464943 heartbeat IPC: 0.50671 cumulative IPC: 0.38623 (Simulation time: 0 hr 11 min 20 sec) 
Heartbeat CPU  0 instructions:  260000000 cycles:  483394720 heartbeat IPC: 0.51819 cumulative IPC: 0.38684 (Simulation time: 0 hr 11 min 22 sec) 
Heartbeat CPU  0 instructions:  261000000 cycles:  485429847 heartbeat IPC: 0.49137 cumulative IPC: 0.38735 (Simulation time: 0 hr 11 min 25 sec) 
Heartbeat CPU  0 instructions:  262000002 cycles:  487445616 heartbeat IPC: 0.49609 cumulative IPC: 0.38788 (Simulation time: 0 hr 11 min 28 sec) 
Heartbeat CPU  0 instructions:  263000001 cycles:  489336695 heartbeat IPC: 0.52880 cumulative IPC: 0.38851 (Simulation time: 0 hr 11 min 31 sec) 
Heartbeat CPU  0 instructions:  264000000 cycles:  491390468 heartbeat IPC: 0.48691 cumulative IPC: 0.38899 (Simulation time: 0 hr 11 min 33 sec) 
Heartbeat CPU  0 instructions:  265000002 cycles:  502253423 heartbeat IPC: 0.09206 cumulative IPC: 0.38153 (Simulation time: 0 hr 11 min 37 sec) 
Heartbeat CPU  0 instructions:  266000001 cycles:  509154867 heartbeat IPC: 0.14490 cumulative IPC: 0.37782 (Simulation time: 0 hr 11 min 40 sec) 
Heartbeat CPU  0 instructions:  267000002 cycles:  511125354 heartbeat IPC: 0.50749 cumulative IPC: 0.37840 (Simulation time: 0 hr 11 min 43 sec) 
Heartbeat CPU  0 instructions:  268000000 cycles:  513201842 heartbeat IPC: 0.48158 cumulative IPC: 0.37888 (Simulation time: 0 hr 11 min 45 sec) 
Heartbeat CPU  0 instructions:  269000000 cycles:  515170462 heartbeat IPC: 0.50797 cumulative IPC: 0.37945 (Simulation time: 0 hr 11 min 48 sec) 
Heartbeat CPU  0 instructions:  270000003 cycles:  517127993 heartbeat IPC: 0.51085 cumulative IPC: 0.38003 (Simulation time: 0 hr 11 min 51 sec) 
Heartbeat CPU  0 instructions:  271000002 cycles:  519199723 heartbeat IPC: 0.48269 cumulative IPC: 0.38050 (Simulation time: 0 hr 11 min 54 sec) 
Heartbeat CPU  0 instructions:  272000000 cycles:  521232119 heartbeat IPC: 0.49203 cumulative IPC: 0.38100 (Simulation time: 0 hr 11 min 56 sec) 
Heartbeat CPU  0 instructions:  273000002 cycles:  523131584 heartbeat IPC: 0.52647 cumulative IPC: 0.38161 (Simulation time: 0 hr 11 min 59 sec) 
Heartbeat CPU  0 instructions:  274000000 cycles:  525155871 heartbeat IPC: 0.49400 cumulative IPC: 0.38211 (Simulation time: 0 hr 12 min 2 sec) 
Heartbeat CPU  0 instructions:  275000000 cycles:  527181874 heartbeat IPC: 0.49358 cumulative IPC: 0.38260 (Simulation time: 0 hr 12 min 5 sec) 
Heartbeat CPU  0 instructions:  276000000 cycles:  529054783 heartbeat IPC: 0.53393 cumulative IPC: 0.38322 (Simulation time: 0 hr 12 min 7 sec) 
Heartbeat CPU  0 instructions:  277000001 cycles:  531038787 heartbeat IPC: 0.50403 cumulative IPC: 0.38374 (Simulation time: 0 hr 12 min 10 sec) 
Heartbeat CPU  0 instructions:  278000000 cycles:  533101776 heartbeat IPC: 0.48473 cumulative IPC: 0.38419 (Simulation time: 0 hr 12 min 13 sec) 
Heartbeat CPU  0 instructions:  279000003 cycles:  535221147 heartbeat IPC: 0.47184 cumulative IPC: 0.38459 (Simulation time: 0 hr 12 min 16 sec) 
Heartbeat CPU  0 instructions:  280000000 cycles:  537230926 heartbeat IPC: 0.49757 cumulative IPC: 0.38508 (Simulation time: 0 hr 12 min 19 sec) 
Heartbeat CPU  0 instructions:  281000002 cycles:  539384826 heartbeat IPC: 0.46428 cumulative IPC: 0.38544 (Simulation time: 0 hr 12 min 21 sec) 
Heartbeat CPU  0 instructions:  282000002 cycles:  541407654 heartbeat IPC: 0.49436 cumulative IPC: 0.38591 (Simulation time: 0 hr 12 min 24 sec) 
Heartbeat CPU  0 instructions:  283000000 cycles:  543278125 heartbeat IPC: 0.53462 cumulative IPC: 0.38649 (Simulation time: 0 hr 12 min 27 sec) 
Heartbeat CPU  0 instructions:  284000000 cycles:  545316981 heartbeat IPC: 0.49047 cumulative IPC: 0.38694 (Simulation time: 0 hr 12 min 30 sec) 
Heartbeat CPU  0 instructions:  285000001 cycles:  547364424 heartbeat IPC: 0.48841 cumulative IPC: 0.38737 (Simulation time: 0 hr 12 min 32 sec) 
Heartbeat CPU  0 instructions:  286000003 cycles:  549295803 heartbeat IPC: 0.51777 cumulative IPC: 0.38790 (Simulation time: 0 hr 12 min 35 sec) 
Heartbeat CPU  0 instructions:  287000002 cycles:  554935115 heartbeat IPC: 0.17733 cumulative IPC: 0.38545 (Simulation time: 0 hr 12 min 38 sec) 
Heartbeat CPU  0 instructions:  288000000 cycles:  567073558 heartbeat IPC: 0.08238 cumulative IPC: 0.37805 (Simulation time: 0 hr 12 min 42 sec) 
Heartbeat CPU  0 instructions:  289000003 cycles:  569066281 heartbeat IPC: 0.50183 cumulative IPC: 0.37855 (Simulation time: 0 hr 12 min 44 sec) 
Heartbeat CPU  0 instructions:  290000003 cycles:  571001125 heartbeat IPC: 0.51684 cumulative IPC: 0.37908 (Simulation time: 0 hr 12 min 47 sec) 
Heartbeat CPU  0 instructions:  291000002 cycles:  573058983 heartbeat IPC: 0.48594 cumulative IPC: 0.37952 (Simulation time: 0 hr 12 min 50 sec) 
Heartbeat CPU  0 instructions:  292000000 cycles:  575093973 heartbeat IPC: 0.49140 cumulative IPC: 0.37997 (Simulation time: 0 hr 12 min 53 sec) 
Heartbeat CPU  0 instructions:  293000001 cycles:  576987832 heartbeat IPC: 0.52802 cumulative IPC: 0.38052 (Simulation time: 0 hr 12 min 55 sec) 
Heartbeat CPU  0 instructions:  294000000 cycles:  579000352 heartbeat IPC: 0.49689 cumulative IPC: 0.38098 (Simulation time: 0 hr 12 min 58 sec) 
Heartbeat CPU  0 instructions:  295000002 cycles:  581032022 heartbeat IPC: 0.49221 cumulative IPC: 0.38142 (Simulation time: 0 hr 13 min 1 sec) 
Heartbeat CPU  0 instructions:  296000000 cycles:  582957348 heartbeat IPC: 0.51939 cumulative IPC: 0.38194 (Simulation time: 0 hr 13 min 4 sec) 
Heartbeat CPU  0 instructions:  297000001 cycles:  584907336 heartbeat IPC: 0.51282 cumulative IPC: 0.38244 (Simulation time: 0 hr 13 min 6 sec) 
Heartbeat CPU  0 instructions:  298000003 cycles:  586953960 heartbeat IPC: 0.48861 cumulative IPC: 0.38286 (Simulation time: 0 hr 13 min 9 sec) 
Heartbeat CPU  0 instructions:  299000000 cycles:  588962448 heartbeat IPC: 0.49789 cumulative IPC: 0.38330 (Simulation time: 0 hr 13 min 12 sec) 
Heartbeat CPU  0 instructions:  300000000 cycles:  590867753 heartbeat IPC: 0.52485 cumulative IPC: 0.38382 (Simulation time: 0 hr 13 min 15 sec) 
Heartbeat CPU  0 instructions:  301000003 cycles:  592885438 heartbeat IPC: 0.49562 cumulative IPC: 0.38425 (Simulation time: 0 hr 13 min 17 sec) 
Heartbeat CPU  0 instructions:  302000000 cycles:  594896413 heartbeat IPC: 0.49727 cumulative IPC: 0.38468 (Simulation time: 0 hr 13 min 20 sec) 
Heartbeat CPU  0 instructions:  303000000 cycles:  596738587 heartbeat IPC: 0.54284 cumulative IPC: 0.38524 (Simulation time: 0 hr 13 min 23 sec) 
Heartbeat CPU  0 instructions:  304000000 cycles:  598733590 heartbeat IPC: 0.50125 cumulative IPC: 0.38567 (Simulation time: 0 hr 13 min 26 sec) 
Heartbeat CPU  0 instructions:  305000000 cycles:  600768890 heartbeat IPC: 0.49133 cumulative IPC: 0.38608 (Simulation time: 0 hr 13 min 28 sec) 
Heartbeat CPU  0 instructions:  306000002 cycles:  602691329 heartbeat IPC: 0.52017 cumulative IPC: 0.38656 (Simulation time: 0 hr 13 min 31 sec) 
Heartbeat CPU  0 instructions:  307000003 cycles:  604637728 heartbeat IPC: 0.51377 cumulative IPC: 0.38703 (Simulation time: 0 hr 13 min 34 sec) 
Heartbeat CPU  0 instructions:  308000000 cycles:  606686835 heartbeat IPC: 0.48802 cumulative IPC: 0.38741 (Simulation time: 0 hr 13 min 37 sec) 
Heartbeat CPU  0 instructions:  309000003 cycles:  608720384 heartbeat IPC: 0.49175 cumulative IPC: 0.38780 (Simulation time: 0 hr 13 min 40 sec) 
Heartbeat CPU  0 instructions:  310000002 cycles:  621377856 heartbeat IPC: 0.07900 cumulative IPC: 0.38072 (Simulation time: 0 hr 13 min 43 sec) 
Heartbeat CPU  0 instructions:  311000000 cycles:  626390252 heartbeat IPC: 0.19950 cumulative IPC: 0.37909 (Simulation time: 0 hr 13 min 46 sec) 
Heartbeat CPU  0 instructions:  312000000 cycles:  628448445 heartbeat IPC: 0.48586 cumulative IPC: 0.37948 (Simulation time: 0 hr 13 min 49 sec) 
Heartbeat CPU  0 instructions:  313000003 cycles:  630344753 heartbeat IPC: 0.52734 cumulative IPC: 0.37998 (Simulation time: 0 hr 13 min 52 sec) 
Heartbeat CPU  0 instructions:  314000000 cycles:  632347753 heartbeat IPC: 0.49925 cumulative IPC: 0.38041 (Simulation time: 0 hr 13 min 54 sec) 
Heartbeat CPU  0 instructions:  315000000 cycles:  634399722 heartbeat IPC: 0.48734 cumulative IPC: 0.38079 (Simulation time: 0 hr 13 min 57 sec) 
Heartbeat CPU  0 instructions:  316000000 cycles:  636355111 heartbeat IPC: 0.51141 cumulative IPC: 0.38124 (Simulation time: 0 hr 14 min 0 sec) 
Heartbeat CPU  0 instructions:  317000001 cycles:  638267674 heartbeat IPC: 0.52286 cumulative IPC: 0.38172 (Simulation time: 0 hr 14 min 3 sec) 
Heartbeat CPU  0 instructions:  318000002 cycles:  640299304 heartbeat IPC: 0.49222 cumulative IPC: 0.38211 (Simulation time: 0 hr 14 min 5 sec) 
Heartbeat CPU  0 instructions:  319000001 cycles:  642314462 heartbeat IPC: 0.49624 cumulative IPC: 0.38252 (Simulation time: 0 hr 14 min 8 sec) 
Heartbeat CPU  0 instructions:  320000000 cycles:  644209107 heartbeat IPC: 0.52780 cumulative IPC: 0.38300 (Simulation time: 0 hr 14 min 11 sec) 
Heartbeat CPU  0 instructions:  321000002 cycles:  646223572 heartbeat IPC: 0.49641 cumulative IPC: 0.38339 (Simulation time: 0 hr 14 min 14 sec) 
Heartbeat CPU  0 instructions:  322000001 cycles:  648233675 heartbeat IPC: 0.49749 cumulative IPC: 0.38379 (Simulation time: 0 hr 14 min 16 sec) 
Heartbeat CPU  0 instructions:  323000002 cycles:  650122407 heartbeat IPC: 0.52946 cumulative IPC: 0.38426 (Simulation time: 0 hr 14 min 19 sec) 
Heartbeat CPU  0 instructions:  324000000 cycles:  652096345 heartbeat IPC: 0.50660 cumulative IPC: 0.38468 (Simulation time: 0 hr 14 min 22 sec) 
Heartbeat CPU  0 instructions:  325000001 cycles:  654137527 heartbeat IPC: 0.48991 cumulative IPC: 0.38504 (Simulation time: 0 hr 14 min 25 sec) 
Heartbeat CPU  0 instructions:  326000002 cycles:  656079835 heartbeat IPC: 0.51485 cumulative IPC: 0.38547 (Simulation time: 0 hr 14 min 27 sec) 
Heartbeat CPU  0 instructions:  327000002 cycles:  658006811 heartbeat IPC: 0.51895 cumulative IPC: 0.38591 (Simulation time: 0 hr 14 min 30 sec) 
Heartbeat CPU  0 instructions:  328000000 cycles:  660033552 heartbeat IPC: 0.49340 cumulative IPC: 0.38628 (Simulation time: 0 hr 14 min 33 sec) 
Heartbeat CPU  0 instructions:  329000002 cycles:  662072650 heartbeat IPC: 0.49041 cumulative IPC: 0.38664 (Simulation time: 0 hr 14 min 36 sec) 
Heartbeat CPU  0 instructions:  330000001 cycles:  663962962 heartbeat IPC: 0.52901 cumulative IPC: 0.38709 (Simulation time: 0 hr 14 min 38 sec) 
Heartbeat CPU  0 instructions:  331000002 cycles:  666112525 heartbeat IPC: 0.46521 cumulative IPC: 0.38737 (Simulation time: 0 hr 14 min 41 sec) 
Heartbeat CPU  0 instructions:  332000000 cycles:  673496923 heartbeat IPC: 0.13542 cumulative IPC: 0.38429 (Simulation time: 0 hr 14 min 44 sec) 
Heartbeat CPU  0 instructions:  333000000 cycles:  683784330 heartbeat IPC: 0.09721 cumulative IPC: 0.37948 (Simulation time: 0 hr 14 min 48 sec) 
Heartbeat CPU  0 instructions:  334000001 cycles:  685779451 heartbeat IPC: 0.50122 cumulative IPC: 0.37988 (Simulation time: 0 hr 14 min 51 sec) 
Heartbeat CPU  0 instructions:  335000001 cycles:  687834055 heartbeat IPC: 0.48671 cumulative IPC: 0.38023 (Simulation time: 0 hr 14 min 53 sec) 
Heartbeat CPU  0 instructions:  336000000 cycles:  689839202 heartbeat IPC: 0.49872 cumulative IPC: 0.38061 (Simulation time: 0 hr 14 min 56 sec) 
Heartbeat CPU  0 instructions:  337000003 cycles:  691783701 heartbeat IPC: 0.51427 cumulative IPC: 0.38103 (Simulation time: 0 hr 14 min 59 sec) 
Heartbeat CPU  0 instructions:  338000002 cycles:  693811210 heartbeat IPC: 0.49322 cumulative IPC: 0.38140 (Simulation time: 0 hr 15 min 2 sec) 
Heartbeat CPU  0 instructions:  339000000 cycles:  695841831 heartbeat IPC: 0.49246 cumulative IPC: 0.38176 (Simulation time: 0 hr 15 min 4 sec) 
Heartbeat CPU  0 instructions:  340000000 cycles:  697719712 heartbeat IPC: 0.53252 cumulative IPC: 0.38221 (Simulation time: 0 hr 15 min 7 sec) 
Heartbeat CPU  0 instructions:  341000000 cycles:  699756517 heartbeat IPC: 0.49097 cumulative IPC: 0.38256 (Simulation time: 0 hr 15 min 10 sec) 
Heartbeat CPU  0 instructions:  342000001 cycles:  701793991 heartbeat IPC: 0.49080 cumulative IPC: 0.38291 (Simulation time: 0 hr 15 min 13 sec) 
Heartbeat CPU  0 instructions:  343000000 cycles:  703678500 heartbeat IPC: 0.53064 cumulative IPC: 0.38335 (Simulation time: 0 hr 15 min 15 sec) 
Heartbeat CPU  0 instructions:  344000000 cycles:  705663607 heartbeat IPC: 0.50375 cumulative IPC: 0.38372 (Simulation time: 0 hr 15 min 18 sec) 
Heartbeat CPU  0 instructions:  345000000 cycles:  707693213 heartbeat IPC: 0.49271 cumulative IPC: 0.38407 (Simulation time: 0 hr 15 min 21 sec) 
Heartbeat CPU  0 instructions:  346000001 cycles:  709701934 heartbeat IPC: 0.49783 cumulative IPC: 0.38443 (Simulation time: 0 hr 15 min 24 sec) 
Heartbeat CPU  0 instructions:  347000002 cycles:  711619376 heartbeat IPC: 0.52153 cumulative IPC: 0.38484 (Simulation time: 0 hr 15 min 26 sec) 
Heartbeat CPU  0 instructions:  348000000 cycles:  713651796 heartbeat IPC: 0.49202 cumulative IPC: 0.38518 (Simulation time: 0 hr 15 min 29 sec) 
Heartbeat CPU  0 instructions:  349000001 cycles:  715674254 heartbeat IPC: 0.49445 cumulative IPC: 0.38552 (Simulation time: 0 hr 15 min 32 sec) 
Heartbeat CPU  0 instructions:  350000003 cycles:  717546616 heartbeat IPC: 0.53409 cumulative IPC: 0.38595 (Simulation time: 0 hr 15 min 35 sec) 
Heartbeat CPU  0 instructions:  351000003 cycles:  719577332 heartbeat IPC: 0.49244 cumulative IPC: 0.38628 (Simulation time: 0 hr 15 min 37 sec) 
Heartbeat CPU  0 instructions:  352000000 cycles:  721627803 heartbeat IPC: 0.48769 cumulative IPC: 0.38660 (Simulation time: 0 hr 15 min 40 sec) 
Heartbeat CPU  0 instructions:  353000001 cycles:  723536056 heartbeat IPC: 0.52404 cumulative IPC: 0.38700 (Simulation time: 0 hr 15 min 43 sec) 
Heartbeat CPU  0 instructions:  354000003 cycles:  725743454 heartbeat IPC: 0.45302 cumulative IPC: 0.38722 (Simulation time: 0 hr 15 min 46 sec) 
Heartbeat CPU  0 instructions:  355000003 cycles:  740295314 heartbeat IPC: 0.06872 cumulative IPC: 0.38031 (Simulation time: 0 hr 15 min 49 sec) 
Heartbeat CPU  0 instructions:  356000000 cycles:  743511604 heartbeat IPC: 0.31092 cumulative IPC: 0.37998 (Simulation time: 0 hr 15 min 52 sec) 
Heartbeat CPU  0 instructions:  357000003 cycles:  745450197 heartbeat IPC: 0.51584 cumulative IPC: 0.38037 (Simulation time: 0 hr 15 min 55 sec) 
Heartbeat CPU  0 instructions:  358000002 cycles:  747508090 heartbeat IPC: 0.48593 cumulative IPC: 0.38069 (Simulation time: 0 hr 15 min 58 sec) 
Heartbeat CPU  0 instructions:  359000003 cycles:  749531859 heartbeat IPC: 0.49413 cumulative IPC: 0.38103 (Simulation time: 0 hr 16 min 1 sec) 
Heartbeat CPU  0 instructions:  360000000 cycles:  751409628 heartbeat IPC: 0.53255 cumulative IPC: 0.38144 (Simulation time: 0 hr 16 min 3 sec) 
Heartbeat CPU  0 instructions:  361000003 cycles:  753454938 heartbeat IPC: 0.48892 cumulative IPC: 0.38177 (Simulation time: 0 hr 16 min 6 sec) 
Heartbeat CPU  0 instructions:  362000000 cycles:  755537803 heartbeat IPC: 0.48011 cumulative IPC: 0.38206 (Simulation time: 0 hr 16 min 9 sec) 
Heartbeat CPU  0 instructions:  363000000 cycles:  757457869 heartbeat IPC: 0.52082 cumulative IPC: 0.38245 (Simulation time: 0 hr 16 min 12 sec) 
Heartbeat CPU  0 instructions:  364000000 cycles:  759438327 heartbeat IPC: 0.50493 cumulative IPC: 0.38280 (Simulation time: 0 hr 16 min 14 sec) 
Heartbeat CPU  0 instructions:  365000000 cycles:  761473100 heartbeat IPC: 0.49146 cumulative IPC: 0.38312 (Simulation time: 0 hr 16 min 17 sec) 
Heartbeat CPU  0 instructions:  366000001 cycles:  763472575 heartbeat IPC: 0.50013 cumulative IPC: 0.38346 (Simulation time: 0 hr 16 min 20 sec) 
Heartbeat CPU  0 instructions:  367000001 cycles:  765401267 heartbeat IPC: 0.51849 cumulative IPC: 0.38383 (Simulation time: 0 hr 16 min 23 sec) 
Heartbeat CPU  0 instructions:  368000000 cycles:  767460740 heartbeat IPC: 0.48556 cumulative IPC: 0.38414 (Simulation time: 0 hr 16 min 26 sec) 
Heartbeat CPU  0 instructions:  369000003 cycles:  769497456 heartbeat IPC: 0.49099 cumulative IPC: 0.38445 (Simulation time: 0 hr 16 min 28 sec) 
Heartbeat CPU  0 instructions:  370000000 cycles:  771387737 heartbeat IPC: 0.52902 cumulative IPC: 0.38484 (Simulation time: 0 hr 16 min 31 sec) 
Heartbeat CPU  0 instructions:  371000001 cycles:  773392091 heartbeat IPC: 0.49891 cumulative IPC: 0.38516 (Simulation time: 0 hr 16 min 34 sec) 
Heartbeat CPU  0 instructions:  372000000 cycles:  775438309 heartbeat IPC: 0.48871 cumulative IPC: 0.38546 (Simulation time: 0 hr 16 min 37 sec) 
Heartbeat CPU  0 instructions:  373000003 cycles:  777405455 heartbeat IPC: 0.50835 cumulative IPC: 0.38580 (Simulation time: 0 hr 16 min 39 sec) 
Heartbeat CPU  0 instructions:  374000001 cycles:  779369896 heartbeat IPC: 0.50905 cumulative IPC: 0.38614 (Simulation time: 0 hr 16 min 42 sec) 
Heartbeat CPU  0 instructions:  375000001 cycles:  781422892 heartbeat IPC: 0.48709 cumulative IPC: 0.38644 (Simulation time: 0 hr 16 min 45 sec) 
Heartbeat CPU  0 instructions:  376000000 cycles:  783433382 heartbeat IPC: 0.49739 cumulative IPC: 0.38675 (Simulation time: 0 hr 16 min 48 sec) 
Heartbeat CPU  0 instructions:  377000002 cycles:  792485988 heartbeat IPC: 0.11047 cumulative IPC: 0.38329 (Simulation time: 0 hr 16 min 51 sec) 
Heartbeat CPU  0 instructions:  378000003 cycles:  801103150 heartbeat IPC: 0.11605 cumulative IPC: 0.38014 (Simulation time: 0 hr 16 min 54 sec) 
Heartbeat CPU  0 instructions:  379000001 cycles:  803132150 heartbeat IPC: 0.49285 cumulative IPC: 0.38045 (Simulation time: 0 hr 16 min 57 sec) 
Heartbeat CPU  0 instructions:  380000000 cycles:  804991650 heartbeat IPC: 0.53778 cumulative IPC: 0.38085 (Simulation time: 0 hr 17 min 0 sec) 
Heartbeat CPU  0 instructions:  381000002 cycles:  807050014 heartbeat IPC: 0.48582 cumulative IPC: 0.38114 (Simulation time: 0 hr 17 min 3 sec) 
Heartbeat CPU  0 instructions:  382000002 cycles:  809235233 heartbeat IPC: 0.45762 cumulative IPC: 0.38137 (Simulation time: 0 hr 17 min 5 sec) 
Heartbeat CPU  0 instructions:  383000002 cycles:  811308236 heartbeat IPC: 0.48239 cumulative IPC: 0.38165 (Simulation time: 0 hr 17 min 8 sec) 
Heartbeat CPU  0 instructions:  384000000 cycles:  813252872 heartbeat IPC: 0.51423 cumulative IPC: 0.38200 (Simulation time: 0 hr 17 min 11 sec) 
Heartbeat CPU  0 instructions:  385000003 cycles:  815290105 heartbeat IPC: 0.49086 cumulative IPC: 0.38229 (Simulation time: 0 hr 17 min 14 sec) 
Heartbeat CPU  0 instructions:  386000002 cycles:  817280831 heartbeat IPC: 0.50233 cumulative IPC: 0.38261 (Simulation time: 0 hr 17 min 16 sec) 
Heartbeat CPU  0 instructions:  387000001 cycles:  819177193 heartbeat IPC: 0.52732 cumulative IPC: 0.38298 (Simulation time: 0 hr 17 min 19 sec) 
Heartbeat CPU  0 instructions:  388000000 cycles:  821217534 heartbeat IPC: 0.49011 cumulative IPC: 0.38327 (Simulation time: 0 hr 17 min 22 sec) 
Heartbeat CPU  0 instructions:  389000003 cycles:  823260396 heartbeat IPC: 0.48951 cumulative IPC: 0.38356 (Simulation time: 0 hr 17 min 25 sec) 
Heartbeat CPU  0 instructions:  390000003 cycles:  825136558 heartbeat IPC: 0.53300 cumulative IPC: 0.38393 (Simulation time: 0 hr 17 min 27 sec) 
Heartbeat CPU  0 instructions:  391000001 cycles:  827138496 heartbeat IPC: 0.49951 cumulative IPC: 0.38424 (Simulation time: 0 hr 17 min 30 sec) 
Heartbeat CPU  0 instructions:  392000000 cycles:  829144757 heartbeat IPC: 0.49844 cumulative IPC: 0.38454 (Simulation time: 0 hr 17 min 33 sec) 
Heartbeat CPU  0 instructions:  393000000 cycles:  831100787 heartbeat IPC: 0.51124 cumulative IPC: 0.38486 (Simulation time: 0 hr 17 min 36 sec) 
Heartbeat CPU  0 instructions:  394000000 cycles:  833052164 heartbeat IPC: 0.51246 cumulative IPC: 0.38519 (Simulation time: 0 hr 17 min 38 sec) 
Heartbeat CPU  0 instructions:  395000002 cycles:  835099022 heartbeat IPC: 0.48855 cumulative IPC: 0.38547 (Simulation time: 0 hr 17 min 41 sec) 
Heartbeat CPU  0 instructions:  396000000 cycles:  837169175 heartbeat IPC: 0.48306 cumulative IPC: 0.38573 (Simulation time: 0 hr 17 min 44 sec) 
Heartbeat CPU  0 instructions:  397000001 cycles:  839041305 heartbeat IPC: 0.53415 cumulative IPC: 0.38609 (Simulation time: 0 hr 17 min 47 sec) 
Heartbeat CPU  0 instructions:  398000003 cycles:  841072643 heartbeat IPC: 0.49229 cumulative IPC: 0.38637 (Simulation time: 0 hr 17 min 50 sec) 
Heartbeat CPU  0 instructions:  399000001 cycles:  844957250 heartbeat IPC: 0.25743 cumulative IPC: 0.38572 (Simulation time: 0 hr 17 min 53 sec) 
Heartbeat CPU  0 instructions:  400000000 cycles:  858757249 heartbeat IPC: 0.07246 cumulative IPC: 0.38024 (Simulation time: 0 hr 17 min 56 sec) 
Heartbeat CPU  0 instructions:  401000002 cycles:  860764510 heartbeat IPC: 0.49819 cumulative IPC: 0.38054 (Simulation time: 0 hr 17 min 59 sec) 
Heartbeat CPU  0 instructions:  402000001 cycles:  862791868 heartbeat IPC: 0.49325 cumulative IPC: 0.38083 (Simulation time: 0 hr 18 min 2 sec) 
Heartbeat CPU  0 instructions:  403000003 cycles:  864723402 heartbeat IPC: 0.51772 cumulative IPC: 0.38116 (Simulation time: 0 hr 18 min 4 sec) 
Heartbeat CPU  0 instructions:  404000000 cycles:  866671753 heartbeat IPC: 0.51325 cumulative IPC: 0.38149 (Simulation time: 0 hr 18 min 7 sec) 
Heartbeat CPU  0 instructions:  405000001 cycles:  868698309 heartbeat IPC: 0.49345 cumulative IPC: 0.38177 (Simulation time: 0 hr 18 min 10 sec) 
Heartbeat CPU  0 instructions:  406000002 cycles:  870719341 heartbeat IPC: 0.49480 cumulative IPC: 0.38206 (Simulation time: 0 hr 18 min 13 sec) 
Heartbeat CPU  0 instructions:  407000001 cycles:  872612912 heartbeat IPC: 0.52810 cumulative IPC: 0.38240 (Simulation time: 0 hr 18 min 16 sec) 
Heartbeat CPU  0 instructions:  408000000 cycles:  874650291 heartbeat IPC: 0.49083 cumulative IPC: 0.38267 (Simulation time: 0 hr 18 min 18 sec) 
Heartbeat CPU  0 instructions:  409000001 cycles:  876679019 heartbeat IPC: 0.49292 cumulative IPC: 0.38295 (Simulation time: 0 hr 18 min 21 sec) 
Heartbeat CPU  0 instructions:  410000003 cycles:  878573576 heartbeat IPC: 0.52783 cumulative IPC: 0.38329 (Simulation time: 0 hr 18 min 24 sec) 
Heartbeat CPU  0 instructions:  411000000 cycles:  880553170 heartbeat IPC: 0.50515 cumulative IPC: 0.38359 (Simulation time: 0 hr 18 min 27 sec) 
Heartbeat CPU  0 instructions:  412000000 cycles:  882596277 heartbeat IPC: 0.48945 cumulative IPC: 0.38386 (Simulation time: 0 hr 18 min 29 sec) 
Heartbeat CPU  0 instructions:  413000002 cycles:  884552048 heartbeat IPC: 0.51131 cumulative IPC: 0.38416 (Simulation time: 0 hr 18 min 32 sec) 
Heartbeat CPU  0 instructions:  414000003 cycles:  886480103 heartbeat IPC: 0.51866 cumulative IPC: 0.38448 (Simulation time: 0 hr 18 min 35 sec) 
Heartbeat CPU  0 instructions:  415000002 cycles:  888493416 heartbeat IPC: 0.49669 cumulative IPC: 0.38475 (Simulation time: 0 hr 18 min 38 sec) 
Heartbeat CPU  0 instructions:  416000000 cycles:  890499990 heartbeat IPC: 0.49836 cumulative IPC: 0.38503 (Simulation time: 0 hr 18 min 40 sec) 
Heartbeat CPU  0 instructions:  417000000 cycles:  892381410 heartbeat IPC: 0.53151 cumulative IPC: 0.38537 (Simulation time: 0 hr 18 min 43 sec) 
Heartbeat CPU  0 instructions:  418000003 cycles:  894397618 heartbeat IPC: 0.49598 cumulative IPC: 0.38564 (Simulation time: 0 hr 18 min 46 sec) 
Heartbeat CPU  0 instructions:  419000003 cycles:  896424622 heartbeat IPC: 0.49334 cumulative IPC: 0.38590 (Simulation time: 0 hr 18 min 49 sec) 
Heartbeat CPU  0 instructions:  420000000 cycles:  898340907 heartbeat IPC: 0.52184 cumulative IPC: 0.38622 (Simulation time: 0 hr 18 min 51 sec) 
Heartbeat CPU  0 instructions:  421000001 cycles:  900318974 heartbeat IPC: 0.50554 cumulative IPC: 0.38650 (Simulation time: 0 hr 18 min 54 sec) 
Heartbeat CPU  0 instructions:  422000002 cycles:  911197608 heartbeat IPC: 0.09192 cumulative IPC: 0.38269 (Simulation time: 0 hr 18 min 58 sec) 
Heartbeat CPU  0 instructions:  423000003 cycles:  918145154 heartbeat IPC: 0.14394 cumulative IPC: 0.38074 (Simulation time: 0 hr 19 min 1 sec) 
Heartbeat CPU  0 instructions:  424000000 cycles:  920051236 heartbeat IPC: 0.52463 cumulative IPC: 0.38106 (Simulation time: 0 hr 19 min 4 sec) 
Heartbeat CPU  0 instructions:  425000003 cycles:  922104919 heartbeat IPC: 0.48693 cumulative IPC: 0.38131 (Simulation time: 0 hr 19 min 6 sec) 
Heartbeat CPU  0 instructions:  426000001 cycles:  924108879 heartbeat IPC: 0.49901 cumulative IPC: 0.38159 (Simulation time: 0 hr 19 min 9 sec) 
Heartbeat CPU  0 instructions:  427000000 cycles:  925987202 heartbeat IPC: 0.53239 cumulative IPC: 0.38192 (Simulation time: 0 hr 19 min 12 sec) 
Heartbeat CPU  0 instructions:  428000000 cycles:  928001117 heartbeat IPC: 0.49655 cumulative IPC: 0.38219 (Simulation time: 0 hr 19 min 15 sec) 
Heartbeat CPU  0 instructions:  429000002 cycles:  930014744 heartbeat IPC: 0.49662 cumulative IPC: 0.38246 (Simulation time: 0 hr 19 min 17 sec) 
Heartbeat CPU  0 instructions:  430000000 cycles:  931949147 heartbeat IPC: 0.51695 cumulative IPC: 0.38276 (Simulation time: 0 hr 19 min 20 sec) 
Heartbeat CPU  0 instructions:  431000000 cycles:  933924189 heartbeat IPC: 0.50632 cumulative IPC: 0.38304 (Simulation time: 0 hr 19 min 23 sec) 
Heartbeat CPU  0 instructions:  432000000 cycles:  935988239 heartbeat IPC: 0.48448 cumulative IPC: 0.38328 (Simulation time: 0 hr 19 min 26 sec) 
Heartbeat CPU  0 instructions:  433000003 cycles:  938141645 heartbeat IPC: 0.46438 cumulative IPC: 0.38349 (Simulation time: 0 hr 19 min 28 sec) 
Heartbeat CPU  0 instructions:  434000002 cycles:  940039094 heartbeat IPC: 0.52702 cumulative IPC: 0.38380 (Simulation time: 0 hr 19 min 31 sec) 
Heartbeat CPU  0 instructions:  435000001 cycles:  942077507 heartbeat IPC: 0.49058 cumulative IPC: 0.38405 (Simulation time: 0 hr 19 min 34 sec) 
Heartbeat CPU  0 instructions:  436000000 cycles:  944096992 heartbeat IPC: 0.49518 cumulative IPC: 0.38430 (Simulation time: 0 hr 19 min 37 sec) 
Heartbeat CPU  0 instructions:  437000000 cycles:  945958770 heartbeat IPC: 0.53712 cumulative IPC: 0.38463 (Simulation time: 0 hr 19 min 40 sec) 
Heartbeat CPU  0 instructions:  438000000 cycles:  947971624 heartbeat IPC: 0.49681 cumulative IPC: 0.38489 (Simulation time: 0 hr 19 min 42 sec) 
Heartbeat CPU  0 instructions:  439000001 cycles:  949994445 heartbeat IPC: 0.49436 cumulative IPC: 0.38514 (Simulation time: 0 hr 19 min 45 sec) 
Heartbeat CPU  0 instructions:  440000000 cycles:  951932558 heartbeat IPC: 0.51597 cumulative IPC: 0.38543 (Simulation time: 0 hr 19 min 48 sec) 
Heartbeat CPU  0 instructions:  441000001 cycles:  953881109 heartbeat IPC: 0.51320 cumulative IPC: 0.38571 (Simulation time: 0 hr 19 min 51 sec) 
Heartbeat CPU  0 instructions:  442000001 cycles:  955885286 heartbeat IPC: 0.49896 cumulative IPC: 0.38596 (Simulation time: 0 hr 19 min 53 sec) 
Heartbeat CPU  0 instructions:  443000002 cycles:  957886540 heartbeat IPC: 0.49969 cumulative IPC: 0.38622 (Simulation time: 0 hr 19 min 56 sec) 
Heartbeat CPU  0 instructions:  444000000 cycles:  963486910 heartbeat IPC: 0.17856 cumulative IPC: 0.38492 (Simulation time: 0 hr 19 min 59 sec) 
Heartbeat CPU  0 instructions:  445000003 cycles:  975792052 heartbeat IPC: 0.08127 cumulative IPC: 0.38079 (Simulation time: 0 hr 20 min 3 sec) 
Heartbeat CPU  0 instructions:  446000000 cycles:  977815778 heartbeat IPC: 0.49414 cumulative IPC: 0.38105 (Simulation time: 0 hr 20 min 5 sec) 
Heartbeat CPU  0 instructions:  447000003 cycles:  979642901 heartbeat IPC: 0.54731 cumulative IPC: 0.38138 (Simulation time: 0 hr 20 min 8 sec) 
Heartbeat CPU  0 instructions:  448000000 cycles:  981628495 heartbeat IPC: 0.50363 cumulative IPC: 0.38165 (Simulation time: 0 hr 20 min 11 sec) 
Heartbeat CPU  0 instructions:  449000000 cycles:  983651804 heartbeat IPC: 0.49424 cumulative IPC: 0.38190 (Simulation time: 0 hr 20 min 14 sec) 
Heartbeat CPU  0 instructions:  450000000 cycles:  985545803 heartbeat IPC: 0.52798 cumulative IPC: 0.38220 (Simulation time: 0 hr 20 min 16 sec) 
Heartbeat CPU  0 instructions:  451000000 cycles:  987460805 heartbeat IPC: 0.52219 cumulative IPC: 0.38249 (Simulation time: 0 hr 20 min 19 sec) 
Heartbeat CPU  0 instructions:  452000000 cycles:  989455414 heartbeat IPC: 0.50135 cumulative IPC: 0.38275 (Simulation time: 0 hr 20 min 22 sec) 
Heartbeat CPU  0 instructions:  453000001 cycles:  991452607 heartbeat IPC: 0.50070 cumulative IPC: 0.38300 (Simulation time: 0 hr 20 min 25 sec) 
Heartbeat CPU  0 instructions:  454000001 cycles:  993288468 heartbeat IPC: 0.54470 cumulative IPC: 0.38332 (Simulation time: 0 hr 20 min 27 sec) 
Heartbeat CPU  0 instructions:  455000000 cycles:  995287192 heartbeat IPC: 0.50032 cumulative IPC: 0.38358 (Simulation time: 0 hr 20 min 30 sec) 
Heartbeat CPU  0 instructions:  456000000 cycles:  997290448 heartbeat IPC: 0.49919 cumulative IPC: 0.38383 (Simulation time: 0 hr 20 min 33 sec) 
Heartbeat CPU  0 instructions:  457000000 cycles:  999143121 heartbeat IPC: 0.53976 cumulative IPC: 0.38414 (Simulation time: 0 hr 20 min 36 sec) 
Heartbeat CPU  0 instructions:  458000003 cycles: 1001120361 heartbeat IPC: 0.50576 cumulative IPC: 0.38440 (Simulation time: 0 hr 20 min 39 sec) 
Heartbeat CPU  0 instructions:  459000000 cycles: 1003150196 heartbeat IPC: 0.49265 cumulative IPC: 0.38463 (Simulation time: 0 hr 20 min 41 sec) 
Heartbeat CPU  0 instructions:  460000000 cycles: 1005039237 heartbeat IPC: 0.52937 cumulative IPC: 0.38492 (Simulation time: 0 hr 20 min 44 sec) 
Heartbeat CPU  0 instructions:  461000000 cycles: 1006916335 heartbeat IPC: 0.53274 cumulative IPC: 0.38522 (Simulation time: 0 hr 20 min 47 sec) 
Heartbeat CPU  0 instructions:  462000003 cycles: 1008926360 heartbeat IPC: 0.49751 cumulative IPC: 0.38546 (Simulation time: 0 hr 20 min 50 sec) 
Heartbeat CPU  0 instructions:  463000003 cycles: 1010903912 heartbeat IPC: 0.50568 cumulative IPC: 0.38571 (Simulation time: 0 hr 20 min 52 sec) 
Heartbeat CPU  0 instructions:  464000000 cycles: 1012735570 heartbeat IPC: 0.54595 cumulative IPC: 0.38602 (Simulation time: 0 hr 20 min 55 sec) 
Heartbeat CPU  0 instructions:  465000000 cycles: 1014728149 heartbeat IPC: 0.50186 cumulative IPC: 0.38627 (Simulation time: 0 hr 20 min 58 sec) 
Heartbeat CPU  0 instructions:  466000000 cycles: 1016751542 heartbeat IPC: 0.49422 cumulative IPC: 0.38650 (Simulation time: 0 hr 21 min 1 sec) 
Heartbeat CPU  0 instructions:  467000000 cycles: 1029421344 heartbeat IPC: 0.07893 cumulative IPC: 0.38244 (Simulation time: 0 hr 21 min 4 sec) 
Heartbeat CPU  0 instructions:  468000000 cycles: 1034326882 heartbeat IPC: 0.20385 cumulative IPC: 0.38153 (Simulation time: 0 hr 21 min 7 sec) 
Heartbeat CPU  0 instructions:  469000002 cycles: 1036337464 heartbeat IPC: 0.49737 cumulative IPC: 0.38177 (Simulation time: 0 hr 21 min 10 sec) 
Heartbeat CPU  0 instructions:  470000000 cycles: 1038263230 heartbeat IPC: 0.51927 cumulative IPC: 0.38204 (Simulation time: 0 hr 21 min 13 sec) 
Heartbeat CPU  0 instructions:  471000002 cycles: 1040145045 heartbeat IPC: 0.53140 cumulative IPC: 0.38233 (Simulation time: 0 hr 21 min 15 sec) 
Heartbeat CPU  0 instructions:  472000000 cycles: 1042151666 heartbeat IPC: 0.49835 cumulative IPC: 0.38257 (Simulation time: 0 hr 21 min 18 sec) 
Heartbeat CPU  0 instructions:  473000003 cycles: 1044180696 heartbeat IPC: 0.49285 cumulative IPC: 0.38280 (Simulation time: 0 hr 21 min 21 sec) 
Heartbeat CPU  0 instructions:  474000002 cycles: 1046008460 heartbeat IPC: 0.54712 cumulative IPC: 0.38311 (Simulation time: 0 hr 21 min 24 sec) 
Heartbeat CPU  0 instructions:  475000003 cycles: 1048027018 heartbeat IPC: 0.49540 cumulative IPC: 0.38334 (Simulation time: 0 hr 21 min 26 sec) 
Heartbeat CPU  0 instructions:  476000000 cycles: 1050014786 heartbeat IPC: 0.50308 cumulative IPC: 0.38359 (Simulation time: 0 hr 21 min 29 sec) 
Heartbeat CPU  0 instructions:  477000003 cycles: 1051880239 heartbeat IPC: 0.53606 cumulative IPC: 0.38387 (Simulation time: 0 hr 21 min 32 sec) 
Heartbeat CPU  0 instructions:  478000003 cycles: 1053866348 heartbeat IPC: 0.50350 cumulative IPC: 0.38412 (Simulation time: 0 hr 21 min 35 sec) 
Heartbeat CPU  0 instructions:  479000000 cycles: 1055896352 heartbeat IPC: 0.49261 cumulative IPC: 0.38434 (Simulation time: 0 hr 21 min 37 sec) 
Heartbeat CPU  0 instructions:  480000000 cycles: 1057857309 heartbeat IPC: 0.50996 cumulative IPC: 0.38459 (Simulation time: 0 hr 21 min 40 sec) 
Heartbeat CPU  0 instructions:  481000000 cycles: 1059726261 heartbeat IPC: 0.53506 cumulative IPC: 0.38487 (Simulation time: 0 hr 21 min 43 sec) 
Heartbeat CPU  0 instructions:  482000000 cycles: 1061752119 heartbeat IPC: 0.49362 cumulative IPC: 0.38510 (Simulation time: 0 hr 21 min 46 sec) 
Heartbeat CPU  0 instructions:  483000001 cycles: 1063866199 heartbeat IPC: 0.47302 cumulative IPC: 0.38528 (Simulation time: 0 hr 21 min 49 sec) 
Heartbeat CPU  0 instructions:  484000000 cycles: 1065820373 heartbeat IPC: 0.51172 cumulative IPC: 0.38553 (Simulation time: 0 hr 21 min 51 sec) 
Heartbeat CPU  0 instructions:  485000001 cycles: 1067955559 heartbeat IPC: 0.46834 cumulative IPC: 0.38571 (Simulation time: 0 hr 21 min 54 sec) 
Heartbeat CPU  0 instructions:  486000001 cycles: 1069972247 heartbeat IPC: 0.49586 cumulative IPC: 0.38593 (Simulation time: 0 hr 21 min 57 sec) 
Heartbeat CPU  0 instructions:  487000000 cycles: 1071845897 heartbeat IPC: 0.53372 cumulative IPC: 0.38621 (Simulation time: 0 hr 22 min 0 sec) 
Heartbeat CPU  0 instructions:  488000000 cycles: 1073802985 heartbeat IPC: 0.51096 cumulative IPC: 0.38645 (Simulation time: 0 hr 22 min 2 sec) 
Heartbeat CPU  0 instructions:  489000001 cycles: 1081242726 heartbeat IPC: 0.13441 cumulative IPC: 0.38460 (Simulation time: 0 hr 22 min 5 sec) 
Heartbeat CPU  0 instructions:  490000003 cycles: 1091470999 heartbeat IPC: 0.09777 cumulative IPC: 0.38172 (Simulation time: 0 hr 22 min 9 sec) 
Heartbeat CPU  0 instructions:  491000001 cycles: 1093339137 heartbeat IPC: 0.53529 cumulative IPC: 0.38200 (Simulation time: 0 hr 22 min 12 sec) 
Heartbeat CPU  0 instructions:  492000000 cycles: 1095396702 heartbeat IPC: 0.48601 cumulative IPC: 0.38221 (Simulation time: 0 hr 22 min 14 sec) 
Heartbeat CPU  0 instructions:  493000000 cycles: 1097412002 heartbeat IPC: 0.49620 cumulative IPC: 0.38244 (Simulation time: 0 hr 22 min 17 sec) 
Heartbeat CPU  0 instructions:  494000002 cycles: 1099290083 heartbeat IPC: 0.53246 cumulative IPC: 0.38271 (Simulation time: 0 hr 22 min 20 sec) 
Heartbeat CPU  0 instructions:  495000000 cycles: 1101308674 heartbeat IPC: 0.49539 cumulative IPC: 0.38293 (Simulation time: 0 hr 22 min 23 sec) 
Heartbeat CPU  0 instructions:  496000000 cycles: 1103335116 heartbeat IPC: 0.49348 cumulative IPC: 0.38315 (Simulation time: 0 hr 22 min 25 sec) 
Heartbeat CPU  0 instructions:  497000001 cycles: 1105251939 heartbeat IPC: 0.52170 cumulative IPC: 0.38340 (Simulation time: 0 hr 22 min 28 sec) 
Heartbeat CPU  0 instructions:  498000001 cycles: 1107180261 heartbeat IPC: 0.51859 cumulative IPC: 0.38365 (Simulation time: 0 hr 22 min 31 sec) 
Heartbeat CPU  0 instructions:  499000001 cycles: 1109202355 heartbeat IPC: 0.49454 cumulative IPC: 0.38387 (Simulation time: 0 hr 22 min 34 sec) 
Heartbeat CPU  0 instructions:  500000000 cycles: 1111156968 heartbeat IPC: 0.51161 cumulative IPC: 0.38411 (Simulation time: 0 hr 22 min 36 sec) 
Heartbeat CPU  0 instructions:  501000002 cycles: 1113016409 heartbeat IPC: 0.53780 cumulative IPC: 0.38438 (Simulation time: 0 hr 22 min 39 sec) 
Heartbeat CPU  0 instructions:  502000002 cycles: 1115028194 heartbeat IPC: 0.49707 cumulative IPC: 0.38460 (Simulation time: 0 hr 22 min 42 sec) 
Heartbeat CPU  0 instructions:  503000002 cycles: 1117027843 heartbeat IPC: 0.50009 cumulative IPC: 0.38482 (Simulation time: 0 hr 22 min 45 sec) 
Heartbeat CPU  0 instructions:  504000000 cycles: 1118895231 heartbeat IPC: 0.53551 cumulative IPC: 0.38509 (Simulation time: 0 hr 22 min 47 sec) 
Heartbeat CPU  0 instructions:  505000002 cycles: 1120888512 heartbeat IPC: 0.50169 cumulative IPC: 0.38531 (Simulation time: 0 hr 22 min 50 sec) 
Heartbeat CPU  0 instructions:  506000002 cycles: 1122931468 heartbeat IPC: 0.48949 cumulative IPC: 0.38551 (Simulation time: 0 hr 22 min 53 sec) 
Heartbeat CPU  0 instructions:  507000001 cycles: 1124836088 heartbeat IPC: 0.52504 cumulative IPC: 0.38577 (Simulation time: 0 hr 22 min 56 sec) 
Heartbeat CPU  0 instructions:  508000000 cycles: 1126774431 heartbeat IPC: 0.51590 cumulative IPC: 0.38600 (Simulation time: 0 hr 22 min 58 sec) 
Heartbeat CPU  0 instructions:  509000000 cycles: 1128817303 heartbeat IPC: 0.48951 cumulative IPC: 0.38620 (Simulation time: 0 hr 23 min 1 sec) 
Heartbeat CPU  0 instructions:  510000003 cycles: 1130797404 heartbeat IPC: 0.50503 cumulative IPC: 0.38643 (Simulation time: 0 hr 23 min 4 sec) 
Heartbeat CPU  0 instructions:  511000001 cycles: 1132976423 heartbeat IPC: 0.45892 cumulative IPC: 0.38657 (Simulation time: 0 hr 23 min 7 sec) 
Heartbeat CPU  0 instructions:  512000000 cycles: 1147265106 heartbeat IPC: 0.06999 cumulative IPC: 0.38238 (Simulation time: 0 hr 23 min 10 sec) 
Heartbeat CPU  0 instructions:  513000000 cycles: 1150433780 heartbeat IPC: 0.31559 cumulative IPC: 0.38218 (Simulation time: 0 hr 23 min 13 sec) 
Heartbeat CPU  0 instructions:  514000001 cycles: 1152338627 heartbeat IPC: 0.52498 cumulative IPC: 0.38243 (Simulation time: 0 hr 23 min 16 sec) 
Heartbeat CPU  0 instructions:  515000002 cycles: 1154388992 heartbeat IPC: 0.48772 cumulative IPC: 0.38263 (Simulation time: 0 hr 23 min 19 sec) 
Heartbeat CPU  0 instructions:  516000000 cycles: 1156418077 heartbeat IPC: 0.49283 cumulative IPC: 0.38284 (Simulation time: 0 hr 23 min 22 sec) 
Heartbeat CPU  0 instructions:  517000002 cycles: 1158353212 heartbeat IPC: 0.51676 cumulative IPC: 0.38307 (Simulation time: 0 hr 23 min 24 sec) 
Heartbeat CPU  0 instructions:  518000000 cycles: 1160312271 heartbeat IPC: 0.51045 cumulative IPC: 0.38330 (Simulation time: 0 hr 23 min 27 sec) 
Heartbeat CPU  0 instructions:  519000000 cycles: 1162340942 heartbeat IPC: 0.49293 cumulative IPC: 0.38351 (Simulation time: 0 hr 23 min 30 sec) 
Heartbeat CPU  0 instructions:  520000000 cycles: 1164334989 heartbeat IPC: 0.50149 cumulative IPC: 0.38372 (Simulation time: 0 hr 23 min 33 sec) 
Heartbeat CPU  0 instructions:  521000003 cycles: 1166216207 heartbeat IPC: 0.53157 cumulative IPC: 0.38397 (Simulation time: 0 hr 23 min 36 sec) 
Heartbeat CPU  0 instructions:  522000001 cycles: 1168262467 heartbeat IPC: 0.48870 cumulative IPC: 0.38417 (Simulation time: 0 hr 23 min 38 sec) 
Heartbeat CPU  0 instructions:  523000001 cycles: 1170320732 heartbeat IPC: 0.48585 cumulative IPC: 0.38436 (Simulation time: 0 hr 23 min 41 sec) 
Heartbeat CPU  0 instructions:  524000000 cycles: 1172205954 heartbeat IPC: 0.53044 cumulative IPC: 0.38461 (Simulation time: 0 hr 23 min 44 sec) 
Heartbeat CPU  0 instructions:  525000000 cycles: 1174227135 heartbeat IPC: 0.49476 cumulative IPC: 0.38481 (Simulation time: 0 hr 23 min 47 sec) 
Heartbeat CPU  0 instructions:  526000002 cycles: 1176245567 heartbeat IPC: 0.49544 cumulative IPC: 0.38501 (Simulation time: 0 hr 23 min 49 sec) 
Heartbeat CPU  0 instructions:  527000002 cycles: 1178205018 heartbeat IPC: 0.51035 cumulative IPC: 0.38523 (Simulation time: 0 hr 23 min 52 sec) 
Heartbeat CPU  0 instructions:  528000000 cycles: 1180131207 heartbeat IPC: 0.51916 cumulative IPC: 0.38547 (Simulation time: 0 hr 23 min 55 sec) 
[...]
Heartbeat CPU  0 instructions:  566000000 cycles: 1283371234 heartbeat IPC: 0.49822 cumulative IPC: 0.38399 (Simulation time: 0 hr 25 min 50 sec) 
Heartbeat CPU  0 instructions:  567000003 cycles: 1285338622 heartbeat IPC: 0.50829 cumulative IPC: 0.38419 (Simulation time: 0 hr 25 min 53 sec) 
Heartbeat CPU  0 instructions:  568000000 cycles: 1287241948 heartbeat IPC: 0.52539 cumulative IPC: 0.38441 (Simulation time: 0 hr 25 min 56 sec) 
Heartbeat CPU  0 instructions:  569000000 cycles: 1289274270 heartbeat IPC: 0.49205 cumulative IPC: 0.38459 (Simulation time: 0 hr 25 min 59 sec) 
Heartbeat CPU  0 instructions:  570000002 cycles: 1291276197 heartbeat IPC: 0.49952 cumulative IPC: 0.38478 (Simulation time: 0 hr 26 min 2 sec) 
Heartbeat CPU  0 instructions:  571000000 cycles: 1293141266 heartbeat IPC: 0.53617 cumulative IPC: 0.38501 (Simulation time: 0 hr 26 min 5 sec) 
Heartbeat CPU  0 instructions:  572000000 cycles: 1295149561 heartbeat IPC: 0.49793 cumulative IPC: 0.38519 (Simulation time: 0 hr 26 min 8 sec) 
Heartbeat CPU  0 instructions:  573000002 cycles: 1297176246 heartbeat IPC: 0.49342 cumulative IPC: 0.38537 (Simulation time: 0 hr 26 min 11 sec) 
Heartbeat CPU  0 instructions:  574000001 cycles: 1299119988 heartbeat IPC: 0.51447 cumulative IPC: 0.38558 (Simulation time: 0 hr 26 min 14 sec) 
Heartbeat CPU  0 instructions:  575000003 cycles: 1301096963 heartbeat IPC: 0.50582 cumulative IPC: 0.38577 (Simulation time: 0 hr 26 min 17 sec) 
Heartbeat CPU  0 instructions:  576000000 cycles: 1303126386 heartbeat IPC: 0.49275 cumulative IPC: 0.38594 (Simulation time: 0 hr 26 min 20 sec) 
Heartbeat CPU  0 instructions:  577000002 cycles: 1305145198 heartbeat IPC: 0.49534 cumulative IPC: 0.38612 (Simulation time: 0 hr 26 min 23 sec) 
Heartbeat CPU  0 instructions:  578000002 cycles: 1307048174 heartbeat IPC: 0.52549 cumulative IPC: 0.38634 (Simulation time: 0 hr 26 min 26 sec) 
Heartbeat CPU  0 instructions:  579000003 cycles: 1318013801 heartbeat IPC: 0.09119 cumulative IPC: 0.38375 (Simulation time: 0 hr 26 min 29 sec) 
Heartbeat CPU  0 instructions:  580000000 cycles: 1324858799 heartbeat IPC: 0.14609 cumulative IPC: 0.38245 (Simulation time: 0 hr 26 min 32 sec) 
Heartbeat CPU  0 instructions:  581000003 cycles: 1326691821 heartbeat IPC: 0.54555 cumulative IPC: 0.38269 (Simulation time: 0 hr 26 min 35 sec) 
Heartbeat CPU  0 instructions:  582000001 cycles: 1328679844 heartbeat IPC: 0.50301 cumulative IPC: 0.38288 (Simulation time: 0 hr 26 min 38 sec) 
Heartbeat CPU  0 instructions:  583000002 cycles: 1330674869 heartbeat IPC: 0.50125 cumulative IPC: 0.38306 (Simulation time: 0 hr 26 min 40 sec) 
Heartbeat CPU  0 instructions:  584000000 cycles: 1332580457 heartbeat IPC: 0.52477 cumulative IPC: 0.38328 (Simulation time: 0 hr 26 min 43 sec) 
Heartbeat CPU  0 instructions:  585000003 cycles: 1334538734 heartbeat IPC: 0.51065 cumulative IPC: 0.38348 (Simulation time: 0 hr 26 min 46 sec) 
Heartbeat CPU  0 instructions:  586000003 cycles: 1336703704 heartbeat IPC: 0.46190 cumulative IPC: 0.38361 (Simulation time: 0 hr 26 min 49 sec) 
Heartbeat CPU  0 instructions:  587000001 cycles: 1338852424 heartbeat IPC: 0.46539 cumulative IPC: 0.38375 (Simulation time: 0 hr 26 min 51 sec) 
Heartbeat CPU  0 instructions:  588000000 cycles: 1340707393 heartbeat IPC: 0.53909 cumulative IPC: 0.38397 (Simulation time: 0 hr 26 min 54 sec) 
Heartbeat CPU  0 instructions:  589000000 cycles: 1342719021 heartbeat IPC: 0.49711 cumulative IPC: 0.38415 (Simulation time: 0 hr 26 min 57 sec) 
Heartbeat CPU  0 instructions:  590000001 cycles: 1344711527 heartbeat IPC: 0.50188 cumulative IPC: 0.38434 (Simulation time: 0 hr 27 min 0 sec) 
Heartbeat CPU  0 instructions:  591000000 cycles: 1346540652 heartbeat IPC: 0.54671 cumulative IPC: 0.38457 (Simulation time: 0 hr 27 min 2 sec) 
Heartbeat CPU  0 instructions:  592000000 cycles: 1348512770 heartbeat IPC: 0.50707 cumulative IPC: 0.38476 (Simulation time: 0 hr 27 min 5 sec) 
Heartbeat CPU  0 instructions:  593000002 cycles: 1350526142 heartbeat IPC: 0.49668 cumulative IPC: 0.38493 (Simulation time: 0 hr 27 min 8 sec) 
Heartbeat CPU  0 instructions:  594000002 cycles: 1352431313 heartbeat IPC: 0.52489 cumulative IPC: 0.38514 (Simulation time: 0 hr 27 min 11 sec) 
Heartbeat CPU  0 instructions:  595000003 cycles: 1354348170 heartbeat IPC: 0.52169 cumulative IPC: 0.38535 (Simulation time: 0 hr 27 min 14 sec) 
Heartbeat CPU  0 instructions:  596000000 cycles: 1356395939 heartbeat IPC: 0.48833 cumulative IPC: 0.38551 (Simulation time: 0 hr 27 min 16 sec) 
Heartbeat CPU  0 instructions:  597000003 cycles: 1358385385 heartbeat IPC: 0.50265 cumulative IPC: 0.38569 (Simulation time: 0 hr 27 min 19 sec) 
Heartbeat CPU  0 instructions:  598000000 cycles: 1360220941 heartbeat IPC: 0.54479 cumulative IPC: 0.38592 (Simulation time: 0 hr 27 min 22 sec) 
Heartbeat CPU  0 instructions:  599000000 cycles: 1362257685 heartbeat IPC: 0.49098 cumulative IPC: 0.38608 (Simulation time: 0 hr 27 min 25 sec) 
Heartbeat CPU  0 instructions:  600000000 cycles: 1364304139 heartbeat IPC: 0.48865 cumulative IPC: 0.38625 (Simulation time: 0 hr 27 min 27 sec) 
Finished CPU 0 instructions: 500000000 cycles: 1294514497 cumulative IPC: 0.38625 (Simulation time: 0 hr 27 min 27 sec) 

ChampSim completed all CPUs

[ROI Statistics]
Core_0_instructions 500000000
Core_0_cycles 1294514497
Core_0_IPC 0.38625

Core_0_branch_prediction_accuracy 99.17161
Core_0_branch_MPKI 0.01066
Core_0_average_ROB_occupancy_at_mispredict 253.69657

Core_0_L1D_total_access 254441810
Core_0_L1D_total_hit 250451767
Core_0_L1D_total_miss 3990043
Core_0_L1D_loads 171443641
Core_0_L1D_load_hit 168206135
Core_0_L1D_load_miss 3237506
Core_0_L1D_RFOs 82998169
Core_0_L1D_RFO_hit 82245632
Core_0_L1D_RFO_miss 752537
Core_0_L1D_prefetches 0
Core_0_L1D_prefetch_hit 0
Core_0_L1D_prefetch_miss 0
Core_0_L1D_writebacks 0
Core_0_L1D_writeback_hit 0
Core_0_L1D_writeback_miss 0
Core_0_L1D_prefetch_requested 0
Core_0_L1D_prefetch_dropped 0
Core_0_L1D_prefetch_issued 0
Core_0_L1D_prefetch_filled 0
Core_0_L1D_prefetch_useful 0
Core_0_L1D_prefetch_useless 0
Core_0_L1D_prefetch_late 0
Core_0_L1D_average_miss_latency 112.64988

Core_0_L1D_rq_access 255814489
Core_0_L1D_rq_forward 0
Core_0_L1D_rq_merged 83945267
Core_0_L1D_rq_to_cache 171476103
Core_0_L1D_rq_full 0

Core_0_L1D_wq_access 84479085
Core_0_L1D_wq_forward 393119
Core_0_L1D_wq_merged 1198515
Core_0_L1D_wq_to_cache 83280570
Core_0_L1D_wq_full 0

Core_0_L1D_pq_access 0
Core_0_L1D_pq_forward 0
Core_0_L1D_pq_merged 0
Core_0_L1D_pq_to_cache 0
Core_0_L1D_pq_full 0

Core_0_L1D_acc_epochs 703820
Core_0_L1D_acc_level_0 703820
Core_0_L1D_acc_level_1 0
Core_0_L1D_acc_level_2 0
Core_0_L1D_acc_level_3 0
Core_0_L1D_acc_level_4 0
Core_0_L1D_acc_level_5 0
Core_0_L1D_acc_level_6 0
Core_0_L1D_acc_level_7 0
Core_0_L1D_acc_level_8 0
Core_0_L1D_acc_level_9 0

Core_0_L1I_total_access 133726111
Core_0_L1I_total_hit 133726111
Core_0_L1I_total_miss 0
Core_0_L1I_loads 133726111
Core_0_L1I_load_hit 133726111
Core_0_L1I_load_miss 0
Core_0_L1I_RFOs 0
Core_0_L1I_RFO_hit 0
Core_0_L1I_RFO_miss 0
Core_0_L1I_prefetches 0
Core_0_L1I_prefetch_hit 0
Core_0_L1I_prefetch_miss 0
Core_0_L1I_writebacks 0
Core_0_L1I_writeback_hit 0
Core_0_L1I_writeback_miss 0
Core_0_L1I_prefetch_requested 0
Core_0_L1I_prefetch_dropped 0
Core_0_L1I_prefetch_issued 0
Core_0_L1I_prefetch_filled 0
Core_0_L1I_prefetch_useful 0
Core_0_L1I_prefetch_useless 0
Core_0_L1I_prefetch_late 0
Core_0_L1I_average_miss_latency -nan

Core_0_L1I_rq_access 500000000
Core_0_L1I_rq_forward 0
Core_0_L1I_rq_merged 366273889
Core_0_L1I_rq_to_cache 133726111
Core_0_L1I_rq_full 0

Core_0_L1I_wq_access 0
Core_0_L1I_wq_forward 0
Core_0_L1I_wq_merged 0
Core_0_L1I_wq_to_cache 0
Core_0_L1I_wq_full 0

Core_0_L1I_pq_access 0
Core_0_L1I_pq_forward 0
Core_0_L1I_pq_merged 0
Core_0_L1I_pq_to_cache 0
Core_0_L1I_pq_full 0

Core_0_L1I_acc_epochs 703820
Core_0_L1I_acc_level_0 703820
Core_0_L1I_acc_level_1 0
Core_0_L1I_acc_level_2 0
Core_0_L1I_acc_level_3 0
Core_0_L1I_acc_level_4 0
Core_0_L1I_acc_level_5 0
Core_0_L1I_acc_level_6 0
Core_0_L1I_acc_level_7 0
Core_0_L1I_acc_level_8 0
Core_0_L1I_acc_level_9 0

Core_0_L2C_total_access 6197274
Core_0_L2C_total_hit 3602042
Core_0_L2C_total_miss 2595232
Core_0_L2C_loads 3237506
Core_0_L2C_load_hit 2815548
Core_0_L2C_load_miss 421958
Core_0_L2C_RFOs 752537
Core_0_L2C_RFO_hit 915
Core_0_L2C_RFO_miss 751622
Core_0_L2C_prefetches 1420900
Core_0_L2C_prefetch_hit 53
Core_0_L2C_prefetch_miss 1420847
Core_0_L2C_writebacks 786331
Core_0_L2C_writeback_hit 785526
Core_0_L2C_writeback_miss 805
Core_0_L2C_prefetch_requested 2503209
Core_0_L2C_prefetch_dropped 0
Core_0_L2C_prefetch_issued 2503209
Core_0_L2C_prefetch_filled 1732795
Core_0_L2C_prefetch_useful 1717570
Core_0_L2C_prefetch_useless 14957
Core_0_L2C_prefetch_late 30
Core_0_L2C_average_miss_latency 210.99739

Core_0_L2C_rq_access 3990043
Core_0_L2C_rq_forward 0
Core_0_L2C_rq_merged 0
Core_0_L2C_rq_to_cache 3990043
Core_0_L2C_rq_full 0

Core_0_L2C_wq_access 786331
Core_0_L2C_wq_forward 0
Core_0_L2C_wq_merged 0
Core_0_L2C_wq_to_cache 786331
Core_0_L2C_wq_full 0

Core_0_L2C_pq_access 2503209
Core_0_L2C_pq_forward 0
Core_0_L2C_pq_merged 103
Core_0_L2C_pq_to_cache 2503106
Core_0_L2C_pq_full 0

Core_0_L2C_acc_epochs 703820
Core_0_L2C_acc_level_0 98425
Core_0_L2C_acc_level_1 71337
Core_0_L2C_acc_level_2 67031
Core_0_L2C_acc_level_3 69501
Core_0_L2C_acc_level_4 41350
Core_0_L2C_acc_level_5 67144
Core_0_L2C_acc_level_6 56204
Core_0_L2C_acc_level_7 42251
Core_0_L2C_acc_level_8 36935
Core_0_L2C_acc_level_9 153642

Core_0_LLC_total_access 3968570
Core_0_LLC_total_hit 936052
Core_0_LLC_total_miss 3032518
Core_0_LLC_loads 421931
Core_0_LLC_load_hit 40143
Core_0_LLC_load_miss 381788
Core_0_LLC_RFOs 751622
Core_0_LLC_RFO_hit 75361
Core_0_LLC_RFO_miss 676261
Core_0_LLC_prefetches 2042031
Core_0_LLC_prefetch_hit 685797
Core_0_LLC_prefetch_miss 1356234
Core_0_LLC_writebacks 752986
Core_0_LLC_writeback_hit 134751
Core_0_LLC_writeback_miss 618235
Core_0_LLC_prefetch_requested 0
Core_0_LLC_prefetch_dropped 0
Core_0_LLC_prefetch_issued 0
Core_0_LLC_prefetch_filled 1661242
Core_0_LLC_prefetch_useful 71998
Core_0_LLC_prefetch_useless 1564389
Core_0_LLC_prefetch_late 2
Core_0_LLC_average_miss_latency 165.23259

Core_0_LLC_rq_access 1173553
Core_0_LLC_rq_forward 0
Core_0_LLC_rq_merged 0
Core_0_LLC_rq_to_cache 1173553
Core_0_LLC_rq_full 0

Core_0_LLC_wq_access 752986
Core_0_LLC_wq_forward 0
Core_0_LLC_wq_merged 0
Core_0_LLC_wq_to_cache 752986
Core_0_LLC_wq_full 0

Core_0_LLC_pq_access 2502887
Core_0_LLC_pq_forward 0
Core_0_LLC_pq_merged 3
Core_0_LLC_pq_to_cache 2502884
Core_0_LLC_pq_full 0

Core_0_LLC_acc_epochs 1332329
Core_0_LLC_acc_level_0 1315145
Core_0_LLC_acc_level_1 9025
Core_0_LLC_acc_level_2 4722
Core_0_LLC_acc_level_3 1323
Core_0_LLC_acc_level_4 434
Core_0_LLC_acc_level_5 1543
Core_0_LLC_acc_level_6 49
Core_0_LLC_acc_level_7 14
Core_0_LLC_acc_level_8 5
Core_0_LLC_acc_level_9 69

Core_0_major_page_fault 0
Core_0_minor_page_fault 23870

[MLOP] History of tracked zone:
IIIIIIIIIIIIIIIIIIIIIIIIIIIIIIIIIIIIIIIIIIIIIIIIIIIIIIIIIIIIIIII
A22222222222222IIIIIII44IIIIIIIIIIIIIIIIIIIIIIIIIIIIIIIIIIIIIIII
AA22222222222222IIIIII444IIIIIIIIIIIIIIIIIIIIIIIIIIIIIIIIIIIIIII
AAA22222222222222IIIII4444IIIIIIIIIIIIIIIIIIIIIIIIIIIIIIIIIIIIII
AAAA22222222222222IIII44444IIIIIIIIIIIIIIIIIIIIIIIIIIIIIIIIIIIII
AAAAA22222222222222III444444IIIIIIIIIIIIIIIIIIIIIIIIIIIIIIIIIIII
AAAAAA22222222222222II4444444IIIIIIIIIIIIIIIIIIIIIIIIIIIIIIIIIII
AAAAAAA22222222222222I44444444IIIIIIIIIIIIIIIIIIIIIIIIIIIIIIIIII
AAAAAAAA22222222222222444444444IIIIIIIIIIIIIIIIIIIIIIIIIIIIIIIII
AAAAAAAAA22222222222222444444444IIIIIIIIIIIIIIIIIIIIIIIIIIIIIIII
AAAAAAAAAA22222222222222444444444IIIIIIIIIIIIIIIIIIIIIIIIIIIIIII
AAAAAAAAAAA22222222222222444444444IIIIIIIIIIIIIIIIIIIIIIIIIIIIII
AAAAAAAAAAAA22222222222222444444444IIIIIIIIIIIIIIIIIIIIIIIIIIIII
AAAAAAAAAAAAA22222222222222444444444IIIIIIIIIIIIIIIIIIIIIIIIIIII
AAAAAAAAAAAAAA22222222222222444444444IIIIIIIIIIIIIIIIIIIIIIIIIII
AAAAAAAAAAAAAAA22222222222222444444444IIIIIIIIIIIIIIIIIIIIIIIIII
AAAAAAAAAAAAAAAA22222222222222444444444IIIIIIIIIIIIIIIIIIIIIIIII
AAAAAAAAAAAAAAAAA22222222222222444444444IIIIIIIIIIIIIIIIIIIIIIII
AAAAAAAAAAAAAAAAAA22222222222222444444444IIIIIIIIIIIIIIIIIIIIIII
AAAAAAAAAAAAAAAAAAA22222222222222444444444IIIIIIIIIIIIIIIIIIIIII
AAAAAAAAAAAAAAAAAAAA22222222222222444444444IIIIIIIIIIIIIIIIIIIII
AAAAAAAAAAAAAAAAAAAAA22222222222222444444444IIIIIIIIIIIIIIIIIIII
AAAAAAAAAAAAAAAAAAAAAA22222222222222444444444IIIIIIIIIIIIIIIIIII
AAAAAAAAAAAAAAAAAAAAAAA22222222222222444444444IIIIIIIIIIIIIIIIII
AAAAAAAAAAAAAAAAAAAAAAAA22222222222222444444444IIIIIIIIIIIIIIIII
AAAAAAAAAAAAAAAAAAAAAAAAA22222222222222444444444IIIIIIIIIIIIIIII
AAAAAAAAAAAAAAAAAAAAAAAAAA22222222222222444444444IIIIIIIIIIIIIII
AAAAAAAAAAAAAAAAAAAAAAAAAAA22222222222222444444444IIIIIIIIIIIIII
AAAAAAAAAAAAAAAAAAAAAAAAAAAA22222222222222444444444IIIIIIIIIIIII
AAAAAAAAAAAAAAAAAAAAAAAAAAAAA22222222222222444444444IIIIIIIIIIII
AAAAAAAAAAAAAAAAAAAAAAAAAAAAAA22222222222222444444444IIIIIIIIIII
AAAAAAAAAAAAAAAAAAAAAAAAAAAAAAA22222222222222444444444IIIIIIIIII
AAAAAAAAAAAAAAAAAAAAAAAAAAAAAAAA22222222222222444444444IIIIIIIII
AAAAAAAAAAAAAAAAAAAAAAAAAAAAAAAAA22222222222222444444444IIIIIIII
AAAAAAAAAAAAAAAAAAAAAAAAAAAAAAAAAA22222222222222444444444IIIIIII
AAAAAAAAAAAAAAAAAAAAAAAAAAAAAAAAAAA22222222222222444444444IIIIII
AAAAAAAAAAAAAAAAAAAAAAAAAAAAAAAAAAAA22222222222222444444444IIIII
AAAAAAAAAAAAAAAAAAAAAAAAAAAAAAAAAAAAA22222222222222444444444IIII
AAAAAAAAAAAAAAAAAAAAAAAAAAAAAAAAAAAAAA22222222222222444444444III
AAAAAAAAAAAAAAAAAAAAAAAAAAAAAAAAAAAAAAA22222222222222444444444II
AAAAAAAAAAAAAAAAAAAAAAAAAAAAAAAAAAAAAAAA22222222222222444444444I
AAAAAAAAAAAAAAAAAAAAAAAAAAAAAAAAAAAAAAAAA22222222222222444444444
AAAAAAAAAAAAAAAAAAAAAAAAAAAAAAAAAAAAAAAAAA2222222222222244444444
AAAAAAAAAAAAAAAAAAAAAAAAAAAAAAAAAAAAAAAAAAA222222222222224444444
AAAAAAAAAAAAAAAAAAAAAAAAAAAAAAAAAAAAAAAAAAAA22222222222222444444
AAAAAAAAAAAAAAAAAAAAAAAAAAAAAAAAAAAAAAAAAAAAA2222222222222244444
AAAAAAAAAAAAAAAAAAAAAAAAAAAAAAAAAAAAAAAAAAAAAA222222222222224444
AAAAAAAAAAAAAAAAAAAAAAAAAAAAAAAAAAAAAAAAAAAAAAA22222222222222444
AAAAAAAAAAAAAAAAAAAAAAAAAAAAAAAAAAAAAAAAAAAAAAAA2222222222222244
AAAAAAAAAAAAAAAAAAAAAAAAAAAAAAAAAAAAAAAAAAAAAAAAA222222222222224
AAAAAAAAAAAAAAAAAAAAAAAAAAAAAAAAAAAAAAAAAAAAAAAAAA22222222222222
AAAAAAAAAAAAAAAAAAAAAAAAAAAAAAAAAAAAAAAAAAAAAAAAAAA2222222222222
AAAAAAAAAAAAAAAAAAAAAAAAAAAAAAAAAAAAAAAAAAAAAAAAAAAA222222222222
AAAAAAAAAAAAAAAAAAAAAAAAAAAAAAAAAAAAAAAAAAAAAAAAAAAAA22222222222
AAAAAAAAAAAAAAAAAAAAAAAAAAAAAAAAAAAAAAAAAAAAAAAAAAAAAA2222222222
AAAAAAAAAAAAAAAAAAAAAAAAAAAAAAAAAAAAAAAAAAAAAAAAAAAAAAA222222222
AAAAAAAAAAAAAAAAAAAAAAAAAAAAAAAAAAAAAAAAAAAAAAAAAAAAAAAA22222222
AAAAAAAAAAAAAAAAAAAAAAAAAAAAAAAAAAAAAAAAAAAAAAAAAAAAAAAAA2222222
AAAAAAAAAAAAAAAAAAAAAAAAAAAAAAAAAAAAAAAAAAAAAAAAAAAAAAAAAA222222
AAAAAAAAAAAAAAAAAAAAAAAAAAAAAAAAAAAAAAAAAAAAAAAAAAAAAAAAAAA22222
AAAAAAAAAAAAAAAAAAAAAAAAAAAAAAAAAAAAAAAAAAAAAAAAAAAAAAAAAAAA2222
AAAAAAAAAAAAAAAAAAAAAAAAAAAAAAAAAAAAAAAAAAAAAAAAAAAAAAAAAAAAA222
AAAAAAAAAAAAAAAAAAAAAAAAAAAAAAAAAAAAAAAAAAAAAAAAAAAAAAAAAAAAAA22
AAAAAAAAAAAAAAAAAAAAAAAAAAAAAAAAAAAAAAAAAAAAAAAAAAAAAAAAAAAAAAA2
AAAAAAAAAAAAAAAAAAAAAAAAAAAAAAAAAAAAAAAAAAAAAAAAAAAAAAAAAAAAAAAA
AIAAAAAAAAAAAAAAAAAAAAAAAAAAAAAAAAAAAAAAAAAAAAAAAAAAAAAAAAAAAAAA
AIIAAAAAAAAAAAAAAAAAAAAAAAAAAAAAAAAAAAAAAAAAAAAAAAAAAAAAAAAAAAAA
AIIIAAAAAAAAAAAAAAAAAAAAAAAAAAAAAAAAAAAAAAAAAAAAAAAAAAAAAAAAAAAA
AIIIIAAAAAAAAAAAAAAAAAAAAAAAAAAAAAAAAAAAAAAAAAAAAAAAAAAAAAAAAAAA
AIIIIIAAAAAAAAAAAAAAAAAAAAAAAAAAAAAAAAAAAAAAAAAAAAAAAAAAAAAAAAAA
AIIIIIIAAAAAAAAAAAAAAAAAAAAAAAAAAAAAAAAAAAAAAAAAAAAAAAAAAAAAAAAA
AIIIIIIIAAAAAAAAAAAAAAAAAAAAAAAAAAAAAAAAAAAAAAAAAAAAAAAAAAAAAAAA
AIIIIIIIIAAAAAAAAAAAAAAAAAAAAAAAAAAAAAAAAAAAAAAAAAAAAAAAAAAAAAAA
AIIIIIIIIIAAAAAAAAAAAAAAAAAAAAAAAAAAAAAAAAAAAAAAAAAAAAAAAAAAAAAA
AIIIIIIIIIIAAAAAAAAAAAAAAAAAAAAAAAAAAAAAAAAAAAAAAAAAAAAAAAAAAAAA
AIIIIIIIIIIIAAAAAAAAAAAAAAAAAAAAAAAAAAAAAAAAAAAAAAAAAAAAAAAAAAAA
AIIIIIIIIIIIIAAAAAAAAAAAAAAAAAAAAAAAAAAAAAAAAAAAAAAAAAAAAAAAAAAA
AIIIIIIIIIIIIIAAAAAAAAAAAAAAAAAAAAAAAAAAAAAAAAAAAAAAAAAAAAAAAAAA
AIIIIIIIIIIIIIIAAAAAAAAAAAAAAAAAAAAAAAAAAAAAAAAAAAAAAAAAAAAAAAAA
AIIIIIIIIIIIIIIIAAAAAAAAAAAAAAAAAAAAAAAAAAAAAAAAAAAAAAAAAAAAAAAA
AIIIIIIIIIIIIIIIIAAAAAAAAAAAAAAAAAAAAAAAAAAAAAAAAAAAAAAAAAAAAAAA
AIIIIIIIIIIIIIIIIIAAAAAAAAAAAAAAAAAAAAAAAAAAAAAAAAAAAAAAAAAAAAAA
AIIIIIIIIIIIIIIIIIIAAAAAAAAAAAAAAAAAAAAAAAAAAAAAAAAAAAAAAAAAAAAA
AIIIIIIIIIIIIIIIIIIIAAAAAAAAAAAAAAAAAAAAAAAAAAAAAAAAAAAAAAAAAAAA
AIIIIIIIIIIIIIIIIIIIIAAAAAAAAAAAAAAAAAAAAAAAAAAAAAAAAAAAAAAAAAAA
AIIIIIIIIIIIIIIIIIIIIIAAAAAAAAAAAAAAAAAAAAAAAAAAAAAAAAAAAAAAAAAA
AIIIIIIIIIIIIIIIIIIIIIIAAAAAAAAAAAAAAAAAAAAAAAAAAAAAAAAAAAAAAAAA
AIIIIIIIIIIIIIIIIIIIIIIIAAAAAAAAAAAAAAAAAAAAAAAAAAAAAAAAAAAAAAAA
AIIIIIIIIIIIIIIIIIIIIIIIIAAAAAAAAAAAAAAAAAAAAAAAAAAAAAAAAAAAAAAA
AIIIIIIIIIIIIIIIIIIIIIIIIIAAAAAAAAAAAAAAAAAAAAAAAAAAAAAAAAAAAAAA
AIIIIIIIIIIIIIIIIIIIIIIIIIIAAAAAAAAAAAAAAAAAAAAAAAAAAAAAAAAAAAAA
AIIIIIIIIIIIIIIIIIIIIIIIIIIIAAAAAAAAAAAAAAAAAAAAAAAAAAAAAAAAAAAA
AIIIIIIIIIIIIIIIIIIIIIIIIIIIIAAAAAAAAAAAAAAAAAAAAAAAAAAAAAAAAAAA
AIIIIIIIIIIIIIIIIIIIIIIIIIIIIIAAAAAAAAAAAAAAAAAAAAAAAAAAAAAAAAAA
AIIIIIIIIIIIIIIIIIIIIIIIIIIIIIIAAAAAAAAAAAAAAAAAAAAAAAAAAAAAAAAA
AIIIIIIIIIIIIIIIIIIIIIIIIIIIIIIIAAAAAAAAAAAAAAAAAAAAAAAAAAAAAAAA
AIIIIIIIIIIIIIIIIIIIIIIIIIIIIIIIIAAAAAAAAAAAAAAAAAAAAAAAAAAAAAAA
AIIIIIIIIIIIIIIIIIIIIIIIIIIIIIIIIIAAAAAAAAAAAAAAAAAAAAAAAAAAAAAA
AIIIIIIIIIIIIIIIIIIIIIIIIIIIIIIIIIIAAAAAAAAAAAAAAAAAAAAAAAAAAAAA
AIIIIIIIIIIIIIIIIIIIIIIIIIIIIIIIIIIIAAAAAAAAAAAAAAAAAAAAAAAAAAAA
AIIIIIIIIIIIIIIIIIIIIIIIIIIIIIIIIIIIIAAAAAAAAAAAAAAAAAAAAAAAAAAA
AIIIIIIIIIIIIIIIIIIIIIIIIIIIIIIIIIIIIIAAAAAAAAAAAAAAAAAAAAAAAAAA
AIIIIIIIIIIIIIIIIIIIIIIIIIIIIIIIIIIIIIIAAAAAAAAAAAAAAAAAAAAAAAAA
AIIIIIIIIIIIIIIIIIIIIIIIIIIIIIIIIIIIIIIIAAAAAAAAAAAAAAAAAAAAAAAA
AIIIIIIIIIIIIIIIIIIIIIIIIIIIIIIIIIIIIIIIIAAAAAAAAAAAAAAAAAAAAAAA
AIIIIIIIIIIIIIIIIIIIIIIIIIIIIIIIIIIIIIIIIIAAAAAAAAAAAAAAAAAAAAAA
AIIIIIIIIIIIIIIIIIIIIIIIIIIIIIIIIIIIIIIIIIIAAAAAAAAAAAAAAAAAAAAA
AIIIIIIIIIIIIIIIIIIIIIIIIIIIIIIIIIIIIIIIIIIIAAAAAAAAAAAAAAAAAAAA
AIIIIIIIIIIIIIIIIIIIIIIIIIIIIIIIIIIIIIIIIIIIIAAAAAAAAAAAAAAAAAAA
AIIIIIIIIIIIIIIIIIIIIIIIIIIIIIIIIIIIIIIIIIIIIIAAAAAAAAAAAAAAAAAA
AIIIIIIIIIIIIIIIIIIIIIIIIIIIIIIIIIIIIIIIIIIIIIIAAAAAAAAAAAAAAAAA
AIIIIIIIIIIIIIIIIIIIIIIIIIIIIIIIIIIIIIIIIIIIIIIIAAAAAAAAAAAAAAAA
AIIIIIIIIIIIIIIIIIIIIIIIIIIIIIIIIIIIIIIIIIIIIIIIIAAAAAAAAAAAAAAA
AIIIIIIIIIIIIIIIIIIIIIIIIIIIIIIIIIIIIIIIIIIIIIIIIIAAAAAAAAAAAAAA
AIIIIIIIIIIIIIIIIIIIIIIIIIIIIIIIIIIIIIIIIIIIIIIIIIIAAAAAAAAAAAAA
AIIIIIIIIIIIIIIIIIIIIIIIIIIIIIIIIIIIIIIIIIIIIIIIIIIIAAAAAAAAAAAA
AIIIIIIIIIIIIIIIIIIIIIIIIIIIIIIIIIIIIIIIIIIIIIIIIIIIIAAAAAAAAAAA
AIIIIIIIIIIIIIIIIIIIIIIIIIIIIIIIIIIIIIIIIIIIIIIIIIIIIIAAAAAAAAAA
AIIIIIIIIIIIIIIIIIIIIIIIIIIIIIIIIIIIIIIIIIIIIIIIIIIIIIIAAAAAAAAA
AIIIIIIIIIIIIIIIIIIIIIIIIIIIIIIIIIIIIIIIIIIIIIIIIIIIIIIIAAAAAAAA
AIIIIIIIIIIIIIIIIIIIIIIIIIIIIIIIIIIIIIIIIIIIIIIIIIIIIIIIIAAAAAAA
AIIIIIIIIIIIIIIIIIIIIIIIIIIIIIIIIIIIIIIIIIIIIIIIIIIIIIIIIIAAAAAA
AIIIIIIIIIIIIIIIIIIIIIIIIIIIIIIIIIIIIIIIIIIIIIIIIIIIIIIIIIIAAAAA
AIIIIIIIIIIIIIIIIIIIIIIIIIIIIIIIIIIIIIIIIIIIIIIIIIIIIIIIIIIIAAAA
AIIIIIIIIIIIIIIIIIIIIIIIIIIIIIIIIIIIIIIIIIIIIIIIIIIIIIIIIIIIIAAA
AIIIIIIIIIIIIIIIIIIIIIIIIIIIIIIIIIIIIIIIIIIIIIIIIIIIIIIIIIIIIIAA
AIIIIIIIIIIIIIIIIIIIIIIIIIIIIIIIIIIIIIIIIIIIIIIIIIIIIIIIIIIIIIIA
AIIIIIIIIIIIIIIIIIIIIIIIIIIIIIIIIIIIIIIIIIIIIIIIIIIIIIIIIIIIIIII
[MLOP] Prefetch Degree Mean: 15.91727
[MLOP] Prefetch Degree SD: 0.66324
[MLOP] Max Score Left Mean (%): 68.20302
[MLOP] Max Score Left SD (%): 10.30268
[MLOP] Max Score Right Mean (%): 99.92459
[MLOP] Max Score Right SD (%): 0.68841

Channel_0_RQ_row_buffer_hit 669317
Channel_0_RQ_row_buffer_miss 1744958
Channel_0_WQ_row_buffer_hit 91081
Channel_0_WQ_row_buffer_miss 648970
Channel_0_WQ_full 92
Channel_0_dbus_congested 529052

avg_congested_cycle 1

DRAM_bw_pochs 5329314
DRAM_bw_level_0 5321085
DRAM_bw_level_1 8222
DRAM_bw_level_2 7
DRAM_bw_level_3 0
