*************************************************
   ChampSim Multicore Out-of-Order Simulator
   Last compiled: Dec 11 2024 17:59:53
*************************************************
parsing config file: /home/functionmain/桌面/Pythia/config/bingo.ini

trace_0 /home/functionmain/桌面/Pythia/traces/436.cactusADM-1804B.champsimtrace.xz
adding L2C_PREFETCHER: Bingo
Initialize SHIP state
warmup_instructions 100000000
simulation_instructions 500000000
champsim_seed 271
measure_ipc 0
measure_ipc_epoch 1000
measure_dram_bw 1
measure_dram_bw_epoch 256
measure_cache_acc 1
measure_cache_acc_epoch 1024
l1d_perfect 0
l2c_perfect 0
llc_perfect 0
l1d_semi_perfect 0
l2c_semi_perfect 0
llc_semi_perfect 0
semi_perfect_cache_page_buffer_size 64

num_cpus 1
cpu_freq 4000
dram_io_freq 2400
page_size 4096
block_size 64
max_read_per_cycle 8
max_fill_per_cycle 1
dram_channels 1
log2_dram_channels 0
dram_ranks 1
dram_banks 8
dram_rows 65536
dram_columns 128
dram_row_size 8
dram_size 4096
dram_pages 1048576

fetch_width 6
decode_width 6
exec_width 4
lq_width 2
sq_width 2
retire_width 4
scheduler_size 128
branch_mispredict_penalty 20
rob_size 256
lq_size 72
sq_size 56
num_instr_destinations_sparc 4
num_instr_destinations 2
num_instr_sources 4

itlb_set 16
itlb_way 8
itlb_rq_size 16
itlb_wq_size 16
itlb_pq_size 0
itlb_mshr_size 8
itlb_latency 1

dtlb_set 16
dtlb_way 4
dtlb_rq_size 16
dtlb_wq_size 16
dtlb_pq_size 0
dtlb_mshr_size 8
dtlb_latency 1

stlb_set 128
stlb_way 12
stlb_rq_size 32
stlb_wq_size 32
stlb_pq_size 0
stlb_mshr_size 16
stlb_latency 8

l1i_size 32
l1i_set 64
l1i_way 8
l1i_rq_size 64
l1i_wq_size 64
l1i_pq_size 8
l1i_mshr_size 8
l1i_latency 1

l1d_size 32
l1d_set 64
l1d_way 8
l1d_rq_size 64
l1d_wq_size 64
l1d_pq_size 8
l1d_mshr_size 16
l1d_latency 4

l2c_size 256
l2c_set 512
l2c_way 8
l2c_rq_size 32
l2c_wq_size 32
l2c_pq_size 32
l2c_mshr_size 32
l2c_latency 10

llc_size 2048
llc_set 2048
llc_way 16
llc_rq_size 32
llc_wq_size 32
llc_pq_size 32
llc_mshr_size 64
llc_latency 20

dram_channel_width 8
dram_wq_size 64
dram_rq_size 64
tRP 15
tRCD 15
tCAS 12.5
dram_dbus_turn_around_time 30
dram_write_high_wm 56
dram_write_low_wm 48
min_dram_writes_per_switch 16
dram_mtps 2400
dram_dbus_return_time 13

bingo_region_size 2048
bingo_pattern_len 32
bingo_pc_width 16
bingo_min_addr_width 5
bingo_max_addr_width 16
bingo_ft_size 64
bingo_at_size 128
bingo_pht_size 4096
bingo_pht_ways 16
bingo_pf_streamer_size 128
bingo_debug_level 0
bingo_l1d_thresh 1.01
bingo_l2c_thresh 0.8
bingo_llc_thresh 0.05
bingo_pc_address_fill_level L2


Heartbeat CPU  0 instructions:    1000003 cycles:     702358 heartbeat IPC: 1.42378 cumulative IPC: 1.42378 (Simulation time: 0 hr 0 min 3 sec) 
Heartbeat CPU  0 instructions:    2000000 cycles:    1404565 heartbeat IPC: 1.42408 cumulative IPC: 1.42393 (Simulation time: 0 hr 0 min 5 sec) 
Heartbeat CPU  0 instructions:    3000000 cycles:    2106905 heartbeat IPC: 1.42381 cumulative IPC: 1.42389 (Simulation time: 0 hr 0 min 7 sec) 
Heartbeat CPU  0 instructions:    4000000 cycles:    2809245 heartbeat IPC: 1.42381 cumulative IPC: 1.42387 (Simulation time: 0 hr 0 min 10 sec) 
Heartbeat CPU  0 instructions:    5000000 cycles:    3511433 heartbeat IPC: 1.42412 cumulative IPC: 1.42392 (Simulation time: 0 hr 0 min 12 sec) 
Heartbeat CPU  0 instructions:    6000000 cycles:    4213768 heartbeat IPC: 1.42382 cumulative IPC: 1.42390 (Simulation time: 0 hr 0 min 15 sec) 
Heartbeat CPU  0 instructions:    7000001 cycles:    4916154 heartbeat IPC: 1.42372 cumulative IPC: 1.42388 (Simulation time: 0 hr 0 min 17 sec) 
Heartbeat CPU  0 instructions:    8000000 cycles:    5618263 heartbeat IPC: 1.42428 cumulative IPC: 1.42393 (Simulation time: 0 hr 0 min 19 sec) 
Heartbeat CPU  0 instructions:    9000001 cycles:    6320730 heartbeat IPC: 1.42356 cumulative IPC: 1.42389 (Simulation time: 0 hr 0 min 22 sec) 
Heartbeat CPU  0 instructions:   10000000 cycles:    7022899 heartbeat IPC: 1.42416 cumulative IPC: 1.42391 (Simulation time: 0 hr 0 min 24 sec) 
Heartbeat CPU  0 instructions:   11000002 cycles:    7725101 heartbeat IPC: 1.42409 cumulative IPC: 1.42393 (Simulation time: 0 hr 0 min 27 sec) 
Heartbeat CPU  0 instructions:   12000000 cycles:    8427233 heartbeat IPC: 1.42423 cumulative IPC: 1.42395 (Simulation time: 0 hr 0 min 29 sec) 
Heartbeat CPU  0 instructions:   13000000 cycles:    9129800 heartbeat IPC: 1.42335 cumulative IPC: 1.42391 (Simulation time: 0 hr 0 min 31 sec) 
Heartbeat CPU  0 instructions:   14000002 cycles:    9832042 heartbeat IPC: 1.42401 cumulative IPC: 1.42392 (Simulation time: 0 hr 0 min 34 sec) 
Heartbeat CPU  0 instructions:   15000002 cycles:   10533965 heartbeat IPC: 1.42466 cumulative IPC: 1.42397 (Simulation time: 0 hr 0 min 36 sec) 
Heartbeat CPU  0 instructions:   16000000 cycles:   11236496 heartbeat IPC: 1.42342 cumulative IPC: 1.42393 (Simulation time: 0 hr 0 min 39 sec) 
Heartbeat CPU  0 instructions:   17000000 cycles:   11939027 heartbeat IPC: 1.42342 cumulative IPC: 1.42390 (Simulation time: 0 hr 0 min 41 sec) 
Heartbeat CPU  0 instructions:   18000001 cycles:   12600714 heartbeat IPC: 1.51129 cumulative IPC: 1.42849 (Simulation time: 0 hr 0 min 43 sec) 
Heartbeat CPU  0 instructions:   19000000 cycles:   13234770 heartbeat IPC: 1.57715 cumulative IPC: 1.43561 (Simulation time: 0 hr 0 min 46 sec) 
Heartbeat CPU  0 instructions:   20000000 cycles:   13937334 heartbeat IPC: 1.42336 cumulative IPC: 1.43499 (Simulation time: 0 hr 0 min 48 sec) 
Heartbeat CPU  0 instructions:   21000000 cycles:   14639716 heartbeat IPC: 1.42373 cumulative IPC: 1.43445 (Simulation time: 0 hr 0 min 51 sec) 
Heartbeat CPU  0 instructions:   22000002 cycles:   15342019 heartbeat IPC: 1.42389 cumulative IPC: 1.43397 (Simulation time: 0 hr 0 min 53 sec) 
Heartbeat CPU  0 instructions:   23000001 cycles:   16044381 heartbeat IPC: 1.42377 cumulative IPC: 1.43352 (Simulation time: 0 hr 0 min 55 sec) 
Heartbeat CPU  0 instructions:   24000000 cycles:   16746500 heartbeat IPC: 1.42426 cumulative IPC: 1.43314 (Simulation time: 0 hr 0 min 58 sec) 
Heartbeat CPU  0 instructions:   25000001 cycles:   17448797 heartbeat IPC: 1.42390 cumulative IPC: 1.43276 (Simulation time: 0 hr 1 min 0 sec) 
Heartbeat CPU  0 instructions:   26000003 cycles:   18151425 heartbeat IPC: 1.42323 cumulative IPC: 1.43239 (Simulation time: 0 hr 1 min 3 sec) 
Heartbeat CPU  0 instructions:   27000003 cycles:   18853640 heartbeat IPC: 1.42407 cumulative IPC: 1.43208 (Simulation time: 0 hr 1 min 5 sec) 
Heartbeat CPU  0 instructions:   28000000 cycles:   19555783 heartbeat IPC: 1.42421 cumulative IPC: 1.43180 (Simulation time: 0 hr 1 min 7 sec) 
Heartbeat CPU  0 instructions:   29000000 cycles:   20258224 heartbeat IPC: 1.42361 cumulative IPC: 1.43152 (Simulation time: 0 hr 1 min 10 sec) 
Heartbeat CPU  0 instructions:   30000003 cycles:   20960607 heartbeat IPC: 1.42373 cumulative IPC: 1.43126 (Simulation time: 0 hr 1 min 12 sec) 
Heartbeat CPU  0 instructions:   31000003 cycles:   21662566 heartbeat IPC: 1.42458 cumulative IPC: 1.43104 (Simulation time: 0 hr 1 min 15 sec) 
Heartbeat CPU  0 instructions:   32000000 cycles:   22364632 heartbeat IPC: 1.42436 cumulative IPC: 1.43083 (Simulation time: 0 hr 1 min 17 sec) 
Heartbeat CPU  0 instructions:   33000001 cycles:   23067342 heartbeat IPC: 1.42306 cumulative IPC: 1.43059 (Simulation time: 0 hr 1 min 19 sec) 
Heartbeat CPU  0 instructions:   34000000 cycles:   23769451 heartbeat IPC: 1.42428 cumulative IPC: 1.43041 (Simulation time: 0 hr 1 min 22 sec) 
Heartbeat CPU  0 instructions:   35000001 cycles:   24471706 heartbeat IPC: 1.42399 cumulative IPC: 1.43022 (Simulation time: 0 hr 1 min 24 sec) 
Heartbeat CPU  0 instructions:   36000000 cycles:   25173970 heartbeat IPC: 1.42396 cumulative IPC: 1.43005 (Simulation time: 0 hr 1 min 27 sec) 
Heartbeat CPU  0 instructions:   37000000 cycles:   25876514 heartbeat IPC: 1.42340 cumulative IPC: 1.42987 (Simulation time: 0 hr 1 min 29 sec) 
Heartbeat CPU  0 instructions:   38000001 cycles:   26578708 heartbeat IPC: 1.42411 cumulative IPC: 1.42972 (Simulation time: 0 hr 1 min 31 sec) 
Heartbeat CPU  0 instructions:   39000000 cycles:   27280970 heartbeat IPC: 1.42397 cumulative IPC: 1.42957 (Simulation time: 0 hr 1 min 34 sec) 
Heartbeat CPU  0 instructions:   40000000 cycles:   27983255 heartbeat IPC: 1.42392 cumulative IPC: 1.42943 (Simulation time: 0 hr 1 min 36 sec) 
Heartbeat CPU  0 instructions:   41000000 cycles:   28587298 heartbeat IPC: 1.65551 cumulative IPC: 1.43420 (Simulation time: 0 hr 1 min 39 sec) 
Heartbeat CPU  0 instructions:   42000002 cycles:   29278408 heartbeat IPC: 1.44695 cumulative IPC: 1.43450 (Simulation time: 0 hr 1 min 41 sec) 
Heartbeat CPU  0 instructions:   43000002 cycles:   29980814 heartbeat IPC: 1.42368 cumulative IPC: 1.43425 (Simulation time: 0 hr 1 min 43 sec) 
Heartbeat CPU  0 instructions:   44000000 cycles:   30683245 heartbeat IPC: 1.42362 cumulative IPC: 1.43401 (Simulation time: 0 hr 1 min 46 sec) 
Heartbeat CPU  0 instructions:   45000003 cycles:   31385530 heartbeat IPC: 1.42393 cumulative IPC: 1.43378 (Simulation time: 0 hr 1 min 48 sec) 
Heartbeat CPU  0 instructions:   46000003 cycles:   32087715 heartbeat IPC: 1.42413 cumulative IPC: 1.43357 (Simulation time: 0 hr 1 min 51 sec) 
Heartbeat CPU  0 instructions:   47000000 cycles:   32789882 heartbeat IPC: 1.42416 cumulative IPC: 1.43337 (Simulation time: 0 hr 1 min 53 sec) 
Heartbeat CPU  0 instructions:   48000000 cycles:   33492504 heartbeat IPC: 1.42324 cumulative IPC: 1.43316 (Simulation time: 0 hr 1 min 55 sec) 
Heartbeat CPU  0 instructions:   49000000 cycles:   34194517 heartbeat IPC: 1.42448 cumulative IPC: 1.43298 (Simulation time: 0 hr 1 min 58 sec) 
Heartbeat CPU  0 instructions:   50000000 cycles:   34896851 heartbeat IPC: 1.42382 cumulative IPC: 1.43279 (Simulation time: 0 hr 2 min 0 sec) 
Heartbeat CPU  0 instructions:   51000000 cycles:   35599367 heartbeat IPC: 1.42346 cumulative IPC: 1.43261 (Simulation time: 0 hr 2 min 3 sec) 
Heartbeat CPU  0 instructions:   52000000 cycles:   36301555 heartbeat IPC: 1.42412 cumulative IPC: 1.43245 (Simulation time: 0 hr 2 min 5 sec) 
Heartbeat CPU  0 instructions:   53000000 cycles:   37003992 heartbeat IPC: 1.42362 cumulative IPC: 1.43228 (Simulation time: 0 hr 2 min 7 sec) 
Heartbeat CPU  0 instructions:   54000001 cycles:   37706084 heartbeat IPC: 1.42432 cumulative IPC: 1.43213 (Simulation time: 0 hr 2 min 10 sec) 
Heartbeat CPU  0 instructions:   55000001 cycles:   38408371 heartbeat IPC: 1.42392 cumulative IPC: 1.43198 (Simulation time: 0 hr 2 min 12 sec) 
Heartbeat CPU  0 instructions:   56000000 cycles:   39110857 heartbeat IPC: 1.42351 cumulative IPC: 1.43183 (Simulation time: 0 hr 2 min 15 sec) 
Heartbeat CPU  0 instructions:   57000000 cycles:   39813341 heartbeat IPC: 1.42352 cumulative IPC: 1.43168 (Simulation time: 0 hr 2 min 17 sec) 
Heartbeat CPU  0 instructions:   58000003 cycles:   40515663 heartbeat IPC: 1.42385 cumulative IPC: 1.43155 (Simulation time: 0 hr 2 min 19 sec) 
Heartbeat CPU  0 instructions:   59000000 cycles:   41217798 heartbeat IPC: 1.42422 cumulative IPC: 1.43142 (Simulation time: 0 hr 2 min 22 sec) 
Heartbeat CPU  0 instructions:   60000000 cycles:   41920222 heartbeat IPC: 1.42364 cumulative IPC: 1.43129 (Simulation time: 0 hr 2 min 24 sec) 
Heartbeat CPU  0 instructions:   61000000 cycles:   42622419 heartbeat IPC: 1.42410 cumulative IPC: 1.43117 (Simulation time: 0 hr 2 min 27 sec) 
Heartbeat CPU  0 instructions:   62000002 cycles:   43324676 heartbeat IPC: 1.42398 cumulative IPC: 1.43106 (Simulation time: 0 hr 2 min 29 sec) 
Heartbeat CPU  0 instructions:   63000000 cycles:   43971272 heartbeat IPC: 1.54656 cumulative IPC: 1.43275 (Simulation time: 0 hr 2 min 31 sec) 
Heartbeat CPU  0 instructions:   64000000 cycles:   44621419 heartbeat IPC: 1.53811 cumulative IPC: 1.43429 (Simulation time: 0 hr 2 min 34 sec) 
Heartbeat CPU  0 instructions:   65000000 cycles:   45323503 heartbeat IPC: 1.42433 cumulative IPC: 1.43413 (Simulation time: 0 hr 2 min 36 sec) 
Heartbeat CPU  0 instructions:   66000001 cycles:   46025597 heartbeat IPC: 1.42431 cumulative IPC: 1.43398 (Simulation time: 0 hr 2 min 39 sec) 
Heartbeat CPU  0 instructions:   67000002 cycles:   46727722 heartbeat IPC: 1.42425 cumulative IPC: 1.43384 (Simulation time: 0 hr 2 min 41 sec) 
Heartbeat CPU  0 instructions:   68000000 cycles:   47430107 heartbeat IPC: 1.42372 cumulative IPC: 1.43369 (Simulation time: 0 hr 2 min 43 sec) 
Heartbeat CPU  0 instructions:   69000000 cycles:   48132271 heartbeat IPC: 1.42417 cumulative IPC: 1.43355 (Simulation time: 0 hr 2 min 46 sec) 
Heartbeat CPU  0 instructions:   70000002 cycles:   48834372 heartbeat IPC: 1.42430 cumulative IPC: 1.43342 (Simulation time: 0 hr 2 min 48 sec) 
Heartbeat CPU  0 instructions:   71000003 cycles:   49537006 heartbeat IPC: 1.42322 cumulative IPC: 1.43327 (Simulation time: 0 hr 2 min 51 sec) 
Heartbeat CPU  0 instructions:   72000000 cycles:   50239092 heartbeat IPC: 1.42432 cumulative IPC: 1.43315 (Simulation time: 0 hr 2 min 53 sec) 
Heartbeat CPU  0 instructions:   73000001 cycles:   50941224 heartbeat IPC: 1.42423 cumulative IPC: 1.43302 (Simulation time: 0 hr 2 min 55 sec) 
Heartbeat CPU  0 instructions:   74000003 cycles:   51643543 heartbeat IPC: 1.42386 cumulative IPC: 1.43290 (Simulation time: 0 hr 2 min 58 sec) 
Heartbeat CPU  0 instructions:   75000002 cycles:   52346219 heartbeat IPC: 1.42313 cumulative IPC: 1.43277 (Simulation time: 0 hr 3 min 0 sec) 
Heartbeat CPU  0 instructions:   76000000 cycles:   53048418 heartbeat IPC: 1.42409 cumulative IPC: 1.43265 (Simulation time: 0 hr 3 min 2 sec) 
Heartbeat CPU  0 instructions:   77000003 cycles:   53751047 heartbeat IPC: 1.42323 cumulative IPC: 1.43253 (Simulation time: 0 hr 3 min 5 sec) 
Heartbeat CPU  0 instructions:   78000001 cycles:   54453549 heartbeat IPC: 1.42348 cumulative IPC: 1.43241 (Simulation time: 0 hr 3 min 7 sec) 
Heartbeat CPU  0 instructions:   79000001 cycles:   55155481 heartbeat IPC: 1.42464 cumulative IPC: 1.43231 (Simulation time: 0 hr 3 min 10 sec) 
Heartbeat CPU  0 instructions:   80000000 cycles:   55857549 heartbeat IPC: 1.42436 cumulative IPC: 1.43221 (Simulation time: 0 hr 3 min 12 sec) 
Heartbeat CPU  0 instructions:   81000002 cycles:   56559921 heartbeat IPC: 1.42375 cumulative IPC: 1.43211 (Simulation time: 0 hr 3 min 14 sec) 
Heartbeat CPU  0 instructions:   82000003 cycles:   57262171 heartbeat IPC: 1.42400 cumulative IPC: 1.43201 (Simulation time: 0 hr 3 min 17 sec) 
Heartbeat CPU  0 instructions:   83000001 cycles:   57964438 heartbeat IPC: 1.42396 cumulative IPC: 1.43191 (Simulation time: 0 hr 3 min 19 sec) 
Heartbeat CPU  0 instructions:   84000000 cycles:   58666670 heartbeat IPC: 1.42403 cumulative IPC: 1.43182 (Simulation time: 0 hr 3 min 21 sec) 
Heartbeat CPU  0 instructions:   85000000 cycles:   59355247 heartbeat IPC: 1.45227 cumulative IPC: 1.43206 (Simulation time: 0 hr 3 min 24 sec) 
Heartbeat CPU  0 instructions:   86000002 cycles:   59962630 heartbeat IPC: 1.64641 cumulative IPC: 1.43423 (Simulation time: 0 hr 3 min 26 sec) 
Heartbeat CPU  0 instructions:   87000002 cycles:   60665108 heartbeat IPC: 1.42353 cumulative IPC: 1.43410 (Simulation time: 0 hr 3 min 29 sec) 
Heartbeat CPU  0 instructions:   88000000 cycles:   61367738 heartbeat IPC: 1.42322 cumulative IPC: 1.43398 (Simulation time: 0 hr 3 min 31 sec) 
Heartbeat CPU  0 instructions:   89000001 cycles:   62069762 heartbeat IPC: 1.42445 cumulative IPC: 1.43387 (Simulation time: 0 hr 3 min 33 sec) 
Heartbeat CPU  0 instructions:   90000003 cycles:   62772084 heartbeat IPC: 1.42385 cumulative IPC: 1.43376 (Simulation time: 0 hr 3 min 36 sec) 
Heartbeat CPU  0 instructions:   91000003 cycles:   63474473 heartbeat IPC: 1.42371 cumulative IPC: 1.43365 (Simulation time: 0 hr 3 min 38 sec) 
Heartbeat CPU  0 instructions:   92000000 cycles:   64176670 heartbeat IPC: 1.42410 cumulative IPC: 1.43354 (Simulation time: 0 hr 3 min 41 sec) 
Heartbeat CPU  0 instructions:   93000002 cycles:   64879055 heartbeat IPC: 1.42372 cumulative IPC: 1.43344 (Simulation time: 0 hr 3 min 43 sec) 
Heartbeat CPU  0 instructions:   94000002 cycles:   65581076 heartbeat IPC: 1.42446 cumulative IPC: 1.43334 (Simulation time: 0 hr 3 min 45 sec) 
Heartbeat CPU  0 instructions:   95000003 cycles:   66283238 heartbeat IPC: 1.42417 cumulative IPC: 1.43324 (Simulation time: 0 hr 3 min 48 sec) 
Heartbeat CPU  0 instructions:   96000000 cycles:   66985485 heartbeat IPC: 1.42400 cumulative IPC: 1.43315 (Simulation time: 0 hr 3 min 50 sec) 
Heartbeat CPU  0 instructions:   97000000 cycles:   67687829 heartbeat IPC: 1.42380 cumulative IPC: 1.43305 (Simulation time: 0 hr 3 min 53 sec) 
Heartbeat CPU  0 instructions:   98000002 cycles:   68390019 heartbeat IPC: 1.42412 cumulative IPC: 1.43296 (Simulation time: 0 hr 3 min 55 sec) 
Heartbeat CPU  0 instructions:   99000003 cycles:   69092236 heartbeat IPC: 1.42406 cumulative IPC: 1.43287 (Simulation time: 0 hr 3 min 57 sec) 
Heartbeat CPU  0 instructions:  100000000 cycles:   69794613 heartbeat IPC: 1.42373 cumulative IPC: 1.43278 (Simulation time: 0 hr 4 min 0 sec) 

Warmup complete CPU  0 instructions:  100000001 cycles:   69794633 (Simulation time: 0 hr 4 min 0 sec) 

Heartbeat CPU  0 instructions:  101000000 cycles:   71720611 heartbeat IPC: 0.51921 cumulative IPC: 0.51922 (Simulation time: 0 hr 4 min 2 sec) 
Heartbeat CPU  0 instructions:  102000003 cycles:   73472898 heartbeat IPC: 0.57068 cumulative IPC: 0.54374 (Simulation time: 0 hr 4 min 5 sec) 
Heartbeat CPU  0 instructions:  103000003 cycles:   75337691 heartbeat IPC: 0.53625 cumulative IPC: 0.54122 (Simulation time: 0 hr 4 min 8 sec) 
Heartbeat CPU  0 instructions:  104000000 cycles:   77251830 heartbeat IPC: 0.52243 cumulative IPC: 0.53639 (Simulation time: 0 hr 4 min 10 sec) 
Heartbeat CPU  0 instructions:  105000002 cycles:   79083401 heartbeat IPC: 0.54598 cumulative IPC: 0.53828 (Simulation time: 0 hr 4 min 13 sec) 
Heartbeat CPU  0 instructions:  106000000 cycles:   80875628 heartbeat IPC: 0.55796 cumulative IPC: 0.54147 (Simulation time: 0 hr 4 min 16 sec) 
Heartbeat CPU  0 instructions:  107000003 cycles:   82785399 heartbeat IPC: 0.52362 cumulative IPC: 0.53884 (Simulation time: 0 hr 4 min 19 sec) 
Heartbeat CPU  0 instructions:  108000000 cycles:   93661029 heartbeat IPC: 0.09195 cumulative IPC: 0.33520 (Simulation time: 0 hr 4 min 22 sec) 
Heartbeat CPU  0 instructions:  109000003 cycles:  100476363 heartbeat IPC: 0.14673 cumulative IPC: 0.29333 (Simulation time: 0 hr 4 min 25 sec) 
Heartbeat CPU  0 instructions:  110000001 cycles:  102396802 heartbeat IPC: 0.52071 cumulative IPC: 0.30673 (Simulation time: 0 hr 4 min 28 sec) 
Heartbeat CPU  0 instructions:  111000000 cycles:  104325049 heartbeat IPC: 0.51861 cumulative IPC: 0.31856 (Simulation time: 0 hr 4 min 31 sec) 
Heartbeat CPU  0 instructions:  112000000 cycles:  106103275 heartbeat IPC: 0.56236 cumulative IPC: 0.33050 (Simulation time: 0 hr 4 min 33 sec) 
Heartbeat CPU  0 instructions:  113000000 cycles:  107980593 heartbeat IPC: 0.53267 cumulative IPC: 0.34044 (Simulation time: 0 hr 4 min 36 sec) 
Heartbeat CPU  0 instructions:  114000000 cycles:  109913204 heartbeat IPC: 0.51743 cumulative IPC: 0.34897 (Simulation time: 0 hr 4 min 39 sec) 
Heartbeat CPU  0 instructions:  115000001 cycles:  111747825 heartbeat IPC: 0.54507 cumulative IPC: 0.35754 (Simulation time: 0 hr 4 min 41 sec) 
Heartbeat CPU  0 instructions:  116000000 cycles:  113542697 heartbeat IPC: 0.55714 cumulative IPC: 0.36573 (Simulation time: 0 hr 4 min 44 sec) 
Heartbeat CPU  0 instructions:  117000003 cycles:  115460892 heartbeat IPC: 0.52132 cumulative IPC: 0.37227 (Simulation time: 0 hr 4 min 47 sec) 
Heartbeat CPU  0 instructions:  118000002 cycles:  117362938 heartbeat IPC: 0.52575 cumulative IPC: 0.37840 (Simulation time: 0 hr 4 min 50 sec) 
Heartbeat CPU  0 instructions:  119000002 cycles:  119104507 heartbeat IPC: 0.57419 cumulative IPC: 0.38532 (Simulation time: 0 hr 4 min 52 sec) 
Heartbeat CPU  0 instructions:  120000000 cycles:  121011089 heartbeat IPC: 0.52450 cumulative IPC: 0.39050 (Simulation time: 0 hr 4 min 55 sec) 
Heartbeat CPU  0 instructions:  121000003 cycles:  122925121 heartbeat IPC: 0.52246 cumulative IPC: 0.39525 (Simulation time: 0 hr 4 min 58 sec) 
Heartbeat CPU  0 instructions:  122000000 cycles:  124702323 heartbeat IPC: 0.56268 cumulative IPC: 0.40067 (Simulation time: 0 hr 5 min 0 sec) 
Heartbeat CPU  0 instructions:  123000002 cycles:  126553435 heartbeat IPC: 0.54022 cumulative IPC: 0.40522 (Simulation time: 0 hr 5 min 3 sec) 
Heartbeat CPU  0 instructions:  124000000 cycles:  128471021 heartbeat IPC: 0.52149 cumulative IPC: 0.40902 (Simulation time: 0 hr 5 min 6 sec) 
Heartbeat CPU  0 instructions:  125000000 cycles:  130327511 heartbeat IPC: 0.53865 cumulative IPC: 0.41300 (Simulation time: 0 hr 5 min 9 sec) 
Heartbeat CPU  0 instructions:  126000002 cycles:  132116900 heartbeat IPC: 0.55885 cumulative IPC: 0.41719 (Simulation time: 0 hr 5 min 11 sec) 
Heartbeat CPU  0 instructions:  127000002 cycles:  134150742 heartbeat IPC: 0.49168 cumulative IPC: 0.41954 (Simulation time: 0 hr 5 min 14 sec) 
Heartbeat CPU  0 instructions:  128000000 cycles:  136055834 heartbeat IPC: 0.52491 cumulative IPC: 0.42257 (Simulation time: 0 hr 5 min 17 sec) 
Heartbeat CPU  0 instructions:  129000001 cycles:  137793431 heartbeat IPC: 0.57551 cumulative IPC: 0.42648 (Simulation time: 0 hr 5 min 19 sec) 
Heartbeat CPU  0 instructions:  130000000 cycles:  143365195 heartbeat IPC: 0.17948 cumulative IPC: 0.40777 (Simulation time: 0 hr 5 min 22 sec) 
Heartbeat CPU  0 instructions:  131000003 cycles:  155545762 heartbeat IPC: 0.08210 cumulative IPC: 0.36151 (Simulation time: 0 hr 5 min 26 sec) 
Heartbeat CPU  0 instructions:  132000000 cycles:  157342294 heartbeat IPC: 0.55663 cumulative IPC: 0.36552 (Simulation time: 0 hr 5 min 29 sec) 
Heartbeat CPU  0 instructions:  133000000 cycles:  159204414 heartbeat IPC: 0.53702 cumulative IPC: 0.36909 (Simulation time: 0 hr 5 min 31 sec) 
Heartbeat CPU  0 instructions:  134000000 cycles:  161133911 heartbeat IPC: 0.51827 cumulative IPC: 0.37224 (Simulation time: 0 hr 5 min 34 sec) 
Heartbeat CPU  0 instructions:  135000000 cycles:  162996610 heartbeat IPC: 0.53686 cumulative IPC: 0.37553 (Simulation time: 0 hr 5 min 37 sec) 
Heartbeat CPU  0 instructions:  136000000 cycles:  164780290 heartbeat IPC: 0.56064 cumulative IPC: 0.37900 (Simulation time: 0 hr 5 min 39 sec) 
Heartbeat CPU  0 instructions:  137000002 cycles:  166699685 heartbeat IPC: 0.52100 cumulative IPC: 0.38182 (Simulation time: 0 hr 5 min 42 sec) 
Heartbeat CPU  0 instructions:  138000001 cycles:  168608513 heartbeat IPC: 0.52388 cumulative IPC: 0.38456 (Simulation time: 0 hr 5 min 45 sec) 
Heartbeat CPU  0 instructions:  139000001 cycles:  170350021 heartbeat IPC: 0.57421 cumulative IPC: 0.38785 (Simulation time: 0 hr 5 min 48 sec) 
Heartbeat CPU  0 instructions:  140000000 cycles:  172254733 heartbeat IPC: 0.52501 cumulative IPC: 0.39040 (Simulation time: 0 hr 5 min 50 sec) 
Heartbeat CPU  0 instructions:  141000000 cycles:  174171169 heartbeat IPC: 0.52180 cumulative IPC: 0.39281 (Simulation time: 0 hr 5 min 53 sec) 
Heartbeat CPU  0 instructions:  142000001 cycles:  175964856 heartbeat IPC: 0.55751 cumulative IPC: 0.39559 (Simulation time: 0 hr 5 min 56 sec) 
Heartbeat CPU  0 instructions:  143000001 cycles:  177799628 heartbeat IPC: 0.54503 cumulative IPC: 0.39813 (Simulation time: 0 hr 5 min 58 sec) 
Heartbeat CPU  0 instructions:  144000000 cycles:  179719183 heartbeat IPC: 0.52095 cumulative IPC: 0.40027 (Simulation time: 0 hr 6 min 1 sec) 
Heartbeat CPU  0 instructions:  145000000 cycles:  181590681 heartbeat IPC: 0.53433 cumulative IPC: 0.40252 (Simulation time: 0 hr 6 min 4 sec) 
Heartbeat CPU  0 instructions:  146000002 cycles:  183353468 heartbeat IPC: 0.56728 cumulative IPC: 0.40508 (Simulation time: 0 hr 6 min 7 sec) 
Heartbeat CPU  0 instructions:  147000003 cycles:  185267610 heartbeat IPC: 0.52243 cumulative IPC: 0.40702 (Simulation time: 0 hr 6 min 9 sec) 
Heartbeat CPU  0 instructions:  148000000 cycles:  187174209 heartbeat IPC: 0.52449 cumulative IPC: 0.40893 (Simulation time: 0 hr 6 min 12 sec) 
Heartbeat CPU  0 instructions:  149000002 cycles:  188921748 heartbeat IPC: 0.57223 cumulative IPC: 0.41133 (Simulation time: 0 hr 6 min 15 sec) 
Heartbeat CPU  0 instructions:  150000003 cycles:  190812520 heartbeat IPC: 0.52889 cumulative IPC: 0.41316 (Simulation time: 0 hr 6 min 17 sec) 
Heartbeat CPU  0 instructions:  151000003 cycles:  192724566 heartbeat IPC: 0.52300 cumulative IPC: 0.41487 (Simulation time: 0 hr 6 min 20 sec) 
Heartbeat CPU  0 instructions:  152000000 cycles:  194547073 heartbeat IPC: 0.54869 cumulative IPC: 0.41683 (Simulation time: 0 hr 6 min 23 sec) 
Heartbeat CPU  0 instructions:  153000003 cycles:  207463068 heartbeat IPC: 0.07742 cumulative IPC: 0.38498 (Simulation time: 0 hr 6 min 26 sec) 
Heartbeat CPU  0 instructions:  154000000 cycles:  212454858 heartbeat IPC: 0.20033 cumulative IPC: 0.37852 (Simulation time: 0 hr 6 min 29 sec) 
Heartbeat CPU  0 instructions:  155000000 cycles:  214337206 heartbeat IPC: 0.53125 cumulative IPC: 0.38051 (Simulation time: 0 hr 6 min 32 sec) 
Heartbeat CPU  0 instructions:  156000000 cycles:  216100631 heartbeat IPC: 0.56708 cumulative IPC: 0.38276 (Simulation time: 0 hr 6 min 35 sec) 
Heartbeat CPU  0 instructions:  157000001 cycles:  218020776 heartbeat IPC: 0.52079 cumulative IPC: 0.38455 (Simulation time: 0 hr 6 min 37 sec) 
Heartbeat CPU  0 instructions:  158000001 cycles:  219938811 heartbeat IPC: 0.52137 cumulative IPC: 0.38630 (Simulation time: 0 hr 6 min 40 sec) 
Heartbeat CPU  0 instructions:  159000000 cycles:  221688307 heartbeat IPC: 0.57159 cumulative IPC: 0.38843 (Simulation time: 0 hr 6 min 43 sec) 
Heartbeat CPU  0 instructions:  160000000 cycles:  223586797 heartbeat IPC: 0.52673 cumulative IPC: 0.39014 (Simulation time: 0 hr 6 min 45 sec) 
Heartbeat CPU  0 instructions:  161000003 cycles:  225507174 heartbeat IPC: 0.52073 cumulative IPC: 0.39175 (Simulation time: 0 hr 6 min 48 sec) 
Heartbeat CPU  0 instructions:  162000000 cycles:  227320176 heartbeat IPC: 0.55157 cumulative IPC: 0.39359 (Simulation time: 0 hr 6 min 51 sec) 
Heartbeat CPU  0 instructions:  163000003 cycles:  229138604 heartbeat IPC: 0.54993 cumulative IPC: 0.39537 (Simulation time: 0 hr 6 min 54 sec) 
Heartbeat CPU  0 instructions:  164000000 cycles:  231052761 heartbeat IPC: 0.52242 cumulative IPC: 0.39688 (Simulation time: 0 hr 6 min 56 sec) 
Heartbeat CPU  0 instructions:  165000000 cycles:  232950188 heartbeat IPC: 0.52703 cumulative IPC: 0.39839 (Simulation time: 0 hr 6 min 59 sec) 
Heartbeat CPU  0 instructions:  166000001 cycles:  234694756 heartbeat IPC: 0.57321 cumulative IPC: 0.40024 (Simulation time: 0 hr 7 min 2 sec) 
Heartbeat CPU  0 instructions:  167000000 cycles:  236605747 heartbeat IPC: 0.52329 cumulative IPC: 0.40165 (Simulation time: 0 hr 7 min 4 sec) 
Heartbeat CPU  0 instructions:  168000000 cycles:  238519051 heartbeat IPC: 0.52266 cumulative IPC: 0.40302 (Simulation time: 0 hr 7 min 7 sec) 
Heartbeat CPU  0 instructions:  169000001 cycles:  240274180 heartbeat IPC: 0.56976 cumulative IPC: 0.40474 (Simulation time: 0 hr 7 min 10 sec) 
Heartbeat CPU  0 instructions:  170000002 cycles:  242147767 heartbeat IPC: 0.53374 cumulative IPC: 0.40614 (Simulation time: 0 hr 7 min 13 sec) 
Heartbeat CPU  0 instructions:  171000001 cycles:  244066455 heartbeat IPC: 0.52119 cumulative IPC: 0.40741 (Simulation time: 0 hr 7 min 15 sec) 
Heartbeat CPU  0 instructions:  172000000 cycles:  245895775 heartbeat IPC: 0.54665 cumulative IPC: 0.40886 (Simulation time: 0 hr 7 min 18 sec) 
Heartbeat CPU  0 instructions:  173000000 cycles:  247696269 heartbeat IPC: 0.55540 cumulative IPC: 0.41034 (Simulation time: 0 hr 7 min 21 sec) 
Heartbeat CPU  0 instructions:  174000003 cycles:  249613619 heartbeat IPC: 0.52155 cumulative IPC: 0.41152 (Simulation time: 0 hr 7 min 23 sec) 
Heartbeat CPU  0 instructions:  175000000 cycles:  256877081 heartbeat IPC: 0.13767 cumulative IPC: 0.40089 (Simulation time: 0 hr 7 min 27 sec) 
Heartbeat CPU  0 instructions:  176000000 cycles:  267224394 heartbeat IPC: 0.09664 cumulative IPC: 0.38495 (Simulation time: 0 hr 7 min 30 sec) 
Heartbeat CPU  0 instructions:  177000001 cycles:  269219701 heartbeat IPC: 0.50118 cumulative IPC: 0.38611 (Simulation time: 0 hr 7 min 33 sec) 
Heartbeat CPU  0 instructions:  178000003 cycles:  271291156 heartbeat IPC: 0.48275 cumulative IPC: 0.38710 (Simulation time: 0 hr 7 min 35 sec) 
Heartbeat CPU  0 instructions:  179000002 cycles:  273222429 heartbeat IPC: 0.51779 cumulative IPC: 0.38834 (Simulation time: 0 hr 7 min 38 sec) 
Heartbeat CPU  0 instructions:  180000000 cycles:  275131445 heartbeat IPC: 0.52383 cumulative IPC: 0.38960 (Simulation time: 0 hr 7 min 41 sec) 
Heartbeat CPU  0 instructions:  181000003 cycles:  277068471 heartbeat IPC: 0.51626 cumulative IPC: 0.39079 (Simulation time: 0 hr 7 min 44 sec) 
Heartbeat CPU  0 instructions:  182000003 cycles:  278917796 heartbeat IPC: 0.54074 cumulative IPC: 0.39211 (Simulation time: 0 hr 7 min 46 sec) 
Heartbeat CPU  0 instructions:  183000000 cycles:  280748433 heartbeat IPC: 0.54626 cumulative IPC: 0.39345 (Simulation time: 0 hr 7 min 49 sec) 
Heartbeat CPU  0 instructions:  184000000 cycles:  282678560 heartbeat IPC: 0.51810 cumulative IPC: 0.39458 (Simulation time: 0 hr 7 min 52 sec) 
Heartbeat CPU  0 instructions:  185000002 cycles:  284597066 heartbeat IPC: 0.52124 cumulative IPC: 0.39571 (Simulation time: 0 hr 7 min 54 sec) 
Heartbeat CPU  0 instructions:  186000001 cycles:  286375210 heartbeat IPC: 0.56238 cumulative IPC: 0.39708 (Simulation time: 0 hr 7 min 57 sec) 
Heartbeat CPU  0 instructions:  187000000 cycles:  288294093 heartbeat IPC: 0.52114 cumulative IPC: 0.39817 (Simulation time: 0 hr 8 min 0 sec) 
Heartbeat CPU  0 instructions:  188000000 cycles:  290224120 heartbeat IPC: 0.51813 cumulative IPC: 0.39922 (Simulation time: 0 hr 8 min 2 sec) 
Heartbeat CPU  0 instructions:  189000000 cycles:  292013015 heartbeat IPC: 0.55900 cumulative IPC: 0.40051 (Simulation time: 0 hr 8 min 5 sec) 
Heartbeat CPU  0 instructions:  190000000 cycles:  293900744 heartbeat IPC: 0.52974 cumulative IPC: 0.40160 (Simulation time: 0 hr 8 min 8 sec) 
Heartbeat CPU  0 instructions:  191000000 cycles:  295832313 heartbeat IPC: 0.51771 cumulative IPC: 0.40259 (Simulation time: 0 hr 8 min 11 sec) 
Heartbeat CPU  0 instructions:  192000000 cycles:  297693730 heartbeat IPC: 0.53723 cumulative IPC: 0.40369 (Simulation time: 0 hr 8 min 13 sec) 
Heartbeat CPU  0 instructions:  193000001 cycles:  299507015 heartbeat IPC: 0.55149 cumulative IPC: 0.40485 (Simulation time: 0 hr 8 min 16 sec) 
Heartbeat CPU  0 instructions:  194000000 cycles:  301438378 heartbeat IPC: 0.51777 cumulative IPC: 0.40580 (Simulation time: 0 hr 8 min 19 sec) 
Heartbeat CPU  0 instructions:  195000002 cycles:  303355848 heartbeat IPC: 0.52152 cumulative IPC: 0.40675 (Simulation time: 0 hr 8 min 21 sec) 
Heartbeat CPU  0 instructions:  196000000 cycles:  305129219 heartbeat IPC: 0.56390 cumulative IPC: 0.40793 (Simulation time: 0 hr 8 min 24 sec) 
Heartbeat CPU  0 instructions:  197000000 cycles:  307158333 heartbeat IPC: 0.49283 cumulative IPC: 0.40866 (Simulation time: 0 hr 8 min 27 sec) 
Heartbeat CPU  0 instructions:  198000003 cycles:  321604879 heartbeat IPC: 0.06922 cumulative IPC: 0.38918 (Simulation time: 0 hr 8 min 31 sec) 
Heartbeat CPU  0 instructions:  199000001 cycles:  324755962 heartbeat IPC: 0.31735 cumulative IPC: 0.38829 (Simulation time: 0 hr 8 min 33 sec) 
Heartbeat CPU  0 instructions:  200000000 cycles:  326656938 heartbeat IPC: 0.52605 cumulative IPC: 0.38931 (Simulation time: 0 hr 8 min 36 sec) 
Heartbeat CPU  0 instructions:  201000002 cycles:  328597292 heartbeat IPC: 0.51537 cumulative IPC: 0.39026 (Simulation time: 0 hr 8 min 39 sec) 
Heartbeat CPU  0 instructions:  202000003 cycles:  330468115 heartbeat IPC: 0.53452 cumulative IPC: 0.39129 (Simulation time: 0 hr 8 min 42 sec) 
Heartbeat CPU  0 instructions:  203000002 cycles:  332285604 heartbeat IPC: 0.55021 cumulative IPC: 0.39239 (Simulation time: 0 hr 8 min 44 sec) 
Heartbeat CPU  0 instructions:  204000000 cycles:  334224334 heartbeat IPC: 0.51580 cumulative IPC: 0.39330 (Simulation time: 0 hr 8 min 47 sec) 
Heartbeat CPU  0 instructions:  205000002 cycles:  336141693 heartbeat IPC: 0.52155 cumulative IPC: 0.39422 (Simulation time: 0 hr 8 min 50 sec) 
Heartbeat CPU  0 instructions:  206000000 cycles:  337926994 heartbeat IPC: 0.56013 cumulative IPC: 0.39533 (Simulation time: 0 hr 8 min 52 sec) 
Heartbeat CPU  0 instructions:  207000002 cycles:  339842416 heartbeat IPC: 0.52208 cumulative IPC: 0.39623 (Simulation time: 0 hr 8 min 55 sec) 
Heartbeat CPU  0 instructions:  208000000 cycles:  341769914 heartbeat IPC: 0.51881 cumulative IPC: 0.39709 (Simulation time: 0 hr 8 min 58 sec) 
Heartbeat CPU  0 instructions:  209000002 cycles:  343576088 heartbeat IPC: 0.55366 cumulative IPC: 0.39813 (Simulation time: 0 hr 9 min 1 sec) 
Heartbeat CPU  0 instructions:  210000000 cycles:  345449795 heartbeat IPC: 0.53370 cumulative IPC: 0.39905 (Simulation time: 0 hr 9 min 3 sec) 
Heartbeat CPU  0 instructions:  211000003 cycles:  347381251 heartbeat IPC: 0.51775 cumulative IPC: 0.39988 (Simulation time: 0 hr 9 min 6 sec) 
Heartbeat CPU  0 instructions:  212000000 cycles:  349264471 heartbeat IPC: 0.53100 cumulative IPC: 0.40076 (Simulation time: 0 hr 9 min 9 sec) 
Heartbeat CPU  0 instructions:  213000003 cycles:  351059284 heartbeat IPC: 0.55716 cumulative IPC: 0.40176 (Simulation time: 0 hr 9 min 11 sec) 
Heartbeat CPU  0 instructions:  214000003 cycles:  352990563 heartbeat IPC: 0.51779 cumulative IPC: 0.40255 (Simulation time: 0 hr 9 min 14 sec) 
Heartbeat CPU  0 instructions:  215000003 cycles:  354914532 heartbeat IPC: 0.51976 cumulative IPC: 0.40334 (Simulation time: 0 hr 9 min 17 sec) 
Heartbeat CPU  0 instructions:  216000000 cycles:  356697311 heartbeat IPC: 0.56092 cumulative IPC: 0.40432 (Simulation time: 0 hr 9 min 19 sec) 
Heartbeat CPU  0 instructions:  217000002 cycles:  358604652 heartbeat IPC: 0.52429 cumulative IPC: 0.40511 (Simulation time: 0 hr 9 min 22 sec) 
Heartbeat CPU  0 instructions:  218000001 cycles:  360533735 heartbeat IPC: 0.51838 cumulative IPC: 0.40586 (Simulation time: 0 hr 9 min 25 sec) 
Heartbeat CPU  0 instructions:  219000002 cycles:  362353996 heartbeat IPC: 0.54937 cumulative IPC: 0.40676 (Simulation time: 0 hr 9 min 28 sec) 
Heartbeat CPU  0 instructions:  220000000 cycles:  371394047 heartbeat IPC: 0.11062 cumulative IPC: 0.39788 (Simulation time: 0 hr 9 min 31 sec) 
Heartbeat CPU  0 instructions:  221000000 cycles:  380173542 heartbeat IPC: 0.11390 cumulative IPC: 0.38985 (Simulation time: 0 hr 9 min 34 sec) 
Heartbeat CPU  0 instructions:  222000000 cycles:  382069851 heartbeat IPC: 0.52734 cumulative IPC: 0.39068 (Simulation time: 0 hr 9 min 37 sec) 
Heartbeat CPU  0 instructions:  223000001 cycles:  383871826 heartbeat IPC: 0.55495 cumulative IPC: 0.39162 (Simulation time: 0 hr 9 min 40 sec) 
Heartbeat CPU  0 instructions:  224000000 cycles:  385805969 heartbeat IPC: 0.51702 cumulative IPC: 0.39239 (Simulation time: 0 hr 9 min 42 sec) 
Heartbeat CPU  0 instructions:  225000002 cycles:  387739867 heartbeat IPC: 0.51709 cumulative IPC: 0.39315 (Simulation time: 0 hr 9 min 45 sec) 
Heartbeat CPU  0 instructions:  226000002 cycles:  389519952 heartbeat IPC: 0.56177 cumulative IPC: 0.39409 (Simulation time: 0 hr 9 min 48 sec) 
Heartbeat CPU  0 instructions:  227000003 cycles:  391431255 heartbeat IPC: 0.52320 cumulative IPC: 0.39486 (Simulation time: 0 hr 9 min 50 sec) 
Heartbeat CPU  0 instructions:  228000000 cycles:  393363083 heartbeat IPC: 0.51764 cumulative IPC: 0.39559 (Simulation time: 0 hr 9 min 53 sec) 
Heartbeat CPU  0 instructions:  229000003 cycles:  395328048 heartbeat IPC: 0.50892 cumulative IPC: 0.39627 (Simulation time: 0 hr 9 min 56 sec) 
Heartbeat CPU  0 instructions:  230000001 cycles:  397179998 heartbeat IPC: 0.53997 cumulative IPC: 0.39709 (Simulation time: 0 hr 9 min 59 sec) 
Heartbeat CPU  0 instructions:  231000003 cycles:  399110625 heartbeat IPC: 0.51797 cumulative IPC: 0.39779 (Simulation time: 0 hr 10 min 1 sec) 
Heartbeat CPU  0 instructions:  232000000 cycles:  401007104 heartbeat IPC: 0.52729 cumulative IPC: 0.39854 (Simulation time: 0 hr 10 min 4 sec) 
Heartbeat CPU  0 instructions:  233000002 cycles:  402798614 heartbeat IPC: 0.55819 cumulative IPC: 0.39939 (Simulation time: 0 hr 10 min 7 sec) 
Heartbeat CPU  0 instructions:  234000001 cycles:  404722895 heartbeat IPC: 0.51967 cumulative IPC: 0.40009 (Simulation time: 0 hr 10 min 9 sec) 
Heartbeat CPU  0 instructions:  235000003 cycles:  406646941 heartbeat IPC: 0.51974 cumulative IPC: 0.40077 (Simulation time: 0 hr 10 min 12 sec) 
Heartbeat CPU  0 instructions:  236000000 cycles:  408426399 heartbeat IPC: 0.56197 cumulative IPC: 0.40162 (Simulation time: 0 hr 10 min 15 sec) 
Heartbeat CPU  0 instructions:  237000002 cycles:  410330293 heartbeat IPC: 0.52524 cumulative IPC: 0.40231 (Simulation time: 0 hr 10 min 17 sec) 
Heartbeat CPU  0 instructions:  238000002 cycles:  412263094 heartbeat IPC: 0.51738 cumulative IPC: 0.40296 (Simulation time: 0 hr 10 min 20 sec) 
Heartbeat CPU  0 instructions:  239000001 cycles:  414102568 heartbeat IPC: 0.54363 cumulative IPC: 0.40371 (Simulation time: 0 hr 10 min 23 sec) 
Heartbeat CPU  0 instructions:  240000000 cycles:  415936535 heartbeat IPC: 0.54527 cumulative IPC: 0.40446 (Simulation time: 0 hr 10 min 26 sec) 
Heartbeat CPU  0 instructions:  241000003 cycles:  417872761 heartbeat IPC: 0.51647 cumulative IPC: 0.40508 (Simulation time: 0 hr 10 min 28 sec) 
Heartbeat CPU  0 instructions:  242000002 cycles:  421616725 heartbeat IPC: 0.26710 cumulative IPC: 0.40361 (Simulation time: 0 hr 10 min 31 sec) 
Heartbeat CPU  0 instructions:  243000003 cycles:  435825066 heartbeat IPC: 0.07038 cumulative IPC: 0.39068 (Simulation time: 0 hr 10 min 35 sec) 
Heartbeat CPU  0 instructions:  244000000 cycles:  437772656 heartbeat IPC: 0.51345 cumulative IPC: 0.39133 (Simulation time: 0 hr 10 min 38 sec) 
Heartbeat CPU  0 instructions:  245000000 cycles:  439706134 heartbeat IPC: 0.51720 cumulative IPC: 0.39199 (Simulation time: 0 hr 10 min 40 sec) 
Heartbeat CPU  0 instructions:  246000000 cycles:  441496440 heartbeat IPC: 0.55856 cumulative IPC: 0.39279 (Simulation time: 0 hr 10 min 43 sec) 
Heartbeat CPU  0 instructions:  247000000 cycles:  443406346 heartbeat IPC: 0.52359 cumulative IPC: 0.39346 (Simulation time: 0 hr 10 min 46 sec) 
Heartbeat CPU  0 instructions:  248000000 cycles:  445339996 heartbeat IPC: 0.51716 cumulative IPC: 0.39409 (Simulation time: 0 hr 10 min 49 sec) 
Heartbeat CPU  0 instructions:  249000001 cycles:  447188374 heartbeat IPC: 0.54102 cumulative IPC: 0.39481 (Simulation time: 0 hr 10 min 51 sec) 
Heartbeat CPU  0 instructions:  250000003 cycles:  449029369 heartbeat IPC: 0.54319 cumulative IPC: 0.39553 (Simulation time: 0 hr 10 min 54 sec) 
Heartbeat CPU  0 instructions:  251000002 cycles:  450962492 heartbeat IPC: 0.51730 cumulative IPC: 0.39615 (Simulation time: 0 hr 10 min 57 sec) 
Heartbeat CPU  0 instructions:  252000000 cycles:  452875378 heartbeat IPC: 0.52277 cumulative IPC: 0.39678 (Simulation time: 0 hr 10 min 59 sec) 
Heartbeat CPU  0 instructions:  253000000 cycles:  454652870 heartbeat IPC: 0.56259 cumulative IPC: 0.39755 (Simulation time: 0 hr 11 min 2 sec) 
Heartbeat CPU  0 instructions:  254000002 cycles:  456573185 heartbeat IPC: 0.52075 cumulative IPC: 0.39816 (Simulation time: 0 hr 11 min 5 sec) 
Heartbeat CPU  0 instructions:  255000000 cycles:  458507000 heartbeat IPC: 0.51711 cumulative IPC: 0.39875 (Simulation time: 0 hr 11 min 7 sec) 
Heartbeat CPU  0 instructions:  256000000 cycles:  460288500 heartbeat IPC: 0.56132 cumulative IPC: 0.39949 (Simulation time: 0 hr 11 min 10 sec) 
Heartbeat CPU  0 instructions:  257000000 cycles:  462184067 heartbeat IPC: 0.52755 cumulative IPC: 0.40011 (Simulation time: 0 hr 11 min 13 sec) 
Heartbeat CPU  0 instructions:  258000003 cycles:  464114432 heartbeat IPC: 0.51804 cumulative IPC: 0.40069 (Simulation time: 0 hr 11 min 16 sec) 
Heartbeat CPU  0 instructions:  259000000 cycles:  465972681 heartbeat IPC: 0.53814 cumulative IPC: 0.40133 (Simulation time: 0 hr 11 min 18 sec) 
Heartbeat CPU  0 instructions:  260000000 cycles:  467793627 heartbeat IPC: 0.54917 cumulative IPC: 0.40201 (Simulation time: 0 hr 11 min 21 sec) 
Heartbeat CPU  0 instructions:  261000000 cycles:  469721646 heartbeat IPC: 0.51867 cumulative IPC: 0.40257 (Simulation time: 0 hr 11 min 24 sec) 
Heartbeat CPU  0 instructions:  262000002 cycles:  471639268 heartbeat IPC: 0.52148 cumulative IPC: 0.40314 (Simulation time: 0 hr 11 min 26 sec) 
Heartbeat CPU  0 instructions:  263000001 cycles:  473416623 heartbeat IPC: 0.56263 cumulative IPC: 0.40384 (Simulation time: 0 hr 11 min 29 sec) 
Heartbeat CPU  0 instructions:  264000000 cycles:  475329829 heartbeat IPC: 0.52268 cumulative IPC: 0.40440 (Simulation time: 0 hr 11 min 32 sec) 
Heartbeat CPU  0 instructions:  265000002 cycles:  486249556 heartbeat IPC: 0.09158 cumulative IPC: 0.39620 (Simulation time: 0 hr 11 min 35 sec) 
Heartbeat CPU  0 instructions:  266000001 cycles:  493105298 heartbeat IPC: 0.14586 cumulative IPC: 0.39215 (Simulation time: 0 hr 11 min 38 sec) 
Heartbeat CPU  0 instructions:  267000002 cycles:  495006028 heartbeat IPC: 0.52611 cumulative IPC: 0.39275 (Simulation time: 0 hr 11 min 41 sec) 
Heartbeat CPU  0 instructions:  268000000 cycles:  496953443 heartbeat IPC: 0.51350 cumulative IPC: 0.39330 (Simulation time: 0 hr 11 min 44 sec) 
Heartbeat CPU  0 instructions:  269000000 cycles:  498824828 heartbeat IPC: 0.53436 cumulative IPC: 0.39391 (Simulation time: 0 hr 11 min 47 sec) 
Heartbeat CPU  0 instructions:  270000003 cycles:  500658699 heartbeat IPC: 0.54530 cumulative IPC: 0.39456 (Simulation time: 0 hr 11 min 49 sec) 
Heartbeat CPU  0 instructions:  271000002 cycles:  502598781 heartbeat IPC: 0.51544 cumulative IPC: 0.39510 (Simulation time: 0 hr 11 min 52 sec) 
Heartbeat CPU  0 instructions:  272000000 cycles:  504521833 heartbeat IPC: 0.52001 cumulative IPC: 0.39565 (Simulation time: 0 hr 11 min 55 sec) 
Heartbeat CPU  0 instructions:  273000002 cycles:  506303318 heartbeat IPC: 0.56133 cumulative IPC: 0.39633 (Simulation time: 0 hr 11 min 57 sec) 
Heartbeat CPU  0 instructions:  274000000 cycles:  508219050 heartbeat IPC: 0.52199 cumulative IPC: 0.39688 (Simulation time: 0 hr 12 min 0 sec) 
Heartbeat CPU  0 instructions:  275000000 cycles:  510146269 heartbeat IPC: 0.51888 cumulative IPC: 0.39741 (Simulation time: 0 hr 12 min 3 sec) 
Heartbeat CPU  0 instructions:  276000000 cycles:  511948136 heartbeat IPC: 0.55498 cumulative IPC: 0.39805 (Simulation time: 0 hr 12 min 6 sec) 
Heartbeat CPU  0 instructions:  277000001 cycles:  513824725 heartbeat IPC: 0.53288 cumulative IPC: 0.39862 (Simulation time: 0 hr 12 min 8 sec) 
Heartbeat CPU  0 instructions:  278000000 cycles:  515759353 heartbeat IPC: 0.51689 cumulative IPC: 0.39913 (Simulation time: 0 hr 12 min 11 sec) 
Heartbeat CPU  0 instructions:  279000003 cycles:  517757821 heartbeat IPC: 0.50038 cumulative IPC: 0.39959 (Simulation time: 0 hr 12 min 14 sec) 
Heartbeat CPU  0 instructions:  280000000 cycles:  519670565 heartbeat IPC: 0.52281 cumulative IPC: 0.40011 (Simulation time: 0 hr 12 min 16 sec) 
Heartbeat CPU  0 instructions:  281000002 cycles:  521715266 heartbeat IPC: 0.48907 cumulative IPC: 0.40051 (Simulation time: 0 hr 12 min 19 sec) 
Heartbeat CPU  0 instructions:  282000002 cycles:  523638957 heartbeat IPC: 0.51983 cumulative IPC: 0.40102 (Simulation time: 0 hr 12 min 22 sec) 
Heartbeat CPU  0 instructions:  283000000 cycles:  525410801 heartbeat IPC: 0.56438 cumulative IPC: 0.40165 (Simulation time: 0 hr 12 min 25 sec) 
Heartbeat CPU  0 instructions:  284000000 cycles:  527321418 heartbeat IPC: 0.52339 cumulative IPC: 0.40216 (Simulation time: 0 hr 12 min 27 sec) 
Heartbeat CPU  0 instructions:  285000001 cycles:  529253085 heartbeat IPC: 0.51769 cumulative IPC: 0.40265 (Simulation time: 0 hr 12 min 30 sec) 
Heartbeat CPU  0 instructions:  286000003 cycles:  531070645 heartbeat IPC: 0.55019 cumulative IPC: 0.40323 (Simulation time: 0 hr 12 min 33 sec) 
Heartbeat CPU  0 instructions:  287000002 cycles:  536674911 heartbeat IPC: 0.17844 cumulative IPC: 0.40053 (Simulation time: 0 hr 12 min 36 sec) 
Heartbeat CPU  0 instructions:  288000000 cycles:  548812406 heartbeat IPC: 0.08239 cumulative IPC: 0.39247 (Simulation time: 0 hr 12 min 39 sec) 
Heartbeat CPU  0 instructions:  289000003 cycles:  550707368 heartbeat IPC: 0.52772 cumulative IPC: 0.39300 (Simulation time: 0 hr 12 min 42 sec) 
Heartbeat CPU  0 instructions:  290000003 cycles:  552517528 heartbeat IPC: 0.55244 cumulative IPC: 0.39360 (Simulation time: 0 hr 12 min 45 sec) 
Heartbeat CPU  0 instructions:  291000002 cycles:  554454150 heartbeat IPC: 0.51636 cumulative IPC: 0.39409 (Simulation time: 0 hr 12 min 47 sec) 
Heartbeat CPU  0 instructions:  292000000 cycles:  556377356 heartbeat IPC: 0.51996 cumulative IPC: 0.39459 (Simulation time: 0 hr 12 min 50 sec) 
Heartbeat CPU  0 instructions:  293000001 cycles:  558167331 heartbeat IPC: 0.55867 cumulative IPC: 0.39519 (Simulation time: 0 hr 12 min 53 sec) 
Heartbeat CPU  0 instructions:  294000000 cycles:  560076966 heartbeat IPC: 0.52366 cumulative IPC: 0.39569 (Simulation time: 0 hr 12 min 56 sec) 
Heartbeat CPU  0 instructions:  295000002 cycles:  562016187 heartbeat IPC: 0.51567 cumulative IPC: 0.39616 (Simulation time: 0 hr 12 min 58 sec) 
Heartbeat CPU  0 instructions:  296000000 cycles:  563836486 heartbeat IPC: 0.54936 cumulative IPC: 0.39673 (Simulation time: 0 hr 13 min 1 sec) 
Heartbeat CPU  0 instructions:  297000001 cycles:  565693449 heartbeat IPC: 0.53851 cumulative IPC: 0.39726 (Simulation time: 0 hr 13 min 4 sec) 
Heartbeat CPU  0 instructions:  298000003 cycles:  567627849 heartbeat IPC: 0.51696 cumulative IPC: 0.39772 (Simulation time: 0 hr 13 min 6 sec) 
Heartbeat CPU  0 instructions:  299000000 cycles:  569521373 heartbeat IPC: 0.52811 cumulative IPC: 0.39822 (Simulation time: 0 hr 13 min 9 sec) 
Heartbeat CPU  0 instructions:  300000000 cycles:  571310224 heartbeat IPC: 0.55902 cumulative IPC: 0.39879 (Simulation time: 0 hr 13 min 12 sec) 
Heartbeat CPU  0 instructions:  301000003 cycles:  573236508 heartbeat IPC: 0.51914 cumulative IPC: 0.39925 (Simulation time: 0 hr 13 min 15 sec) 
Heartbeat CPU  0 instructions:  302000000 cycles:  575161259 heartbeat IPC: 0.51955 cumulative IPC: 0.39971 (Simulation time: 0 hr 13 min 17 sec) 
Heartbeat CPU  0 instructions:  303000000 cycles:  576942082 heartbeat IPC: 0.56154 cumulative IPC: 0.40028 (Simulation time: 0 hr 13 min 20 sec) 
Heartbeat CPU  0 instructions:  304000000 cycles:  578844297 heartbeat IPC: 0.52570 cumulative IPC: 0.40075 (Simulation time: 0 hr 13 min 23 sec) 
Heartbeat CPU  0 instructions:  305000000 cycles:  580780012 heartbeat IPC: 0.51660 cumulative IPC: 0.40119 (Simulation time: 0 hr 13 min 26 sec) 
Heartbeat CPU  0 instructions:  306000002 cycles:  582612098 heartbeat IPC: 0.54583 cumulative IPC: 0.40170 (Simulation time: 0 hr 13 min 28 sec) 
Heartbeat CPU  0 instructions:  307000003 cycles:  584453394 heartbeat IPC: 0.54310 cumulative IPC: 0.40221 (Simulation time: 0 hr 13 min 31 sec) 
Heartbeat CPU  0 instructions:  308000000 cycles:  586384433 heartbeat IPC: 0.51785 cumulative IPC: 0.40264 (Simulation time: 0 hr 13 min 34 sec) 
Heartbeat CPU  0 instructions:  309000003 cycles:  588293342 heartbeat IPC: 0.52386 cumulative IPC: 0.40309 (Simulation time: 0 hr 13 min 36 sec) 
Heartbeat CPU  0 instructions:  310000002 cycles:  601005669 heartbeat IPC: 0.07866 cumulative IPC: 0.39532 (Simulation time: 0 hr 13 min 40 sec) 
Heartbeat CPU  0 instructions:  311000000 cycles:  605918121 heartbeat IPC: 0.20356 cumulative IPC: 0.39357 (Simulation time: 0 hr 13 min 43 sec) 
Heartbeat CPU  0 instructions:  312000000 cycles:  607856843 heartbeat IPC: 0.51580 cumulative IPC: 0.39401 (Simulation time: 0 hr 13 min 46 sec) 
Heartbeat CPU  0 instructions:  313000003 cycles:  609639701 heartbeat IPC: 0.56090 cumulative IPC: 0.39456 (Simulation time: 0 hr 13 min 48 sec) 
Heartbeat CPU  0 instructions:  314000003 cycles:  611550473 heartbeat IPC: 0.52335 cumulative IPC: 0.39501 (Simulation time: 0 hr 13 min 51 sec) 
Heartbeat CPU  0 instructions:  315000000 cycles:  613487900 heartbeat IPC: 0.51615 cumulative IPC: 0.39544 (Simulation time: 0 hr 13 min 54 sec) 
Heartbeat CPU  0 instructions:  316000000 cycles:  615324263 heartbeat IPC: 0.54455 cumulative IPC: 0.39595 (Simulation time: 0 hr 13 min 57 sec) 
Heartbeat CPU  0 instructions:  317000001 cycles:  617165920 heartbeat IPC: 0.54299 cumulative IPC: 0.39644 (Simulation time: 0 hr 13 min 59 sec) 
Heartbeat CPU  0 instructions:  318000002 cycles:  619100883 heartbeat IPC: 0.51681 cumulative IPC: 0.39686 (Simulation time: 0 hr 14 min 2 sec) 
Heartbeat CPU  0 instructions:  319000001 cycles:  621012553 heartbeat IPC: 0.52310 cumulative IPC: 0.39730 (Simulation time: 0 hr 14 min 5 sec) 
Heartbeat CPU  0 instructions:  320000000 cycles:  622792814 heartbeat IPC: 0.56171 cumulative IPC: 0.39783 (Simulation time: 0 hr 14 min 7 sec) 
Heartbeat CPU  0 instructions:  321000002 cycles:  624713712 heartbeat IPC: 0.52059 cumulative IPC: 0.39826 (Simulation time: 0 hr 14 min 10 sec) 
Heartbeat CPU  0 instructions:  322000001 cycles:  626646148 heartbeat IPC: 0.51748 cumulative IPC: 0.39867 (Simulation time: 0 hr 14 min 13 sec) 
Heartbeat CPU  0 instructions:  323000002 cycles:  628426460 heartbeat IPC: 0.56170 cumulative IPC: 0.39919 (Simulation time: 0 hr 14 min 16 sec) 
Heartbeat CPU  0 instructions:  324000000 cycles:  630318774 heartbeat IPC: 0.52845 cumulative IPC: 0.39963 (Simulation time: 0 hr 14 min 18 sec) 
Heartbeat CPU  0 instructions:  325000001 cycles:  632253831 heartbeat IPC: 0.51678 cumulative IPC: 0.40003 (Simulation time: 0 hr 14 min 21 sec) 
Heartbeat CPU  0 instructions:  326000002 cycles:  634106057 heartbeat IPC: 0.53989 cumulative IPC: 0.40049 (Simulation time: 0 hr 14 min 24 sec) 
Heartbeat CPU  0 instructions:  327000002 cycles:  635925085 heartbeat IPC: 0.54974 cumulative IPC: 0.40097 (Simulation time: 0 hr 14 min 26 sec) 
Heartbeat CPU  0 instructions:  328000000 cycles:  637858455 heartbeat IPC: 0.51723 cumulative IPC: 0.40136 (Simulation time: 0 hr 14 min 29 sec) 
Heartbeat CPU  0 instructions:  329000002 cycles:  639776653 heartbeat IPC: 0.52132 cumulative IPC: 0.40177 (Simulation time: 0 hr 14 min 32 sec) 
Heartbeat CPU  0 instructions:  330000001 cycles:  641559969 heartbeat IPC: 0.56075 cumulative IPC: 0.40226 (Simulation time: 0 hr 14 min 35 sec) 
Heartbeat CPU  0 instructions:  331000002 cycles:  643595885 heartbeat IPC: 0.49118 cumulative IPC: 0.40258 (Simulation time: 0 hr 14 min 37 sec) 
Heartbeat CPU  0 instructions:  332000000 cycles:  651011103 heartbeat IPC: 0.13486 cumulative IPC: 0.39916 (Simulation time: 0 hr 14 min 40 sec) 
Heartbeat CPU  0 instructions:  333000000 cycles:  661272270 heartbeat IPC: 0.09745 cumulative IPC: 0.39393 (Simulation time: 0 hr 14 min 44 sec) 
Heartbeat CPU  0 instructions:  334000001 cycles:  663190534 heartbeat IPC: 0.52131 cumulative IPC: 0.39434 (Simulation time: 0 hr 14 min 47 sec) 
Heartbeat CPU  0 instructions:  335000001 cycles:  665131979 heartbeat IPC: 0.51508 cumulative IPC: 0.39473 (Simulation time: 0 hr 14 min 49 sec) 
Heartbeat CPU  0 instructions:  336000000 cycles:  666992098 heartbeat IPC: 0.53760 cumulative IPC: 0.39518 (Simulation time: 0 hr 14 min 52 sec) 
Heartbeat CPU  0 instructions:  337000003 cycles:  668818923 heartbeat IPC: 0.54740 cumulative IPC: 0.39564 (Simulation time: 0 hr 14 min 55 sec) 
Heartbeat CPU  0 instructions:  338000002 cycles:  670756804 heartbeat IPC: 0.51603 cumulative IPC: 0.39603 (Simulation time: 0 hr 14 min 57 sec) 
Heartbeat CPU  0 instructions:  339000000 cycles:  672677620 heartbeat IPC: 0.52061 cumulative IPC: 0.39643 (Simulation time: 0 hr 15 min 0 sec) 
Heartbeat CPU  0 instructions:  340000000 cycles:  674451969 heartbeat IPC: 0.56359 cumulative IPC: 0.39692 (Simulation time: 0 hr 15 min 3 sec) 
Heartbeat CPU  0 instructions:  341000000 cycles:  676371478 heartbeat IPC: 0.52097 cumulative IPC: 0.39731 (Simulation time: 0 hr 15 min 6 sec) 
Heartbeat CPU  0 instructions:  342000001 cycles:  678300418 heartbeat IPC: 0.51842 cumulative IPC: 0.39770 (Simulation time: 0 hr 15 min 8 sec) 
Heartbeat CPU  0 instructions:  343000000 cycles:  680093924 heartbeat IPC: 0.55757 cumulative IPC: 0.39817 (Simulation time: 0 hr 15 min 11 sec) 
Heartbeat CPU  0 instructions:  344000000 cycles:  681978045 heartbeat IPC: 0.53075 cumulative IPC: 0.39857 (Simulation time: 0 hr 15 min 14 sec) 
Heartbeat CPU  0 instructions:  345000000 cycles:  683902981 heartbeat IPC: 0.51950 cumulative IPC: 0.39895 (Simulation time: 0 hr 15 min 16 sec) 
Heartbeat CPU  0 instructions:  346000001 cycles:  685776611 heartbeat IPC: 0.53372 cumulative IPC: 0.39936 (Simulation time: 0 hr 15 min 19 sec) 
Heartbeat CPU  0 instructions:  347000000 cycles:  687582059 heartbeat IPC: 0.55388 cumulative IPC: 0.39981 (Simulation time: 0 hr 15 min 22 sec) 
Heartbeat CPU  0 instructions:  348000000 cycles:  689506499 heartbeat IPC: 0.51963 cumulative IPC: 0.40019 (Simulation time: 0 hr 15 min 25 sec) 
Heartbeat CPU  0 instructions:  349000001 cycles:  691429535 heartbeat IPC: 0.52001 cumulative IPC: 0.40056 (Simulation time: 0 hr 15 min 27 sec) 
Heartbeat CPU  0 instructions:  350000003 cycles:  693203784 heartbeat IPC: 0.56362 cumulative IPC: 0.40102 (Simulation time: 0 hr 15 min 30 sec) 
Heartbeat CPU  0 instructions:  351000003 cycles:  695111766 heartbeat IPC: 0.52411 cumulative IPC: 0.40140 (Simulation time: 0 hr 15 min 33 sec) 
Heartbeat CPU  0 instructions:  352000000 cycles:  697047602 heartbeat IPC: 0.51657 cumulative IPC: 0.40175 (Simulation time: 0 hr 15 min 35 sec) 
Heartbeat CPU  0 instructions:  353000001 cycles:  698858151 heartbeat IPC: 0.55232 cumulative IPC: 0.40219 (Simulation time: 0 hr 15 min 38 sec) 
Heartbeat CPU  0 instructions:  354000003 cycles:  700933210 heartbeat IPC: 0.48191 cumulative IPC: 0.40245 (Simulation time: 0 hr 15 min 41 sec) 
Heartbeat CPU  0 instructions:  355000003 cycles:  715541011 heartbeat IPC: 0.06846 cumulative IPC: 0.39489 (Simulation time: 0 hr 15 min 45 sec) 
Heartbeat CPU  0 instructions:  356000000 cycles:  718656367 heartbeat IPC: 0.32099 cumulative IPC: 0.39454 (Simulation time: 0 hr 15 min 47 sec) 
Heartbeat CPU  0 instructions:  357000003 cycles:  720480151 heartbeat IPC: 0.54831 cumulative IPC: 0.39497 (Simulation time: 0 hr 15 min 50 sec) 
Heartbeat CPU  0 instructions:  358000002 cycles:  722413854 heartbeat IPC: 0.51714 cumulative IPC: 0.39533 (Simulation time: 0 hr 15 min 53 sec) 
Heartbeat CPU  0 instructions:  359000003 cycles:  724343897 heartbeat IPC: 0.51812 cumulative IPC: 0.39569 (Simulation time: 0 hr 15 min 56 sec) 
Heartbeat CPU  0 instructions:  360000000 cycles:  726127309 heartbeat IPC: 0.56072 cumulative IPC: 0.39614 (Simulation time: 0 hr 15 min 58 sec) 
Heartbeat CPU  0 instructions:  361000003 cycles:  728043516 heartbeat IPC: 0.52187 cumulative IPC: 0.39651 (Simulation time: 0 hr 16 min 1 sec) 
Heartbeat CPU  0 instructions:  362000000 cycles:  729986782 heartbeat IPC: 0.51460 cumulative IPC: 0.39685 (Simulation time: 0 hr 16 min 4 sec) 
Heartbeat CPU  0 instructions:  363000000 cycles:  731805703 heartbeat IPC: 0.54978 cumulative IPC: 0.39727 (Simulation time: 0 hr 16 min 6 sec) 
Heartbeat CPU  0 instructions:  364000000 cycles:  733669153 heartbeat IPC: 0.53664 cumulative IPC: 0.39767 (Simulation time: 0 hr 16 min 9 sec) 
Heartbeat CPU  0 instructions:  365000000 cycles:  735607058 heartbeat IPC: 0.51602 cumulative IPC: 0.39801 (Simulation time: 0 hr 16 min 12 sec) 
Heartbeat CPU  0 instructions:  366000001 cycles:  737494837 heartbeat IPC: 0.52972 cumulative IPC: 0.39838 (Simulation time: 0 hr 16 min 15 sec) 
Heartbeat CPU  0 instructions:  367000001 cycles:  739287424 heartbeat IPC: 0.55785 cumulative IPC: 0.39881 (Simulation time: 0 hr 16 min 17 sec) 
Heartbeat CPU  0 instructions:  368000000 cycles:  741214895 heartbeat IPC: 0.51881 cumulative IPC: 0.39915 (Simulation time: 0 hr 16 min 20 sec) 
Heartbeat CPU  0 instructions:  369000003 cycles:  743149547 heartbeat IPC: 0.51689 cumulative IPC: 0.39949 (Simulation time: 0 hr 16 min 23 sec) 
Heartbeat CPU  0 instructions:  370000000 cycles:  744920511 heartbeat IPC: 0.56466 cumulative IPC: 0.39993 (Simulation time: 0 hr 16 min 25 sec) 
Heartbeat CPU  0 instructions:  371000001 cycles:  746826856 heartbeat IPC: 0.52456 cumulative IPC: 0.40028 (Simulation time: 0 hr 16 min 28 sec) 
Heartbeat CPU  0 instructions:  372000000 cycles:  748756832 heartbeat IPC: 0.51814 cumulative IPC: 0.40061 (Simulation time: 0 hr 16 min 31 sec) 
Heartbeat CPU  0 instructions:  373000003 cycles:  750587401 heartbeat IPC: 0.54628 cumulative IPC: 0.40100 (Simulation time: 0 hr 16 min 33 sec) 
Heartbeat CPU  0 instructions:  374000001 cycles:  752431689 heartbeat IPC: 0.54221 cumulative IPC: 0.40138 (Simulation time: 0 hr 16 min 36 sec) 
Heartbeat CPU  0 instructions:  375000001 cycles:  754362775 heartbeat IPC: 0.51784 cumulative IPC: 0.40171 (Simulation time: 0 hr 16 min 39 sec) 
Heartbeat CPU  0 instructions:  376000000 cycles:  756272757 heartbeat IPC: 0.52356 cumulative IPC: 0.40205 (Simulation time: 0 hr 16 min 42 sec) 
Heartbeat CPU  0 instructions:  377000002 cycles:  765342554 heartbeat IPC: 0.11026 cumulative IPC: 0.39825 (Simulation time: 0 hr 16 min 45 sec) 
Heartbeat CPU  0 instructions:  378000003 cycles:  773948372 heartbeat IPC: 0.11620 cumulative IPC: 0.39480 (Simulation time: 0 hr 16 min 48 sec) 
Heartbeat CPU  0 instructions:  379000001 cycles:  775887439 heartbeat IPC: 0.51571 cumulative IPC: 0.39513 (Simulation time: 0 hr 16 min 51 sec) 
Heartbeat CPU  0 instructions:  380000000 cycles:  777668816 heartbeat IPC: 0.56136 cumulative IPC: 0.39555 (Simulation time: 0 hr 16 min 54 sec) 
Heartbeat CPU  0 instructions:  381000002 cycles:  779624915 heartbeat IPC: 0.51122 cumulative IPC: 0.39587 (Simulation time: 0 hr 16 min 56 sec) 
Heartbeat CPU  0 instructions:  382000002 cycles:  781715746 heartbeat IPC: 0.47828 cumulative IPC: 0.39611 (Simulation time: 0 hr 16 min 59 sec) 
Heartbeat CPU  0 instructions:  383000002 cycles:  783703304 heartbeat IPC: 0.50313 cumulative IPC: 0.39641 (Simulation time: 0 hr 17 min 2 sec) 
Heartbeat CPU  0 instructions:  384000000 cycles:  785548948 heartbeat IPC: 0.54182 cumulative IPC: 0.39678 (Simulation time: 0 hr 17 min 5 sec) 
Heartbeat CPU  0 instructions:  385000003 cycles:  787482507 heartbeat IPC: 0.51718 cumulative IPC: 0.39711 (Simulation time: 0 hr 17 min 7 sec) 
Heartbeat CPU  0 instructions:  386000002 cycles:  789393112 heartbeat IPC: 0.52339 cumulative IPC: 0.39744 (Simulation time: 0 hr 17 min 10 sec) 
Heartbeat CPU  0 instructions:  387000001 cycles:  791169924 heartbeat IPC: 0.56281 cumulative IPC: 0.39785 (Simulation time: 0 hr 17 min 13 sec) 
Heartbeat CPU  0 instructions:  388000000 cycles:  793092483 heartbeat IPC: 0.52014 cumulative IPC: 0.39818 (Simulation time: 0 hr 17 min 15 sec) 
Heartbeat CPU  0 instructions:  389000003 cycles:  795022627 heartbeat IPC: 0.51810 cumulative IPC: 0.39850 (Simulation time: 0 hr 17 min 18 sec) 
Heartbeat CPU  0 instructions:  390000003 cycles:  796803459 heartbeat IPC: 0.56154 cumulative IPC: 0.39889 (Simulation time: 0 hr 17 min 21 sec) 
Heartbeat CPU  0 instructions:  391000001 cycles:  798704148 heartbeat IPC: 0.52612 cumulative IPC: 0.39923 (Simulation time: 0 hr 17 min 24 sec) 
Heartbeat CPU  0 instructions:  392000000 cycles:  800636524 heartbeat IPC: 0.51750 cumulative IPC: 0.39954 (Simulation time: 0 hr 17 min 26 sec) 
Heartbeat CPU  0 instructions:  393000000 cycles:  802483023 heartbeat IPC: 0.54157 cumulative IPC: 0.39990 (Simulation time: 0 hr 17 min 29 sec) 
Heartbeat CPU  0 instructions:  394000000 cycles:  804303913 heartbeat IPC: 0.54918 cumulative IPC: 0.40027 (Simulation time: 0 hr 17 min 32 sec) 
Heartbeat CPU  0 instructions:  395000002 cycles:  806245591 heartbeat IPC: 0.51502 cumulative IPC: 0.40057 (Simulation time: 0 hr 17 min 34 sec) 
Heartbeat CPU  0 instructions:  396000000 cycles:  808157140 heartbeat IPC: 0.52313 cumulative IPC: 0.40089 (Simulation time: 0 hr 17 min 37 sec) 
Heartbeat CPU  0 instructions:  397000001 cycles:  809930076 heartbeat IPC: 0.56404 cumulative IPC: 0.40128 (Simulation time: 0 hr 17 min 40 sec) 
Heartbeat CPU  0 instructions:  398000003 cycles:  811848319 heartbeat IPC: 0.52131 cumulative IPC: 0.40159 (Simulation time: 0 hr 17 min 43 sec) 
Heartbeat CPU  0 instructions:  399000001 cycles:  815682116 heartbeat IPC: 0.26084 cumulative IPC: 0.40086 (Simulation time: 0 hr 17 min 45 sec) 
Heartbeat CPU  0 instructions:  400000000 cycles:  829528901 heartbeat IPC: 0.07222 cumulative IPC: 0.39487 (Simulation time: 0 hr 17 min 49 sec) 
Heartbeat CPU  0 instructions:  401000002 cycles:  831456238 heartbeat IPC: 0.51885 cumulative IPC: 0.39519 (Simulation time: 0 hr 17 min 52 sec) 
Heartbeat CPU  0 instructions:  402000001 cycles:  833398063 heartbeat IPC: 0.51498 cumulative IPC: 0.39549 (Simulation time: 0 hr 17 min 55 sec) 
Heartbeat CPU  0 instructions:  403000003 cycles:  835252525 heartbeat IPC: 0.53924 cumulative IPC: 0.39584 (Simulation time: 0 hr 17 min 57 sec) 
Heartbeat CPU  0 instructions:  404000000 cycles:  837087557 heartbeat IPC: 0.54495 cumulative IPC: 0.39620 (Simulation time: 0 hr 18 min 0 sec) 
Heartbeat CPU  0 instructions:  405000001 cycles:  839027961 heartbeat IPC: 0.51536 cumulative IPC: 0.39650 (Simulation time: 0 hr 18 min 3 sec) 
Heartbeat CPU  0 instructions:  406000002 cycles:  840948488 heartbeat IPC: 0.52069 cumulative IPC: 0.39681 (Simulation time: 0 hr 18 min 5 sec) 
Heartbeat CPU  0 instructions:  407000001 cycles:  842719421 heartbeat IPC: 0.56467 cumulative IPC: 0.39719 (Simulation time: 0 hr 18 min 8 sec) 
Heartbeat CPU  0 instructions:  408000000 cycles:  844647673 heartbeat IPC: 0.51860 cumulative IPC: 0.39749 (Simulation time: 0 hr 18 min 11 sec) 
Heartbeat CPU  0 instructions:  409000001 cycles:  846576809 heartbeat IPC: 0.51837 cumulative IPC: 0.39779 (Simulation time: 0 hr 18 min 14 sec) 
Heartbeat CPU  0 instructions:  410000003 cycles:  848370278 heartbeat IPC: 0.55758 cumulative IPC: 0.39816 (Simulation time: 0 hr 18 min 16 sec) 
Heartbeat CPU  0 instructions:  411000000 cycles:  850257509 heartbeat IPC: 0.52988 cumulative IPC: 0.39848 (Simulation time: 0 hr 18 min 19 sec) 
Heartbeat CPU  0 instructions:  412000000 cycles:  852189372 heartbeat IPC: 0.51764 cumulative IPC: 0.39878 (Simulation time: 0 hr 18 min 22 sec) 
Heartbeat CPU  0 instructions:  413000002 cycles:  854060111 heartbeat IPC: 0.53455 cumulative IPC: 0.39910 (Simulation time: 0 hr 18 min 24 sec) 
Heartbeat CPU  0 instructions:  414000003 cycles:  855869568 heartbeat IPC: 0.55265 cumulative IPC: 0.39945 (Simulation time: 0 hr 18 min 27 sec) 
Heartbeat CPU  0 instructions:  415000002 cycles:  857795289 heartbeat IPC: 0.51929 cumulative IPC: 0.39975 (Simulation time: 0 hr 18 min 30 sec) 
Heartbeat CPU  0 instructions:  416000000 cycles:  859715288 heartbeat IPC: 0.52083 cumulative IPC: 0.40004 (Simulation time: 0 hr 18 min 33 sec) 
Heartbeat CPU  0 instructions:  417000003 cycles:  861491193 heartbeat IPC: 0.56309 cumulative IPC: 0.40041 (Simulation time: 0 hr 18 min 35 sec) 
Heartbeat CPU  0 instructions:  418000003 cycles:  863405354 heartbeat IPC: 0.52242 cumulative IPC: 0.40070 (Simulation time: 0 hr 18 min 38 sec) 
Heartbeat CPU  0 instructions:  419000003 cycles:  865336331 heartbeat IPC: 0.51787 cumulative IPC: 0.40098 (Simulation time: 0 hr 18 min 41 sec) 
Heartbeat CPU  0 instructions:  420000000 cycles:  867150697 heartbeat IPC: 0.55116 cumulative IPC: 0.40133 (Simulation time: 0 hr 18 min 43 sec) 
Heartbeat CPU  0 instructions:  421000001 cycles:  869012674 heartbeat IPC: 0.53706 cumulative IPC: 0.40164 (Simulation time: 0 hr 18 min 46 sec) 
Heartbeat CPU  0 instructions:  422000002 cycles:  879911545 heartbeat IPC: 0.09175 cumulative IPC: 0.39747 (Simulation time: 0 hr 18 min 49 sec) 
Heartbeat CPU  0 instructions:  423000003 cycles:  886811773 heartbeat IPC: 0.14492 cumulative IPC: 0.39534 (Simulation time: 0 hr 18 min 53 sec) 
Heartbeat CPU  0 instructions:  424000000 cycles:  888626828 heartbeat IPC: 0.55095 cumulative IPC: 0.39569 (Simulation time: 0 hr 18 min 55 sec) 
Heartbeat CPU  0 instructions:  425000003 cycles:  890560611 heartbeat IPC: 0.51712 cumulative IPC: 0.39597 (Simulation time: 0 hr 18 min 58 sec) 
Heartbeat CPU  0 instructions:  426000001 cycles:  892485116 heartbeat IPC: 0.51961 cumulative IPC: 0.39626 (Simulation time: 0 hr 19 min 1 sec) 
Heartbeat CPU  0 instructions:  427000000 cycles:  894262466 heartbeat IPC: 0.56263 cumulative IPC: 0.39662 (Simulation time: 0 hr 19 min 3 sec) 
Heartbeat CPU  0 instructions:  428000000 cycles:  896171816 heartbeat IPC: 0.52374 cumulative IPC: 0.39691 (Simulation time: 0 hr 19 min 6 sec) 
Heartbeat CPU  0 instructions:  429000002 cycles:  898101787 heartbeat IPC: 0.51814 cumulative IPC: 0.39720 (Simulation time: 0 hr 19 min 9 sec) 
Heartbeat CPU  0 instructions:  430000000 cycles:  899909498 heartbeat IPC: 0.55318 cumulative IPC: 0.39754 (Simulation time: 0 hr 19 min 12 sec) 
Heartbeat CPU  0 instructions:  431000000 cycles:  901776778 heartbeat IPC: 0.53554 cumulative IPC: 0.39785 (Simulation time: 0 hr 19 min 14 sec) 
Heartbeat CPU  0 instructions:  432000000 cycles:  903698394 heartbeat IPC: 0.52040 cumulative IPC: 0.39813 (Simulation time: 0 hr 19 min 17 sec) 
Heartbeat CPU  0 instructions:  433000003 cycles:  905718620 heartbeat IPC: 0.49500 cumulative IPC: 0.39836 (Simulation time: 0 hr 19 min 20 sec) 
Heartbeat CPU  0 instructions:  434000002 cycles:  907503609 heartbeat IPC: 0.56023 cumulative IPC: 0.39871 (Simulation time: 0 hr 19 min 23 sec) 
Heartbeat CPU  0 instructions:  435000001 cycles:  909430592 heartbeat IPC: 0.51895 cumulative IPC: 0.39898 (Simulation time: 0 hr 19 min 25 sec) 
Heartbeat CPU  0 instructions:  436000000 cycles:  911346964 heartbeat IPC: 0.52182 cumulative IPC: 0.39926 (Simulation time: 0 hr 19 min 28 sec) 
Heartbeat CPU  0 instructions:  437000000 cycles:  913117743 heartbeat IPC: 0.56472 cumulative IPC: 0.39961 (Simulation time: 0 hr 19 min 31 sec) 
Heartbeat CPU  0 instructions:  438000000 cycles:  915021802 heartbeat IPC: 0.52519 cumulative IPC: 0.39989 (Simulation time: 0 hr 19 min 33 sec) 
Heartbeat CPU  0 instructions:  439000001 cycles:  916949644 heartbeat IPC: 0.51872 cumulative IPC: 0.40016 (Simulation time: 0 hr 19 min 36 sec) 
Heartbeat CPU  0 instructions:  440000000 cycles:  918770485 heartbeat IPC: 0.54920 cumulative IPC: 0.40048 (Simulation time: 0 hr 19 min 39 sec) 
Heartbeat CPU  0 instructions:  441000001 cycles:  920614128 heartbeat IPC: 0.54240 cumulative IPC: 0.40079 (Simulation time: 0 hr 19 min 42 sec) 
Heartbeat CPU  0 instructions:  442000001 cycles:  922541830 heartbeat IPC: 0.51875 cumulative IPC: 0.40106 (Simulation time: 0 hr 19 min 44 sec) 
Heartbeat CPU  0 instructions:  443000002 cycles:  924441861 heartbeat IPC: 0.52631 cumulative IPC: 0.40134 (Simulation time: 0 hr 19 min 47 sec) 
Heartbeat CPU  0 instructions:  444000000 cycles:  930012721 heartbeat IPC: 0.17951 cumulative IPC: 0.39990 (Simulation time: 0 hr 19 min 50 sec) 
Heartbeat CPU  0 instructions:  445000003 cycles:  942339268 heartbeat IPC: 0.08113 cumulative IPC: 0.39540 (Simulation time: 0 hr 19 min 54 sec) 
Heartbeat CPU  0 instructions:  446000000 cycles:  944271416 heartbeat IPC: 0.51756 cumulative IPC: 0.39567 (Simulation time: 0 hr 19 min 56 sec) 
Heartbeat CPU  0 instructions:  447000003 cycles:  946018293 heartbeat IPC: 0.57245 cumulative IPC: 0.39602 (Simulation time: 0 hr 19 min 59 sec) 
Heartbeat CPU  0 instructions:  448000000 cycles:  947922274 heartbeat IPC: 0.52521 cumulative IPC: 0.39630 (Simulation time: 0 hr 20 min 2 sec) 
Heartbeat CPU  0 instructions:  449000000 cycles:  949844937 heartbeat IPC: 0.52011 cumulative IPC: 0.39657 (Simulation time: 0 hr 20 min 4 sec) 
Heartbeat CPU  0 instructions:  450000000 cycles:  951658279 heartbeat IPC: 0.55147 cumulative IPC: 0.39689 (Simulation time: 0 hr 20 min 7 sec) 
Heartbeat CPU  0 instructions:  451000000 cycles:  953477170 heartbeat IPC: 0.54979 cumulative IPC: 0.39720 (Simulation time: 0 hr 20 min 10 sec) 
Heartbeat CPU  0 instructions:  452000000 cycles:  955391857 heartbeat IPC: 0.52228 cumulative IPC: 0.39747 (Simulation time: 0 hr 20 min 13 sec) 
Heartbeat CPU  0 instructions:  453000001 cycles:  957272704 heartbeat IPC: 0.53168 cumulative IPC: 0.39776 (Simulation time: 0 hr 20 min 15 sec) 
Heartbeat CPU  0 instructions:  454000001 cycles:  959013888 heartbeat IPC: 0.57432 cumulative IPC: 0.39810 (Simulation time: 0 hr 20 min 18 sec) 
Heartbeat CPU  0 instructions:  455000000 cycles:  960918221 heartbeat IPC: 0.52512 cumulative IPC: 0.39837 (Simulation time: 0 hr 20 min 21 sec) 
Heartbeat CPU  0 instructions:  456000000 cycles:  962823417 heartbeat IPC: 0.52488 cumulative IPC: 0.39864 (Simulation time: 0 hr 20 min 23 sec) 
Heartbeat CPU  0 instructions:  457000000 cycles:  964573071 heartbeat IPC: 0.57154 cumulative IPC: 0.39898 (Simulation time: 0 hr 20 min 26 sec) 
Heartbeat CPU  0 instructions:  458000003 cycles:  966442676 heartbeat IPC: 0.53487 cumulative IPC: 0.39926 (Simulation time: 0 hr 20 min 29 sec) 
Heartbeat CPU  0 instructions:  459000000 cycles:  968360669 heartbeat IPC: 0.52138 cumulative IPC: 0.39953 (Simulation time: 0 hr 20 min 32 sec) 
Heartbeat CPU  0 instructions:  460000000 cycles:  970183866 heartbeat IPC: 0.54849 cumulative IPC: 0.39983 (Simulation time: 0 hr 20 min 34 sec) 
Heartbeat CPU  0 instructions:  461000000 cycles:  971981579 heartbeat IPC: 0.55626 cumulative IPC: 0.40014 (Simulation time: 0 hr 20 min 37 sec) 
Heartbeat CPU  0 instructions:  462000003 cycles:  973892009 heartbeat IPC: 0.52344 cumulative IPC: 0.40040 (Simulation time: 0 hr 20 min 40 sec) 
Heartbeat CPU  0 instructions:  463000003 cycles:  975780732 heartbeat IPC: 0.52946 cumulative IPC: 0.40067 (Simulation time: 0 hr 20 min 42 sec) 
Heartbeat CPU  0 instructions:  464000000 cycles:  977514240 heartbeat IPC: 0.57686 cumulative IPC: 0.40100 (Simulation time: 0 hr 20 min 45 sec) 
Heartbeat CPU  0 instructions:  465000000 cycles:  979412829 heartbeat IPC: 0.52671 cumulative IPC: 0.40127 (Simulation time: 0 hr 20 min 48 sec) 
Heartbeat CPU  0 instructions:  466000000 cycles:  981317840 heartbeat IPC: 0.52493 cumulative IPC: 0.40153 (Simulation time: 0 hr 20 min 51 sec) 
Heartbeat CPU  0 instructions:  467000000 cycles:  994061130 heartbeat IPC: 0.07847 cumulative IPC: 0.39707 (Simulation time: 0 hr 20 min 54 sec) 
Heartbeat CPU  0 instructions:  468000000 cycles:  998895329 heartbeat IPC: 0.20686 cumulative IPC: 0.39608 (Simulation time: 0 hr 20 min 57 sec) 
Heartbeat CPU  0 instructions:  469000002 cycles: 1000816102 heartbeat IPC: 0.52062 cumulative IPC: 0.39634 (Simulation time: 0 hr 21 min 0 sec) 
Heartbeat CPU  0 instructions:  470000000 cycles: 1002651687 heartbeat IPC: 0.54478 cumulative IPC: 0.39663 (Simulation time: 0 hr 21 min 3 sec) 
Heartbeat CPU  0 instructions:  471000002 cycles: 1004452034 heartbeat IPC: 0.55545 cumulative IPC: 0.39694 (Simulation time: 0 hr 21 min 5 sec) 
Heartbeat CPU  0 instructions:  472000000 cycles: 1006376260 heartbeat IPC: 0.51969 cumulative IPC: 0.39719 (Simulation time: 0 hr 21 min 8 sec) 
Heartbeat CPU  0 instructions:  473000003 cycles: 1008275737 heartbeat IPC: 0.52646 cumulative IPC: 0.39745 (Simulation time: 0 hr 21 min 11 sec) 
Heartbeat CPU  0 instructions:  474000002 cycles: 1010023589 heartbeat IPC: 0.57213 cumulative IPC: 0.39778 (Simulation time: 0 hr 21 min 13 sec) 
Heartbeat CPU  0 instructions:  475000003 cycles: 1011926076 heartbeat IPC: 0.52563 cumulative IPC: 0.39803 (Simulation time: 0 hr 21 min 16 sec) 
Heartbeat CPU  0 instructions:  476000000 cycles: 1013836098 heartbeat IPC: 0.52355 cumulative IPC: 0.39829 (Simulation time: 0 hr 21 min 19 sec) 
Heartbeat CPU  0 instructions:  477000003 cycles: 1015597950 heartbeat IPC: 0.56759 cumulative IPC: 0.39860 (Simulation time: 0 hr 21 min 22 sec) 
Heartbeat CPU  0 instructions:  478000003 cycles: 1017450625 heartbeat IPC: 0.53976 cumulative IPC: 0.39888 (Simulation time: 0 hr 21 min 24 sec) 
Heartbeat CPU  0 instructions:  479000000 cycles: 1019363767 heartbeat IPC: 0.52270 cumulative IPC: 0.39913 (Simulation time: 0 hr 21 min 27 sec) 
Heartbeat CPU  0 instructions:  480000000 cycles: 1021202737 heartbeat IPC: 0.54378 cumulative IPC: 0.39941 (Simulation time: 0 hr 21 min 30 sec) 
Heartbeat CPU  0 instructions:  481000000 cycles: 1022974641 heartbeat IPC: 0.56436 cumulative IPC: 0.39971 (Simulation time: 0 hr 21 min 32 sec) 
Heartbeat CPU  0 instructions:  482000000 cycles: 1024884821 heartbeat IPC: 0.52351 cumulative IPC: 0.39996 (Simulation time: 0 hr 21 min 35 sec) 
Heartbeat CPU  0 instructions:  483000001 cycles: 1026882465 heartbeat IPC: 0.50059 cumulative IPC: 0.40017 (Simulation time: 0 hr 21 min 38 sec) 
Heartbeat CPU  0 instructions:  484000000 cycles: 1028747390 heartbeat IPC: 0.53621 cumulative IPC: 0.40044 (Simulation time: 0 hr 21 min 41 sec) 
Heartbeat CPU  0 instructions:  485000001 cycles: 1030756843 heartbeat IPC: 0.49765 cumulative IPC: 0.40064 (Simulation time: 0 hr 21 min 43 sec) 
Heartbeat CPU  0 instructions:  486000001 cycles: 1032672019 heartbeat IPC: 0.52215 cumulative IPC: 0.40088 (Simulation time: 0 hr 21 min 46 sec) 
Heartbeat CPU  0 instructions:  487000000 cycles: 1034455705 heartbeat IPC: 0.56064 cumulative IPC: 0.40118 (Simulation time: 0 hr 21 min 49 sec) 
Heartbeat CPU  0 instructions:  488000000 cycles: 1036288059 heartbeat IPC: 0.54575 cumulative IPC: 0.40145 (Simulation time: 0 hr 21 min 52 sec) 
Heartbeat CPU  0 instructions:  489000001 cycles: 1043753347 heartbeat IPC: 0.13395 cumulative IPC: 0.39940 (Simulation time: 0 hr 21 min 55 sec) 
Heartbeat CPU  0 instructions:  490000003 cycles: 1053964740 heartbeat IPC: 0.09793 cumulative IPC: 0.39627 (Simulation time: 0 hr 21 min 58 sec) 
Heartbeat CPU  0 instructions:  491000001 cycles: 1055757491 heartbeat IPC: 0.55780 cumulative IPC: 0.39657 (Simulation time: 0 hr 22 min 1 sec) 
Heartbeat CPU  0 instructions:  492000000 cycles: 1057684345 heartbeat IPC: 0.51898 cumulative IPC: 0.39681 (Simulation time: 0 hr 22 min 3 sec) 
Heartbeat CPU  0 instructions:  493000000 cycles: 1059595093 heartbeat IPC: 0.52336 cumulative IPC: 0.39705 (Simulation time: 0 hr 22 min 6 sec) 
Heartbeat CPU  0 instructions:  494000002 cycles: 1061343697 heartbeat IPC: 0.57189 cumulative IPC: 0.39736 (Simulation time: 0 hr 22 min 9 sec) 
Heartbeat CPU  0 instructions:  495000000 cycles: 1063250639 heartbeat IPC: 0.52440 cumulative IPC: 0.39760 (Simulation time: 0 hr 22 min 12 sec) 
Heartbeat CPU  0 instructions:  496000000 cycles: 1065171028 heartbeat IPC: 0.52073 cumulative IPC: 0.39784 (Simulation time: 0 hr 22 min 14 sec) 
Heartbeat CPU  0 instructions:  497000001 cycles: 1066980928 heartbeat IPC: 0.55252 cumulative IPC: 0.39812 (Simulation time: 0 hr 22 min 17 sec) 
Heartbeat CPU  0 instructions:  498000001 cycles: 1068817251 heartbeat IPC: 0.54457 cumulative IPC: 0.39839 (Simulation time: 0 hr 22 min 20 sec) 
Heartbeat CPU  0 instructions:  499000001 cycles: 1070737126 heartbeat IPC: 0.52087 cumulative IPC: 0.39862 (Simulation time: 0 hr 22 min 22 sec) 
Heartbeat CPU  0 instructions:  500000000 cycles: 1072605144 heartbeat IPC: 0.53533 cumulative IPC: 0.39888 (Simulation time: 0 hr 22 min 25 sec) 
Heartbeat CPU  0 instructions:  501000002 cycles: 1074368722 heartbeat IPC: 0.56703 cumulative IPC: 0.39917 (Simulation time: 0 hr 22 min 28 sec) 
Heartbeat CPU  0 instructions:  502000002 cycles: 1076281856 heartbeat IPC: 0.52270 cumulative IPC: 0.39941 (Simulation time: 0 hr 22 min 31 sec) 
Heartbeat CPU  0 instructions:  503000002 cycles: 1078192406 heartbeat IPC: 0.52341 cumulative IPC: 0.39964 (Simulation time: 0 hr 22 min 33 sec) 
Heartbeat CPU  0 instructions:  504000000 cycles: 1079935834 heartbeat IPC: 0.57358 cumulative IPC: 0.39994 (Simulation time: 0 hr 22 min 36 sec) 
Heartbeat CPU  0 instructions:  505000002 cycles: 1081828268 heartbeat IPC: 0.52842 cumulative IPC: 0.40018 (Simulation time: 0 hr 22 min 39 sec) 
Heartbeat CPU  0 instructions:  506000002 cycles: 1083741865 heartbeat IPC: 0.52258 cumulative IPC: 0.40042 (Simulation time: 0 hr 22 min 42 sec) 
Heartbeat CPU  0 instructions:  507000001 cycles: 1085543369 heartbeat IPC: 0.55509 cumulative IPC: 0.40069 (Simulation time: 0 hr 22 min 44 sec) 
Heartbeat CPU  0 instructions:  508000000 cycles: 1087364375 heartbeat IPC: 0.54915 cumulative IPC: 0.40096 (Simulation time: 0 hr 22 min 47 sec) 
Heartbeat CPU  0 instructions:  509000000 cycles: 1089288241 heartbeat IPC: 0.51979 cumulative IPC: 0.40118 (Simulation time: 0 hr 22 min 50 sec) 
Heartbeat CPU  0 instructions:  510000003 cycles: 1091170758 heartbeat IPC: 0.53121 cumulative IPC: 0.40142 (Simulation time: 0 hr 22 min 52 sec) 
Heartbeat CPU  0 instructions:  511000001 cycles: 1093233976 heartbeat IPC: 0.48468 cumulative IPC: 0.40159 (Simulation time: 0 hr 22 min 55 sec) 
Heartbeat CPU  0 instructions:  512000000 cycles: 1107596033 heartbeat IPC: 0.06963 cumulative IPC: 0.39699 (Simulation time: 0 hr 22 min 59 sec) 
Heartbeat CPU  0 instructions:  513000000 cycles: 1110659838 heartbeat IPC: 0.32639 cumulative IPC: 0.39679 (Simulation time: 0 hr 23 min 2 sec) 
Heartbeat CPU  0 instructions:  514000001 cycles: 1112449104 heartbeat IPC: 0.55889 cumulative IPC: 0.39706 (Simulation time: 0 hr 23 min 4 sec) 
Heartbeat CPU  0 instructions:  515000002 cycles: 1114360012 heartbeat IPC: 0.52331 cumulative IPC: 0.39729 (Simulation time: 0 hr 23 min 7 sec) 
Heartbeat CPU  0 instructions:  516000000 cycles: 1116298990 heartbeat IPC: 0.51573 cumulative IPC: 0.39751 (Simulation time: 0 hr 23 min 10 sec) 
Heartbeat CPU  0 instructions:  517000002 cycles: 1118126292 heartbeat IPC: 0.54726 cumulative IPC: 0.39777 (Simulation time: 0 hr 23 min 12 sec) 
Heartbeat CPU  0 instructions:  518000000 cycles: 1119986613 heartbeat IPC: 0.53754 cumulative IPC: 0.39802 (Simulation time: 0 hr 23 min 15 sec) 
Heartbeat CPU  0 instructions:  519000000 cycles: 1121920938 heartbeat IPC: 0.51698 cumulative IPC: 0.39824 (Simulation time: 0 hr 23 min 18 sec) 
Heartbeat CPU  0 instructions:  520000000 cycles: 1123817483 heartbeat IPC: 0.52727 cumulative IPC: 0.39847 (Simulation time: 0 hr 23 min 21 sec) 
Heartbeat CPU  0 instructions:  521000003 cycles: 1125601994 heartbeat IPC: 0.56038 cumulative IPC: 0.39875 (Simulation time: 0 hr 23 min 23 sec) 
Heartbeat CPU  0 instructions:  522000001 cycles: 1127534877 heartbeat IPC: 0.51736 cumulative IPC: 0.39896 (Simulation time: 0 hr 23 min 26 sec) 
Heartbeat CPU  0 instructions:  523000001 cycles: 1129467033 heartbeat IPC: 0.51756 cumulative IPC: 0.39918 (Simulation time: 0 hr 23 min 29 sec) 
Heartbeat CPU  0 instructions:  524000000 cycles: 1131244180 heartbeat IPC: 0.56270 cumulative IPC: 0.39945 (Simulation time: 0 hr 23 min 31 sec) 
Heartbeat CPU  0 instructions:  525000000 cycles: 1133145814 heartbeat IPC: 0.52586 cumulative IPC: 0.39968 (Simulation time: 0 hr 23 min 34 sec) 
Heartbeat CPU  0 instructions:  526000002 cycles: 1135083334 heartbeat IPC: 0.51612 cumulative IPC: 0.39989 (Simulation time: 0 hr 23 min 37 sec) 
Heartbeat CPU  0 instructions:  527000002 cycles: 1136923400 heartbeat IPC: 0.54346 cumulative IPC: 0.40014 (Simulation time: 0 hr 23 min 40 sec) 
Heartbeat CPU  0 instructions:  528000000 cycles: 1138758169 heartbeat IPC: 0.54503 cumulative IPC: 0.40039 (Simulation time: 0 hr 23 min 42 sec) 
Heartbeat CPU  0 instructions:  529000001 cycles: 1140689944 heartbeat IPC: 0.51766 cumulative IPC: 0.40060 (Simulation time: 0 hr 23 min 45 sec) 
Heartbeat CPU  0 instructions:  530000002 cycles: 1142606248 heartbeat IPC: 0.52184 cumulative IPC: 0.40082 (Simulation time: 0 hr 23 min 48 sec) 
Heartbeat CPU  0 instructions:  531000001 cycles: 1144380483 heartbeat IPC: 0.56362 cumulative IPC: 0.40108 (Simulation time: 0 hr 23 min 50 sec) 
Heartbeat CPU  0 instructions:  532000000 cycles: 1146301727 heartbeat IPC: 0.52050 cumulative IPC: 0.40130 (Simulation time: 0 hr 23 min 53 sec) 
Heartbeat CPU  0 instructions:  533000002 cycles: 1148229947 heartbeat IPC: 0.51861 cumulative IPC: 0.40151 (Simulation time: 0 hr 23 min 56 sec) 
Heartbeat CPU  0 instructions:  534000003 cycles: 1157336574 heartbeat IPC: 0.10981 cumulative IPC: 0.39907 (Simulation time: 0 hr 23 min 59 sec) 
Heartbeat CPU  0 instructions:  535000000 cycles: 1165829517 heartbeat IPC: 0.11774 cumulative IPC: 0.39689 (Simulation time: 0 hr 24 min 2 sec) 
Heartbeat CPU  0 instructions:  536000000 cycles: 1167861255 heartbeat IPC: 0.49219 cumulative IPC: 0.39706 (Simulation time: 0 hr 24 min 5 sec) 
Heartbeat CPU  0 instructions:  537000000 cycles: 1169709426 heartbeat IPC: 0.54108 cumulative IPC: 0.39730 (Simulation time: 0 hr 24 min 8 sec) 
Heartbeat CPU  0 instructions:  538000003 cycles: 1171555757 heartbeat IPC: 0.54162 cumulative IPC: 0.39755 (Simulation time: 0 hr 24 min 11 sec) 
Heartbeat CPU  0 instructions:  539000000 cycles: 1173495226 heartbeat IPC: 0.51560 cumulative IPC: 0.39775 (Simulation time: 0 hr 24 min 13 sec) 
Heartbeat CPU  0 instructions:  540000000 cycles: 1175414822 heartbeat IPC: 0.52094 cumulative IPC: 0.39797 (Simulation time: 0 hr 24 min 16 sec) 
Heartbeat CPU  0 instructions:  541000000 cycles: 1177189782 heartbeat IPC: 0.56339 cumulative IPC: 0.39823 (Simulation time: 0 hr 24 min 19 sec) 
Heartbeat CPU  0 instructions:  542000000 cycles: 1179107777 heartbeat IPC: 0.52138 cumulative IPC: 0.39844 (Simulation time: 0 hr 24 min 21 sec) 
Heartbeat CPU  0 instructions:  543000002 cycles: 1181040302 heartbeat IPC: 0.51746 cumulative IPC: 0.39865 (Simulation time: 0 hr 24 min 24 sec) 
Heartbeat CPU  0 instructions:  544000000 cycles: 1182823314 heartbeat IPC: 0.56085 cumulative IPC: 0.39891 (Simulation time: 0 hr 24 min 27 sec) 
Heartbeat CPU  0 instructions:  545000001 cycles: 1184717377 heartbeat IPC: 0.52797 cumulative IPC: 0.39913 (Simulation time: 0 hr 24 min 30 sec) 
Heartbeat CPU  0 instructions:  546000001 cycles: 1186649244 heartbeat IPC: 0.51763 cumulative IPC: 0.39934 (Simulation time: 0 hr 24 min 32 sec) 
Heartbeat CPU  0 instructions:  547000000 cycles: 1188504004 heartbeat IPC: 0.53915 cumulative IPC: 0.39957 (Simulation time: 0 hr 24 min 35 sec) 
Heartbeat CPU  0 instructions:  548000000 cycles: 1190333084 heartbeat IPC: 0.54672 cumulative IPC: 0.39981 (Simulation time: 0 hr 24 min 38 sec) 
Heartbeat CPU  0 instructions:  549000001 cycles: 1192262941 heartbeat IPC: 0.51817 cumulative IPC: 0.40001 (Simulation time: 0 hr 24 min 41 sec) 
Heartbeat CPU  0 instructions:  550000000 cycles: 1194178475 heartbeat IPC: 0.52205 cumulative IPC: 0.40022 (Simulation time: 0 hr 24 min 43 sec) 
Heartbeat CPU  0 instructions:  551000001 cycles: 1195951287 heartbeat IPC: 0.56408 cumulative IPC: 0.40048 (Simulation time: 0 hr 24 min 46 sec) 
Heartbeat CPU  0 instructions:  552000000 cycles: 1197867821 heartbeat IPC: 0.52177 cumulative IPC: 0.40068 (Simulation time: 0 hr 24 min 49 sec) 
Heartbeat CPU  0 instructions:  553000002 cycles: 1199800793 heartbeat IPC: 0.51734 cumulative IPC: 0.40088 (Simulation time: 0 hr 24 min 51 sec) 
Heartbeat CPU  0 instructions:  554000002 cycles: 1201602482 heartbeat IPC: 0.55503 cumulative IPC: 0.40113 (Simulation time: 0 hr 24 min 54 sec) 
Heartbeat CPU  0 instructions:  555000003 cycles: 1203472761 heartbeat IPC: 0.53468 cumulative IPC: 0.40135 (Simulation time: 0 hr 24 min 57 sec) 
Heartbeat CPU  0 instructions:  556000000 cycles: 1207390233 heartbeat IPC: 0.25527 cumulative IPC: 0.40085 (Simulation time: 0 hr 25 min 0 sec) 
Heartbeat CPU  0 instructions:  557000002 cycles: 1221343784 heartbeat IPC: 0.07167 cumulative IPC: 0.39686 (Simulation time: 0 hr 25 min 4 sec) 
Heartbeat CPU  0 instructions:  558000003 cycles: 1223188621 heartbeat IPC: 0.54205 cumulative IPC: 0.39709 (Simulation time: 0 hr 25 min 6 sec) 
Heartbeat CPU  0 instructions:  559000000 cycles: 1225128972 heartbeat IPC: 0.51537 cumulative IPC: 0.39729 (Simulation time: 0 hr 25 min 9 sec) 
Heartbeat CPU  0 instructions:  560000000 cycles: 1227049862 heartbeat IPC: 0.52059 cumulative IPC: 0.39749 (Simulation time: 0 hr 25 min 12 sec) 
Heartbeat CPU  0 instructions:  561000002 cycles: 1228837683 heartbeat IPC: 0.55934 cumulative IPC: 0.39774 (Simulation time: 0 hr 25 min 14 sec) 
Heartbeat CPU  0 instructions:  562000002 cycles: 1230760394 heartbeat IPC: 0.52010 cumulative IPC: 0.39794 (Simulation time: 0 hr 25 min 17 sec) 
Heartbeat CPU  0 instructions:  563000001 cycles: 1232692975 heartbeat IPC: 0.51744 cumulative IPC: 0.39814 (Simulation time: 0 hr 25 min 20 sec) 
Heartbeat CPU  0 instructions:  564000000 cycles: 1234493460 heartbeat IPC: 0.55541 cumulative IPC: 0.39839 (Simulation time: 0 hr 25 min 23 sec) 
Heartbeat CPU  0 instructions:  565000003 cycles: 1236372532 heartbeat IPC: 0.53218 cumulative IPC: 0.39860 (Simulation time: 0 hr 25 min 25 sec) 
Heartbeat CPU  0 instructions:  566000000 cycles: 1238305997 heartbeat IPC: 0.51720 cumulative IPC: 0.39880 (Simulation time: 0 hr 25 min 28 sec) 
Heartbeat CPU  0 instructions:  567000003 cycles: 1240179108 heartbeat IPC: 0.53387 cumulative IPC: 0.39901 (Simulation time: 0 hr 25 min 31 sec) 
Heartbeat CPU  0 instructions:  568000000 cycles: 1241982287 heartbeat IPC: 0.55457 cumulative IPC: 0.39925 (Simulation time: 0 hr 25 min 33 sec) 
Heartbeat CPU  0 instructions:  569000000 cycles: 1243912590 heartbeat IPC: 0.51805 cumulative IPC: 0.39945 (Simulation time: 0 hr 25 min 36 sec) 
Heartbeat CPU  0 instructions:  570000002 cycles: 1245836249 heartbeat IPC: 0.51984 cumulative IPC: 0.39965 (Simulation time: 0 hr 25 min 39 sec) 
Heartbeat CPU  0 instructions:  571000000 cycles: 1247613613 heartbeat IPC: 0.56263 cumulative IPC: 0.39989 (Simulation time: 0 hr 25 min 42 sec) 
Heartbeat CPU  0 instructions:  572000000 cycles: 1249517629 heartbeat IPC: 0.52521 cumulative IPC: 0.40009 (Simulation time: 0 hr 25 min 44 sec) 
Heartbeat CPU  0 instructions:  573000002 cycles: 1251453740 heartbeat IPC: 0.51650 cumulative IPC: 0.40028 (Simulation time: 0 hr 25 min 47 sec) 
Heartbeat CPU  0 instructions:  574000001 cycles: 1253265501 heartbeat IPC: 0.55195 cumulative IPC: 0.40052 (Simulation time: 0 hr 25 min 50 sec) 
Heartbeat CPU  0 instructions:  575000003 cycles: 1255124609 heartbeat IPC: 0.53789 cumulative IPC: 0.40073 (Simulation time: 0 hr 25 min 53 sec) 
Heartbeat CPU  0 instructions:  576000000 cycles: 1257054410 heartbeat IPC: 0.51819 cumulative IPC: 0.40092 (Simulation time: 0 hr 25 min 55 sec) 
Heartbeat CPU  0 instructions:  577000002 cycles: 1258946628 heartbeat IPC: 0.52848 cumulative IPC: 0.40113 (Simulation time: 0 hr 25 min 58 sec) 
Heartbeat CPU  0 instructions:  578000002 cycles: 1260733329 heartbeat IPC: 0.55969 cumulative IPC: 0.40136 (Simulation time: 0 hr 26 min 1 sec) 
Heartbeat CPU  0 instructions:  579000003 cycles: 1271733931 heartbeat IPC: 0.09090 cumulative IPC: 0.39852 (Simulation time: 0 hr 26 min 4 sec) 
Heartbeat CPU  0 instructions:  580000000 cycles: 1278542184 heartbeat IPC: 0.14688 cumulative IPC: 0.39711 (Simulation time: 0 hr 26 min 7 sec) 
Heartbeat CPU  0 instructions:  581000003 cycles: 1280296110 heartbeat IPC: 0.57015 cumulative IPC: 0.39736 (Simulation time: 0 hr 26 min 10 sec) 
Heartbeat CPU  0 instructions:  582000001 cycles: 1282190787 heartbeat IPC: 0.52779 cumulative IPC: 0.39756 (Simulation time: 0 hr 26 min 13 sec) 
Heartbeat CPU  0 instructions:  583000002 cycles: 1284113156 heartbeat IPC: 0.52019 cumulative IPC: 0.39775 (Simulation time: 0 hr 26 min 15 sec) 
Heartbeat CPU  0 instructions:  584000000 cycles: 1285920414 heartbeat IPC: 0.55332 cumulative IPC: 0.39799 (Simulation time: 0 hr 26 min 18 sec) 
Heartbeat CPU  0 instructions:  585000003 cycles: 1287773734 heartbeat IPC: 0.53957 cumulative IPC: 0.39820 (Simulation time: 0 hr 26 min 21 sec) 
Heartbeat CPU  0 instructions:  586000003 cycles: 1289843210 heartbeat IPC: 0.48321 cumulative IPC: 0.39834 (Simulation time: 0 hr 26 min 24 sec) 
Heartbeat CPU  0 instructions:  587000001 cycles: 1291883426 heartbeat IPC: 0.49014 cumulative IPC: 0.39850 (Simulation time: 0 hr 26 min 26 sec) 
Heartbeat CPU  0 instructions:  588000000 cycles: 1293640604 heartbeat IPC: 0.56909 cumulative IPC: 0.39874 (Simulation time: 0 hr 26 min 29 sec) 
Heartbeat CPU  0 instructions:  589000000 cycles: 1295550605 heartbeat IPC: 0.52356 cumulative IPC: 0.39894 (Simulation time: 0 hr 26 min 32 sec) 
Heartbeat CPU  0 instructions:  590000001 cycles: 1297456775 heartbeat IPC: 0.52461 cumulative IPC: 0.39913 (Simulation time: 0 hr 26 min 34 sec) 
Heartbeat CPU  0 instructions:  591000000 cycles: 1299201655 heartbeat IPC: 0.57310 cumulative IPC: 0.39938 (Simulation time: 0 hr 26 min 37 sec) 
Heartbeat CPU  0 instructions:  592000000 cycles: 1301085038 heartbeat IPC: 0.53096 cumulative IPC: 0.39958 (Simulation time: 0 hr 26 min 40 sec) 
Heartbeat CPU  0 instructions:  593000002 cycles: 1303000549 heartbeat IPC: 0.52205 cumulative IPC: 0.39977 (Simulation time: 0 hr 26 min 43 sec) 
Heartbeat CPU  0 instructions:  594000002 cycles: 1304815760 heartbeat IPC: 0.55090 cumulative IPC: 0.39999 (Simulation time: 0 hr 26 min 45 sec) 
Heartbeat CPU  0 instructions:  595000003 cycles: 1306624207 heartbeat IPC: 0.55296 cumulative IPC: 0.40022 (Simulation time: 0 hr 26 min 48 sec) 
Heartbeat CPU  0 instructions:  596000000 cycles: 1308538976 heartbeat IPC: 0.52225 cumulative IPC: 0.40041 (Simulation time: 0 hr 26 min 51 sec) 
Heartbeat CPU  0 instructions:  597000003 cycles: 1310432057 heartbeat IPC: 0.52824 cumulative IPC: 0.40060 (Simulation time: 0 hr 26 min 54 sec) 
Heartbeat CPU  0 instructions:  598000000 cycles: 1312164591 heartbeat IPC: 0.57719 cumulative IPC: 0.40085 (Simulation time: 0 hr 26 min 56 sec) 
Heartbeat CPU  0 instructions:  599000000 cycles: 1314073577 heartbeat IPC: 0.52384 cumulative IPC: 0.40104 (Simulation time: 0 hr 26 min 59 sec) 
Heartbeat CPU  0 instructions:  600000000 cycles: 1315983208 heartbeat IPC: 0.52366 cumulative IPC: 0.40122 (Simulation time: 0 hr 27 min 2 sec) 
Finished CPU 0 instructions: 500000000 cycles: 1246188596 cumulative IPC: 0.40122 (Simulation time: 0 hr 27 min 2 sec) 

ChampSim completed all CPUs

[ROI Statistics]
Core_0_instructions 500000000
Core_0_cycles 1246188596
Core_0_IPC 0.40122

Core_0_branch_prediction_accuracy 99.17161
Core_0_branch_MPKI 0.01066
Core_0_average_ROB_occupancy_at_mispredict 253.69000

Core_0_L1D_total_access 254252874
Core_0_L1D_total_hit 250262843
Core_0_L1D_total_miss 3990031
Core_0_L1D_loads 171273520
Core_0_L1D_load_hit 168036027
Core_0_L1D_load_miss 3237493
Core_0_L1D_RFOs 82979354
Core_0_L1D_RFO_hit 82226816
Core_0_L1D_RFO_miss 752538
Core_0_L1D_prefetches 0
Core_0_L1D_prefetch_hit 0
Core_0_L1D_prefetch_miss 0
Core_0_L1D_writebacks 0
Core_0_L1D_writeback_hit 0
Core_0_L1D_writeback_miss 0
Core_0_L1D_prefetch_requested 0
Core_0_L1D_prefetch_dropped 0
Core_0_L1D_prefetch_issued 0
Core_0_L1D_prefetch_filled 0
Core_0_L1D_prefetch_useful 0
Core_0_L1D_prefetch_useless 0
Core_0_L1D_prefetch_late 0
Core_0_L1D_average_miss_latency 94.57903

Core_0_L1D_rq_access 255819396
Core_0_L1D_rq_forward 0
Core_0_L1D_rq_merged 84111793
Core_0_L1D_rq_to_cache 171305944
Core_0_L1D_rq_full 0

Core_0_L1D_wq_access 84479085
Core_0_L1D_wq_forward 401659
Core_0_L1D_wq_merged 1184501
Core_0_L1D_wq_to_cache 83294584
Core_0_L1D_wq_full 4694

Core_0_L1D_pq_access 0
Core_0_L1D_pq_forward 0
Core_0_L1D_pq_merged 0
Core_0_L1D_pq_to_cache 0
Core_0_L1D_pq_full 0

Core_0_L1D_acc_epochs 656741
Core_0_L1D_acc_level_0 656741
Core_0_L1D_acc_level_1 0
Core_0_L1D_acc_level_2 0
Core_0_L1D_acc_level_3 0
Core_0_L1D_acc_level_4 0
Core_0_L1D_acc_level_5 0
Core_0_L1D_acc_level_6 0
Core_0_L1D_acc_level_7 0
Core_0_L1D_acc_level_8 0
Core_0_L1D_acc_level_9 0

Core_0_L1I_total_access 133215810
Core_0_L1I_total_hit 133215810
Core_0_L1I_total_miss 0
Core_0_L1I_loads 133215810
Core_0_L1I_load_hit 133215810
Core_0_L1I_load_miss 0
Core_0_L1I_RFOs 0
Core_0_L1I_RFO_hit 0
Core_0_L1I_RFO_miss 0
Core_0_L1I_prefetches 0
Core_0_L1I_prefetch_hit 0
Core_0_L1I_prefetch_miss 0
Core_0_L1I_writebacks 0
Core_0_L1I_writeback_hit 0
Core_0_L1I_writeback_miss 0
Core_0_L1I_prefetch_requested 0
Core_0_L1I_prefetch_dropped 0
Core_0_L1I_prefetch_issued 0
Core_0_L1I_prefetch_filled 0
Core_0_L1I_prefetch_useful 0
Core_0_L1I_prefetch_useless 0
Core_0_L1I_prefetch_late 0
Core_0_L1I_average_miss_latency -nan

Core_0_L1I_rq_access 500000000
Core_0_L1I_rq_forward 0
Core_0_L1I_rq_merged 366784190
Core_0_L1I_rq_to_cache 133215810
Core_0_L1I_rq_full 0

Core_0_L1I_wq_access 0
Core_0_L1I_wq_forward 0
Core_0_L1I_wq_merged 0
Core_0_L1I_wq_to_cache 0
Core_0_L1I_wq_full 0

Core_0_L1I_pq_access 0
Core_0_L1I_pq_forward 0
Core_0_L1I_pq_merged 0
Core_0_L1I_pq_to_cache 0
Core_0_L1I_pq_full 0

Core_0_L1I_acc_epochs 656741
Core_0_L1I_acc_level_0 656741
Core_0_L1I_acc_level_1 0
Core_0_L1I_acc_level_2 0
Core_0_L1I_acc_level_3 0
Core_0_L1I_acc_level_4 0
Core_0_L1I_acc_level_5 0
Core_0_L1I_acc_level_6 0
Core_0_L1I_acc_level_7 0
Core_0_L1I_acc_level_8 0
Core_0_L1I_acc_level_9 0

Core_0_L2C_total_access 6555874
Core_0_L2C_total_hit 3952946
Core_0_L2C_total_miss 2602928
Core_0_L2C_loads 3237490
Core_0_L2C_load_hit 3153911
Core_0_L2C_load_miss 83579
Core_0_L2C_RFOs 752538
Core_0_L2C_RFO_hit 2032
Core_0_L2C_RFO_miss 750506
Core_0_L2C_prefetches 1779503
Core_0_L2C_prefetch_hit 11499
Core_0_L2C_prefetch_miss 1768004
Core_0_L2C_writebacks 786343
Core_0_L2C_writeback_hit 785504
Core_0_L2C_writeback_miss 839
Core_0_L2C_prefetch_requested 2126650
Core_0_L2C_prefetch_dropped 0
Core_0_L2C_prefetch_issued 2126650
Core_0_L2C_prefetch_filled 2102848
Core_0_L2C_prefetch_useful 2079366
Core_0_L2C_prefetch_useless 23035
Core_0_L2C_prefetch_late 66
Core_0_L2C_average_miss_latency 281.96486

Core_0_L2C_rq_access 3990031
Core_0_L2C_rq_forward 0
Core_0_L2C_rq_merged 0
Core_0_L2C_rq_to_cache 3990028
Core_0_L2C_rq_full 0

Core_0_L2C_wq_access 786343
Core_0_L2C_wq_forward 3
Core_0_L2C_wq_merged 0
Core_0_L2C_wq_to_cache 786343
Core_0_L2C_wq_full 0

Core_0_L2C_pq_access 2126650
Core_0_L2C_pq_forward 0
Core_0_L2C_pq_merged 0
Core_0_L2C_pq_to_cache 2126650
Core_0_L2C_pq_full 0

Core_0_L2C_acc_epochs 656741
Core_0_L2C_acc_level_0 400617
Core_0_L2C_acc_level_1 48869
Core_0_L2C_acc_level_2 40639
Core_0_L2C_acc_level_3 14825
Core_0_L2C_acc_level_4 9545
Core_0_L2C_acc_level_5 26415
Core_0_L2C_acc_level_6 5205
Core_0_L2C_acc_level_7 6982
Core_0_L2C_acc_level_8 3918
Core_0_L2C_acc_level_9 99726

Core_0_LLC_total_access 3365670
Core_0_LLC_total_hit 916552
Core_0_LLC_total_miss 2449118
Core_0_LLC_loads 83512
Core_0_LLC_load_hit 28463
Core_0_LLC_load_miss 55049
Core_0_LLC_RFOs 750506
Core_0_LLC_RFO_hit 144965
Core_0_LLC_RFO_miss 605541
Core_0_LLC_prefetches 1778639
Core_0_LLC_prefetch_hit 483972
Core_0_LLC_prefetch_miss 1294667
Core_0_LLC_writebacks 753013
Core_0_LLC_writeback_hit 259152
Core_0_LLC_writeback_miss 493861
Core_0_LLC_prefetch_requested 0
Core_0_LLC_prefetch_dropped 0
Core_0_LLC_prefetch_issued 0
Core_0_LLC_prefetch_filled 1565150
Core_0_LLC_prefetch_useful 8822
Core_0_LLC_prefetch_useless 1554449
Core_0_LLC_prefetch_late 0
Core_0_LLC_average_miss_latency 222.48609

Core_0_LLC_rq_access 834020
Core_0_LLC_rq_forward 0
Core_0_LLC_rq_merged 0
Core_0_LLC_rq_to_cache 834018
Core_0_LLC_rq_full 0

Core_0_LLC_wq_access 753013
Core_0_LLC_wq_forward 2
Core_0_LLC_wq_merged 0
Core_0_LLC_wq_to_cache 753013
Core_0_LLC_wq_full 0

Core_0_LLC_pq_access 2114387
Core_0_LLC_pq_forward 0
Core_0_LLC_pq_merged 0
Core_0_LLC_pq_to_cache 2114387
Core_0_LLC_pq_full 0

Core_0_LLC_acc_epochs 1285140
Core_0_LLC_acc_level_0 1282256
Core_0_LLC_acc_level_1 1082
Core_0_LLC_acc_level_2 883
Core_0_LLC_acc_level_3 45
Core_0_LLC_acc_level_4 30
Core_0_LLC_acc_level_5 673
Core_0_LLC_acc_level_6 12
Core_0_LLC_acc_level_7 21
Core_0_LLC_acc_level_8 9
Core_0_LLC_acc_level_9 129

Core_0_major_page_fault 0
Core_0_minor_page_fault 23870

[Bingo] PHT Access: 71866
[Bingo] PHT Hit PC+Addr: 2060
[Bingo] PHT Hit PC+Offs: 68139
[Bingo] PHT Miss: 1667
[Bingo] Prefetch PC+Addr: 0
[Bingo] Prefetch PC+Offs: 0
[Bingo] Useful PC+Addr: 0
[Bingo] Useful PC+Offs: 0
[Bingo] Useless PC+Addr: 0
[Bingo] Useless PC+Offs: 0
[Bingo] L1 Prefetch per Region: 0.00000
[Bingo] L2 Prefetch per Region: 31.15641
[Bingo] L3 Prefetch per Region: 0.16983
[Bingo] No Prefetch per Region: 0.67376
[Bingo] Number of Voters Mean: 14.81416
[Bingo] Number of Voters SD: 2.97938

Channel_0_RQ_row_buffer_hit 1106012
Channel_0_RQ_row_buffer_miss 849242
Channel_0_WQ_row_buffer_hit 160524
Channel_0_WQ_row_buffer_miss 449228
Channel_0_WQ_full 819
Channel_0_dbus_congested 1563027

avg_congested_cycle 11

DRAM_bw_pochs 5140560
DRAM_bw_level_0 4951131
DRAM_bw_level_1 85188
DRAM_bw_level_2 32454
DRAM_bw_level_3 71787
