*************************************************
   ChampSim Multicore Out-of-Order Simulator
   Last compiled: Dec 11 2024 17:59:53
*************************************************
parsing config file: /home/functionmain/桌面/Pythia/config/bingo.ini

trace_0 /home/functionmain/桌面/Pythia/traces/436.cactusADM-1804B.champsimtrace.xz
adding L2C_PREFETCHER: Bingo
Initialize SHIP state
warmup_instructions 100000000
simulation_instructions 500000000
champsim_seed 271
measure_ipc 0
measure_ipc_epoch 1000
measure_dram_bw 1
measure_dram_bw_epoch 256
measure_cache_acc 1
measure_cache_acc_epoch 1024
l1d_perfect 0
l2c_perfect 0
llc_perfect 0
l1d_semi_perfect 0
l2c_semi_perfect 0
llc_semi_perfect 0
semi_perfect_cache_page_buffer_size 64

num_cpus 1
cpu_freq 4000
dram_io_freq 1200
page_size 4096
block_size 64
max_read_per_cycle 8
max_fill_per_cycle 1
dram_channels 1
log2_dram_channels 0
dram_ranks 1
dram_banks 8
dram_rows 65536
dram_columns 128
dram_row_size 8
dram_size 4096
dram_pages 1048576

fetch_width 6
decode_width 6
exec_width 4
lq_width 2
sq_width 2
retire_width 4
scheduler_size 128
branch_mispredict_penalty 20
rob_size 256
lq_size 72
sq_size 56
num_instr_destinations_sparc 4
num_instr_destinations 2
num_instr_sources 4

itlb_set 16
itlb_way 8
itlb_rq_size 16
itlb_wq_size 16
itlb_pq_size 0
itlb_mshr_size 8
itlb_latency 1

dtlb_set 16
dtlb_way 4
dtlb_rq_size 16
dtlb_wq_size 16
dtlb_pq_size 0
dtlb_mshr_size 8
dtlb_latency 1

stlb_set 128
stlb_way 12
stlb_rq_size 32
stlb_wq_size 32
stlb_pq_size 0
stlb_mshr_size 16
stlb_latency 8

l1i_size 32
l1i_set 64
l1i_way 8
l1i_rq_size 64
l1i_wq_size 64
l1i_pq_size 8
l1i_mshr_size 8
l1i_latency 1

l1d_size 32
l1d_set 64
l1d_way 8
l1d_rq_size 64
l1d_wq_size 64
l1d_pq_size 8
l1d_mshr_size 16
l1d_latency 4

l2c_size 256
l2c_set 512
l2c_way 8
l2c_rq_size 32
l2c_wq_size 32
l2c_pq_size 32
l2c_mshr_size 32
l2c_latency 10

llc_size 2048
llc_set 2048
llc_way 16
llc_rq_size 32
llc_wq_size 32
llc_pq_size 32
llc_mshr_size 64
llc_latency 20

dram_channel_width 8
dram_wq_size 64
dram_rq_size 64
tRP 15
tRCD 15
tCAS 12.5
dram_dbus_turn_around_time 30
dram_write_high_wm 56
dram_write_low_wm 48
min_dram_writes_per_switch 16
dram_mtps 1200
dram_dbus_return_time 26

bingo_region_size 2048
bingo_pattern_len 32
bingo_pc_width 16
bingo_min_addr_width 5
bingo_max_addr_width 16
bingo_ft_size 64
bingo_at_size 128
bingo_pht_size 4096
bingo_pht_ways 16
bingo_pf_streamer_size 128
bingo_debug_level 0
bingo_l1d_thresh 1.01
bingo_l2c_thresh 0.8
bingo_llc_thresh 0.05
bingo_pc_address_fill_level L2


Heartbeat CPU  0 instructions:    1000003 cycles:     702358 heartbeat IPC: 1.42378 cumulative IPC: 1.42378 (Simulation time: 0 hr 0 min 2 sec) 
Heartbeat CPU  0 instructions:    2000000 cycles:    1404565 heartbeat IPC: 1.42408 cumulative IPC: 1.42393 (Simulation time: 0 hr 0 min 5 sec) 
Heartbeat CPU  0 instructions:    3000000 cycles:    2106905 heartbeat IPC: 1.42381 cumulative IPC: 1.42389 (Simulation time: 0 hr 0 min 7 sec) 
Heartbeat CPU  0 instructions:    4000000 cycles:    2809245 heartbeat IPC: 1.42381 cumulative IPC: 1.42387 (Simulation time: 0 hr 0 min 9 sec) 
Heartbeat CPU  0 instructions:    5000000 cycles:    3511433 heartbeat IPC: 1.42412 cumulative IPC: 1.42392 (Simulation time: 0 hr 0 min 12 sec) 
Heartbeat CPU  0 instructions:    6000000 cycles:    4213768 heartbeat IPC: 1.42382 cumulative IPC: 1.42390 (Simulation time: 0 hr 0 min 14 sec) 
Heartbeat CPU  0 instructions:    7000001 cycles:    4916154 heartbeat IPC: 1.42372 cumulative IPC: 1.42388 (Simulation time: 0 hr 0 min 16 sec) 
Heartbeat CPU  0 instructions:    8000000 cycles:    5618263 heartbeat IPC: 1.42428 cumulative IPC: 1.42393 (Simulation time: 0 hr 0 min 18 sec) 
Heartbeat CPU  0 instructions:    9000001 cycles:    6320730 heartbeat IPC: 1.42356 cumulative IPC: 1.42389 (Simulation time: 0 hr 0 min 21 sec) 
Heartbeat CPU  0 instructions:   10000000 cycles:    7022899 heartbeat IPC: 1.42416 cumulative IPC: 1.42391 (Simulation time: 0 hr 0 min 23 sec) 
Heartbeat CPU  0 instructions:   11000002 cycles:    7725101 heartbeat IPC: 1.42409 cumulative IPC: 1.42393 (Simulation time: 0 hr 0 min 25 sec) 
Heartbeat CPU  0 instructions:   12000000 cycles:    8427233 heartbeat IPC: 1.42423 cumulative IPC: 1.42395 (Simulation time: 0 hr 0 min 28 sec) 
Heartbeat CPU  0 instructions:   13000000 cycles:    9129800 heartbeat IPC: 1.42335 cumulative IPC: 1.42391 (Simulation time: 0 hr 0 min 30 sec) 
Heartbeat CPU  0 instructions:   14000002 cycles:    9832042 heartbeat IPC: 1.42401 cumulative IPC: 1.42392 (Simulation time: 0 hr 0 min 32 sec) 
Heartbeat CPU  0 instructions:   15000002 cycles:   10533965 heartbeat IPC: 1.42466 cumulative IPC: 1.42397 (Simulation time: 0 hr 0 min 35 sec) 
Heartbeat CPU  0 instructions:   16000000 cycles:   11236496 heartbeat IPC: 1.42342 cumulative IPC: 1.42393 (Simulation time: 0 hr 0 min 37 sec) 
Heartbeat CPU  0 instructions:   17000000 cycles:   11939027 heartbeat IPC: 1.42342 cumulative IPC: 1.42390 (Simulation time: 0 hr 0 min 39 sec) 
Heartbeat CPU  0 instructions:   18000001 cycles:   12600714 heartbeat IPC: 1.51129 cumulative IPC: 1.42849 (Simulation time: 0 hr 0 min 41 sec) 
Heartbeat CPU  0 instructions:   19000000 cycles:   13234770 heartbeat IPC: 1.57715 cumulative IPC: 1.43561 (Simulation time: 0 hr 0 min 44 sec) 
Heartbeat CPU  0 instructions:   20000000 cycles:   13937334 heartbeat IPC: 1.42336 cumulative IPC: 1.43499 (Simulation time: 0 hr 0 min 46 sec) 
Heartbeat CPU  0 instructions:   21000000 cycles:   14639716 heartbeat IPC: 1.42373 cumulative IPC: 1.43445 (Simulation time: 0 hr 0 min 48 sec) 
Heartbeat CPU  0 instructions:   22000002 cycles:   15342019 heartbeat IPC: 1.42389 cumulative IPC: 1.43397 (Simulation time: 0 hr 0 min 51 sec) 
Heartbeat CPU  0 instructions:   23000001 cycles:   16044381 heartbeat IPC: 1.42377 cumulative IPC: 1.43352 (Simulation time: 0 hr 0 min 53 sec) 
Heartbeat CPU  0 instructions:   24000000 cycles:   16746500 heartbeat IPC: 1.42426 cumulative IPC: 1.43314 (Simulation time: 0 hr 0 min 55 sec) 
Heartbeat CPU  0 instructions:   25000001 cycles:   17448797 heartbeat IPC: 1.42390 cumulative IPC: 1.43276 (Simulation time: 0 hr 0 min 58 sec) 
Heartbeat CPU  0 instructions:   26000003 cycles:   18151425 heartbeat IPC: 1.42323 cumulative IPC: 1.43239 (Simulation time: 0 hr 1 min 0 sec) 
Heartbeat CPU  0 instructions:   27000003 cycles:   18853640 heartbeat IPC: 1.42407 cumulative IPC: 1.43208 (Simulation time: 0 hr 1 min 2 sec) 
Heartbeat CPU  0 instructions:   28000000 cycles:   19555783 heartbeat IPC: 1.42421 cumulative IPC: 1.43180 (Simulation time: 0 hr 1 min 5 sec) 
Heartbeat CPU  0 instructions:   29000000 cycles:   20258224 heartbeat IPC: 1.42361 cumulative IPC: 1.43152 (Simulation time: 0 hr 1 min 7 sec) 
Heartbeat CPU  0 instructions:   30000003 cycles:   20960607 heartbeat IPC: 1.42373 cumulative IPC: 1.43126 (Simulation time: 0 hr 1 min 9 sec) 
Heartbeat CPU  0 instructions:   31000003 cycles:   21662566 heartbeat IPC: 1.42458 cumulative IPC: 1.43104 (Simulation time: 0 hr 1 min 11 sec) 
Heartbeat CPU  0 instructions:   32000000 cycles:   22364632 heartbeat IPC: 1.42436 cumulative IPC: 1.43083 (Simulation time: 0 hr 1 min 14 sec) 
Heartbeat CPU  0 instructions:   33000001 cycles:   23067342 heartbeat IPC: 1.42306 cumulative IPC: 1.43059 (Simulation time: 0 hr 1 min 16 sec) 
Heartbeat CPU  0 instructions:   34000000 cycles:   23769451 heartbeat IPC: 1.42428 cumulative IPC: 1.43041 (Simulation time: 0 hr 1 min 18 sec) 
Heartbeat CPU  0 instructions:   35000001 cycles:   24471706 heartbeat IPC: 1.42399 cumulative IPC: 1.43022 (Simulation time: 0 hr 1 min 21 sec) 
Heartbeat CPU  0 instructions:   36000000 cycles:   25173970 heartbeat IPC: 1.42396 cumulative IPC: 1.43005 (Simulation time: 0 hr 1 min 23 sec) 
Heartbeat CPU  0 instructions:   37000000 cycles:   25876514 heartbeat IPC: 1.42340 cumulative IPC: 1.42987 (Simulation time: 0 hr 1 min 25 sec) 
Heartbeat CPU  0 instructions:   38000001 cycles:   26578708 heartbeat IPC: 1.42411 cumulative IPC: 1.42972 (Simulation time: 0 hr 1 min 28 sec) 
Heartbeat CPU  0 instructions:   39000000 cycles:   27280970 heartbeat IPC: 1.42397 cumulative IPC: 1.42957 (Simulation time: 0 hr 1 min 30 sec) 
Heartbeat CPU  0 instructions:   40000000 cycles:   27983255 heartbeat IPC: 1.42392 cumulative IPC: 1.42943 (Simulation time: 0 hr 1 min 32 sec) 
Heartbeat CPU  0 instructions:   41000000 cycles:   28587298 heartbeat IPC: 1.65551 cumulative IPC: 1.43420 (Simulation time: 0 hr 1 min 35 sec) 
Heartbeat CPU  0 instructions:   42000002 cycles:   29278408 heartbeat IPC: 1.44695 cumulative IPC: 1.43450 (Simulation time: 0 hr 1 min 37 sec) 
Heartbeat CPU  0 instructions:   43000002 cycles:   29980814 heartbeat IPC: 1.42368 cumulative IPC: 1.43425 (Simulation time: 0 hr 1 min 39 sec) 
Heartbeat CPU  0 instructions:   44000000 cycles:   30683245 heartbeat IPC: 1.42362 cumulative IPC: 1.43401 (Simulation time: 0 hr 1 min 42 sec) 
Heartbeat CPU  0 instructions:   45000003 cycles:   31385530 heartbeat IPC: 1.42393 cumulative IPC: 1.43378 (Simulation time: 0 hr 1 min 44 sec) 
Heartbeat CPU  0 instructions:   46000003 cycles:   32087715 heartbeat IPC: 1.42413 cumulative IPC: 1.43357 (Simulation time: 0 hr 1 min 46 sec) 
Heartbeat CPU  0 instructions:   47000000 cycles:   32789882 heartbeat IPC: 1.42416 cumulative IPC: 1.43337 (Simulation time: 0 hr 1 min 49 sec) 
Heartbeat CPU  0 instructions:   48000000 cycles:   33492504 heartbeat IPC: 1.42324 cumulative IPC: 1.43316 (Simulation time: 0 hr 1 min 51 sec) 
Heartbeat CPU  0 instructions:   49000000 cycles:   34194517 heartbeat IPC: 1.42448 cumulative IPC: 1.43298 (Simulation time: 0 hr 1 min 53 sec) 
Heartbeat CPU  0 instructions:   50000000 cycles:   34896851 heartbeat IPC: 1.42382 cumulative IPC: 1.43279 (Simulation time: 0 hr 1 min 55 sec) 
Heartbeat CPU  0 instructions:   51000000 cycles:   35599367 heartbeat IPC: 1.42346 cumulative IPC: 1.43261 (Simulation time: 0 hr 1 min 58 sec) 
Heartbeat CPU  0 instructions:   52000000 cycles:   36301555 heartbeat IPC: 1.42412 cumulative IPC: 1.43245 (Simulation time: 0 hr 2 min 0 sec) 
Heartbeat CPU  0 instructions:   53000000 cycles:   37003992 heartbeat IPC: 1.42362 cumulative IPC: 1.43228 (Simulation time: 0 hr 2 min 2 sec) 
Heartbeat CPU  0 instructions:   54000001 cycles:   37706084 heartbeat IPC: 1.42432 cumulative IPC: 1.43213 (Simulation time: 0 hr 2 min 5 sec) 
Heartbeat CPU  0 instructions:   55000001 cycles:   38408371 heartbeat IPC: 1.42392 cumulative IPC: 1.43198 (Simulation time: 0 hr 2 min 7 sec) 
Heartbeat CPU  0 instructions:   56000000 cycles:   39110857 heartbeat IPC: 1.42351 cumulative IPC: 1.43183 (Simulation time: 0 hr 2 min 9 sec) 
Heartbeat CPU  0 instructions:   57000000 cycles:   39813341 heartbeat IPC: 1.42352 cumulative IPC: 1.43168 (Simulation time: 0 hr 2 min 12 sec) 
Heartbeat CPU  0 instructions:   58000003 cycles:   40515663 heartbeat IPC: 1.42385 cumulative IPC: 1.43155 (Simulation time: 0 hr 2 min 14 sec) 
Heartbeat CPU  0 instructions:   59000000 cycles:   41217798 heartbeat IPC: 1.42422 cumulative IPC: 1.43142 (Simulation time: 0 hr 2 min 16 sec) 
Heartbeat CPU  0 instructions:   60000000 cycles:   41920222 heartbeat IPC: 1.42364 cumulative IPC: 1.43129 (Simulation time: 0 hr 2 min 19 sec) 
Heartbeat CPU  0 instructions:   61000000 cycles:   42622419 heartbeat IPC: 1.42410 cumulative IPC: 1.43117 (Simulation time: 0 hr 2 min 21 sec) 
Heartbeat CPU  0 instructions:   62000002 cycles:   43324676 heartbeat IPC: 1.42398 cumulative IPC: 1.43106 (Simulation time: 0 hr 2 min 23 sec) 
Heartbeat CPU  0 instructions:   63000000 cycles:   43971272 heartbeat IPC: 1.54656 cumulative IPC: 1.43275 (Simulation time: 0 hr 2 min 26 sec) 
Heartbeat CPU  0 instructions:   64000000 cycles:   44621419 heartbeat IPC: 1.53811 cumulative IPC: 1.43429 (Simulation time: 0 hr 2 min 28 sec) 
Heartbeat CPU  0 instructions:   65000000 cycles:   45323503 heartbeat IPC: 1.42433 cumulative IPC: 1.43413 (Simulation time: 0 hr 2 min 30 sec) 
Heartbeat CPU  0 instructions:   66000001 cycles:   46025597 heartbeat IPC: 1.42431 cumulative IPC: 1.43398 (Simulation time: 0 hr 2 min 33 sec) 
Heartbeat CPU  0 instructions:   67000002 cycles:   46727722 heartbeat IPC: 1.42425 cumulative IPC: 1.43384 (Simulation time: 0 hr 2 min 35 sec) 
Heartbeat CPU  0 instructions:   68000000 cycles:   47430107 heartbeat IPC: 1.42372 cumulative IPC: 1.43369 (Simulation time: 0 hr 2 min 37 sec) 
Heartbeat CPU  0 instructions:   69000000 cycles:   48132271 heartbeat IPC: 1.42417 cumulative IPC: 1.43355 (Simulation time: 0 hr 2 min 39 sec) 
Heartbeat CPU  0 instructions:   70000002 cycles:   48834372 heartbeat IPC: 1.42430 cumulative IPC: 1.43342 (Simulation time: 0 hr 2 min 42 sec) 
Heartbeat CPU  0 instructions:   71000003 cycles:   49537006 heartbeat IPC: 1.42322 cumulative IPC: 1.43327 (Simulation time: 0 hr 2 min 44 sec) 
Heartbeat CPU  0 instructions:   72000000 cycles:   50239092 heartbeat IPC: 1.42432 cumulative IPC: 1.43315 (Simulation time: 0 hr 2 min 46 sec) 
Heartbeat CPU  0 instructions:   73000001 cycles:   50941224 heartbeat IPC: 1.42423 cumulative IPC: 1.43302 (Simulation time: 0 hr 2 min 49 sec) 
Heartbeat CPU  0 instructions:   74000003 cycles:   51643543 heartbeat IPC: 1.42386 cumulative IPC: 1.43290 (Simulation time: 0 hr 2 min 51 sec) 
Heartbeat CPU  0 instructions:   75000002 cycles:   52346219 heartbeat IPC: 1.42313 cumulative IPC: 1.43277 (Simulation time: 0 hr 2 min 53 sec) 
Heartbeat CPU  0 instructions:   76000000 cycles:   53048418 heartbeat IPC: 1.42409 cumulative IPC: 1.43265 (Simulation time: 0 hr 2 min 56 sec) 
Heartbeat CPU  0 instructions:   77000003 cycles:   53751047 heartbeat IPC: 1.42323 cumulative IPC: 1.43253 (Simulation time: 0 hr 2 min 58 sec) 
Heartbeat CPU  0 instructions:   78000001 cycles:   54453549 heartbeat IPC: 1.42348 cumulative IPC: 1.43241 (Simulation time: 0 hr 3 min 0 sec) 
Heartbeat CPU  0 instructions:   79000001 cycles:   55155481 heartbeat IPC: 1.42464 cumulative IPC: 1.43231 (Simulation time: 0 hr 3 min 3 sec) 
Heartbeat CPU  0 instructions:   80000000 cycles:   55857549 heartbeat IPC: 1.42436 cumulative IPC: 1.43221 (Simulation time: 0 hr 3 min 5 sec) 
Heartbeat CPU  0 instructions:   81000002 cycles:   56559921 heartbeat IPC: 1.42375 cumulative IPC: 1.43211 (Simulation time: 0 hr 3 min 7 sec) 
Heartbeat CPU  0 instructions:   82000003 cycles:   57262171 heartbeat IPC: 1.42400 cumulative IPC: 1.43201 (Simulation time: 0 hr 3 min 10 sec) 
Heartbeat CPU  0 instructions:   83000001 cycles:   57964438 heartbeat IPC: 1.42396 cumulative IPC: 1.43191 (Simulation time: 0 hr 3 min 12 sec) 
Heartbeat CPU  0 instructions:   84000000 cycles:   58666670 heartbeat IPC: 1.42403 cumulative IPC: 1.43182 (Simulation time: 0 hr 3 min 14 sec) 
Heartbeat CPU  0 instructions:   85000000 cycles:   59355247 heartbeat IPC: 1.45227 cumulative IPC: 1.43206 (Simulation time: 0 hr 3 min 17 sec) 
Heartbeat CPU  0 instructions:   86000002 cycles:   59962630 heartbeat IPC: 1.64641 cumulative IPC: 1.43423 (Simulation time: 0 hr 3 min 19 sec) 
Heartbeat CPU  0 instructions:   87000002 cycles:   60665108 heartbeat IPC: 1.42353 cumulative IPC: 1.43410 (Simulation time: 0 hr 3 min 21 sec) 
Heartbeat CPU  0 instructions:   88000000 cycles:   61367738 heartbeat IPC: 1.42322 cumulative IPC: 1.43398 (Simulation time: 0 hr 3 min 24 sec) 
Heartbeat CPU  0 instructions:   89000001 cycles:   62069762 heartbeat IPC: 1.42445 cumulative IPC: 1.43387 (Simulation time: 0 hr 3 min 26 sec) 
Heartbeat CPU  0 instructions:   90000003 cycles:   62772084 heartbeat IPC: 1.42385 cumulative IPC: 1.43376 (Simulation time: 0 hr 3 min 28 sec) 
Heartbeat CPU  0 instructions:   91000003 cycles:   63474473 heartbeat IPC: 1.42371 cumulative IPC: 1.43365 (Simulation time: 0 hr 3 min 31 sec) 
Heartbeat CPU  0 instructions:   92000000 cycles:   64176670 heartbeat IPC: 1.42410 cumulative IPC: 1.43354 (Simulation time: 0 hr 3 min 33 sec) 
Heartbeat CPU  0 instructions:   93000002 cycles:   64879055 heartbeat IPC: 1.42372 cumulative IPC: 1.43344 (Simulation time: 0 hr 3 min 35 sec) 
Heartbeat CPU  0 instructions:   94000002 cycles:   65581076 heartbeat IPC: 1.42446 cumulative IPC: 1.43334 (Simulation time: 0 hr 3 min 38 sec) 
Heartbeat CPU  0 instructions:   95000003 cycles:   66283238 heartbeat IPC: 1.42417 cumulative IPC: 1.43324 (Simulation time: 0 hr 3 min 40 sec) 
Heartbeat CPU  0 instructions:   96000000 cycles:   66985485 heartbeat IPC: 1.42400 cumulative IPC: 1.43315 (Simulation time: 0 hr 3 min 42 sec) 
Heartbeat CPU  0 instructions:   97000000 cycles:   67687829 heartbeat IPC: 1.42380 cumulative IPC: 1.43305 (Simulation time: 0 hr 3 min 45 sec) 
Heartbeat CPU  0 instructions:   98000002 cycles:   68390019 heartbeat IPC: 1.42412 cumulative IPC: 1.43296 (Simulation time: 0 hr 3 min 47 sec) 
Heartbeat CPU  0 instructions:   99000003 cycles:   69092236 heartbeat IPC: 1.42406 cumulative IPC: 1.43287 (Simulation time: 0 hr 3 min 49 sec) 
Heartbeat CPU  0 instructions:  100000000 cycles:   69794613 heartbeat IPC: 1.42373 cumulative IPC: 1.43278 (Simulation time: 0 hr 3 min 52 sec) 

Warmup complete CPU  0 instructions:  100000001 cycles:   69794633 (Simulation time: 0 hr 3 min 52 sec) 

Heartbeat CPU  0 instructions:  101000000 cycles:   71720770 heartbeat IPC: 0.51917 cumulative IPC: 0.51917 (Simulation time: 0 hr 3 min 54 sec) 
Heartbeat CPU  0 instructions:  102000003 cycles:   73473085 heartbeat IPC: 0.57068 cumulative IPC: 0.54371 (Simulation time: 0 hr 3 min 57 sec) 
Heartbeat CPU  0 instructions:  103000003 cycles:   75338112 heartbeat IPC: 0.53619 cumulative IPC: 0.54118 (Simulation time: 0 hr 4 min 0 sec) 
Heartbeat CPU  0 instructions:  104000000 cycles:   77252890 heartbeat IPC: 0.52225 cumulative IPC: 0.53632 (Simulation time: 0 hr 4 min 2 sec) 
Heartbeat CPU  0 instructions:  105000002 cycles:   79084552 heartbeat IPC: 0.54595 cumulative IPC: 0.53822 (Simulation time: 0 hr 4 min 5 sec) 
Heartbeat CPU  0 instructions:  106000000 cycles:   80876868 heartbeat IPC: 0.55794 cumulative IPC: 0.54141 (Simulation time: 0 hr 4 min 8 sec) 
Heartbeat CPU  0 instructions:  107000003 cycles:   82786773 heartbeat IPC: 0.52359 cumulative IPC: 0.53879 (Simulation time: 0 hr 4 min 10 sec) 
Heartbeat CPU  0 instructions:  108000000 cycles:   93731392 heartbeat IPC: 0.09137 cumulative IPC: 0.33421 (Simulation time: 0 hr 4 min 14 sec) 
Heartbeat CPU  0 instructions:  109000003 cycles:  100586630 heartbeat IPC: 0.14587 cumulative IPC: 0.29228 (Simulation time: 0 hr 4 min 17 sec) 
Heartbeat CPU  0 instructions:  110000001 cycles:  102508496 heartbeat IPC: 0.52033 cumulative IPC: 0.30568 (Simulation time: 0 hr 4 min 20 sec) 
Heartbeat CPU  0 instructions:  111000000 cycles:  104438469 heartbeat IPC: 0.51814 cumulative IPC: 0.31752 (Simulation time: 0 hr 4 min 22 sec) 
Heartbeat CPU  0 instructions:  112000000 cycles:  106217791 heartbeat IPC: 0.56201 cumulative IPC: 0.32946 (Simulation time: 0 hr 4 min 25 sec) 
Heartbeat CPU  0 instructions:  113000000 cycles:  108096518 heartbeat IPC: 0.53228 cumulative IPC: 0.33941 (Simulation time: 0 hr 4 min 28 sec) 
Heartbeat CPU  0 instructions:  114000000 cycles:  110031759 heartbeat IPC: 0.51673 cumulative IPC: 0.34794 (Simulation time: 0 hr 4 min 30 sec) 
Heartbeat CPU  0 instructions:  115000001 cycles:  111868053 heartbeat IPC: 0.54458 cumulative IPC: 0.35652 (Simulation time: 0 hr 4 min 33 sec) 
Heartbeat CPU  0 instructions:  116000000 cycles:  113664527 heartbeat IPC: 0.55665 cumulative IPC: 0.36471 (Simulation time: 0 hr 4 min 36 sec) 
Heartbeat CPU  0 instructions:  117000003 cycles:  115583472 heartbeat IPC: 0.52112 cumulative IPC: 0.37127 (Simulation time: 0 hr 4 min 38 sec) 
Heartbeat CPU  0 instructions:  118000002 cycles:  117485908 heartbeat IPC: 0.52564 cumulative IPC: 0.37743 (Simulation time: 0 hr 4 min 41 sec) 
Heartbeat CPU  0 instructions:  119000002 cycles:  119228095 heartbeat IPC: 0.57399 cumulative IPC: 0.38436 (Simulation time: 0 hr 4 min 44 sec) 
Heartbeat CPU  0 instructions:  120000000 cycles:  121135735 heartbeat IPC: 0.52421 cumulative IPC: 0.38955 (Simulation time: 0 hr 4 min 46 sec) 
Heartbeat CPU  0 instructions:  121000003 cycles:  123050124 heartbeat IPC: 0.52236 cumulative IPC: 0.39433 (Simulation time: 0 hr 4 min 49 sec) 
Heartbeat CPU  0 instructions:  122000000 cycles:  124828086 heartbeat IPC: 0.56244 cumulative IPC: 0.39976 (Simulation time: 0 hr 4 min 52 sec) 
Heartbeat CPU  0 instructions:  123000002 cycles:  126679788 heartbeat IPC: 0.54004 cumulative IPC: 0.40432 (Simulation time: 0 hr 4 min 54 sec) 
Heartbeat CPU  0 instructions:  124000000 cycles:  128597597 heartbeat IPC: 0.52143 cumulative IPC: 0.40814 (Simulation time: 0 hr 4 min 57 sec) 
Heartbeat CPU  0 instructions:  125000000 cycles:  130455018 heartbeat IPC: 0.53838 cumulative IPC: 0.41213 (Simulation time: 0 hr 5 min 0 sec) 
Heartbeat CPU  0 instructions:  126000002 cycles:  132244806 heartbeat IPC: 0.55873 cumulative IPC: 0.41633 (Simulation time: 0 hr 5 min 3 sec) 
Heartbeat CPU  0 instructions:  127000002 cycles:  134279492 heartbeat IPC: 0.49148 cumulative IPC: 0.41870 (Simulation time: 0 hr 5 min 5 sec) 
Heartbeat CPU  0 instructions:  128000000 cycles:  136184912 heartbeat IPC: 0.52482 cumulative IPC: 0.42175 (Simulation time: 0 hr 5 min 8 sec) 
Heartbeat CPU  0 instructions:  129000001 cycles:  137922684 heartbeat IPC: 0.57545 cumulative IPC: 0.42567 (Simulation time: 0 hr 5 min 11 sec) 
Heartbeat CPU  0 instructions:  130000000 cycles:  143525635 heartbeat IPC: 0.17848 cumulative IPC: 0.40688 (Simulation time: 0 hr 5 min 14 sec) 
Heartbeat CPU  0 instructions:  131000003 cycles:  155774905 heartbeat IPC: 0.08164 cumulative IPC: 0.36055 (Simulation time: 0 hr 5 min 17 sec) 
Heartbeat CPU  0 instructions:  132000000 cycles:  157572543 heartbeat IPC: 0.55628 cumulative IPC: 0.36456 (Simulation time: 0 hr 5 min 20 sec) 
Heartbeat CPU  0 instructions:  133000000 cycles:  159435293 heartbeat IPC: 0.53684 cumulative IPC: 0.36814 (Simulation time: 0 hr 5 min 23 sec) 
Heartbeat CPU  0 instructions:  134000000 cycles:  161366767 heartbeat IPC: 0.51774 cumulative IPC: 0.37129 (Simulation time: 0 hr 5 min 25 sec) 
Heartbeat CPU  0 instructions:  135000000 cycles:  163228616 heartbeat IPC: 0.53710 cumulative IPC: 0.37460 (Simulation time: 0 hr 5 min 28 sec) 
Heartbeat CPU  0 instructions:  136000000 cycles:  165013022 heartbeat IPC: 0.56041 cumulative IPC: 0.37808 (Simulation time: 0 hr 5 min 31 sec) 
Heartbeat CPU  0 instructions:  137000002 cycles:  166932871 heartbeat IPC: 0.52088 cumulative IPC: 0.38090 (Simulation time: 0 hr 5 min 33 sec) 
Heartbeat CPU  0 instructions:  138000001 cycles:  168841929 heartbeat IPC: 0.52382 cumulative IPC: 0.38366 (Simulation time: 0 hr 5 min 36 sec) 
Heartbeat CPU  0 instructions:  139000001 cycles:  170583446 heartbeat IPC: 0.57421 cumulative IPC: 0.38695 (Simulation time: 0 hr 5 min 39 sec) 
Heartbeat CPU  0 instructions:  140000000 cycles:  172488498 heartbeat IPC: 0.52492 cumulative IPC: 0.38951 (Simulation time: 0 hr 5 min 41 sec) 
Heartbeat CPU  0 instructions:  141000000 cycles:  174405052 heartbeat IPC: 0.52177 cumulative IPC: 0.39193 (Simulation time: 0 hr 5 min 44 sec) 
Heartbeat CPU  0 instructions:  142000001 cycles:  176198987 heartbeat IPC: 0.55743 cumulative IPC: 0.39472 (Simulation time: 0 hr 5 min 47 sec) 
Heartbeat CPU  0 instructions:  143000001 cycles:  178034395 heartbeat IPC: 0.54484 cumulative IPC: 0.39727 (Simulation time: 0 hr 5 min 50 sec) 
Heartbeat CPU  0 instructions:  144000000 cycles:  179954472 heartbeat IPC: 0.52081 cumulative IPC: 0.39942 (Simulation time: 0 hr 5 min 52 sec) 
Heartbeat CPU  0 instructions:  145000000 cycles:  181826606 heartbeat IPC: 0.53415 cumulative IPC: 0.40167 (Simulation time: 0 hr 5 min 55 sec) 
Heartbeat CPU  0 instructions:  146000002 cycles:  183589927 heartbeat IPC: 0.56711 cumulative IPC: 0.40423 (Simulation time: 0 hr 5 min 58 sec) 
Heartbeat CPU  0 instructions:  147000003 cycles:  185504386 heartbeat IPC: 0.52234 cumulative IPC: 0.40619 (Simulation time: 0 hr 6 min 0 sec) 
Heartbeat CPU  0 instructions:  148000000 cycles:  187411219 heartbeat IPC: 0.52443 cumulative IPC: 0.40811 (Simulation time: 0 hr 6 min 3 sec) 
Heartbeat CPU  0 instructions:  149000002 cycles:  189159210 heartbeat IPC: 0.57209 cumulative IPC: 0.41051 (Simulation time: 0 hr 6 min 6 sec) 
Heartbeat CPU  0 instructions:  150000003 cycles:  191050278 heartbeat IPC: 0.52880 cumulative IPC: 0.41235 (Simulation time: 0 hr 6 min 8 sec) 
Heartbeat CPU  0 instructions:  151000003 cycles:  192962472 heartbeat IPC: 0.52296 cumulative IPC: 0.41407 (Simulation time: 0 hr 6 min 11 sec) 
Heartbeat CPU  0 instructions:  152000000 cycles:  194785449 heartbeat IPC: 0.54855 cumulative IPC: 0.41603 (Simulation time: 0 hr 6 min 14 sec) 
Heartbeat CPU  0 instructions:  153000003 cycles:  207754198 heartbeat IPC: 0.07711 cumulative IPC: 0.38417 (Simulation time: 0 hr 6 min 17 sec) 
Heartbeat CPU  0 instructions:  154000000 cycles:  212776144 heartbeat IPC: 0.19913 cumulative IPC: 0.37767 (Simulation time: 0 hr 6 min 20 sec) 
Heartbeat CPU  0 instructions:  155000000 cycles:  214659439 heartbeat IPC: 0.53098 cumulative IPC: 0.37966 (Simulation time: 0 hr 6 min 23 sec) 
Heartbeat CPU  0 instructions:  156000000 cycles:  216423115 heartbeat IPC: 0.56700 cumulative IPC: 0.38192 (Simulation time: 0 hr 6 min 26 sec) 
Heartbeat CPU  0 instructions:  157000001 cycles:  218344168 heartbeat IPC: 0.52055 cumulative IPC: 0.38371 (Simulation time: 0 hr 6 min 28 sec) 
Heartbeat CPU  0 instructions:  158000001 cycles:  220262210 heartbeat IPC: 0.52137 cumulative IPC: 0.38547 (Simulation time: 0 hr 6 min 31 sec) 
Heartbeat CPU  0 instructions:  159000000 cycles:  222011739 heartbeat IPC: 0.57158 cumulative IPC: 0.38760 (Simulation time: 0 hr 6 min 34 sec) 
Heartbeat CPU  0 instructions:  160000000 cycles:  223910482 heartbeat IPC: 0.52666 cumulative IPC: 0.38932 (Simulation time: 0 hr 6 min 36 sec) 
Heartbeat CPU  0 instructions:  161000003 cycles:  225831232 heartbeat IPC: 0.52063 cumulative IPC: 0.39093 (Simulation time: 0 hr 6 min 39 sec) 
Heartbeat CPU  0 instructions:  162000000 cycles:  227644799 heartbeat IPC: 0.55140 cumulative IPC: 0.39278 (Simulation time: 0 hr 6 min 42 sec) 
Heartbeat CPU  0 instructions:  163000003 cycles:  229463636 heartbeat IPC: 0.54980 cumulative IPC: 0.39457 (Simulation time: 0 hr 6 min 44 sec) 
Heartbeat CPU  0 instructions:  164000000 cycles:  231378187 heartbeat IPC: 0.52231 cumulative IPC: 0.39608 (Simulation time: 0 hr 6 min 47 sec) 
Heartbeat CPU  0 instructions:  165000000 cycles:  233276224 heartbeat IPC: 0.52686 cumulative IPC: 0.39760 (Simulation time: 0 hr 6 min 50 sec) 
Heartbeat CPU  0 instructions:  166000001 cycles:  235020938 heartbeat IPC: 0.57316 cumulative IPC: 0.39945 (Simulation time: 0 hr 6 min 53 sec) 
Heartbeat CPU  0 instructions:  167000000 cycles:  236932108 heartbeat IPC: 0.52324 cumulative IPC: 0.40087 (Simulation time: 0 hr 6 min 55 sec) 
Heartbeat CPU  0 instructions:  168000000 cycles:  238845672 heartbeat IPC: 0.52259 cumulative IPC: 0.40225 (Simulation time: 0 hr 6 min 58 sec) 
Heartbeat CPU  0 instructions:  169000001 cycles:  240601305 heartbeat IPC: 0.56960 cumulative IPC: 0.40397 (Simulation time: 0 hr 7 min 1 sec) 
Heartbeat CPU  0 instructions:  170000002 cycles:  242475227 heartbeat IPC: 0.53364 cumulative IPC: 0.40537 (Simulation time: 0 hr 7 min 3 sec) 
Heartbeat CPU  0 instructions:  171000001 cycles:  244394264 heartbeat IPC: 0.52109 cumulative IPC: 0.40664 (Simulation time: 0 hr 7 min 6 sec) 
Heartbeat CPU  0 instructions:  172000000 cycles:  246223904 heartbeat IPC: 0.54656 cumulative IPC: 0.40810 (Simulation time: 0 hr 7 min 9 sec) 
Heartbeat CPU  0 instructions:  173000000 cycles:  248024455 heartbeat IPC: 0.55539 cumulative IPC: 0.40958 (Simulation time: 0 hr 7 min 11 sec) 
Heartbeat CPU  0 instructions:  174000003 cycles:  249942160 heartbeat IPC: 0.52146 cumulative IPC: 0.41077 (Simulation time: 0 hr 7 min 14 sec) 
Heartbeat CPU  0 instructions:  175000000 cycles:  257246246 heartbeat IPC: 0.13691 cumulative IPC: 0.40010 (Simulation time: 0 hr 7 min 17 sec) 
Heartbeat CPU  0 instructions:  176000000 cycles:  267644587 heartbeat IPC: 0.09617 cumulative IPC: 0.38413 (Simulation time: 0 hr 7 min 21 sec) 
Heartbeat CPU  0 instructions:  177000001 cycles:  269641056 heartbeat IPC: 0.50088 cumulative IPC: 0.38530 (Simulation time: 0 hr 7 min 23 sec) 
Heartbeat CPU  0 instructions:  178000003 cycles:  271712929 heartbeat IPC: 0.48266 cumulative IPC: 0.38629 (Simulation time: 0 hr 7 min 26 sec) 
Heartbeat CPU  0 instructions:  179000002 cycles:  273644540 heartbeat IPC: 0.51770 cumulative IPC: 0.38754 (Simulation time: 0 hr 7 min 29 sec) 
Heartbeat CPU  0 instructions:  180000000 cycles:  275554385 heartbeat IPC: 0.52360 cumulative IPC: 0.38880 (Simulation time: 0 hr 7 min 31 sec) 
Heartbeat CPU  0 instructions:  181000003 cycles:  277492195 heartbeat IPC: 0.51605 cumulative IPC: 0.38999 (Simulation time: 0 hr 7 min 34 sec) 
Heartbeat CPU  0 instructions:  182000003 cycles:  279342470 heartbeat IPC: 0.54046 cumulative IPC: 0.39132 (Simulation time: 0 hr 7 min 37 sec) 
Heartbeat CPU  0 instructions:  183000000 cycles:  281173397 heartbeat IPC: 0.54617 cumulative IPC: 0.39266 (Simulation time: 0 hr 7 min 39 sec) 
Heartbeat CPU  0 instructions:  184000000 cycles:  283104049 heartbeat IPC: 0.51796 cumulative IPC: 0.39379 (Simulation time: 0 hr 7 min 42 sec) 
Heartbeat CPU  0 instructions:  185000002 cycles:  285022777 heartbeat IPC: 0.52118 cumulative IPC: 0.39493 (Simulation time: 0 hr 7 min 45 sec) 
Heartbeat CPU  0 instructions:  186000001 cycles:  286801177 heartbeat IPC: 0.56230 cumulative IPC: 0.39630 (Simulation time: 0 hr 7 min 48 sec) 
Heartbeat CPU  0 instructions:  187000000 cycles:  288720784 heartbeat IPC: 0.52094 cumulative IPC: 0.39739 (Simulation time: 0 hr 7 min 50 sec) 
Heartbeat CPU  0 instructions:  188000000 cycles:  290651079 heartbeat IPC: 0.51806 cumulative IPC: 0.39845 (Simulation time: 0 hr 7 min 53 sec) 
Heartbeat CPU  0 instructions:  189000000 cycles:  292440356 heartbeat IPC: 0.55888 cumulative IPC: 0.39974 (Simulation time: 0 hr 7 min 56 sec) 
Heartbeat CPU  0 instructions:  190000000 cycles:  294328229 heartbeat IPC: 0.52970 cumulative IPC: 0.40083 (Simulation time: 0 hr 7 min 58 sec) 
Heartbeat CPU  0 instructions:  191000000 cycles:  296259881 heartbeat IPC: 0.51769 cumulative IPC: 0.40183 (Simulation time: 0 hr 8 min 1 sec) 
Heartbeat CPU  0 instructions:  192000000 cycles:  298121473 heartbeat IPC: 0.53717 cumulative IPC: 0.40293 (Simulation time: 0 hr 8 min 4 sec) 
Heartbeat CPU  0 instructions:  193000001 cycles:  299934990 heartbeat IPC: 0.55142 cumulative IPC: 0.40410 (Simulation time: 0 hr 8 min 6 sec) 
Heartbeat CPU  0 instructions:  194000000 cycles:  301866730 heartbeat IPC: 0.51767 cumulative IPC: 0.40505 (Simulation time: 0 hr 8 min 9 sec) 
Heartbeat CPU  0 instructions:  195000002 cycles:  303784550 heartbeat IPC: 0.52143 cumulative IPC: 0.40600 (Simulation time: 0 hr 8 min 12 sec) 
Heartbeat CPU  0 instructions:  196000000 cycles:  305558178 heartbeat IPC: 0.56381 cumulative IPC: 0.40719 (Simulation time: 0 hr 8 min 14 sec) 
Heartbeat CPU  0 instructions:  197000000 cycles:  307590009 heartbeat IPC: 0.49217 cumulative IPC: 0.40791 (Simulation time: 0 hr 8 min 17 sec) 
Heartbeat CPU  0 instructions:  198000003 cycles:  322127457 heartbeat IPC: 0.06879 cumulative IPC: 0.38838 (Simulation time: 0 hr 8 min 21 sec) 
Heartbeat CPU  0 instructions:  199000001 cycles:  325291365 heartbeat IPC: 0.31606 cumulative IPC: 0.38748 (Simulation time: 0 hr 8 min 24 sec) 
Heartbeat CPU  0 instructions:  200000000 cycles:  327193771 heartbeat IPC: 0.52565 cumulative IPC: 0.38850 (Simulation time: 0 hr 8 min 26 sec) 
Heartbeat CPU  0 instructions:  201000002 cycles:  329136007 heartbeat IPC: 0.51487 cumulative IPC: 0.38945 (Simulation time: 0 hr 8 min 29 sec) 
Heartbeat CPU  0 instructions:  202000003 cycles:  331008591 heartbeat IPC: 0.53402 cumulative IPC: 0.39048 (Simulation time: 0 hr 8 min 32 sec) 
Heartbeat CPU  0 instructions:  203000002 cycles:  332826650 heartbeat IPC: 0.55004 cumulative IPC: 0.39159 (Simulation time: 0 hr 8 min 35 sec) 
Heartbeat CPU  0 instructions:  204000000 cycles:  334766184 heartbeat IPC: 0.51559 cumulative IPC: 0.39249 (Simulation time: 0 hr 8 min 37 sec) 
Heartbeat CPU  0 instructions:  205000002 cycles:  336683823 heartbeat IPC: 0.52148 cumulative IPC: 0.39342 (Simulation time: 0 hr 8 min 40 sec) 
Heartbeat CPU  0 instructions:  206000000 cycles:  338471470 heartbeat IPC: 0.55939 cumulative IPC: 0.39453 (Simulation time: 0 hr 8 min 43 sec) 
Heartbeat CPU  0 instructions:  207000002 cycles:  340387682 heartbeat IPC: 0.52186 cumulative IPC: 0.39543 (Simulation time: 0 hr 8 min 45 sec) 
Heartbeat CPU  0 instructions:  208000000 cycles:  342315398 heartbeat IPC: 0.51875 cumulative IPC: 0.39630 (Simulation time: 0 hr 8 min 48 sec) 
Heartbeat CPU  0 instructions:  209000002 cycles:  344122224 heartbeat IPC: 0.55346 cumulative IPC: 0.39734 (Simulation time: 0 hr 8 min 51 sec) 
Heartbeat CPU  0 instructions:  210000000 cycles:  345996558 heartbeat IPC: 0.53352 cumulative IPC: 0.39826 (Simulation time: 0 hr 8 min 53 sec) 
Heartbeat CPU  0 instructions:  211000003 cycles:  347928622 heartbeat IPC: 0.51758 cumulative IPC: 0.39909 (Simulation time: 0 hr 8 min 56 sec) 
Heartbeat CPU  0 instructions:  212000000 cycles:  349812196 heartbeat IPC: 0.53090 cumulative IPC: 0.39997 (Simulation time: 0 hr 8 min 59 sec) 
Heartbeat CPU  0 instructions:  213000003 cycles:  351607180 heartbeat IPC: 0.55711 cumulative IPC: 0.40098 (Simulation time: 0 hr 9 min 1 sec) 
Heartbeat CPU  0 instructions:  214000003 cycles:  353539090 heartbeat IPC: 0.51762 cumulative IPC: 0.40177 (Simulation time: 0 hr 9 min 4 sec) 
Heartbeat CPU  0 instructions:  215000003 cycles:  355463417 heartbeat IPC: 0.51966 cumulative IPC: 0.40256 (Simulation time: 0 hr 9 min 7 sec) 
Heartbeat CPU  0 instructions:  216000000 cycles:  357246365 heartbeat IPC: 0.56087 cumulative IPC: 0.40355 (Simulation time: 0 hr 9 min 10 sec) 
Heartbeat CPU  0 instructions:  217000002 cycles:  359154294 heartbeat IPC: 0.52413 cumulative IPC: 0.40434 (Simulation time: 0 hr 9 min 12 sec) 
Heartbeat CPU  0 instructions:  218000001 cycles:  361083812 heartbeat IPC: 0.51826 cumulative IPC: 0.40510 (Simulation time: 0 hr 9 min 15 sec) 
Heartbeat CPU  0 instructions:  219000002 cycles:  362904523 heartbeat IPC: 0.54924 cumulative IPC: 0.40599 (Simulation time: 0 hr 9 min 18 sec) 
Heartbeat CPU  0 instructions:  220000000 cycles:  371985804 heartbeat IPC: 0.11012 cumulative IPC: 0.39710 (Simulation time: 0 hr 9 min 21 sec) 
Heartbeat CPU  0 instructions:  221000000 cycles:  380802679 heartbeat IPC: 0.11342 cumulative IPC: 0.38906 (Simulation time: 0 hr 9 min 24 sec) 
Heartbeat CPU  0 instructions:  222000000 cycles:  382700295 heartbeat IPC: 0.52698 cumulative IPC: 0.38989 (Simulation time: 0 hr 9 min 27 sec) 
Heartbeat CPU  0 instructions:  223000001 cycles:  384503100 heartbeat IPC: 0.55469 cumulative IPC: 0.39084 (Simulation time: 0 hr 9 min 30 sec) 
Heartbeat CPU  0 instructions:  224000000 cycles:  386438648 heartbeat IPC: 0.51665 cumulative IPC: 0.39161 (Simulation time: 0 hr 9 min 32 sec) 
Heartbeat CPU  0 instructions:  225000002 cycles:  388372714 heartbeat IPC: 0.51705 cumulative IPC: 0.39237 (Simulation time: 0 hr 9 min 35 sec) 
Heartbeat CPU  0 instructions:  226000002 cycles:  390153757 heartbeat IPC: 0.56147 cumulative IPC: 0.39331 (Simulation time: 0 hr 9 min 38 sec) 
Heartbeat CPU  0 instructions:  227000003 cycles:  392065549 heartbeat IPC: 0.52307 cumulative IPC: 0.39408 (Simulation time: 0 hr 9 min 40 sec) 
Heartbeat CPU  0 instructions:  228000000 cycles:  393997695 heartbeat IPC: 0.51756 cumulative IPC: 0.39481 (Simulation time: 0 hr 9 min 43 sec) 
Heartbeat CPU  0 instructions:  229000003 cycles:  395963433 heartbeat IPC: 0.50872 cumulative IPC: 0.39550 (Simulation time: 0 hr 9 min 46 sec) 
Heartbeat CPU  0 instructions:  230000001 cycles:  397815743 heartbeat IPC: 0.53987 cumulative IPC: 0.39632 (Simulation time: 0 hr 9 min 48 sec) 
Heartbeat CPU  0 instructions:  231000003 cycles:  399746719 heartbeat IPC: 0.51787 cumulative IPC: 0.39703 (Simulation time: 0 hr 9 min 51 sec) 
Heartbeat CPU  0 instructions:  232000000 cycles:  401643612 heartbeat IPC: 0.52718 cumulative IPC: 0.39777 (Simulation time: 0 hr 9 min 54 sec) 
Heartbeat CPU  0 instructions:  233000002 cycles:  403435254 heartbeat IPC: 0.55815 cumulative IPC: 0.39863 (Simulation time: 0 hr 9 min 56 sec) 
Heartbeat CPU  0 instructions:  234000001 cycles:  405360380 heartbeat IPC: 0.51945 cumulative IPC: 0.39933 (Simulation time: 0 hr 9 min 59 sec) 
Heartbeat CPU  0 instructions:  235000003 cycles:  407285223 heartbeat IPC: 0.51952 cumulative IPC: 0.40001 (Simulation time: 0 hr 10 min 2 sec) 
Heartbeat CPU  0 instructions:  236000000 cycles:  409065370 heartbeat IPC: 0.56175 cumulative IPC: 0.40086 (Simulation time: 0 hr 10 min 4 sec) 
Heartbeat CPU  0 instructions:  237000002 cycles:  410969976 heartbeat IPC: 0.52504 cumulative IPC: 0.40155 (Simulation time: 0 hr 10 min 7 sec) 
Heartbeat CPU  0 instructions:  238000002 cycles:  412902950 heartbeat IPC: 0.51734 cumulative IPC: 0.40221 (Simulation time: 0 hr 10 min 10 sec) 
Heartbeat CPU  0 instructions:  239000001 cycles:  414742902 heartbeat IPC: 0.54349 cumulative IPC: 0.40296 (Simulation time: 0 hr 10 min 13 sec) 
Heartbeat CPU  0 instructions:  240000000 cycles:  416576908 heartbeat IPC: 0.54525 cumulative IPC: 0.40371 (Simulation time: 0 hr 10 min 15 sec) 
Heartbeat CPU  0 instructions:  241000003 cycles:  418513435 heartbeat IPC: 0.51639 cumulative IPC: 0.40434 (Simulation time: 0 hr 10 min 18 sec) 
Heartbeat CPU  0 instructions:  242000002 cycles:  422271840 heartbeat IPC: 0.26607 cumulative IPC: 0.40286 (Simulation time: 0 hr 10 min 21 sec) 
Heartbeat CPU  0 instructions:  243000003 cycles:  436557866 heartbeat IPC: 0.07000 cumulative IPC: 0.38990 (Simulation time: 0 hr 10 min 24 sec) 
Heartbeat CPU  0 instructions:  244000000 cycles:  438510117 heartbeat IPC: 0.51223 cumulative IPC: 0.39055 (Simulation time: 0 hr 10 min 27 sec) 
Heartbeat CPU  0 instructions:  245000000 cycles:  440444756 heartbeat IPC: 0.51689 cumulative IPC: 0.39120 (Simulation time: 0 hr 10 min 30 sec) 
Heartbeat CPU  0 instructions:  246000000 cycles:  442235425 heartbeat IPC: 0.55845 cumulative IPC: 0.39201 (Simulation time: 0 hr 10 min 33 sec) 
Heartbeat CPU  0 instructions:  247000000 cycles:  444145851 heartbeat IPC: 0.52344 cumulative IPC: 0.39268 (Simulation time: 0 hr 10 min 35 sec) 
Heartbeat CPU  0 instructions:  248000000 cycles:  446079937 heartbeat IPC: 0.51704 cumulative IPC: 0.39332 (Simulation time: 0 hr 10 min 38 sec) 
Heartbeat CPU  0 instructions:  249000001 cycles:  447930507 heartbeat IPC: 0.54037 cumulative IPC: 0.39404 (Simulation time: 0 hr 10 min 41 sec) 
Heartbeat CPU  0 instructions:  250000003 cycles:  449772284 heartbeat IPC: 0.54295 cumulative IPC: 0.39476 (Simulation time: 0 hr 10 min 43 sec) 
Heartbeat CPU  0 instructions:  251000002 cycles:  451706146 heartbeat IPC: 0.51710 cumulative IPC: 0.39538 (Simulation time: 0 hr 10 min 46 sec) 
Heartbeat CPU  0 instructions:  252000000 cycles:  453619347 heartbeat IPC: 0.52268 cumulative IPC: 0.39601 (Simulation time: 0 hr 10 min 49 sec) 
Heartbeat CPU  0 instructions:  253000000 cycles:  455397678 heartbeat IPC: 0.56233 cumulative IPC: 0.39678 (Simulation time: 0 hr 10 min 51 sec) 
Heartbeat CPU  0 instructions:  254000002 cycles:  457318507 heartbeat IPC: 0.52061 cumulative IPC: 0.39739 (Simulation time: 0 hr 10 min 54 sec) 
Heartbeat CPU  0 instructions:  255000000 cycles:  459252786 heartbeat IPC: 0.51699 cumulative IPC: 0.39799 (Simulation time: 0 hr 10 min 57 sec) 
Heartbeat CPU  0 instructions:  256000000 cycles:  461034243 heartbeat IPC: 0.56134 cumulative IPC: 0.39873 (Simulation time: 0 hr 11 min 0 sec) 
Heartbeat CPU  0 instructions:  257000000 cycles:  462930136 heartbeat IPC: 0.52746 cumulative IPC: 0.39935 (Simulation time: 0 hr 11 min 2 sec) 
Heartbeat CPU  0 instructions:  258000003 cycles:  464861479 heartbeat IPC: 0.51778 cumulative IPC: 0.39993 (Simulation time: 0 hr 11 min 5 sec) 
Heartbeat CPU  0 instructions:  259000000 cycles:  466720736 heartbeat IPC: 0.53785 cumulative IPC: 0.40058 (Simulation time: 0 hr 11 min 8 sec) 
Heartbeat CPU  0 instructions:  260000000 cycles:  468542323 heartbeat IPC: 0.54897 cumulative IPC: 0.40126 (Simulation time: 0 hr 11 min 10 sec) 
Heartbeat CPU  0 instructions:  261000000 cycles:  470470437 heartbeat IPC: 0.51864 cumulative IPC: 0.40182 (Simulation time: 0 hr 11 min 13 sec) 
Heartbeat CPU  0 instructions:  262000002 cycles:  472388472 heartbeat IPC: 0.52137 cumulative IPC: 0.40239 (Simulation time: 0 hr 11 min 16 sec) 
Heartbeat CPU  0 instructions:  263000001 cycles:  474166191 heartbeat IPC: 0.56252 cumulative IPC: 0.40309 (Simulation time: 0 hr 11 min 18 sec) 
Heartbeat CPU  0 instructions:  264000000 cycles:  476081029 heartbeat IPC: 0.52224 cumulative IPC: 0.40366 (Simulation time: 0 hr 11 min 21 sec) 
Heartbeat CPU  0 instructions:  265000002 cycles:  487071582 heartbeat IPC: 0.09099 cumulative IPC: 0.39542 (Simulation time: 0 hr 11 min 24 sec) 
Heartbeat CPU  0 instructions:  266000001 cycles:  493956065 heartbeat IPC: 0.14525 cumulative IPC: 0.39136 (Simulation time: 0 hr 11 min 28 sec) 
Heartbeat CPU  0 instructions:  267000002 cycles:  495858270 heartbeat IPC: 0.52571 cumulative IPC: 0.39196 (Simulation time: 0 hr 11 min 30 sec) 
Heartbeat CPU  0 instructions:  268000000 cycles:  497804968 heartbeat IPC: 0.51369 cumulative IPC: 0.39251 (Simulation time: 0 hr 11 min 33 sec) 
Heartbeat CPU  0 instructions:  269000000 cycles:  499678985 heartbeat IPC: 0.53361 cumulative IPC: 0.39313 (Simulation time: 0 hr 11 min 36 sec) 
Heartbeat CPU  0 instructions:  270000003 cycles:  501516314 heartbeat IPC: 0.54427 cumulative IPC: 0.39377 (Simulation time: 0 hr 11 min 38 sec) 
Heartbeat CPU  0 instructions:  271000002 cycles:  503457785 heartbeat IPC: 0.51507 cumulative IPC: 0.39432 (Simulation time: 0 hr 11 min 41 sec) 
Heartbeat CPU  0 instructions:  272000000 cycles:  505381548 heartbeat IPC: 0.51981 cumulative IPC: 0.39487 (Simulation time: 0 hr 11 min 44 sec) 
Heartbeat CPU  0 instructions:  273000002 cycles:  507163656 heartbeat IPC: 0.56113 cumulative IPC: 0.39555 (Simulation time: 0 hr 11 min 46 sec) 
Heartbeat CPU  0 instructions:  274000000 cycles:  509079781 heartbeat IPC: 0.52189 cumulative IPC: 0.39610 (Simulation time: 0 hr 11 min 49 sec) 
Heartbeat CPU  0 instructions:  275000000 cycles:  511007166 heartbeat IPC: 0.51884 cumulative IPC: 0.39663 (Simulation time: 0 hr 11 min 52 sec) 
Heartbeat CPU  0 instructions:  276000000 cycles:  512809769 heartbeat IPC: 0.55475 cumulative IPC: 0.39728 (Simulation time: 0 hr 11 min 55 sec) 
Heartbeat CPU  0 instructions:  277000001 cycles:  514687063 heartbeat IPC: 0.53268 cumulative IPC: 0.39785 (Simulation time: 0 hr 11 min 57 sec) 
Heartbeat CPU  0 instructions:  278000000 cycles:  516621951 heartbeat IPC: 0.51683 cumulative IPC: 0.39836 (Simulation time: 0 hr 12 min 0 sec) 
Heartbeat CPU  0 instructions:  279000003 cycles:  518621651 heartbeat IPC: 0.50008 cumulative IPC: 0.39882 (Simulation time: 0 hr 12 min 3 sec) 
Heartbeat CPU  0 instructions:  280000000 cycles:  520534628 heartbeat IPC: 0.52274 cumulative IPC: 0.39934 (Simulation time: 0 hr 12 min 5 sec) 
Heartbeat CPU  0 instructions:  281000002 cycles:  522579592 heartbeat IPC: 0.48901 cumulative IPC: 0.39975 (Simulation time: 0 hr 12 min 8 sec) 
Heartbeat CPU  0 instructions:  282000002 cycles:  524503338 heartbeat IPC: 0.51982 cumulative IPC: 0.40026 (Simulation time: 0 hr 12 min 11 sec) 
Heartbeat CPU  0 instructions:  283000000 cycles:  526275520 heartbeat IPC: 0.56428 cumulative IPC: 0.40089 (Simulation time: 0 hr 12 min 13 sec) 
Heartbeat CPU  0 instructions:  284000000 cycles:  528186442 heartbeat IPC: 0.52331 cumulative IPC: 0.40140 (Simulation time: 0 hr 12 min 16 sec) 
Heartbeat CPU  0 instructions:  285000001 cycles:  530118421 heartbeat IPC: 0.51760 cumulative IPC: 0.40189 (Simulation time: 0 hr 12 min 19 sec) 
Heartbeat CPU  0 instructions:  286000003 cycles:  531936518 heartbeat IPC: 0.55003 cumulative IPC: 0.40247 (Simulation time: 0 hr 12 min 22 sec) 
Heartbeat CPU  0 instructions:  287000002 cycles:  537566079 heartbeat IPC: 0.17763 cumulative IPC: 0.39977 (Simulation time: 0 hr 12 min 25 sec) 
Heartbeat CPU  0 instructions:  288000000 cycles:  549751273 heartbeat IPC: 0.08207 cumulative IPC: 0.39170 (Simulation time: 0 hr 12 min 28 sec) 
Heartbeat CPU  0 instructions:  289000003 cycles:  551647904 heartbeat IPC: 0.52725 cumulative IPC: 0.39224 (Simulation time: 0 hr 12 min 31 sec) 
Heartbeat CPU  0 instructions:  290000003 cycles:  553458809 heartbeat IPC: 0.55221 cumulative IPC: 0.39283 (Simulation time: 0 hr 12 min 33 sec) 
Heartbeat CPU  0 instructions:  291000002 cycles:  555396730 heartbeat IPC: 0.51602 cumulative IPC: 0.39333 (Simulation time: 0 hr 12 min 36 sec) 
Heartbeat CPU  0 instructions:  292000000 cycles:  557320838 heartbeat IPC: 0.51972 cumulative IPC: 0.39382 (Simulation time: 0 hr 12 min 39 sec) 
Heartbeat CPU  0 instructions:  293000001 cycles:  559111893 heartbeat IPC: 0.55833 cumulative IPC: 0.39443 (Simulation time: 0 hr 12 min 42 sec) 
Heartbeat CPU  0 instructions:  294000000 cycles:  561021951 heartbeat IPC: 0.52354 cumulative IPC: 0.39493 (Simulation time: 0 hr 12 min 44 sec) 
Heartbeat CPU  0 instructions:  295000002 cycles:  562961318 heartbeat IPC: 0.51563 cumulative IPC: 0.39540 (Simulation time: 0 hr 12 min 47 sec) 
Heartbeat CPU  0 instructions:  296000000 cycles:  564781947 heartbeat IPC: 0.54926 cumulative IPC: 0.39597 (Simulation time: 0 hr 12 min 50 sec) 
Heartbeat CPU  0 instructions:  297000001 cycles:  566639496 heartbeat IPC: 0.53834 cumulative IPC: 0.39650 (Simulation time: 0 hr 12 min 52 sec) 
Heartbeat CPU  0 instructions:  298000003 cycles:  568574165 heartbeat IPC: 0.51689 cumulative IPC: 0.39697 (Simulation time: 0 hr 12 min 55 sec) 
Heartbeat CPU  0 instructions:  299000000 cycles:  570467858 heartbeat IPC: 0.52807 cumulative IPC: 0.39746 (Simulation time: 0 hr 12 min 58 sec) 
Heartbeat CPU  0 instructions:  300000000 cycles:  572256694 heartbeat IPC: 0.55902 cumulative IPC: 0.39804 (Simulation time: 0 hr 13 min 0 sec) 
Heartbeat CPU  0 instructions:  301000003 cycles:  574183382 heartbeat IPC: 0.51903 cumulative IPC: 0.39850 (Simulation time: 0 hr 13 min 3 sec) 
Heartbeat CPU  0 instructions:  302000000 cycles:  576108769 heartbeat IPC: 0.51937 cumulative IPC: 0.39896 (Simulation time: 0 hr 13 min 6 sec) 
Heartbeat CPU  0 instructions:  303000000 cycles:  577890353 heartbeat IPC: 0.56130 cumulative IPC: 0.39953 (Simulation time: 0 hr 13 min 8 sec) 
Heartbeat CPU  0 instructions:  304000000 cycles:  579792988 heartbeat IPC: 0.52559 cumulative IPC: 0.40000 (Simulation time: 0 hr 13 min 11 sec) 
Heartbeat CPU  0 instructions:  305000000 cycles:  581728881 heartbeat IPC: 0.51656 cumulative IPC: 0.40044 (Simulation time: 0 hr 13 min 14 sec) 
Heartbeat CPU  0 instructions:  306000002 cycles:  583561069 heartbeat IPC: 0.54580 cumulative IPC: 0.40096 (Simulation time: 0 hr 13 min 17 sec) 
Heartbeat CPU  0 instructions:  307000003 cycles:  585402621 heartbeat IPC: 0.54302 cumulative IPC: 0.40147 (Simulation time: 0 hr 13 min 19 sec) 
Heartbeat CPU  0 instructions:  308000000 cycles:  587333806 heartbeat IPC: 0.51782 cumulative IPC: 0.40190 (Simulation time: 0 hr 13 min 22 sec) 
Heartbeat CPU  0 instructions:  309000003 cycles:  589243535 heartbeat IPC: 0.52364 cumulative IPC: 0.40235 (Simulation time: 0 hr 13 min 25 sec) 
Heartbeat CPU  0 instructions:  310000002 cycles:  602018718 heartbeat IPC: 0.07828 cumulative IPC: 0.39457 (Simulation time: 0 hr 13 min 28 sec) 
Heartbeat CPU  0 instructions:  311000000 cycles:  606957103 heartbeat IPC: 0.20249 cumulative IPC: 0.39280 (Simulation time: 0 hr 13 min 31 sec) 
Heartbeat CPU  0 instructions:  312000000 cycles:  608897012 heartbeat IPC: 0.51549 cumulative IPC: 0.39325 (Simulation time: 0 hr 13 min 34 sec) 
Heartbeat CPU  0 instructions:  313000003 cycles:  610680411 heartbeat IPC: 0.56073 cumulative IPC: 0.39380 (Simulation time: 0 hr 13 min 37 sec) 
Heartbeat CPU  0 instructions:  314000003 cycles:  612591432 heartbeat IPC: 0.52328 cumulative IPC: 0.39425 (Simulation time: 0 hr 13 min 39 sec) 
Heartbeat CPU  0 instructions:  315000000 cycles:  614529907 heartbeat IPC: 0.51587 cumulative IPC: 0.39469 (Simulation time: 0 hr 13 min 42 sec) 
Heartbeat CPU  0 instructions:  316000000 cycles:  616366444 heartbeat IPC: 0.54450 cumulative IPC: 0.39519 (Simulation time: 0 hr 13 min 45 sec) 
Heartbeat CPU  0 instructions:  317000001 cycles:  618208193 heartbeat IPC: 0.54296 cumulative IPC: 0.39569 (Simulation time: 0 hr 13 min 48 sec) 
Heartbeat CPU  0 instructions:  318000002 cycles:  620143938 heartbeat IPC: 0.51660 cumulative IPC: 0.39611 (Simulation time: 0 hr 13 min 50 sec) 
Heartbeat CPU  0 instructions:  319000001 cycles:  622056421 heartbeat IPC: 0.52288 cumulative IPC: 0.39655 (Simulation time: 0 hr 13 min 53 sec) 
Heartbeat CPU  0 instructions:  320000000 cycles:  623836836 heartbeat IPC: 0.56167 cumulative IPC: 0.39708 (Simulation time: 0 hr 13 min 56 sec) 
Heartbeat CPU  0 instructions:  321000002 cycles:  625758028 heartbeat IPC: 0.52051 cumulative IPC: 0.39751 (Simulation time: 0 hr 13 min 58 sec) 
Heartbeat CPU  0 instructions:  322000001 cycles:  627691038 heartbeat IPC: 0.51733 cumulative IPC: 0.39792 (Simulation time: 0 hr 14 min 1 sec) 
Heartbeat CPU  0 instructions:  323000002 cycles:  629471598 heartbeat IPC: 0.56162 cumulative IPC: 0.39844 (Simulation time: 0 hr 14 min 4 sec) 
Heartbeat CPU  0 instructions:  324000000 cycles:  631364381 heartbeat IPC: 0.52832 cumulative IPC: 0.39888 (Simulation time: 0 hr 14 min 6 sec) 
Heartbeat CPU  0 instructions:  325000001 cycles:  633299906 heartbeat IPC: 0.51666 cumulative IPC: 0.39929 (Simulation time: 0 hr 14 min 9 sec) 
Heartbeat CPU  0 instructions:  326000002 cycles:  635152422 heartbeat IPC: 0.53981 cumulative IPC: 0.39975 (Simulation time: 0 hr 14 min 12 sec) 
Heartbeat CPU  0 instructions:  327000002 cycles:  636971704 heartbeat IPC: 0.54967 cumulative IPC: 0.40023 (Simulation time: 0 hr 14 min 14 sec) 
Heartbeat CPU  0 instructions:  328000000 cycles:  638905181 heartbeat IPC: 0.51720 cumulative IPC: 0.40063 (Simulation time: 0 hr 14 min 17 sec) 
Heartbeat CPU  0 instructions:  329000002 cycles:  640823409 heartbeat IPC: 0.52132 cumulative IPC: 0.40103 (Simulation time: 0 hr 14 min 20 sec) 
Heartbeat CPU  0 instructions:  330000001 cycles:  642606921 heartbeat IPC: 0.56069 cumulative IPC: 0.40153 (Simulation time: 0 hr 14 min 23 sec) 
Heartbeat CPU  0 instructions:  331000002 cycles:  644642802 heartbeat IPC: 0.49119 cumulative IPC: 0.40185 (Simulation time: 0 hr 14 min 25 sec) 
Heartbeat CPU  0 instructions:  332000000 cycles:  652108642 heartbeat IPC: 0.13394 cumulative IPC: 0.39841 (Simulation time: 0 hr 14 min 28 sec) 
Heartbeat CPU  0 instructions:  333000000 cycles:  662411008 heartbeat IPC: 0.09707 cumulative IPC: 0.39317 (Simulation time: 0 hr 14 min 32 sec) 
Heartbeat CPU  0 instructions:  334000001 cycles:  664331831 heartbeat IPC: 0.52061 cumulative IPC: 0.39358 (Simulation time: 0 hr 14 min 35 sec) 
Heartbeat CPU  0 instructions:  335000001 cycles:  666274786 heartbeat IPC: 0.51468 cumulative IPC: 0.39398 (Simulation time: 0 hr 14 min 37 sec) 
Heartbeat CPU  0 instructions:  336000000 cycles:  668135573 heartbeat IPC: 0.53741 cumulative IPC: 0.39442 (Simulation time: 0 hr 14 min 40 sec) 
Heartbeat CPU  0 instructions:  337000003 cycles:  669962424 heartbeat IPC: 0.54739 cumulative IPC: 0.39489 (Simulation time: 0 hr 14 min 43 sec) 
Heartbeat CPU  0 instructions:  338000002 cycles:  671900668 heartbeat IPC: 0.51593 cumulative IPC: 0.39528 (Simulation time: 0 hr 14 min 45 sec) 
Heartbeat CPU  0 instructions:  339000000 cycles:  673821986 heartbeat IPC: 0.52048 cumulative IPC: 0.39568 (Simulation time: 0 hr 14 min 48 sec) 
Heartbeat CPU  0 instructions:  340000000 cycles:  675596853 heartbeat IPC: 0.56342 cumulative IPC: 0.39617 (Simulation time: 0 hr 14 min 51 sec) 
Heartbeat CPU  0 instructions:  341000000 cycles:  677516968 heartbeat IPC: 0.52080 cumulative IPC: 0.39656 (Simulation time: 0 hr 14 min 53 sec) 
Heartbeat CPU  0 instructions:  342000001 cycles:  679446387 heartbeat IPC: 0.51829 cumulative IPC: 0.39695 (Simulation time: 0 hr 14 min 56 sec) 
Heartbeat CPU  0 instructions:  343000000 cycles:  681240169 heartbeat IPC: 0.55748 cumulative IPC: 0.39742 (Simulation time: 0 hr 14 min 59 sec) 
Heartbeat CPU  0 instructions:  344000000 cycles:  683124487 heartbeat IPC: 0.53070 cumulative IPC: 0.39783 (Simulation time: 0 hr 15 min 1 sec) 
Heartbeat CPU  0 instructions:  345000000 cycles:  685049710 heartbeat IPC: 0.51942 cumulative IPC: 0.39821 (Simulation time: 0 hr 15 min 4 sec) 
Heartbeat CPU  0 instructions:  346000001 cycles:  686923460 heartbeat IPC: 0.53369 cumulative IPC: 0.39862 (Simulation time: 0 hr 15 min 7 sec) 
Heartbeat CPU  0 instructions:  347000000 cycles:  688729254 heartbeat IPC: 0.55377 cumulative IPC: 0.39907 (Simulation time: 0 hr 15 min 10 sec) 
Heartbeat CPU  0 instructions:  348000000 cycles:  690654362 heartbeat IPC: 0.51945 cumulative IPC: 0.39945 (Simulation time: 0 hr 15 min 12 sec) 
Heartbeat CPU  0 instructions:  349000001 cycles:  692577564 heartbeat IPC: 0.51997 cumulative IPC: 0.39982 (Simulation time: 0 hr 15 min 15 sec) 
Heartbeat CPU  0 instructions:  350000003 cycles:  694352171 heartbeat IPC: 0.56351 cumulative IPC: 0.40028 (Simulation time: 0 hr 15 min 18 sec) 
Heartbeat CPU  0 instructions:  351000003 cycles:  696260298 heartbeat IPC: 0.52407 cumulative IPC: 0.40066 (Simulation time: 0 hr 15 min 20 sec) 
Heartbeat CPU  0 instructions:  352000000 cycles:  698196394 heartbeat IPC: 0.51650 cumulative IPC: 0.40102 (Simulation time: 0 hr 15 min 23 sec) 
Heartbeat CPU  0 instructions:  353000001 cycles:  700007260 heartbeat IPC: 0.55222 cumulative IPC: 0.40145 (Simulation time: 0 hr 15 min 26 sec) 
Heartbeat CPU  0 instructions:  354000003 cycles:  702083622 heartbeat IPC: 0.48161 cumulative IPC: 0.40172 (Simulation time: 0 hr 15 min 28 sec) 
Heartbeat CPU  0 instructions:  355000003 cycles:  716741831 heartbeat IPC: 0.06822 cumulative IPC: 0.39416 (Simulation time: 0 hr 15 min 32 sec) 
Heartbeat CPU  0 instructions:  356000000 cycles:  719869785 heartbeat IPC: 0.31970 cumulative IPC: 0.39380 (Simulation time: 0 hr 15 min 35 sec) 
Heartbeat CPU  0 instructions:  357000003 cycles:  721695218 heartbeat IPC: 0.54782 cumulative IPC: 0.39423 (Simulation time: 0 hr 15 min 38 sec) 
Heartbeat CPU  0 instructions:  358000002 cycles:  723629972 heartbeat IPC: 0.51686 cumulative IPC: 0.39459 (Simulation time: 0 hr 15 min 40 sec) 
Heartbeat CPU  0 instructions:  359000003 cycles:  725560827 heartbeat IPC: 0.51791 cumulative IPC: 0.39496 (Simulation time: 0 hr 15 min 43 sec) 
Heartbeat CPU  0 instructions:  360000000 cycles:  727344882 heartbeat IPC: 0.56052 cumulative IPC: 0.39541 (Simulation time: 0 hr 15 min 46 sec) 
Heartbeat CPU  0 instructions:  361000003 cycles:  729262811 heartbeat IPC: 0.52140 cumulative IPC: 0.39577 (Simulation time: 0 hr 15 min 48 sec) 
Heartbeat CPU  0 instructions:  362000000 cycles:  731203620 heartbeat IPC: 0.51525 cumulative IPC: 0.39612 (Simulation time: 0 hr 15 min 51 sec) 
Heartbeat CPU  0 instructions:  363000000 cycles:  733023116 heartbeat IPC: 0.54960 cumulative IPC: 0.39655 (Simulation time: 0 hr 15 min 54 sec) 
Heartbeat CPU  0 instructions:  364000000 cycles:  734887375 heartbeat IPC: 0.53641 cumulative IPC: 0.39694 (Simulation time: 0 hr 15 min 57 sec) 
Heartbeat CPU  0 instructions:  365000000 cycles:  736825613 heartbeat IPC: 0.51593 cumulative IPC: 0.39728 (Simulation time: 0 hr 15 min 59 sec) 
Heartbeat CPU  0 instructions:  366000001 cycles:  738713543 heartbeat IPC: 0.52968 cumulative IPC: 0.39766 (Simulation time: 0 hr 16 min 2 sec) 
Heartbeat CPU  0 instructions:  367000001 cycles:  740506509 heartbeat IPC: 0.55774 cumulative IPC: 0.39808 (Simulation time: 0 hr 16 min 5 sec) 
Heartbeat CPU  0 instructions:  368000000 cycles:  742434308 heartbeat IPC: 0.51873 cumulative IPC: 0.39843 (Simulation time: 0 hr 16 min 7 sec) 
Heartbeat CPU  0 instructions:  369000003 cycles:  744369320 heartbeat IPC: 0.51679 cumulative IPC: 0.39877 (Simulation time: 0 hr 16 min 10 sec) 
Heartbeat CPU  0 instructions:  370000000 cycles:  746140484 heartbeat IPC: 0.56460 cumulative IPC: 0.39920 (Simulation time: 0 hr 16 min 13 sec) 
Heartbeat CPU  0 instructions:  371000001 cycles:  748046872 heartbeat IPC: 0.52455 cumulative IPC: 0.39956 (Simulation time: 0 hr 16 min 15 sec) 
Heartbeat CPU  0 instructions:  372000000 cycles:  749977040 heartbeat IPC: 0.51809 cumulative IPC: 0.39989 (Simulation time: 0 hr 16 min 18 sec) 
Heartbeat CPU  0 instructions:  373000003 cycles:  751807791 heartbeat IPC: 0.54623 cumulative IPC: 0.40029 (Simulation time: 0 hr 16 min 21 sec) 
Heartbeat CPU  0 instructions:  374000001 cycles:  753652589 heartbeat IPC: 0.54206 cumulative IPC: 0.40067 (Simulation time: 0 hr 16 min 24 sec) 
Heartbeat CPU  0 instructions:  375000001 cycles:  755583794 heartbeat IPC: 0.51781 cumulative IPC: 0.40100 (Simulation time: 0 hr 16 min 26 sec) 
Heartbeat CPU  0 instructions:  376000000 cycles:  757493874 heartbeat IPC: 0.52354 cumulative IPC: 0.40134 (Simulation time: 0 hr 16 min 29 sec) 
Heartbeat CPU  0 instructions:  377000002 cycles:  766614951 heartbeat IPC: 0.10964 cumulative IPC: 0.39752 (Simulation time: 0 hr 16 min 32 sec) 
Heartbeat CPU  0 instructions:  378000003 cycles:  775259166 heartbeat IPC: 0.11568 cumulative IPC: 0.39407 (Simulation time: 0 hr 16 min 36 sec) 
Heartbeat CPU  0 instructions:  379000001 cycles:  777199461 heartbeat IPC: 0.51538 cumulative IPC: 0.39440 (Simulation time: 0 hr 16 min 38 sec) 
Heartbeat CPU  0 instructions:  380000000 cycles:  778981839 heartbeat IPC: 0.56105 cumulative IPC: 0.39482 (Simulation time: 0 hr 16 min 41 sec) 
Heartbeat CPU  0 instructions:  381000002 cycles:  780938358 heartbeat IPC: 0.51111 cumulative IPC: 0.39514 (Simulation time: 0 hr 16 min 44 sec) 
Heartbeat CPU  0 instructions:  382000002 cycles:  783029380 heartbeat IPC: 0.47824 cumulative IPC: 0.39538 (Simulation time: 0 hr 16 min 46 sec) 
Heartbeat CPU  0 instructions:  383000002 cycles:  785018367 heartbeat IPC: 0.50277 cumulative IPC: 0.39568 (Simulation time: 0 hr 16 min 49 sec) 
Heartbeat CPU  0 instructions:  384000000 cycles:  786865750 heartbeat IPC: 0.54131 cumulative IPC: 0.39606 (Simulation time: 0 hr 16 min 52 sec) 
Heartbeat CPU  0 instructions:  385000003 cycles:  788800797 heartbeat IPC: 0.51678 cumulative IPC: 0.39638 (Simulation time: 0 hr 16 min 54 sec) 
Heartbeat CPU  0 instructions:  386000002 cycles:  790712144 heartbeat IPC: 0.52319 cumulative IPC: 0.39672 (Simulation time: 0 hr 16 min 57 sec) 
Heartbeat CPU  0 instructions:  387000001 cycles:  792489335 heartbeat IPC: 0.56269 cumulative IPC: 0.39712 (Simulation time: 0 hr 17 min 0 sec) 
Heartbeat CPU  0 instructions:  388000000 cycles:  794412305 heartbeat IPC: 0.52003 cumulative IPC: 0.39745 (Simulation time: 0 hr 17 min 3 sec) 
Heartbeat CPU  0 instructions:  389000003 cycles:  796342881 heartbeat IPC: 0.51798 cumulative IPC: 0.39777 (Simulation time: 0 hr 17 min 5 sec) 
Heartbeat CPU  0 instructions:  390000003 cycles:  798124389 heartbeat IPC: 0.56132 cumulative IPC: 0.39817 (Simulation time: 0 hr 17 min 8 sec) 
Heartbeat CPU  0 instructions:  391000001 cycles:  800025722 heartbeat IPC: 0.52595 cumulative IPC: 0.39850 (Simulation time: 0 hr 17 min 11 sec) 
Heartbeat CPU  0 instructions:  392000000 cycles:  801958528 heartbeat IPC: 0.51738 cumulative IPC: 0.39882 (Simulation time: 0 hr 17 min 13 sec) 
Heartbeat CPU  0 instructions:  393000000 cycles:  803805346 heartbeat IPC: 0.54147 cumulative IPC: 0.39918 (Simulation time: 0 hr 17 min 16 sec) 
Heartbeat CPU  0 instructions:  394000000 cycles:  805626680 heartbeat IPC: 0.54905 cumulative IPC: 0.39955 (Simulation time: 0 hr 17 min 19 sec) 
Heartbeat CPU  0 instructions:  395000002 cycles:  807568796 heartbeat IPC: 0.51490 cumulative IPC: 0.39985 (Simulation time: 0 hr 17 min 21 sec) 
Heartbeat CPU  0 instructions:  396000000 cycles:  809481044 heartbeat IPC: 0.52294 cumulative IPC: 0.40017 (Simulation time: 0 hr 17 min 24 sec) 
Heartbeat CPU  0 instructions:  397000001 cycles:  811254084 heartbeat IPC: 0.56400 cumulative IPC: 0.40056 (Simulation time: 0 hr 17 min 27 sec) 
Heartbeat CPU  0 instructions:  398000003 cycles:  813172453 heartbeat IPC: 0.52128 cumulative IPC: 0.40087 (Simulation time: 0 hr 17 min 29 sec) 
Heartbeat CPU  0 instructions:  399000001 cycles:  817024244 heartbeat IPC: 0.25962 cumulative IPC: 0.40014 (Simulation time: 0 hr 17 min 32 sec) 
Heartbeat CPU  0 instructions:  400000000 cycles:  830951403 heartbeat IPC: 0.07180 cumulative IPC: 0.39414 (Simulation time: 0 hr 17 min 36 sec) 
Heartbeat CPU  0 instructions:  401000002 cycles:  832879957 heartbeat IPC: 0.51852 cumulative IPC: 0.39445 (Simulation time: 0 hr 17 min 39 sec) 
Heartbeat CPU  0 instructions:  402000001 cycles:  834822815 heartbeat IPC: 0.51471 cumulative IPC: 0.39476 (Simulation time: 0 hr 17 min 41 sec) 
Heartbeat CPU  0 instructions:  403000003 cycles:  836677531 heartbeat IPC: 0.53917 cumulative IPC: 0.39511 (Simulation time: 0 hr 17 min 44 sec) 
Heartbeat CPU  0 instructions:  404000000 cycles:  838512847 heartbeat IPC: 0.54486 cumulative IPC: 0.39546 (Simulation time: 0 hr 17 min 47 sec) 
Heartbeat CPU  0 instructions:  405000001 cycles:  840453383 heartbeat IPC: 0.51532 cumulative IPC: 0.39577 (Simulation time: 0 hr 17 min 50 sec) 
Heartbeat CPU  0 instructions:  406000002 cycles:  842374067 heartbeat IPC: 0.52065 cumulative IPC: 0.39608 (Simulation time: 0 hr 17 min 52 sec) 
Heartbeat CPU  0 instructions:  407000001 cycles:  844145269 heartbeat IPC: 0.56459 cumulative IPC: 0.39646 (Simulation time: 0 hr 17 min 55 sec) 
Heartbeat CPU  0 instructions:  408000000 cycles:  846073919 heartbeat IPC: 0.51850 cumulative IPC: 0.39676 (Simulation time: 0 hr 17 min 58 sec) 
Heartbeat CPU  0 instructions:  409000001 cycles:  848003340 heartbeat IPC: 0.51829 cumulative IPC: 0.39707 (Simulation time: 0 hr 18 min 1 sec) 
Heartbeat CPU  0 instructions:  410000003 cycles:  849797265 heartbeat IPC: 0.55744 cumulative IPC: 0.39743 (Simulation time: 0 hr 18 min 4 sec) 
Heartbeat CPU  0 instructions:  411000000 cycles:  851684950 heartbeat IPC: 0.52975 cumulative IPC: 0.39775 (Simulation time: 0 hr 18 min 7 sec) 
Heartbeat CPU  0 instructions:  412000000 cycles:  853617407 heartbeat IPC: 0.51748 cumulative IPC: 0.39805 (Simulation time: 0 hr 18 min 9 sec) 
Heartbeat CPU  0 instructions:  413000002 cycles:  855488259 heartbeat IPC: 0.53452 cumulative IPC: 0.39837 (Simulation time: 0 hr 18 min 12 sec) 
Heartbeat CPU  0 instructions:  414000003 cycles:  857298027 heartbeat IPC: 0.55256 cumulative IPC: 0.39873 (Simulation time: 0 hr 18 min 15 sec) 
Heartbeat CPU  0 instructions:  415000002 cycles:  859224079 heartbeat IPC: 0.51920 cumulative IPC: 0.39902 (Simulation time: 0 hr 18 min 17 sec) 
Heartbeat CPU  0 instructions:  416000000 cycles:  861144479 heartbeat IPC: 0.52072 cumulative IPC: 0.39932 (Simulation time: 0 hr 18 min 20 sec) 
Heartbeat CPU  0 instructions:  417000003 cycles:  862920827 heartbeat IPC: 0.56295 cumulative IPC: 0.39968 (Simulation time: 0 hr 18 min 23 sec) 
Heartbeat CPU  0 instructions:  418000003 cycles:  864835610 heartbeat IPC: 0.52225 cumulative IPC: 0.39998 (Simulation time: 0 hr 18 min 26 sec) 
Heartbeat CPU  0 instructions:  419000003 cycles:  866766756 heartbeat IPC: 0.51783 cumulative IPC: 0.40026 (Simulation time: 0 hr 18 min 28 sec) 
Heartbeat CPU  0 instructions:  420000000 cycles:  868581395 heartbeat IPC: 0.55107 cumulative IPC: 0.40061 (Simulation time: 0 hr 18 min 31 sec) 
Heartbeat CPU  0 instructions:  421000001 cycles:  870443635 heartbeat IPC: 0.53699 cumulative IPC: 0.40092 (Simulation time: 0 hr 18 min 34 sec) 
Heartbeat CPU  0 instructions:  422000002 cycles:  881392010 heartbeat IPC: 0.09134 cumulative IPC: 0.39675 (Simulation time: 0 hr 18 min 37 sec) 
Heartbeat CPU  0 instructions:  423000003 cycles:  888318598 heartbeat IPC: 0.14437 cumulative IPC: 0.39461 (Simulation time: 0 hr 18 min 40 sec) 
Heartbeat CPU  0 instructions:  424000000 cycles:  890135023 heartbeat IPC: 0.55053 cumulative IPC: 0.39496 (Simulation time: 0 hr 18 min 43 sec) 
Heartbeat CPU  0 instructions:  425000003 cycles:  892069310 heartbeat IPC: 0.51699 cumulative IPC: 0.39525 (Simulation time: 0 hr 18 min 46 sec) 
Heartbeat CPU  0 instructions:  426000001 cycles:  893994007 heartbeat IPC: 0.51956 cumulative IPC: 0.39554 (Simulation time: 0 hr 18 min 48 sec) 
Heartbeat CPU  0 instructions:  427000000 cycles:  895771899 heartbeat IPC: 0.56246 cumulative IPC: 0.39589 (Simulation time: 0 hr 18 min 51 sec) 
Heartbeat CPU  0 instructions:  428000000 cycles:  897681087 heartbeat IPC: 0.52378 cumulative IPC: 0.39619 (Simulation time: 0 hr 18 min 54 sec) 
Heartbeat CPU  0 instructions:  429000002 cycles:  899611252 heartbeat IPC: 0.51809 cumulative IPC: 0.39647 (Simulation time: 0 hr 18 min 56 sec) 
Heartbeat CPU  0 instructions:  430000000 cycles:  901419223 heartbeat IPC: 0.55311 cumulative IPC: 0.39681 (Simulation time: 0 hr 18 min 59 sec) 
Heartbeat CPU  0 instructions:  431000000 cycles:  903286512 heartbeat IPC: 0.53554 cumulative IPC: 0.39712 (Simulation time: 0 hr 19 min 2 sec) 
Heartbeat CPU  0 instructions:  432000000 cycles:  905208384 heartbeat IPC: 0.52033 cumulative IPC: 0.39741 (Simulation time: 0 hr 19 min 5 sec) 
Heartbeat CPU  0 instructions:  433000003 cycles:  907228817 heartbeat IPC: 0.49494 cumulative IPC: 0.39764 (Simulation time: 0 hr 19 min 7 sec) 
Heartbeat CPU  0 instructions:  434000002 cycles:  909014012 heartbeat IPC: 0.56016 cumulative IPC: 0.39799 (Simulation time: 0 hr 19 min 10 sec) 
Heartbeat CPU  0 instructions:  435000001 cycles:  910941066 heartbeat IPC: 0.51893 cumulative IPC: 0.39827 (Simulation time: 0 hr 19 min 13 sec) 
Heartbeat CPU  0 instructions:  436000000 cycles:  912857197 heartbeat IPC: 0.52188 cumulative IPC: 0.39855 (Simulation time: 0 hr 19 min 15 sec) 
Heartbeat CPU  0 instructions:  437000000 cycles:  914628663 heartbeat IPC: 0.56450 cumulative IPC: 0.39889 (Simulation time: 0 hr 19 min 18 sec) 
Heartbeat CPU  0 instructions:  438000000 cycles:  916533163 heartbeat IPC: 0.52507 cumulative IPC: 0.39918 (Simulation time: 0 hr 19 min 21 sec) 
Heartbeat CPU  0 instructions:  439000001 cycles:  918461589 heartbeat IPC: 0.51856 cumulative IPC: 0.39945 (Simulation time: 0 hr 19 min 24 sec) 
Heartbeat CPU  0 instructions:  440000000 cycles:  920282883 heartbeat IPC: 0.54906 cumulative IPC: 0.39977 (Simulation time: 0 hr 19 min 26 sec) 
Heartbeat CPU  0 instructions:  441000001 cycles:  922126769 heartbeat IPC: 0.54233 cumulative IPC: 0.40008 (Simulation time: 0 hr 19 min 29 sec) 
Heartbeat CPU  0 instructions:  442000001 cycles:  924054537 heartbeat IPC: 0.51873 cumulative IPC: 0.40035 (Simulation time: 0 hr 19 min 32 sec) 
Heartbeat CPU  0 instructions:  443000002 cycles:  925955014 heartbeat IPC: 0.52618 cumulative IPC: 0.40063 (Simulation time: 0 hr 19 min 34 sec) 
Heartbeat CPU  0 instructions:  444000000 cycles:  931559339 heartbeat IPC: 0.17843 cumulative IPC: 0.39918 (Simulation time: 0 hr 19 min 37 sec) 
Heartbeat CPU  0 instructions:  445000003 cycles:  943948542 heartbeat IPC: 0.08072 cumulative IPC: 0.39467 (Simulation time: 0 hr 19 min 41 sec) 
Heartbeat CPU  0 instructions:  446000000 cycles:  945881999 heartbeat IPC: 0.51721 cumulative IPC: 0.39494 (Simulation time: 0 hr 19 min 44 sec) 
Heartbeat CPU  0 instructions:  447000003 cycles:  947631617 heartbeat IPC: 0.57156 cumulative IPC: 0.39529 (Simulation time: 0 hr 19 min 46 sec) 
Heartbeat CPU  0 instructions:  448000000 cycles:  949539961 heartbeat IPC: 0.52401 cumulative IPC: 0.39557 (Simulation time: 0 hr 19 min 49 sec) 
Heartbeat CPU  0 instructions:  449000000 cycles:  951464034 heartbeat IPC: 0.51973 cumulative IPC: 0.39584 (Simulation time: 0 hr 19 min 52 sec) 
Heartbeat CPU  0 instructions:  450000000 cycles:  953278583 heartbeat IPC: 0.55110 cumulative IPC: 0.39616 (Simulation time: 0 hr 19 min 54 sec) 
Heartbeat CPU  0 instructions:  451000000 cycles:  955097781 heartbeat IPC: 0.54969 cumulative IPC: 0.39647 (Simulation time: 0 hr 19 min 57 sec) 
Heartbeat CPU  0 instructions:  452000000 cycles:  957012760 heartbeat IPC: 0.52220 cumulative IPC: 0.39675 (Simulation time: 0 hr 20 min 0 sec) 
Heartbeat CPU  0 instructions:  453000001 cycles:  958893977 heartbeat IPC: 0.53157 cumulative IPC: 0.39703 (Simulation time: 0 hr 20 min 3 sec) 
Heartbeat CPU  0 instructions:  454000001 cycles:  960635737 heartbeat IPC: 0.57413 cumulative IPC: 0.39738 (Simulation time: 0 hr 20 min 5 sec) 
Heartbeat CPU  0 instructions:  455000000 cycles:  962540368 heartbeat IPC: 0.52504 cumulative IPC: 0.39765 (Simulation time: 0 hr 20 min 8 sec) 
Heartbeat CPU  0 instructions:  456000000 cycles:  964445644 heartbeat IPC: 0.52486 cumulative IPC: 0.39792 (Simulation time: 0 hr 20 min 11 sec) 
Heartbeat CPU  0 instructions:  457000000 cycles:  966195914 heartbeat IPC: 0.57134 cumulative IPC: 0.39826 (Simulation time: 0 hr 20 min 13 sec) 
Heartbeat CPU  0 instructions:  458000003 cycles:  968065022 heartbeat IPC: 0.53502 cumulative IPC: 0.39854 (Simulation time: 0 hr 20 min 16 sec) 
Heartbeat CPU  0 instructions:  459000000 cycles:  969983669 heartbeat IPC: 0.52120 cumulative IPC: 0.39881 (Simulation time: 0 hr 20 min 19 sec) 
Heartbeat CPU  0 instructions:  460000000 cycles:  971807024 heartbeat IPC: 0.54844 cumulative IPC: 0.39911 (Simulation time: 0 hr 20 min 21 sec) 
Heartbeat CPU  0 instructions:  461000000 cycles:  973606010 heartbeat IPC: 0.55587 cumulative IPC: 0.39942 (Simulation time: 0 hr 20 min 24 sec) 
Heartbeat CPU  0 instructions:  462000003 cycles:  975516613 heartbeat IPC: 0.52340 cumulative IPC: 0.39968 (Simulation time: 0 hr 20 min 27 sec) 
Heartbeat CPU  0 instructions:  463000003 cycles:  977405592 heartbeat IPC: 0.52939 cumulative IPC: 0.39995 (Simulation time: 0 hr 20 min 30 sec) 
Heartbeat CPU  0 instructions:  464000000 cycles:  979139656 heartbeat IPC: 0.57668 cumulative IPC: 0.40029 (Simulation time: 0 hr 20 min 32 sec) 
Heartbeat CPU  0 instructions:  465000000 cycles:  981038779 heartbeat IPC: 0.52656 cumulative IPC: 0.40055 (Simulation time: 0 hr 20 min 35 sec) 
Heartbeat CPU  0 instructions:  466000000 cycles:  982943842 heartbeat IPC: 0.52492 cumulative IPC: 0.40081 (Simulation time: 0 hr 20 min 38 sec) 
Heartbeat CPU  0 instructions:  467000000 cycles:  995753235 heartbeat IPC: 0.07807 cumulative IPC: 0.39635 (Simulation time: 0 hr 20 min 41 sec) 
Heartbeat CPU  0 instructions:  468000000 cycles: 1000607368 heartbeat IPC: 0.20601 cumulative IPC: 0.39535 (Simulation time: 0 hr 20 min 44 sec) 
Heartbeat CPU  0 instructions:  469000002 cycles: 1002529465 heartbeat IPC: 0.52027 cumulative IPC: 0.39561 (Simulation time: 0 hr 20 min 47 sec) 
Heartbeat CPU  0 instructions:  470000000 cycles: 1004368222 heartbeat IPC: 0.54384 cumulative IPC: 0.39590 (Simulation time: 0 hr 20 min 50 sec) 
Heartbeat CPU  0 instructions:  471000002 cycles: 1006169817 heartbeat IPC: 0.55506 cumulative IPC: 0.39621 (Simulation time: 0 hr 20 min 52 sec) 
Heartbeat CPU  0 instructions:  472000000 cycles: 1008095023 heartbeat IPC: 0.51942 cumulative IPC: 0.39646 (Simulation time: 0 hr 20 min 55 sec) 
Heartbeat CPU  0 instructions:  473000003 cycles: 1009995874 heartbeat IPC: 0.52608 cumulative IPC: 0.39672 (Simulation time: 0 hr 20 min 58 sec) 
Heartbeat CPU  0 instructions:  474000002 cycles: 1011745341 heartbeat IPC: 0.57160 cumulative IPC: 0.39705 (Simulation time: 0 hr 21 min 0 sec) 
Heartbeat CPU  0 instructions:  475000003 cycles: 1013648754 heartbeat IPC: 0.52537 cumulative IPC: 0.39731 (Simulation time: 0 hr 21 min 3 sec) 
Heartbeat CPU  0 instructions:  476000000 cycles: 1015558390 heartbeat IPC: 0.52366 cumulative IPC: 0.39756 (Simulation time: 0 hr 21 min 6 sec) 
Heartbeat CPU  0 instructions:  477000003 cycles: 1017320061 heartbeat IPC: 0.56764 cumulative IPC: 0.39788 (Simulation time: 0 hr 21 min 8 sec) 
Heartbeat CPU  0 instructions:  478000003 cycles: 1019172967 heartbeat IPC: 0.53969 cumulative IPC: 0.39816 (Simulation time: 0 hr 21 min 11 sec) 
Heartbeat CPU  0 instructions:  479000000 cycles: 1021087138 heartbeat IPC: 0.52242 cumulative IPC: 0.39841 (Simulation time: 0 hr 21 min 14 sec) 
Heartbeat CPU  0 instructions:  480000000 cycles: 1022926622 heartbeat IPC: 0.54363 cumulative IPC: 0.39869 (Simulation time: 0 hr 21 min 17 sec) 
Heartbeat CPU  0 instructions:  481000000 cycles: 1024698559 heartbeat IPC: 0.56435 cumulative IPC: 0.39899 (Simulation time: 0 hr 21 min 19 sec) 
Heartbeat CPU  0 instructions:  482000000 cycles: 1026609212 heartbeat IPC: 0.52338 cumulative IPC: 0.39924 (Simulation time: 0 hr 21 min 22 sec) 
Heartbeat CPU  0 instructions:  483000001 cycles: 1028607191 heartbeat IPC: 0.50051 cumulative IPC: 0.39945 (Simulation time: 0 hr 21 min 25 sec) 
Heartbeat CPU  0 instructions:  484000000 cycles: 1030472211 heartbeat IPC: 0.53619 cumulative IPC: 0.39972 (Simulation time: 0 hr 21 min 27 sec) 
Heartbeat CPU  0 instructions:  485000001 cycles: 1032481897 heartbeat IPC: 0.49759 cumulative IPC: 0.39992 (Simulation time: 0 hr 21 min 30 sec) 
Heartbeat CPU  0 instructions:  486000001 cycles: 1034397582 heartbeat IPC: 0.52201 cumulative IPC: 0.40016 (Simulation time: 0 hr 21 min 33 sec) 
Heartbeat CPU  0 instructions:  487000000 cycles: 1036181548 heartbeat IPC: 0.56055 cumulative IPC: 0.40046 (Simulation time: 0 hr 21 min 36 sec) 
Heartbeat CPU  0 instructions:  488000000 cycles: 1038013620 heartbeat IPC: 0.54583 cumulative IPC: 0.40074 (Simulation time: 0 hr 21 min 38 sec) 
Heartbeat CPU  0 instructions:  489000001 cycles: 1045522885 heartbeat IPC: 0.13317 cumulative IPC: 0.39868 (Simulation time: 0 hr 21 min 41 sec) 
Heartbeat CPU  0 instructions:  490000003 cycles: 1055774144 heartbeat IPC: 0.09755 cumulative IPC: 0.39555 (Simulation time: 0 hr 21 min 45 sec) 
Heartbeat CPU  0 instructions:  491000001 cycles: 1057568110 heartbeat IPC: 0.55742 cumulative IPC: 0.39584 (Simulation time: 0 hr 21 min 47 sec) 
Heartbeat CPU  0 instructions:  492000000 cycles: 1059497730 heartbeat IPC: 0.51824 cumulative IPC: 0.39608 (Simulation time: 0 hr 21 min 50 sec) 
Heartbeat CPU  0 instructions:  493000000 cycles: 1061410433 heartbeat IPC: 0.52282 cumulative IPC: 0.39632 (Simulation time: 0 hr 21 min 53 sec) 
Heartbeat CPU  0 instructions:  494000002 cycles: 1063159747 heartbeat IPC: 0.57165 cumulative IPC: 0.39663 (Simulation time: 0 hr 21 min 56 sec) 
Heartbeat CPU  0 instructions:  495000000 cycles: 1065067409 heartbeat IPC: 0.52420 cumulative IPC: 0.39688 (Simulation time: 0 hr 21 min 58 sec) 
Heartbeat CPU  0 instructions:  496000000 cycles: 1066987880 heartbeat IPC: 0.52071 cumulative IPC: 0.39711 (Simulation time: 0 hr 22 min 1 sec) 
Heartbeat CPU  0 instructions:  497000001 cycles: 1068796536 heartbeat IPC: 0.55290 cumulative IPC: 0.39740 (Simulation time: 0 hr 22 min 4 sec) 
Heartbeat CPU  0 instructions:  498000001 cycles: 1070632952 heartbeat IPC: 0.54454 cumulative IPC: 0.39767 (Simulation time: 0 hr 22 min 6 sec) 
Heartbeat CPU  0 instructions:  499000001 cycles: 1072552603 heartbeat IPC: 0.52093 cumulative IPC: 0.39790 (Simulation time: 0 hr 22 min 9 sec) 
Heartbeat CPU  0 instructions:  500000000 cycles: 1074420534 heartbeat IPC: 0.53535 cumulative IPC: 0.39816 (Simulation time: 0 hr 22 min 12 sec) 
Heartbeat CPU  0 instructions:  501000002 cycles: 1076185018 heartbeat IPC: 0.56674 cumulative IPC: 0.39845 (Simulation time: 0 hr 22 min 14 sec) 
Heartbeat CPU  0 instructions:  502000002 cycles: 1078098128 heartbeat IPC: 0.52271 cumulative IPC: 0.39869 (Simulation time: 0 hr 22 min 17 sec) 
Heartbeat CPU  0 instructions:  503000002 cycles: 1080008656 heartbeat IPC: 0.52342 cumulative IPC: 0.39893 (Simulation time: 0 hr 22 min 20 sec) 
Heartbeat CPU  0 instructions:  504000000 cycles: 1081753591 heartbeat IPC: 0.57309 cumulative IPC: 0.39923 (Simulation time: 0 hr 22 min 23 sec) 
Heartbeat CPU  0 instructions:  505000002 cycles: 1083647491 heartbeat IPC: 0.52801 cumulative IPC: 0.39947 (Simulation time: 0 hr 22 min 25 sec) 
Heartbeat CPU  0 instructions:  506000002 cycles: 1085561736 heartbeat IPC: 0.52240 cumulative IPC: 0.39970 (Simulation time: 0 hr 22 min 28 sec) 
Heartbeat CPU  0 instructions:  507000001 cycles: 1087363445 heartbeat IPC: 0.55503 cumulative IPC: 0.39997 (Simulation time: 0 hr 22 min 31 sec) 
Heartbeat CPU  0 instructions:  508000000 cycles: 1089184759 heartbeat IPC: 0.54905 cumulative IPC: 0.40024 (Simulation time: 0 hr 22 min 33 sec) 
Heartbeat CPU  0 instructions:  509000000 cycles: 1091108865 heartbeat IPC: 0.51972 cumulative IPC: 0.40046 (Simulation time: 0 hr 22 min 36 sec) 
Heartbeat CPU  0 instructions:  510000003 cycles: 1092992770 heartbeat IPC: 0.53081 cumulative IPC: 0.40070 (Simulation time: 0 hr 22 min 39 sec) 
Heartbeat CPU  0 instructions:  511000001 cycles: 1095057420 heartbeat IPC: 0.48434 cumulative IPC: 0.40087 (Simulation time: 0 hr 22 min 41 sec) 
Heartbeat CPU  0 instructions:  512000000 cycles: 1109490371 heartbeat IPC: 0.06929 cumulative IPC: 0.39627 (Simulation time: 0 hr 22 min 45 sec) 
Heartbeat CPU  0 instructions:  513000000 cycles: 1112568271 heartbeat IPC: 0.32490 cumulative IPC: 0.39606 (Simulation time: 0 hr 22 min 48 sec) 
Heartbeat CPU  0 instructions:  514000001 cycles: 1114358584 heartbeat IPC: 0.55856 cumulative IPC: 0.39634 (Simulation time: 0 hr 22 min 51 sec) 
Heartbeat CPU  0 instructions:  515000002 cycles: 1116270621 heartbeat IPC: 0.52300 cumulative IPC: 0.39657 (Simulation time: 0 hr 22 min 53 sec) 
Heartbeat CPU  0 instructions:  516000000 cycles: 1118211119 heartbeat IPC: 0.51533 cumulative IPC: 0.39679 (Simulation time: 0 hr 22 min 56 sec) 
Heartbeat CPU  0 instructions:  517000002 cycles: 1120039042 heartbeat IPC: 0.54707 cumulative IPC: 0.39705 (Simulation time: 0 hr 22 min 59 sec) 
Heartbeat CPU  0 instructions:  518000000 cycles: 1121900391 heartbeat IPC: 0.53724 cumulative IPC: 0.39730 (Simulation time: 0 hr 23 min 2 sec) 
Heartbeat CPU  0 instructions:  519000000 cycles: 1123835244 heartbeat IPC: 0.51684 cumulative IPC: 0.39752 (Simulation time: 0 hr 23 min 4 sec) 
Heartbeat CPU  0 instructions:  520000000 cycles: 1125732994 heartbeat IPC: 0.52694 cumulative IPC: 0.39775 (Simulation time: 0 hr 23 min 7 sec) 
Heartbeat CPU  0 instructions:  521000003 cycles: 1127518682 heartbeat IPC: 0.56001 cumulative IPC: 0.39802 (Simulation time: 0 hr 23 min 10 sec) 
Heartbeat CPU  0 instructions:  522000001 cycles: 1129451861 heartbeat IPC: 0.51728 cumulative IPC: 0.39824 (Simulation time: 0 hr 23 min 12 sec) 
Heartbeat CPU  0 instructions:  523000001 cycles: 1131384283 heartbeat IPC: 0.51749 cumulative IPC: 0.39846 (Simulation time: 0 hr 23 min 15 sec) 
Heartbeat CPU  0 instructions:  524000000 cycles: 1133161847 heartbeat IPC: 0.56257 cumulative IPC: 0.39873 (Simulation time: 0 hr 23 min 18 sec) 
Heartbeat CPU  0 instructions:  525000000 cycles: 1135063671 heartbeat IPC: 0.52581 cumulative IPC: 0.39896 (Simulation time: 0 hr 23 min 21 sec) 
Heartbeat CPU  0 instructions:  526000002 cycles: 1137001736 heartbeat IPC: 0.51598 cumulative IPC: 0.39917 (Simulation time: 0 hr 23 min 23 sec) 
Heartbeat CPU  0 instructions:  527000002 cycles: 1138842544 heartbeat IPC: 0.54324 cumulative IPC: 0.39942 (Simulation time: 0 hr 23 min 26 sec) 
Heartbeat CPU  0 instructions:  528000000 cycles: 1140678186 heartbeat IPC: 0.54477 cumulative IPC: 0.39967 (Simulation time: 0 hr 23 min 29 sec) 
Heartbeat CPU  0 instructions:  529000001 cycles: 1142610073 heartbeat IPC: 0.51763 cumulative IPC: 0.39988 (Simulation time: 0 hr 23 min 31 sec) 
Heartbeat CPU  0 instructions:  530000002 cycles: 1144526505 heartbeat IPC: 0.52180 cumulative IPC: 0.40010 (Simulation time: 0 hr 23 min 34 sec) 
Heartbeat CPU  0 instructions:  531000001 cycles: 1146301058 heartbeat IPC: 0.56352 cumulative IPC: 0.40037 (Simulation time: 0 hr 23 min 37 sec) 
Heartbeat CPU  0 instructions:  532000000 cycles: 1148222723 heartbeat IPC: 0.52038 cumulative IPC: 0.40058 (Simulation time: 0 hr 23 min 39 sec) 
Heartbeat CPU  0 instructions:  533000002 cycles: 1150151105 heartbeat IPC: 0.51857 cumulative IPC: 0.40079 (Simulation time: 0 hr 23 min 42 sec) 
Heartbeat CPU  0 instructions:  534000003 cycles: 1159310080 heartbeat IPC: 0.10918 cumulative IPC: 0.39834 (Simulation time: 0 hr 23 min 46 sec) 
Heartbeat CPU  0 instructions:  535000000 cycles: 1167839038 heartbeat IPC: 0.11725 cumulative IPC: 0.39616 (Simulation time: 0 hr 23 min 49 sec) 
Heartbeat CPU  0 instructions:  536000000 cycles: 1169872447 heartbeat IPC: 0.49178 cumulative IPC: 0.39634 (Simulation time: 0 hr 23 min 51 sec) 
Heartbeat CPU  0 instructions:  537000000 cycles: 1171722234 heartbeat IPC: 0.54060 cumulative IPC: 0.39658 (Simulation time: 0 hr 23 min 54 sec) 
Heartbeat CPU  0 instructions:  538000003 cycles: 1173570871 heartbeat IPC: 0.54094 cumulative IPC: 0.39682 (Simulation time: 0 hr 23 min 57 sec) 
Heartbeat CPU  0 instructions:  539000000 cycles: 1175512190 heartbeat IPC: 0.51511 cumulative IPC: 0.39703 (Simulation time: 0 hr 24 min 0 sec) 
Heartbeat CPU  0 instructions:  540000000 cycles: 1177433695 heartbeat IPC: 0.52043 cumulative IPC: 0.39724 (Simulation time: 0 hr 24 min 2 sec) 
Heartbeat CPU  0 instructions:  541000000 cycles: 1179209383 heartbeat IPC: 0.56316 cumulative IPC: 0.39751 (Simulation time: 0 hr 24 min 5 sec) 
Heartbeat CPU  0 instructions:  542000000 cycles: 1181128358 heartbeat IPC: 0.52111 cumulative IPC: 0.39772 (Simulation time: 0 hr 24 min 8 sec) 
Heartbeat CPU  0 instructions:  543000002 cycles: 1183061125 heartbeat IPC: 0.51739 cumulative IPC: 0.39793 (Simulation time: 0 hr 24 min 10 sec) 
Heartbeat CPU  0 instructions:  544000000 cycles: 1184844157 heartbeat IPC: 0.56084 cumulative IPC: 0.39819 (Simulation time: 0 hr 24 min 13 sec) 
Heartbeat CPU  0 instructions:  545000001 cycles: 1186738383 heartbeat IPC: 0.52792 cumulative IPC: 0.39841 (Simulation time: 0 hr 24 min 16 sec) 
Heartbeat CPU  0 instructions:  546000001 cycles: 1188670657 heartbeat IPC: 0.51752 cumulative IPC: 0.39861 (Simulation time: 0 hr 24 min 19 sec) 
Heartbeat CPU  0 instructions:  547000000 cycles: 1190525686 heartbeat IPC: 0.53907 cumulative IPC: 0.39885 (Simulation time: 0 hr 24 min 21 sec) 
Heartbeat CPU  0 instructions:  548000000 cycles: 1192354900 heartbeat IPC: 0.54668 cumulative IPC: 0.39909 (Simulation time: 0 hr 24 min 24 sec) 
Heartbeat CPU  0 instructions:  549000001 cycles: 1194284632 heartbeat IPC: 0.51821 cumulative IPC: 0.39929 (Simulation time: 0 hr 24 min 27 sec) 
Heartbeat CPU  0 instructions:  550000000 cycles: 1196200213 heartbeat IPC: 0.52203 cumulative IPC: 0.39950 (Simulation time: 0 hr 24 min 29 sec) 
Heartbeat CPU  0 instructions:  551000001 cycles: 1197973239 heartbeat IPC: 0.56401 cumulative IPC: 0.39976 (Simulation time: 0 hr 24 min 32 sec) 
Heartbeat CPU  0 instructions:  552000000 cycles: 1199890183 heartbeat IPC: 0.52166 cumulative IPC: 0.39997 (Simulation time: 0 hr 24 min 35 sec) 
Heartbeat CPU  0 instructions:  553000002 cycles: 1201823727 heartbeat IPC: 0.51719 cumulative IPC: 0.40017 (Simulation time: 0 hr 24 min 37 sec) 
Heartbeat CPU  0 instructions:  554000002 cycles: 1203625926 heartbeat IPC: 0.55488 cumulative IPC: 0.40041 (Simulation time: 0 hr 24 min 40 sec) 
Heartbeat CPU  0 instructions:  555000003 cycles: 1205496624 heartbeat IPC: 0.53456 cumulative IPC: 0.40063 (Simulation time: 0 hr 24 min 43 sec) 
Heartbeat CPU  0 instructions:  556000000 cycles: 1209429789 heartbeat IPC: 0.25425 cumulative IPC: 0.40013 (Simulation time: 0 hr 24 min 46 sec) 
Heartbeat CPU  0 instructions:  557000002 cycles: 1223439214 heartbeat IPC: 0.07138 cumulative IPC: 0.39614 (Simulation time: 0 hr 24 min 49 sec) 
Heartbeat CPU  0 instructions:  558000003 cycles: 1225287929 heartbeat IPC: 0.54092 cumulative IPC: 0.39637 (Simulation time: 0 hr 24 min 52 sec) 
Heartbeat CPU  0 instructions:  559000000 cycles: 1227229573 heartbeat IPC: 0.51503 cumulative IPC: 0.39657 (Simulation time: 0 hr 24 min 55 sec) 
Heartbeat CPU  0 instructions:  560000000 cycles: 1229150887 heartbeat IPC: 0.52048 cumulative IPC: 0.39677 (Simulation time: 0 hr 24 min 57 sec) 
Heartbeat CPU  0 instructions:  561000002 cycles: 1230939239 heartbeat IPC: 0.55918 cumulative IPC: 0.39702 (Simulation time: 0 hr 25 min 0 sec) 
Heartbeat CPU  0 instructions:  562000002 cycles: 1232862535 heartbeat IPC: 0.51994 cumulative IPC: 0.39723 (Simulation time: 0 hr 25 min 3 sec) 
Heartbeat CPU  0 instructions:  563000001 cycles: 1234796220 heartbeat IPC: 0.51715 cumulative IPC: 0.39742 (Simulation time: 0 hr 25 min 5 sec) 
Heartbeat CPU  0 instructions:  564000000 cycles: 1236596720 heartbeat IPC: 0.55540 cumulative IPC: 0.39767 (Simulation time: 0 hr 25 min 8 sec) 
Heartbeat CPU  0 instructions:  565000003 cycles: 1238475508 heartbeat IPC: 0.53226 cumulative IPC: 0.39788 (Simulation time: 0 hr 25 min 11 sec) 
Heartbeat CPU  0 instructions:  566000000 cycles: 1240408326 heartbeat IPC: 0.51738 cumulative IPC: 0.39808 (Simulation time: 0 hr 25 min 14 sec) 
Heartbeat CPU  0 instructions:  567000003 cycles: 1242281662 heartbeat IPC: 0.53381 cumulative IPC: 0.39830 (Simulation time: 0 hr 25 min 16 sec) 
Heartbeat CPU  0 instructions:  568000000 cycles: 1244085407 heartbeat IPC: 0.55440 cumulative IPC: 0.39854 (Simulation time: 0 hr 25 min 19 sec) 
Heartbeat CPU  0 instructions:  569000000 cycles: 1246016253 heartbeat IPC: 0.51791 cumulative IPC: 0.39873 (Simulation time: 0 hr 25 min 22 sec) 
Heartbeat CPU  0 instructions:  570000002 cycles: 1247940164 heartbeat IPC: 0.51978 cumulative IPC: 0.39893 (Simulation time: 0 hr 25 min 24 sec) 
Heartbeat CPU  0 instructions:  571000000 cycles: 1249717622 heartbeat IPC: 0.56260 cumulative IPC: 0.39918 (Simulation time: 0 hr 25 min 27 sec) 
Heartbeat CPU  0 instructions:  572000000 cycles: 1251622035 heartbeat IPC: 0.52510 cumulative IPC: 0.39938 (Simulation time: 0 hr 25 min 30 sec) 
Heartbeat CPU  0 instructions:  573000002 cycles: 1253559026 heartbeat IPC: 0.51627 cumulative IPC: 0.39957 (Simulation time: 0 hr 25 min 32 sec) 
Heartbeat CPU  0 instructions:  574000001 cycles: 1255370831 heartbeat IPC: 0.55194 cumulative IPC: 0.39981 (Simulation time: 0 hr 25 min 35 sec) 
Heartbeat CPU  0 instructions:  575000003 cycles: 1257230156 heartbeat IPC: 0.53783 cumulative IPC: 0.40002 (Simulation time: 0 hr 25 min 38 sec) 
Heartbeat CPU  0 instructions:  576000000 cycles: 1259160224 heartbeat IPC: 0.51811 cumulative IPC: 0.40021 (Simulation time: 0 hr 25 min 41 sec) 
Heartbeat CPU  0 instructions:  577000002 cycles: 1261052748 heartbeat IPC: 0.52840 cumulative IPC: 0.40042 (Simulation time: 0 hr 25 min 43 sec) 
Heartbeat CPU  0 instructions:  578000002 cycles: 1262839628 heartbeat IPC: 0.55963 cumulative IPC: 0.40066 (Simulation time: 0 hr 25 min 46 sec) 
Heartbeat CPU  0 instructions:  579000003 cycles: 1273900088 heartbeat IPC: 0.09041 cumulative IPC: 0.39781 (Simulation time: 0 hr 25 min 49 sec) 
Heartbeat CPU  0 instructions:  580000000 cycles: 1280736859 heartbeat IPC: 0.14627 cumulative IPC: 0.39639 (Simulation time: 0 hr 25 min 53 sec) 
Heartbeat CPU  0 instructions:  581000003 cycles: 1282491680 heartbeat IPC: 0.56986 cumulative IPC: 0.39664 (Simulation time: 0 hr 25 min 55 sec) 
Heartbeat CPU  0 instructions:  582000001 cycles: 1284387442 heartbeat IPC: 0.52749 cumulative IPC: 0.39684 (Simulation time: 0 hr 25 min 58 sec) 
Heartbeat CPU  0 instructions:  583000002 cycles: 1286309867 heartbeat IPC: 0.52018 cumulative IPC: 0.39704 (Simulation time: 0 hr 26 min 1 sec) 
Heartbeat CPU  0 instructions:  584000000 cycles: 1288118389 heartbeat IPC: 0.55294 cumulative IPC: 0.39727 (Simulation time: 0 hr 26 min 4 sec) 
Heartbeat CPU  0 instructions:  585000003 cycles: 1289971976 heartbeat IPC: 0.53950 cumulative IPC: 0.39748 (Simulation time: 0 hr 26 min 7 sec) 
Heartbeat CPU  0 instructions:  586000003 cycles: 1292041807 heartbeat IPC: 0.48313 cumulative IPC: 0.39763 (Simulation time: 0 hr 26 min 10 sec) 
Heartbeat CPU  0 instructions:  587000001 cycles: 1294082389 heartbeat IPC: 0.49006 cumulative IPC: 0.39778 (Simulation time: 0 hr 26 min 13 sec) 
Heartbeat CPU  0 instructions:  588000000 cycles: 1295839547 heartbeat IPC: 0.56910 cumulative IPC: 0.39803 (Simulation time: 0 hr 26 min 16 sec) 
Heartbeat CPU  0 instructions:  589000000 cycles: 1297750146 heartbeat IPC: 0.52340 cumulative IPC: 0.39822 (Simulation time: 0 hr 26 min 19 sec) 
Heartbeat CPU  0 instructions:  590000001 cycles: 1299657034 heartbeat IPC: 0.52442 cumulative IPC: 0.39842 (Simulation time: 0 hr 26 min 21 sec) 
Heartbeat CPU  0 instructions:  591000000 cycles: 1301402087 heartbeat IPC: 0.57305 cumulative IPC: 0.39867 (Simulation time: 0 hr 26 min 24 sec) 
Heartbeat CPU  0 instructions:  592000000 cycles: 1303285603 heartbeat IPC: 0.53092 cumulative IPC: 0.39887 (Simulation time: 0 hr 26 min 27 sec) 
Heartbeat CPU  0 instructions:  593000002 cycles: 1305200758 heartbeat IPC: 0.52215 cumulative IPC: 0.39906 (Simulation time: 0 hr 26 min 29 sec) 
Heartbeat CPU  0 instructions:  594000002 cycles: 1307016474 heartbeat IPC: 0.55075 cumulative IPC: 0.39928 (Simulation time: 0 hr 26 min 32 sec) 
Heartbeat CPU  0 instructions:  595000003 cycles: 1308825134 heartbeat IPC: 0.55290 cumulative IPC: 0.39951 (Simulation time: 0 hr 26 min 35 sec) 
Heartbeat CPU  0 instructions:  596000000 cycles: 1310740254 heartbeat IPC: 0.52216 cumulative IPC: 0.39970 (Simulation time: 0 hr 26 min 38 sec) 
Heartbeat CPU  0 instructions:  597000003 cycles: 1312633455 heartbeat IPC: 0.52821 cumulative IPC: 0.39989 (Simulation time: 0 hr 26 min 40 sec) 
Heartbeat CPU  0 instructions:  598000000 cycles: 1314366395 heartbeat IPC: 0.57705 cumulative IPC: 0.40014 (Simulation time: 0 hr 26 min 43 sec) 
Heartbeat CPU  0 instructions:  599000000 cycles: 1316275483 heartbeat IPC: 0.52381 cumulative IPC: 0.40033 (Simulation time: 0 hr 26 min 46 sec) 
Heartbeat CPU  0 instructions:  600000000 cycles: 1318185333 heartbeat IPC: 0.52360 cumulative IPC: 0.40052 (Simulation time: 0 hr 26 min 48 sec) 
Finished CPU 0 instructions: 500000000 cycles: 1248390721 cumulative IPC: 0.40052 (Simulation time: 0 hr 26 min 48 sec) 

ChampSim completed all CPUs

[ROI Statistics]
Core_0_instructions 500000000
Core_0_cycles 1248390721
Core_0_IPC 0.40052

Core_0_branch_prediction_accuracy 99.17161
Core_0_branch_MPKI 0.01066
Core_0_average_ROB_occupancy_at_mispredict 253.69413

Core_0_L1D_total_access 254121870
Core_0_L1D_total_hit 250131967
Core_0_L1D_total_miss 3989903
Core_0_L1D_loads 171271235
Core_0_L1D_load_hit 168033869
Core_0_L1D_load_miss 3237366
Core_0_L1D_RFOs 82850635
Core_0_L1D_RFO_hit 82098098
Core_0_L1D_RFO_miss 752537
Core_0_L1D_prefetches 0
Core_0_L1D_prefetch_hit 0
Core_0_L1D_prefetch_miss 0
Core_0_L1D_writebacks 0
Core_0_L1D_writeback_hit 0
Core_0_L1D_writeback_miss 0
Core_0_L1D_prefetch_requested 0
Core_0_L1D_prefetch_dropped 0
Core_0_L1D_prefetch_issued 0
Core_0_L1D_prefetch_filled 0
Core_0_L1D_prefetch_useful 0
Core_0_L1D_prefetch_useless 0
Core_0_L1D_prefetch_late 0
Core_0_L1D_average_miss_latency 105.27695

Core_0_L1D_rq_access 255819424
Core_0_L1D_rq_forward 0
Core_0_L1D_rq_merged 84103122
Core_0_L1D_rq_to_cache 171303547
Core_0_L1D_rq_full 0

Core_0_L1D_wq_access 84479085
Core_0_L1D_wq_forward 412755
Core_0_L1D_wq_merged 1203646
Core_0_L1D_wq_to_cache 83275439
Core_0_L1D_wq_full 74099

Core_0_L1D_pq_access 0
Core_0_L1D_pq_forward 0
Core_0_L1D_pq_merged 0
Core_0_L1D_pq_to_cache 0
Core_0_L1D_pq_full 0

Core_0_L1D_acc_epochs 658893
Core_0_L1D_acc_level_0 658893
Core_0_L1D_acc_level_1 0
Core_0_L1D_acc_level_2 0
Core_0_L1D_acc_level_3 0
Core_0_L1D_acc_level_4 0
Core_0_L1D_acc_level_5 0
Core_0_L1D_acc_level_6 0
Core_0_L1D_acc_level_7 0
Core_0_L1D_acc_level_8 0
Core_0_L1D_acc_level_9 0

Core_0_L1I_total_access 133217583
Core_0_L1I_total_hit 133217583
Core_0_L1I_total_miss 0
Core_0_L1I_loads 133217583
Core_0_L1I_load_hit 133217583
Core_0_L1I_load_miss 0
Core_0_L1I_RFOs 0
Core_0_L1I_RFO_hit 0
Core_0_L1I_RFO_miss 0
Core_0_L1I_prefetches 0
Core_0_L1I_prefetch_hit 0
Core_0_L1I_prefetch_miss 0
Core_0_L1I_writebacks 0
Core_0_L1I_writeback_hit 0
Core_0_L1I_writeback_miss 0
Core_0_L1I_prefetch_requested 0
Core_0_L1I_prefetch_dropped 0
Core_0_L1I_prefetch_issued 0
Core_0_L1I_prefetch_filled 0
Core_0_L1I_prefetch_useful 0
Core_0_L1I_prefetch_useless 0
Core_0_L1I_prefetch_late 0
Core_0_L1I_average_miss_latency -nan

Core_0_L1I_rq_access 500000000
Core_0_L1I_rq_forward 0
Core_0_L1I_rq_merged 366782417
Core_0_L1I_rq_to_cache 133217583
Core_0_L1I_rq_full 0

Core_0_L1I_wq_access 0
Core_0_L1I_wq_forward 0
Core_0_L1I_wq_merged 0
Core_0_L1I_wq_to_cache 0
Core_0_L1I_wq_full 0

Core_0_L1I_pq_access 0
Core_0_L1I_pq_forward 0
Core_0_L1I_pq_merged 0
Core_0_L1I_pq_to_cache 0
Core_0_L1I_pq_full 0

Core_0_L1I_acc_epochs 658893
Core_0_L1I_acc_level_0 658893
Core_0_L1I_acc_level_1 0
Core_0_L1I_acc_level_2 0
Core_0_L1I_acc_level_3 0
Core_0_L1I_acc_level_4 0
Core_0_L1I_acc_level_5 0
Core_0_L1I_acc_level_6 0
Core_0_L1I_acc_level_7 0
Core_0_L1I_acc_level_8 0
Core_0_L1I_acc_level_9 0

Core_0_L2C_total_access 6555339
Core_0_L2C_total_hit 3952482
Core_0_L2C_total_miss 2602857
Core_0_L2C_loads 3237364
Core_0_L2C_load_hit 3153657
Core_0_L2C_load_miss 83707
Core_0_L2C_RFOs 752537
Core_0_L2C_RFO_hit 2031
Core_0_L2C_RFO_miss 750506
Core_0_L2C_prefetches 1779111
Core_0_L2C_prefetch_hit 11307
Core_0_L2C_prefetch_miss 1767804
Core_0_L2C_writebacks 786327
Core_0_L2C_writeback_hit 785487
Core_0_L2C_writeback_miss 840
Core_0_L2C_prefetch_requested 2126365
Core_0_L2C_prefetch_dropped 0
Core_0_L2C_prefetch_issued 2126365
Core_0_L2C_prefetch_filled 2102648
Core_0_L2C_prefetch_useful 2079220
Core_0_L2C_prefetch_useless 22981
Core_0_L2C_prefetch_late 207
Core_0_L2C_average_miss_latency 377.80552

Core_0_L2C_rq_access 3989903
Core_0_L2C_rq_forward 0
Core_0_L2C_rq_merged 0
Core_0_L2C_rq_to_cache 3989901
Core_0_L2C_rq_full 0

Core_0_L2C_wq_access 786327
Core_0_L2C_wq_forward 2
Core_0_L2C_wq_merged 0
Core_0_L2C_wq_to_cache 786327
Core_0_L2C_wq_full 0

Core_0_L2C_pq_access 2126365
Core_0_L2C_pq_forward 0
Core_0_L2C_pq_merged 5
Core_0_L2C_pq_to_cache 2126360
Core_0_L2C_pq_full 0

Core_0_L2C_acc_epochs 658893
Core_0_L2C_acc_level_0 396907
Core_0_L2C_acc_level_1 48792
Core_0_L2C_acc_level_2 38401
Core_0_L2C_acc_level_3 15619
Core_0_L2C_acc_level_4 11233
Core_0_L2C_acc_level_5 27357
Core_0_L2C_acc_level_6 6016
Core_0_L2C_acc_level_7 7725
Core_0_L2C_acc_level_8 4651
Core_0_L2C_acc_level_9 102192

Core_0_LLC_total_access 3365554
Core_0_LLC_total_hit 917887
Core_0_LLC_total_miss 2447667
Core_0_LLC_loads 83498
Core_0_LLC_load_hit 28396
Core_0_LLC_load_miss 55102
Core_0_LLC_RFOs 750506
Core_0_LLC_RFO_hit 145206
Core_0_LLC_RFO_miss 605300
Core_0_LLC_prefetches 1778539
Core_0_LLC_prefetch_hit 484812
Core_0_LLC_prefetch_miss 1293727
Core_0_LLC_writebacks 753011
Core_0_LLC_writeback_hit 259473
Core_0_LLC_writeback_miss 493538
Core_0_LLC_prefetch_requested 0
Core_0_LLC_prefetch_dropped 0
Core_0_LLC_prefetch_issued 0
Core_0_LLC_prefetch_filled 1564210
Core_0_LLC_prefetch_useful 8704
Core_0_LLC_prefetch_useless 1553642
Core_0_LLC_prefetch_late 0
Core_0_LLC_average_miss_latency 329.45124

Core_0_LLC_rq_access 834007
Core_0_LLC_rq_forward 0
Core_0_LLC_rq_merged 0
Core_0_LLC_rq_to_cache 834004
Core_0_LLC_rq_full 0

Core_0_LLC_wq_access 753011
Core_0_LLC_wq_forward 3
Core_0_LLC_wq_merged 0
Core_0_LLC_wq_to_cache 753011
Core_0_LLC_wq_full 0

Core_0_LLC_pq_access 2114287
Core_0_LLC_pq_forward 0
Core_0_LLC_pq_merged 0
Core_0_LLC_pq_to_cache 2114287
Core_0_LLC_pq_full 0

Core_0_LLC_acc_epochs 1287291
Core_0_LLC_acc_level_0 1284419
Core_0_LLC_acc_level_1 1126
Core_0_LLC_acc_level_2 859
Core_0_LLC_acc_level_3 39
Core_0_LLC_acc_level_4 27
Core_0_LLC_acc_level_5 659
Core_0_LLC_acc_level_6 11
Core_0_LLC_acc_level_7 17
Core_0_LLC_acc_level_8 9
Core_0_LLC_acc_level_9 125

Core_0_major_page_fault 0
Core_0_minor_page_fault 23870

[Bingo] PHT Access: 71852
[Bingo] PHT Hit PC+Addr: 2043
[Bingo] PHT Hit PC+Offs: 68139
[Bingo] PHT Miss: 1670
[Bingo] Prefetch PC+Addr: 0
[Bingo] Prefetch PC+Offs: 0
[Bingo] Useful PC+Addr: 0
[Bingo] Useful PC+Offs: 0
[Bingo] Useless PC+Addr: 0
[Bingo] Useless PC+Offs: 0
[Bingo] L1 Prefetch per Region: 0.00000
[Bingo] L2 Prefetch per Region: 31.16125
[Bingo] L3 Prefetch per Region: 0.16970
[Bingo] No Prefetch per Region: 0.66905
[Bingo] Number of Voters Mean: 14.81228
[Bingo] Number of Voters SD: 2.97840

Channel_0_RQ_row_buffer_hit 1111181
Channel_0_RQ_row_buffer_miss 842946
Channel_0_WQ_row_buffer_hit 165687
Channel_0_WQ_row_buffer_miss 443705
Channel_0_WQ_full 226
Channel_0_dbus_congested 1868483

avg_congested_cycle 23

DRAM_bw_pochs 5149162
DRAM_bw_level_0 4877101
DRAM_bw_level_1 80945
DRAM_bw_level_2 39345
DRAM_bw_level_3 151771
