*************************************************
   ChampSim Multicore Out-of-Order Simulator
   Last compiled: Dec 11 2024 17:59:53
*************************************************
parsing config file: /home/functionmain/桌面/Pythia/config/pythia.ini

trace_0 /home/functionmain/桌面/Pythia/traces/436.cactusADM-1804B.champsimtrace.xz
adding L2C_PREFETCHER: Scooby
Initialize SHIP state
warmup_instructions 100000000
simulation_instructions 500000000
champsim_seed 271
measure_ipc 0
measure_ipc_epoch 1000
measure_dram_bw 1
measure_dram_bw_epoch 256
measure_cache_acc 1
measure_cache_acc_epoch 1024
l1d_perfect 0
l2c_perfect 0
llc_perfect 0
l1d_semi_perfect 0
l2c_semi_perfect 0
llc_semi_perfect 0
semi_perfect_cache_page_buffer_size 64

num_cpus 1
cpu_freq 4000
dram_io_freq 4800
page_size 4096
block_size 64
max_read_per_cycle 8
max_fill_per_cycle 1
dram_channels 1
log2_dram_channels 0
dram_ranks 1
dram_banks 8
dram_rows 65536
dram_columns 128
dram_row_size 8
dram_size 4096
dram_pages 1048576

fetch_width 6
decode_width 6
exec_width 4
lq_width 2
sq_width 2
retire_width 4
scheduler_size 128
branch_mispredict_penalty 20
rob_size 256
lq_size 72
sq_size 56
num_instr_destinations_sparc 4
num_instr_destinations 2
num_instr_sources 4

itlb_set 16
itlb_way 8
itlb_rq_size 16
itlb_wq_size 16
itlb_pq_size 0
itlb_mshr_size 8
itlb_latency 1

dtlb_set 16
dtlb_way 4
dtlb_rq_size 16
dtlb_wq_size 16
dtlb_pq_size 0
dtlb_mshr_size 8
dtlb_latency 1

stlb_set 128
stlb_way 12
stlb_rq_size 32
stlb_wq_size 32
stlb_pq_size 0
stlb_mshr_size 16
stlb_latency 8

l1i_size 32
l1i_set 64
l1i_way 8
l1i_rq_size 64
l1i_wq_size 64
l1i_pq_size 8
l1i_mshr_size 8
l1i_latency 1

l1d_size 32
l1d_set 64
l1d_way 8
l1d_rq_size 64
l1d_wq_size 64
l1d_pq_size 8
l1d_mshr_size 16
l1d_latency 4

l2c_size 256
l2c_set 512
l2c_way 8
l2c_rq_size 32
l2c_wq_size 32
l2c_pq_size 32
l2c_mshr_size 32
l2c_latency 10

llc_size 2048
llc_set 2048
llc_way 16
llc_rq_size 32
llc_wq_size 32
llc_pq_size 32
llc_mshr_size 64
llc_latency 20

dram_channel_width 8
dram_wq_size 64
dram_rq_size 64
tRP 15
tRCD 15
tCAS 12.5
dram_dbus_turn_around_time 30
dram_write_high_wm 56
dram_write_low_wm 48
min_dram_writes_per_switch 16
dram_mtps 4800
dram_dbus_return_time 6

scooby_alpha 0.0065088
scooby_gamma 0.556301
scooby_epsilon 0.00182284
scooby_state_num_bits 10
scooby_max_states 1024
scooby_seed 200
scooby_policy EGreedy
scooby_learning_type SARSA
scooby_actions 1,3,4,5,10,11,12,22,23,30,32,-1,-3,-6,0,
scooby_max_actions 15
scooby_pt_size 256
scooby_st_size 64
scooby_max_pcs 5
scooby_max_offsets 5
scooby_max_deltas 5
scooby_reward_none -4
scooby_reward_incorrect -8
scooby_reward_correct_untimely 12
scooby_reward_correct_timely 20
scooby_brain_zero_init 0
scooby_enable_reward_all 0
scooby_enable_track_multiple 0
scooby_enable_reward_out_of_bounds 1
scooby_reward_out_of_bounds -12
scooby_state_type 1
scooby_state_hash_type 11
scooby_access_debug 0
scooby_print_access_debug 0
scooby_print_access_debug_pc deadbeef
scooby_print_access_debug_pc_count 0
scooby_print_trace 0
scooby_enable_state_action_stats 1
scooby_enable_reward_tracker_hit 0
scooby_reward_tracker_hit -2
scooby_enable_featurewise_engine 1
scooby_pref_degree 1
scooby_enable_dyn_degree 1
scooby_max_to_avg_q_thresholds 0.5,1,2,
scooby_dyn_degrees 1,2,4,4,
scooby_multi_deg_select_type 2
scooby_last_pref_offset_conf_thresholds 1,3,8,
scooby_dyn_degrees_type2 1,2,4,6,
scooby_action_tracker_size 2
scooby_high_bw_thresh 4
scooby_enable_hbw_reward 1
scooby_reward_hbw_correct_timely 20
scooby_reward_hbw_correct_untimely 12
scooby_reward_hbw_incorrect -14
scooby_reward_hbw_none -2
scooby_reward_hbw_out_of_bounds -12
scooby_reward_hbw_tracker_hit -2
scooby_last_pref_offset_conf_thresholds_hbw 1,3,8,
scooby_dyn_degrees_type2_hbw 1,2,4,6,

le_enable_trace 0
le_trace_interval 0
le_trace_file_name 
le_trace_state 0
le_enable_score_plot 0
le_plot_file_name 
le_plot_actions 
le_enable_action_trace 0
le_action_trace_interval 0
le_action_trace_name 
le_enable_action_plot 0

le_featurewise_active_features PC, PC_Delta
le_featurewise_num_tilings 3,3,
le_featurewise_num_tiles 128,128,
le_featurewise_hash_types 2,2,
le_featurewise_enable_tiling_offset 1,1,
le_featurewise_max_q_thresh 0.5
le_featurewise_enable_action_fallback 1
le_featurewise_feature_weights 1,1,
le_featurewise_enable_dynamic_weight 0
le_featurewise_weight_gradient 0.001
le_featurewise_disable_adjust_weight_all_features_align 1
le_featurewise_selective_update 0
le_featurewise_pooling_type 2
le_featurewise_enable_dyn_action_fallback 1
le_featurewise_bw_acc_check_level 1
le_featurewise_acc_thresh 2
le_featurewise_enable_trace 0
le_featurewise_trace_feature_type 0
le_featurewise_trace_feature 
le_featurewise_trace_interval 0
le_featurewise_trace_record_count 0
le_featurewise_trace_file_name 
le_featurewise_enable_score_plot 0
le_featurewise_plot_actions 
le_featurewise_plot_file_name 


Heartbeat CPU  0 instructions:    1000000 cycles:     702364 heartbeat IPC: 1.42376 cumulative IPC: 1.42376 (Simulation time: 0 hr 0 min 2 sec) 
Heartbeat CPU  0 instructions:    2000000 cycles:    1404603 heartbeat IPC: 1.42402 cumulative IPC: 1.42389 (Simulation time: 0 hr 0 min 5 sec) 
Heartbeat CPU  0 instructions:    3000000 cycles:    2106947 heartbeat IPC: 1.42380 cumulative IPC: 1.42386 (Simulation time: 0 hr 0 min 7 sec) 
Heartbeat CPU  0 instructions:    4000000 cycles:    2809274 heartbeat IPC: 1.42384 cumulative IPC: 1.42386 (Simulation time: 0 hr 0 min 10 sec) 
Heartbeat CPU  0 instructions:    5000000 cycles:    3511484 heartbeat IPC: 1.42408 cumulative IPC: 1.42390 (Simulation time: 0 hr 0 min 12 sec) 
Heartbeat CPU  0 instructions:    6000000 cycles:    4213862 heartbeat IPC: 1.42373 cumulative IPC: 1.42387 (Simulation time: 0 hr 0 min 14 sec) 
Heartbeat CPU  0 instructions:    7000001 cycles:    4916265 heartbeat IPC: 1.42369 cumulative IPC: 1.42385 (Simulation time: 0 hr 0 min 17 sec) 
Heartbeat CPU  0 instructions:    8000000 cycles:    5618385 heartbeat IPC: 1.42426 cumulative IPC: 1.42390 (Simulation time: 0 hr 0 min 19 sec) 
Heartbeat CPU  0 instructions:    9000001 cycles:    6320892 heartbeat IPC: 1.42347 cumulative IPC: 1.42385 (Simulation time: 0 hr 0 min 22 sec) 
Heartbeat CPU  0 instructions:   10000000 cycles:    7023113 heartbeat IPC: 1.42405 cumulative IPC: 1.42387 (Simulation time: 0 hr 0 min 24 sec) 
Heartbeat CPU  0 instructions:   11000002 cycles:    7725333 heartbeat IPC: 1.42406 cumulative IPC: 1.42389 (Simulation time: 0 hr 0 min 26 sec) 
Heartbeat CPU  0 instructions:   12000000 cycles:    8427510 heartbeat IPC: 1.42414 cumulative IPC: 1.42391 (Simulation time: 0 hr 0 min 29 sec) 
Heartbeat CPU  0 instructions:   13000000 cycles:    9130101 heartbeat IPC: 1.42330 cumulative IPC: 1.42386 (Simulation time: 0 hr 0 min 31 sec) 
Heartbeat CPU  0 instructions:   14000002 cycles:    9832363 heartbeat IPC: 1.42397 cumulative IPC: 1.42387 (Simulation time: 0 hr 0 min 33 sec) 
Heartbeat CPU  0 instructions:   15000002 cycles:   10534322 heartbeat IPC: 1.42458 cumulative IPC: 1.42392 (Simulation time: 0 hr 0 min 36 sec) 
Heartbeat CPU  0 instructions:   16000000 cycles:   11236896 heartbeat IPC: 1.42333 cumulative IPC: 1.42388 (Simulation time: 0 hr 0 min 38 sec) 
Heartbeat CPU  0 instructions:   17000000 cycles:   11939437 heartbeat IPC: 1.42340 cumulative IPC: 1.42385 (Simulation time: 0 hr 0 min 41 sec) 
Heartbeat CPU  0 instructions:   18000002 cycles:   12600024 heartbeat IPC: 1.51381 cumulative IPC: 1.42857 (Simulation time: 0 hr 0 min 43 sec) 
Heartbeat CPU  0 instructions:   19000000 cycles:   13234571 heartbeat IPC: 1.57592 cumulative IPC: 1.43563 (Simulation time: 0 hr 0 min 46 sec) 
Heartbeat CPU  0 instructions:   20000000 cycles:   13937094 heartbeat IPC: 1.42344 cumulative IPC: 1.43502 (Simulation time: 0 hr 0 min 48 sec) 
Heartbeat CPU  0 instructions:   21000000 cycles:   14639521 heartbeat IPC: 1.42364 cumulative IPC: 1.43447 (Simulation time: 0 hr 0 min 50 sec) 
Heartbeat CPU  0 instructions:   22000002 cycles:   15341847 heartbeat IPC: 1.42384 cumulative IPC: 1.43399 (Simulation time: 0 hr 0 min 53 sec) 
Heartbeat CPU  0 instructions:   23000001 cycles:   16044228 heartbeat IPC: 1.42373 cumulative IPC: 1.43354 (Simulation time: 0 hr 0 min 55 sec) 
Heartbeat CPU  0 instructions:   24000000 cycles:   16746387 heartbeat IPC: 1.42418 cumulative IPC: 1.43314 (Simulation time: 0 hr 0 min 57 sec) 
Heartbeat CPU  0 instructions:   25000001 cycles:   17448715 heartbeat IPC: 1.42384 cumulative IPC: 1.43277 (Simulation time: 0 hr 1 min 0 sec) 
Heartbeat CPU  0 instructions:   26000003 cycles:   18151313 heartbeat IPC: 1.42329 cumulative IPC: 1.43240 (Simulation time: 0 hr 1 min 2 sec) 
Heartbeat CPU  0 instructions:   27000003 cycles:   18853561 heartbeat IPC: 1.42400 cumulative IPC: 1.43209 (Simulation time: 0 hr 1 min 5 sec) 
Heartbeat CPU  0 instructions:   28000000 cycles:   19555707 heartbeat IPC: 1.42420 cumulative IPC: 1.43181 (Simulation time: 0 hr 1 min 7 sec) 
Heartbeat CPU  0 instructions:   29000000 cycles:   20258177 heartbeat IPC: 1.42355 cumulative IPC: 1.43152 (Simulation time: 0 hr 1 min 9 sec) 
Heartbeat CPU  0 instructions:   30000003 cycles:   20960598 heartbeat IPC: 1.42365 cumulative IPC: 1.43126 (Simulation time: 0 hr 1 min 12 sec) 
Heartbeat CPU  0 instructions:   31000003 cycles:   21662570 heartbeat IPC: 1.42456 cumulative IPC: 1.43104 (Simulation time: 0 hr 1 min 14 sec) 
Heartbeat CPU  0 instructions:   32000000 cycles:   22364640 heartbeat IPC: 1.42436 cumulative IPC: 1.43083 (Simulation time: 0 hr 1 min 17 sec) 
Heartbeat CPU  0 instructions:   33000001 cycles:   23067432 heartbeat IPC: 1.42290 cumulative IPC: 1.43059 (Simulation time: 0 hr 1 min 19 sec) 
Heartbeat CPU  0 instructions:   34000000 cycles:   23769560 heartbeat IPC: 1.42424 cumulative IPC: 1.43040 (Simulation time: 0 hr 1 min 21 sec) 
Heartbeat CPU  0 instructions:   35000001 cycles:   24471809 heartbeat IPC: 1.42400 cumulative IPC: 1.43022 (Simulation time: 0 hr 1 min 24 sec) 
Heartbeat CPU  0 instructions:   36000000 cycles:   25174099 heartbeat IPC: 1.42391 cumulative IPC: 1.43004 (Simulation time: 0 hr 1 min 26 sec) 
Heartbeat CPU  0 instructions:   37000000 cycles:   25876708 heartbeat IPC: 1.42327 cumulative IPC: 1.42986 (Simulation time: 0 hr 1 min 29 sec) 
Heartbeat CPU  0 instructions:   38000001 cycles:   26578919 heartbeat IPC: 1.42407 cumulative IPC: 1.42970 (Simulation time: 0 hr 1 min 31 sec) 
Heartbeat CPU  0 instructions:   39000000 cycles:   27281218 heartbeat IPC: 1.42389 cumulative IPC: 1.42955 (Simulation time: 0 hr 1 min 33 sec) 
Heartbeat CPU  0 instructions:   40000000 cycles:   27983518 heartbeat IPC: 1.42389 cumulative IPC: 1.42941 (Simulation time: 0 hr 1 min 36 sec) 
Heartbeat CPU  0 instructions:   41000000 cycles:   28587720 heartbeat IPC: 1.65508 cumulative IPC: 1.43418 (Simulation time: 0 hr 1 min 38 sec) 
Heartbeat CPU  0 instructions:   42000002 cycles:   29279007 heartbeat IPC: 1.44658 cumulative IPC: 1.43447 (Simulation time: 0 hr 1 min 41 sec) 
Heartbeat CPU  0 instructions:   43000002 cycles:   29981417 heartbeat IPC: 1.42367 cumulative IPC: 1.43422 (Simulation time: 0 hr 1 min 43 sec) 
Heartbeat CPU  0 instructions:   44000000 cycles:   30683836 heartbeat IPC: 1.42365 cumulative IPC: 1.43398 (Simulation time: 0 hr 1 min 46 sec) 
Heartbeat CPU  0 instructions:   45000003 cycles:   31386144 heartbeat IPC: 1.42388 cumulative IPC: 1.43375 (Simulation time: 0 hr 1 min 48 sec) 
Heartbeat CPU  0 instructions:   46000003 cycles:   32088361 heartbeat IPC: 1.42406 cumulative IPC: 1.43354 (Simulation time: 0 hr 1 min 50 sec) 
Heartbeat CPU  0 instructions:   47000000 cycles:   32790580 heartbeat IPC: 1.42405 cumulative IPC: 1.43334 (Simulation time: 0 hr 1 min 53 sec) 
Heartbeat CPU  0 instructions:   48000000 cycles:   33493234 heartbeat IPC: 1.42318 cumulative IPC: 1.43313 (Simulation time: 0 hr 1 min 55 sec) 
Heartbeat CPU  0 instructions:   49000000 cycles:   34195268 heartbeat IPC: 1.42443 cumulative IPC: 1.43295 (Simulation time: 0 hr 1 min 58 sec) 
Heartbeat CPU  0 instructions:   50000000 cycles:   34897572 heartbeat IPC: 1.42388 cumulative IPC: 1.43276 (Simulation time: 0 hr 2 min 0 sec) 
Heartbeat CPU  0 instructions:   51000000 cycles:   35600144 heartbeat IPC: 1.42334 cumulative IPC: 1.43258 (Simulation time: 0 hr 2 min 2 sec) 
Heartbeat CPU  0 instructions:   52000000 cycles:   36302337 heartbeat IPC: 1.42411 cumulative IPC: 1.43241 (Simulation time: 0 hr 2 min 5 sec) 
Heartbeat CPU  0 instructions:   53000000 cycles:   37004740 heartbeat IPC: 1.42368 cumulative IPC: 1.43225 (Simulation time: 0 hr 2 min 7 sec) 
Heartbeat CPU  0 instructions:   54000001 cycles:   37706853 heartbeat IPC: 1.42427 cumulative IPC: 1.43210 (Simulation time: 0 hr 2 min 10 sec) 
Heartbeat CPU  0 instructions:   55000001 cycles:   38409160 heartbeat IPC: 1.42388 cumulative IPC: 1.43195 (Simulation time: 0 hr 2 min 12 sec) 
Heartbeat CPU  0 instructions:   56000000 cycles:   39111654 heartbeat IPC: 1.42350 cumulative IPC: 1.43180 (Simulation time: 0 hr 2 min 14 sec) 
Heartbeat CPU  0 instructions:   57000000 cycles:   39814173 heartbeat IPC: 1.42345 cumulative IPC: 1.43165 (Simulation time: 0 hr 2 min 17 sec) 
Heartbeat CPU  0 instructions:   58000003 cycles:   40516492 heartbeat IPC: 1.42386 cumulative IPC: 1.43152 (Simulation time: 0 hr 2 min 19 sec) 
Heartbeat CPU  0 instructions:   59000000 cycles:   41218637 heartbeat IPC: 1.42420 cumulative IPC: 1.43139 (Simulation time: 0 hr 2 min 22 sec) 
Heartbeat CPU  0 instructions:   60000000 cycles:   41921117 heartbeat IPC: 1.42353 cumulative IPC: 1.43126 (Simulation time: 0 hr 2 min 24 sec) 
Heartbeat CPU  0 instructions:   61000000 cycles:   42623343 heartbeat IPC: 1.42404 cumulative IPC: 1.43114 (Simulation time: 0 hr 2 min 26 sec) 
Heartbeat CPU  0 instructions:   62000002 cycles:   43325610 heartbeat IPC: 1.42396 cumulative IPC: 1.43102 (Simulation time: 0 hr 2 min 29 sec) 
Heartbeat CPU  0 instructions:   63000000 cycles:   43972331 heartbeat IPC: 1.54626 cumulative IPC: 1.43272 (Simulation time: 0 hr 2 min 31 sec) 
Heartbeat CPU  0 instructions:   64000000 cycles:   44622923 heartbeat IPC: 1.53706 cumulative IPC: 1.43424 (Simulation time: 0 hr 2 min 34 sec) 
Heartbeat CPU  0 instructions:   65000000 cycles:   45325021 heartbeat IPC: 1.42430 cumulative IPC: 1.43409 (Simulation time: 0 hr 2 min 36 sec) 
Heartbeat CPU  0 instructions:   66000001 cycles:   46027142 heartbeat IPC: 1.42426 cumulative IPC: 1.43394 (Simulation time: 0 hr 2 min 39 sec) 
Heartbeat CPU  0 instructions:   67000002 cycles:   46729261 heartbeat IPC: 1.42426 cumulative IPC: 1.43379 (Simulation time: 0 hr 2 min 41 sec) 
Heartbeat CPU  0 instructions:   68000000 cycles:   47431677 heartbeat IPC: 1.42365 cumulative IPC: 1.43364 (Simulation time: 0 hr 2 min 43 sec) 
Heartbeat CPU  0 instructions:   69000000 cycles:   48133900 heartbeat IPC: 1.42405 cumulative IPC: 1.43350 (Simulation time: 0 hr 2 min 46 sec) 
Heartbeat CPU  0 instructions:   70000002 cycles:   48836028 heartbeat IPC: 1.42424 cumulative IPC: 1.43337 (Simulation time: 0 hr 2 min 48 sec) 
Heartbeat CPU  0 instructions:   71000003 cycles:   49538675 heartbeat IPC: 1.42319 cumulative IPC: 1.43322 (Simulation time: 0 hr 2 min 51 sec) 
Heartbeat CPU  0 instructions:   72000000 cycles:   50240768 heartbeat IPC: 1.42431 cumulative IPC: 1.43310 (Simulation time: 0 hr 2 min 53 sec) 
Heartbeat CPU  0 instructions:   73000001 cycles:   50942949 heartbeat IPC: 1.42414 cumulative IPC: 1.43298 (Simulation time: 0 hr 2 min 55 sec) 
Heartbeat CPU  0 instructions:   74000003 cycles:   51645291 heartbeat IPC: 1.42381 cumulative IPC: 1.43285 (Simulation time: 0 hr 2 min 58 sec) 
Heartbeat CPU  0 instructions:   75000002 cycles:   52347994 heartbeat IPC: 1.42307 cumulative IPC: 1.43272 (Simulation time: 0 hr 3 min 0 sec) 
Heartbeat CPU  0 instructions:   76000000 cycles:   53050210 heartbeat IPC: 1.42406 cumulative IPC: 1.43261 (Simulation time: 0 hr 3 min 3 sec) 
Heartbeat CPU  0 instructions:   77000003 cycles:   53752789 heartbeat IPC: 1.42333 cumulative IPC: 1.43248 (Simulation time: 0 hr 3 min 5 sec) 
Heartbeat CPU  0 instructions:   78000001 cycles:   54455357 heartbeat IPC: 1.42335 cumulative IPC: 1.43237 (Simulation time: 0 hr 3 min 7 sec) 
Heartbeat CPU  0 instructions:   79000001 cycles:   55157326 heartbeat IPC: 1.42456 cumulative IPC: 1.43227 (Simulation time: 0 hr 3 min 10 sec) 
Heartbeat CPU  0 instructions:   80000000 cycles:   55859366 heartbeat IPC: 1.42442 cumulative IPC: 1.43217 (Simulation time: 0 hr 3 min 12 sec) 
Heartbeat CPU  0 instructions:   81000002 cycles:   56561735 heartbeat IPC: 1.42376 cumulative IPC: 1.43206 (Simulation time: 0 hr 3 min 14 sec) 
Heartbeat CPU  0 instructions:   82000003 cycles:   57263995 heartbeat IPC: 1.42398 cumulative IPC: 1.43196 (Simulation time: 0 hr 3 min 17 sec) 
Heartbeat CPU  0 instructions:   83000001 cycles:   57966265 heartbeat IPC: 1.42395 cumulative IPC: 1.43187 (Simulation time: 0 hr 3 min 19 sec) 
Heartbeat CPU  0 instructions:   84000000 cycles:   58668524 heartbeat IPC: 1.42397 cumulative IPC: 1.43177 (Simulation time: 0 hr 3 min 22 sec) 
Heartbeat CPU  0 instructions:   85000000 cycles:   59357019 heartbeat IPC: 1.45244 cumulative IPC: 1.43201 (Simulation time: 0 hr 3 min 24 sec) 
Heartbeat CPU  0 instructions:   86000002 cycles:   59965095 heartbeat IPC: 1.64453 cumulative IPC: 1.43417 (Simulation time: 0 hr 3 min 27 sec) 
Heartbeat CPU  0 instructions:   87000002 cycles:   60667563 heartbeat IPC: 1.42355 cumulative IPC: 1.43404 (Simulation time: 0 hr 3 min 29 sec) 
Heartbeat CPU  0 instructions:   88000000 cycles:   61370194 heartbeat IPC: 1.42322 cumulative IPC: 1.43392 (Simulation time: 0 hr 3 min 31 sec) 
Heartbeat CPU  0 instructions:   89000001 cycles:   62072259 heartbeat IPC: 1.42437 cumulative IPC: 1.43381 (Simulation time: 0 hr 3 min 34 sec) 
Heartbeat CPU  0 instructions:   90000003 cycles:   62774615 heartbeat IPC: 1.42378 cumulative IPC: 1.43370 (Simulation time: 0 hr 3 min 36 sec) 
Heartbeat CPU  0 instructions:   91000003 cycles:   63477047 heartbeat IPC: 1.42363 cumulative IPC: 1.43359 (Simulation time: 0 hr 3 min 39 sec) 
Heartbeat CPU  0 instructions:   92000000 cycles:   64179281 heartbeat IPC: 1.42402 cumulative IPC: 1.43348 (Simulation time: 0 hr 3 min 41 sec) 
Heartbeat CPU  0 instructions:   93000002 cycles:   64881668 heartbeat IPC: 1.42372 cumulative IPC: 1.43338 (Simulation time: 0 hr 3 min 43 sec) 
Heartbeat CPU  0 instructions:   94000002 cycles:   65583707 heartbeat IPC: 1.42442 cumulative IPC: 1.43328 (Simulation time: 0 hr 3 min 46 sec) 
Heartbeat CPU  0 instructions:   95000003 cycles:   66285898 heartbeat IPC: 1.42412 cumulative IPC: 1.43319 (Simulation time: 0 hr 3 min 48 sec) 
Heartbeat CPU  0 instructions:   96000000 cycles:   66988188 heartbeat IPC: 1.42391 cumulative IPC: 1.43309 (Simulation time: 0 hr 3 min 51 sec) 
Heartbeat CPU  0 instructions:   97000000 cycles:   67690549 heartbeat IPC: 1.42377 cumulative IPC: 1.43299 (Simulation time: 0 hr 3 min 53 sec) 
Heartbeat CPU  0 instructions:   98000002 cycles:   68392740 heartbeat IPC: 1.42412 cumulative IPC: 1.43290 (Simulation time: 0 hr 3 min 55 sec) 
Heartbeat CPU  0 instructions:   99000003 cycles:   69094986 heartbeat IPC: 1.42400 cumulative IPC: 1.43281 (Simulation time: 0 hr 3 min 58 sec) 
Heartbeat CPU  0 instructions:  100000000 cycles:   69797371 heartbeat IPC: 1.42372 cumulative IPC: 1.43272 (Simulation time: 0 hr 4 min 0 sec) 

Warmup complete CPU  0 instructions:  100000001 cycles:   69797391 (Simulation time: 0 hr 4 min 0 sec) 

Heartbeat CPU  0 instructions:  101000000 cycles:   71729216 heartbeat IPC: 0.51764 cumulative IPC: 0.51764 (Simulation time: 0 hr 4 min 3 sec) 
Heartbeat CPU  0 instructions:  102000003 cycles:   73493076 heartbeat IPC: 0.56694 cumulative IPC: 0.54117 (Simulation time: 0 hr 4 min 6 sec) 
Heartbeat CPU  0 instructions:  103000003 cycles:   75363343 heartbeat IPC: 0.53468 cumulative IPC: 0.53899 (Simulation time: 0 hr 4 min 9 sec) 
Heartbeat CPU  0 instructions:  104000000 cycles:   77284027 heartbeat IPC: 0.52065 cumulative IPC: 0.53429 (Simulation time: 0 hr 4 min 11 sec) 
Heartbeat CPU  0 instructions:  105000002 cycles:   79124982 heartbeat IPC: 0.54320 cumulative IPC: 0.53604 (Simulation time: 0 hr 4 min 14 sec) 
Heartbeat CPU  0 instructions:  106000000 cycles:   80925244 heartbeat IPC: 0.55547 cumulative IPC: 0.53919 (Simulation time: 0 hr 4 min 17 sec) 
Heartbeat CPU  0 instructions:  107000003 cycles:   82841503 heartbeat IPC: 0.52185 cumulative IPC: 0.53664 (Simulation time: 0 hr 4 min 20 sec) 
Heartbeat CPU  0 instructions:  108000000 cycles:   93616549 heartbeat IPC: 0.09281 cumulative IPC: 0.33586 (Simulation time: 0 hr 4 min 23 sec) 
Heartbeat CPU  0 instructions:  109000003 cycles:  100387344 heartbeat IPC: 0.14769 cumulative IPC: 0.29421 (Simulation time: 0 hr 4 min 26 sec) 
Heartbeat CPU  0 instructions:  110000001 cycles:  102305912 heartbeat IPC: 0.52122 cumulative IPC: 0.30761 (Simulation time: 0 hr 4 min 29 sec) 
Heartbeat CPU  0 instructions:  111000000 cycles:  104232419 heartbeat IPC: 0.51907 cumulative IPC: 0.31944 (Simulation time: 0 hr 4 min 32 sec) 
Heartbeat CPU  0 instructions:  112000000 cycles:  106005111 heartbeat IPC: 0.56411 cumulative IPC: 0.33142 (Simulation time: 0 hr 4 min 35 sec) 
Heartbeat CPU  0 instructions:  113000000 cycles:  107881724 heartbeat IPC: 0.53287 cumulative IPC: 0.34135 (Simulation time: 0 hr 4 min 38 sec) 
Heartbeat CPU  0 instructions:  114000000 cycles:  109816867 heartbeat IPC: 0.51676 cumulative IPC: 0.34983 (Simulation time: 0 hr 4 min 40 sec) 
Heartbeat CPU  0 instructions:  115000001 cycles:  111655828 heartbeat IPC: 0.54379 cumulative IPC: 0.35835 (Simulation time: 0 hr 4 min 43 sec) 
Heartbeat CPU  0 instructions:  116000000 cycles:  113455685 heartbeat IPC: 0.55560 cumulative IPC: 0.36648 (Simulation time: 0 hr 4 min 46 sec) 
Heartbeat CPU  0 instructions:  117000003 cycles:  115384421 heartbeat IPC: 0.51848 cumulative IPC: 0.37291 (Simulation time: 0 hr 4 min 49 sec) 
Heartbeat CPU  0 instructions:  118000002 cycles:  117291915 heartbeat IPC: 0.52425 cumulative IPC: 0.37899 (Simulation time: 0 hr 4 min 51 sec) 
Heartbeat CPU  0 instructions:  119000002 cycles:  119038454 heartbeat IPC: 0.57256 cumulative IPC: 0.38586 (Simulation time: 0 hr 4 min 54 sec) 
Heartbeat CPU  0 instructions:  120000000 cycles:  120951342 heartbeat IPC: 0.52277 cumulative IPC: 0.39098 (Simulation time: 0 hr 4 min 57 sec) 
Heartbeat CPU  0 instructions:  121000003 cycles:  122872766 heartbeat IPC: 0.52045 cumulative IPC: 0.39566 (Simulation time: 0 hr 5 min 0 sec) 
Heartbeat CPU  0 instructions:  122000002 cycles:  124657616 heartbeat IPC: 0.56027 cumulative IPC: 0.40102 (Simulation time: 0 hr 5 min 3 sec) 
Heartbeat CPU  0 instructions:  123000002 cycles:  126516552 heartbeat IPC: 0.53794 cumulative IPC: 0.40551 (Simulation time: 0 hr 5 min 5 sec) 
Heartbeat CPU  0 instructions:  124000000 cycles:  128440500 heartbeat IPC: 0.51976 cumulative IPC: 0.40926 (Simulation time: 0 hr 5 min 8 sec) 
Heartbeat CPU  0 instructions:  125000000 cycles:  130301438 heartbeat IPC: 0.53736 cumulative IPC: 0.41320 (Simulation time: 0 hr 5 min 11 sec) 
Heartbeat CPU  0 instructions:  126000002 cycles:  132097321 heartbeat IPC: 0.55683 cumulative IPC: 0.41734 (Simulation time: 0 hr 5 min 14 sec) 
Heartbeat CPU  0 instructions:  127000002 cycles:  134138360 heartbeat IPC: 0.48995 cumulative IPC: 0.41964 (Simulation time: 0 hr 5 min 16 sec) 
Heartbeat CPU  0 instructions:  128000000 cycles:  136049544 heartbeat IPC: 0.52323 cumulative IPC: 0.42263 (Simulation time: 0 hr 5 min 19 sec) 
Heartbeat CPU  0 instructions:  129000001 cycles:  137797331 heartbeat IPC: 0.57215 cumulative IPC: 0.42647 (Simulation time: 0 hr 5 min 22 sec) 
Heartbeat CPU  0 instructions:  130000000 cycles:  143342891 heartbeat IPC: 0.18032 cumulative IPC: 0.40791 (Simulation time: 0 hr 5 min 25 sec) 
Heartbeat CPU  0 instructions:  131000003 cycles:  155481795 heartbeat IPC: 0.08238 cumulative IPC: 0.36179 (Simulation time: 0 hr 5 min 29 sec) 
Heartbeat CPU  0 instructions:  132000000 cycles:  157272356 heartbeat IPC: 0.55848 cumulative IPC: 0.36582 (Simulation time: 0 hr 5 min 32 sec) 
Heartbeat CPU  0 instructions:  133000000 cycles:  159130459 heartbeat IPC: 0.53818 cumulative IPC: 0.36940 (Simulation time: 0 hr 5 min 34 sec) 
Heartbeat CPU  0 instructions:  134000000 cycles:  161058117 heartbeat IPC: 0.51876 cumulative IPC: 0.37256 (Simulation time: 0 hr 5 min 37 sec) 
Heartbeat CPU  0 instructions:  135000000 cycles:  162923145 heartbeat IPC: 0.53618 cumulative IPC: 0.37584 (Simulation time: 0 hr 5 min 40 sec) 
Heartbeat CPU  0 instructions:  136000000 cycles:  164707667 heartbeat IPC: 0.56037 cumulative IPC: 0.37931 (Simulation time: 0 hr 5 min 43 sec) 
Heartbeat CPU  0 instructions:  137000002 cycles:  166632107 heartbeat IPC: 0.51963 cumulative IPC: 0.38209 (Simulation time: 0 hr 5 min 46 sec) 
Heartbeat CPU  0 instructions:  138000001 cycles:  168547355 heartbeat IPC: 0.52213 cumulative IPC: 0.38481 (Simulation time: 0 hr 5 min 48 sec) 
Heartbeat CPU  0 instructions:  139000001 cycles:  170297058 heartbeat IPC: 0.57153 cumulative IPC: 0.38806 (Simulation time: 0 hr 5 min 51 sec) 
Heartbeat CPU  0 instructions:  140000000 cycles:  172209182 heartbeat IPC: 0.52298 cumulative IPC: 0.39058 (Simulation time: 0 hr 5 min 54 sec) 
Heartbeat CPU  0 instructions:  141000000 cycles:  174135761 heartbeat IPC: 0.51905 cumulative IPC: 0.39295 (Simulation time: 0 hr 5 min 57 sec) 
Heartbeat CPU  0 instructions:  142000001 cycles:  175934338 heartbeat IPC: 0.55600 cumulative IPC: 0.39572 (Simulation time: 0 hr 5 min 59 sec) 
Heartbeat CPU  0 instructions:  143000001 cycles:  177774384 heartbeat IPC: 0.54346 cumulative IPC: 0.39823 (Simulation time: 0 hr 6 min 2 sec) 
Heartbeat CPU  0 instructions:  144000000 cycles:  179705055 heartbeat IPC: 0.51795 cumulative IPC: 0.40034 (Simulation time: 0 hr 6 min 5 sec) 
Heartbeat CPU  0 instructions:  145000000 cycles:  181580516 heartbeat IPC: 0.53320 cumulative IPC: 0.40257 (Simulation time: 0 hr 6 min 8 sec) 
Heartbeat CPU  0 instructions:  146000002 cycles:  183348933 heartbeat IPC: 0.56548 cumulative IPC: 0.40510 (Simulation time: 0 hr 6 min 11 sec) 
Heartbeat CPU  0 instructions:  147000003 cycles:  185272803 heartbeat IPC: 0.51979 cumulative IPC: 0.40701 (Simulation time: 0 hr 6 min 13 sec) 
Heartbeat CPU  0 instructions:  148000000 cycles:  187187008 heartbeat IPC: 0.52241 cumulative IPC: 0.40889 (Simulation time: 0 hr 6 min 16 sec) 
Heartbeat CPU  0 instructions:  149000002 cycles:  188941222 heartbeat IPC: 0.57006 cumulative IPC: 0.41127 (Simulation time: 0 hr 6 min 19 sec) 
Heartbeat CPU  0 instructions:  150000003 cycles:  190838941 heartbeat IPC: 0.52695 cumulative IPC: 0.41308 (Simulation time: 0 hr 6 min 22 sec) 
Heartbeat CPU  0 instructions:  151000003 cycles:  192756909 heartbeat IPC: 0.52139 cumulative IPC: 0.41477 (Simulation time: 0 hr 6 min 24 sec) 
Heartbeat CPU  0 instructions:  152000000 cycles:  194590565 heartbeat IPC: 0.54536 cumulative IPC: 0.41669 (Simulation time: 0 hr 6 min 27 sec) 
Heartbeat CPU  0 instructions:  153000003 cycles:  207444487 heartbeat IPC: 0.07780 cumulative IPC: 0.38504 (Simulation time: 0 hr 6 min 31 sec) 
Heartbeat CPU  0 instructions:  154000000 cycles:  212394397 heartbeat IPC: 0.20202 cumulative IPC: 0.37869 (Simulation time: 0 hr 6 min 34 sec) 
Heartbeat CPU  0 instructions:  155000000 cycles:  214275297 heartbeat IPC: 0.53166 cumulative IPC: 0.38068 (Simulation time: 0 hr 6 min 37 sec) 
Heartbeat CPU  0 instructions:  156000000 cycles:  216047088 heartbeat IPC: 0.56440 cumulative IPC: 0.38291 (Simulation time: 0 hr 6 min 40 sec) 
Heartbeat CPU  0 instructions:  157000001 cycles:  217969211 heartbeat IPC: 0.52026 cumulative IPC: 0.38469 (Simulation time: 0 hr 6 min 42 sec) 
Heartbeat CPU  0 instructions:  158000001 cycles:  219890797 heartbeat IPC: 0.52040 cumulative IPC: 0.38643 (Simulation time: 0 hr 6 min 45 sec) 
Heartbeat CPU  0 instructions:  159000000 cycles:  221644167 heartbeat IPC: 0.57033 cumulative IPC: 0.38855 (Simulation time: 0 hr 6 min 48 sec) 
Heartbeat CPU  0 instructions:  160000000 cycles:  223546895 heartbeat IPC: 0.52556 cumulative IPC: 0.39025 (Simulation time: 0 hr 6 min 51 sec) 
Heartbeat CPU  0 instructions:  161000003 cycles:  225476047 heartbeat IPC: 0.51836 cumulative IPC: 0.39183 (Simulation time: 0 hr 6 min 54 sec) 
Heartbeat CPU  0 instructions:  162000000 cycles:  227298450 heartbeat IPC: 0.54872 cumulative IPC: 0.39365 (Simulation time: 0 hr 6 min 56 sec) 
Heartbeat CPU  0 instructions:  163000003 cycles:  229122388 heartbeat IPC: 0.54827 cumulative IPC: 0.39542 (Simulation time: 0 hr 6 min 59 sec) 
Heartbeat CPU  0 instructions:  164000000 cycles:  231045065 heartbeat IPC: 0.52011 cumulative IPC: 0.39690 (Simulation time: 0 hr 7 min 2 sec) 
Heartbeat CPU  0 instructions:  165000000 cycles:  232951019 heartbeat IPC: 0.52467 cumulative IPC: 0.39840 (Simulation time: 0 hr 7 min 5 sec) 
Heartbeat CPU  0 instructions:  166000001 cycles:  234703396 heartbeat IPC: 0.57065 cumulative IPC: 0.40023 (Simulation time: 0 hr 7 min 8 sec) 
Heartbeat CPU  0 instructions:  167000000 cycles:  236618312 heartbeat IPC: 0.52222 cumulative IPC: 0.40163 (Simulation time: 0 hr 7 min 10 sec) 
Heartbeat CPU  0 instructions:  168000000 cycles:  238542159 heartbeat IPC: 0.51979 cumulative IPC: 0.40298 (Simulation time: 0 hr 7 min 13 sec) 
Heartbeat CPU  0 instructions:  169000001 cycles:  240303586 heartbeat IPC: 0.56772 cumulative IPC: 0.40468 (Simulation time: 0 hr 7 min 16 sec) 
Heartbeat CPU  0 instructions:  170000002 cycles:  242183799 heartbeat IPC: 0.53186 cumulative IPC: 0.40606 (Simulation time: 0 hr 7 min 19 sec) 
Heartbeat CPU  0 instructions:  171000001 cycles:  244114084 heartbeat IPC: 0.51806 cumulative IPC: 0.40730 (Simulation time: 0 hr 7 min 21 sec) 
Heartbeat CPU  0 instructions:  172000000 cycles:  245948365 heartbeat IPC: 0.54517 cumulative IPC: 0.40874 (Simulation time: 0 hr 7 min 24 sec) 
Heartbeat CPU  0 instructions:  173000000 cycles:  247754452 heartbeat IPC: 0.55368 cumulative IPC: 0.41021 (Simulation time: 0 hr 7 min 27 sec) 
Heartbeat CPU  0 instructions:  174000003 cycles:  249682947 heartbeat IPC: 0.51854 cumulative IPC: 0.41137 (Simulation time: 0 hr 7 min 30 sec) 
Heartbeat CPU  0 instructions:  175000000 cycles:  256891274 heartbeat IPC: 0.13873 cumulative IPC: 0.40087 (Simulation time: 0 hr 7 min 33 sec) 
Heartbeat CPU  0 instructions:  176000000 cycles:  267191948 heartbeat IPC: 0.09708 cumulative IPC: 0.38502 (Simulation time: 0 hr 7 min 36 sec) 
Heartbeat CPU  0 instructions:  177000001 cycles:  269186787 heartbeat IPC: 0.50129 cumulative IPC: 0.38618 (Simulation time: 0 hr 7 min 39 sec) 
Heartbeat CPU  0 instructions:  178000003 cycles:  271262145 heartbeat IPC: 0.48185 cumulative IPC: 0.38716 (Simulation time: 0 hr 7 min 42 sec) 
Heartbeat CPU  0 instructions:  179000002 cycles:  273200407 heartbeat IPC: 0.51593 cumulative IPC: 0.38839 (Simulation time: 0 hr 7 min 45 sec) 
Heartbeat CPU  0 instructions:  180000000 cycles:  275114488 heartbeat IPC: 0.52244 cumulative IPC: 0.38964 (Simulation time: 0 hr 7 min 48 sec) 
Heartbeat CPU  0 instructions:  181000003 cycles:  277055337 heartbeat IPC: 0.51524 cumulative IPC: 0.39082 (Simulation time: 0 hr 7 min 50 sec) 
Heartbeat CPU  0 instructions:  182000003 cycles:  278911660 heartbeat IPC: 0.53870 cumulative IPC: 0.39213 (Simulation time: 0 hr 7 min 53 sec) 
Heartbeat CPU  0 instructions:  183000000 cycles:  280750596 heartbeat IPC: 0.54379 cumulative IPC: 0.39345 (Simulation time: 0 hr 7 min 56 sec) 
Heartbeat CPU  0 instructions:  184000000 cycles:  282687534 heartbeat IPC: 0.51628 cumulative IPC: 0.39457 (Simulation time: 0 hr 7 min 59 sec) 
Heartbeat CPU  0 instructions:  185000002 cycles:  284614384 heartbeat IPC: 0.51898 cumulative IPC: 0.39569 (Simulation time: 0 hr 8 min 1 sec) 
Heartbeat CPU  0 instructions:  186000001 cycles:  286398475 heartbeat IPC: 0.56051 cumulative IPC: 0.39704 (Simulation time: 0 hr 8 min 4 sec) 
Heartbeat CPU  0 instructions:  187000000 cycles:  288324279 heartbeat IPC: 0.51926 cumulative IPC: 0.39812 (Simulation time: 0 hr 8 min 7 sec) 
Heartbeat CPU  0 instructions:  188000000 cycles:  290264088 heartbeat IPC: 0.51551 cumulative IPC: 0.39915 (Simulation time: 0 hr 8 min 10 sec) 
Heartbeat CPU  0 instructions:  189000000 cycles:  292063576 heartbeat IPC: 0.55571 cumulative IPC: 0.40042 (Simulation time: 0 hr 8 min 13 sec) 
Heartbeat CPU  0 instructions:  190000000 cycles:  293957550 heartbeat IPC: 0.52799 cumulative IPC: 0.40150 (Simulation time: 0 hr 8 min 15 sec) 
Heartbeat CPU  0 instructions:  191000000 cycles:  295900399 heartbeat IPC: 0.51471 cumulative IPC: 0.40247 (Simulation time: 0 hr 8 min 18 sec) 
Heartbeat CPU  0 instructions:  192000000 cycles:  297770828 heartbeat IPC: 0.53464 cumulative IPC: 0.40356 (Simulation time: 0 hr 8 min 21 sec) 
Heartbeat CPU  0 instructions:  193000001 cycles:  299591497 heartbeat IPC: 0.54925 cumulative IPC: 0.40471 (Simulation time: 0 hr 8 min 24 sec) 
Heartbeat CPU  0 instructions:  194000000 cycles:  301528977 heartbeat IPC: 0.51613 cumulative IPC: 0.40564 (Simulation time: 0 hr 8 min 26 sec) 
Heartbeat CPU  0 instructions:  195000002 cycles:  303457180 heartbeat IPC: 0.51862 cumulative IPC: 0.40657 (Simulation time: 0 hr 8 min 29 sec) 
Heartbeat CPU  0 instructions:  196000000 cycles:  305236784 heartbeat IPC: 0.56192 cumulative IPC: 0.40775 (Simulation time: 0 hr 8 min 32 sec) 
Heartbeat CPU  0 instructions:  197000000 cycles:  307269960 heartbeat IPC: 0.49184 cumulative IPC: 0.40847 (Simulation time: 0 hr 8 min 35 sec) 
Heartbeat CPU  0 instructions:  198000003 cycles:  321636908 heartbeat IPC: 0.06960 cumulative IPC: 0.38914 (Simulation time: 0 hr 8 min 39 sec) 
Heartbeat CPU  0 instructions:  199000001 cycles:  324762319 heartbeat IPC: 0.31996 cumulative IPC: 0.38829 (Simulation time: 0 hr 8 min 42 sec) 
Heartbeat CPU  0 instructions:  200000000 cycles:  326665807 heartbeat IPC: 0.52535 cumulative IPC: 0.38930 (Simulation time: 0 hr 8 min 44 sec) 
Heartbeat CPU  0 instructions:  201000002 cycles:  328608085 heartbeat IPC: 0.51486 cumulative IPC: 0.39025 (Simulation time: 0 hr 8 min 47 sec) 
Heartbeat CPU  0 instructions:  202000003 cycles:  330480688 heartbeat IPC: 0.53402 cumulative IPC: 0.39128 (Simulation time: 0 hr 8 min 50 sec) 
Heartbeat CPU  0 instructions:  203000002 cycles:  332300703 heartbeat IPC: 0.54945 cumulative IPC: 0.39238 (Simulation time: 0 hr 8 min 53 sec) 
Heartbeat CPU  0 instructions:  204000000 cycles:  334245863 heartbeat IPC: 0.51410 cumulative IPC: 0.39327 (Simulation time: 0 hr 8 min 56 sec) 
Heartbeat CPU  0 instructions:  205000002 cycles:  336169049 heartbeat IPC: 0.51997 cumulative IPC: 0.39419 (Simulation time: 0 hr 8 min 58 sec) 
Heartbeat CPU  0 instructions:  206000000 cycles:  337957813 heartbeat IPC: 0.55904 cumulative IPC: 0.39529 (Simulation time: 0 hr 9 min 1 sec) 
Heartbeat CPU  0 instructions:  207000002 cycles:  339881667 heartbeat IPC: 0.51979 cumulative IPC: 0.39617 (Simulation time: 0 hr 9 min 4 sec) 
Heartbeat CPU  0 instructions:  208000000 cycles:  341814151 heartbeat IPC: 0.51747 cumulative IPC: 0.39703 (Simulation time: 0 hr 9 min 7 sec) 
Heartbeat CPU  0 instructions:  209000002 cycles:  343630784 heartbeat IPC: 0.55047 cumulative IPC: 0.39805 (Simulation time: 0 hr 9 min 10 sec) 
Heartbeat CPU  0 instructions:  210000000 cycles:  345513879 heartbeat IPC: 0.53104 cumulative IPC: 0.39896 (Simulation time: 0 hr 9 min 12 sec) 
Heartbeat CPU  0 instructions:  211000003 cycles:  347451876 heartbeat IPC: 0.51600 cumulative IPC: 0.39978 (Simulation time: 0 hr 9 min 15 sec) 
Heartbeat CPU  0 instructions:  212000000 cycles:  349342424 heartbeat IPC: 0.52895 cumulative IPC: 0.40065 (Simulation time: 0 hr 9 min 18 sec) 
Heartbeat CPU  0 instructions:  213000003 cycles:  351145924 heartbeat IPC: 0.55448 cumulative IPC: 0.40164 (Simulation time: 0 hr 9 min 21 sec) 
Heartbeat CPU  0 instructions:  214000003 cycles:  353083077 heartbeat IPC: 0.51622 cumulative IPC: 0.40242 (Simulation time: 0 hr 9 min 23 sec) 
Heartbeat CPU  0 instructions:  215000003 cycles:  355010516 heartbeat IPC: 0.51882 cumulative IPC: 0.40321 (Simulation time: 0 hr 9 min 26 sec) 
Heartbeat CPU  0 instructions:  216000000 cycles:  356801181 heartbeat IPC: 0.55845 cumulative IPC: 0.40418 (Simulation time: 0 hr 9 min 29 sec) 
Heartbeat CPU  0 instructions:  217000002 cycles:  358714842 heartbeat IPC: 0.52256 cumulative IPC: 0.40496 (Simulation time: 0 hr 9 min 32 sec) 
Heartbeat CPU  0 instructions:  218000001 cycles:  360653560 heartbeat IPC: 0.51580 cumulative IPC: 0.40570 (Simulation time: 0 hr 9 min 34 sec) 
Heartbeat CPU  0 instructions:  219000002 cycles:  362484989 heartbeat IPC: 0.54602 cumulative IPC: 0.40658 (Simulation time: 0 hr 9 min 37 sec) 
Heartbeat CPU  0 instructions:  220000000 cycles:  371475360 heartbeat IPC: 0.11123 cumulative IPC: 0.39778 (Simulation time: 0 hr 9 min 41 sec) 
Heartbeat CPU  0 instructions:  221000000 cycles:  380213275 heartbeat IPC: 0.11444 cumulative IPC: 0.38980 (Simulation time: 0 hr 9 min 44 sec) 
Heartbeat CPU  0 instructions:  222000000 cycles:  382108988 heartbeat IPC: 0.52751 cumulative IPC: 0.39064 (Simulation time: 0 hr 9 min 47 sec) 
Heartbeat CPU  0 instructions:  223000001 cycles:  383913797 heartbeat IPC: 0.55408 cumulative IPC: 0.39157 (Simulation time: 0 hr 9 min 50 sec) 
Heartbeat CPU  0 instructions:  224000000 cycles:  385853281 heartbeat IPC: 0.51560 cumulative IPC: 0.39234 (Simulation time: 0 hr 9 min 52 sec) 
Heartbeat CPU  0 instructions:  225000002 cycles:  387790355 heartbeat IPC: 0.51624 cumulative IPC: 0.39309 (Simulation time: 0 hr 9 min 55 sec) 
Heartbeat CPU  0 instructions:  226000002 cycles:  389574829 heartbeat IPC: 0.56039 cumulative IPC: 0.39402 (Simulation time: 0 hr 9 min 58 sec) 
Heartbeat CPU  0 instructions:  227000003 cycles:  391494746 heartbeat IPC: 0.52086 cumulative IPC: 0.39478 (Simulation time: 0 hr 10 min 1 sec) 
Heartbeat CPU  0 instructions:  228000000 cycles:  393435253 heartbeat IPC: 0.51533 cumulative IPC: 0.39550 (Simulation time: 0 hr 10 min 4 sec) 
Heartbeat CPU  0 instructions:  229000003 cycles:  395403200 heartbeat IPC: 0.50815 cumulative IPC: 0.39618 (Simulation time: 0 hr 10 min 6 sec) 
Heartbeat CPU  0 instructions:  230000001 cycles:  397264244 heartbeat IPC: 0.53733 cumulative IPC: 0.39699 (Simulation time: 0 hr 10 min 9 sec) 
Heartbeat CPU  0 instructions:  231000003 cycles:  399204734 heartbeat IPC: 0.51533 cumulative IPC: 0.39768 (Simulation time: 0 hr 10 min 12 sec) 
Heartbeat CPU  0 instructions:  232000000 cycles:  401106445 heartbeat IPC: 0.52584 cumulative IPC: 0.39842 (Simulation time: 0 hr 10 min 15 sec) 
Heartbeat CPU  0 instructions:  233000002 cycles:  402904155 heartbeat IPC: 0.55626 cumulative IPC: 0.39927 (Simulation time: 0 hr 10 min 17 sec) 
Heartbeat CPU  0 instructions:  234000001 cycles:  404836490 heartbeat IPC: 0.51751 cumulative IPC: 0.39995 (Simulation time: 0 hr 10 min 20 sec) 
Heartbeat CPU  0 instructions:  235000003 cycles:  406766575 heartbeat IPC: 0.51811 cumulative IPC: 0.40063 (Simulation time: 0 hr 10 min 23 sec) 
Heartbeat CPU  0 instructions:  236000000 cycles:  408557311 heartbeat IPC: 0.55843 cumulative IPC: 0.40146 (Simulation time: 0 hr 10 min 26 sec) 
Heartbeat CPU  0 instructions:  237000002 cycles:  410470416 heartbeat IPC: 0.52271 cumulative IPC: 0.40215 (Simulation time: 0 hr 10 min 29 sec) 
Heartbeat CPU  0 instructions:  238000002 cycles:  412409676 heartbeat IPC: 0.51566 cumulative IPC: 0.40279 (Simulation time: 0 hr 10 min 31 sec) 
Heartbeat CPU  0 instructions:  239000001 cycles:  414258281 heartbeat IPC: 0.54095 cumulative IPC: 0.40353 (Simulation time: 0 hr 10 min 34 sec) 
Heartbeat CPU  0 instructions:  240000000 cycles:  416101012 heartbeat IPC: 0.54267 cumulative IPC: 0.40427 (Simulation time: 0 hr 10 min 37 sec) 
Heartbeat CPU  0 instructions:  241000003 cycles:  418044294 heartbeat IPC: 0.51459 cumulative IPC: 0.40489 (Simulation time: 0 hr 10 min 40 sec) 
Heartbeat CPU  0 instructions:  242000002 cycles:  421768140 heartbeat IPC: 0.26854 cumulative IPC: 0.40344 (Simulation time: 0 hr 10 min 43 sec) 
Heartbeat CPU  0 instructions:  243000003 cycles:  435921208 heartbeat IPC: 0.07066 cumulative IPC: 0.39058 (Simulation time: 0 hr 10 min 46 sec) 
Heartbeat CPU  0 instructions:  244000000 cycles:  437851941 heartbeat IPC: 0.51794 cumulative IPC: 0.39125 (Simulation time: 0 hr 10 min 49 sec) 
Heartbeat CPU  0 instructions:  245000000 cycles:  439789428 heartbeat IPC: 0.51613 cumulative IPC: 0.39190 (Simulation time: 0 hr 10 min 52 sec) 
Heartbeat CPU  0 instructions:  246000000 cycles:  441584454 heartbeat IPC: 0.55709 cumulative IPC: 0.39270 (Simulation time: 0 hr 10 min 55 sec) 
Heartbeat CPU  0 instructions:  247000000 cycles:  443491012 heartbeat IPC: 0.52451 cumulative IPC: 0.39337 (Simulation time: 0 hr 10 min 58 sec) 
Heartbeat CPU  0 instructions:  248000000 cycles:  445432804 heartbeat IPC: 0.51499 cumulative IPC: 0.39400 (Simulation time: 0 hr 11 min 0 sec) 
Heartbeat CPU  0 instructions:  249000001 cycles:  447285113 heartbeat IPC: 0.53987 cumulative IPC: 0.39471 (Simulation time: 0 hr 11 min 3 sec) 
Heartbeat CPU  0 instructions:  250000003 cycles:  449129757 heartbeat IPC: 0.54211 cumulative IPC: 0.39543 (Simulation time: 0 hr 11 min 6 sec) 
Heartbeat CPU  0 instructions:  251000002 cycles:  451069836 heartbeat IPC: 0.51544 cumulative IPC: 0.39604 (Simulation time: 0 hr 11 min 9 sec) 
Heartbeat CPU  0 instructions:  252000000 cycles:  452994228 heartbeat IPC: 0.51964 cumulative IPC: 0.39666 (Simulation time: 0 hr 11 min 12 sec) 
Heartbeat CPU  0 instructions:  253000000 cycles:  454778026 heartbeat IPC: 0.56060 cumulative IPC: 0.39742 (Simulation time: 0 hr 11 min 14 sec) 
Heartbeat CPU  0 instructions:  254000002 cycles:  456709444 heartbeat IPC: 0.51776 cumulative IPC: 0.39802 (Simulation time: 0 hr 11 min 17 sec) 
Heartbeat CPU  0 instructions:  255000000 cycles:  458656070 heartbeat IPC: 0.51371 cumulative IPC: 0.39860 (Simulation time: 0 hr 11 min 20 sec) 
Heartbeat CPU  0 instructions:  256000000 cycles:  460443880 heartbeat IPC: 0.55934 cumulative IPC: 0.39934 (Simulation time: 0 hr 11 min 23 sec) 
Heartbeat CPU  0 instructions:  257000000 cycles:  462347563 heartbeat IPC: 0.52530 cumulative IPC: 0.39995 (Simulation time: 0 hr 11 min 25 sec) 
Heartbeat CPU  0 instructions:  258000003 cycles:  464290167 heartbeat IPC: 0.51477 cumulative IPC: 0.40051 (Simulation time: 0 hr 11 min 28 sec) 
Heartbeat CPU  0 instructions:  259000000 cycles:  466156132 heartbeat IPC: 0.53591 cumulative IPC: 0.40115 (Simulation time: 0 hr 11 min 31 sec) 
Heartbeat CPU  0 instructions:  260000000 cycles:  467981956 heartbeat IPC: 0.54770 cumulative IPC: 0.40182 (Simulation time: 0 hr 11 min 34 sec) 
Heartbeat CPU  0 instructions:  261000000 cycles:  469917668 heartbeat IPC: 0.51661 cumulative IPC: 0.40238 (Simulation time: 0 hr 11 min 36 sec) 
Heartbeat CPU  0 instructions:  262000002 cycles:  471841655 heartbeat IPC: 0.51976 cumulative IPC: 0.40294 (Simulation time: 0 hr 11 min 39 sec) 
Heartbeat CPU  0 instructions:  263000001 cycles:  473626456 heartbeat IPC: 0.56029 cumulative IPC: 0.40364 (Simulation time: 0 hr 11 min 42 sec) 
Heartbeat CPU  0 instructions:  264000000 cycles:  475549076 heartbeat IPC: 0.52012 cumulative IPC: 0.40419 (Simulation time: 0 hr 11 min 45 sec) 
Heartbeat CPU  0 instructions:  265000002 cycles:  486393428 heartbeat IPC: 0.09221 cumulative IPC: 0.39607 (Simulation time: 0 hr 11 min 48 sec) 
Heartbeat CPU  0 instructions:  266000001 cycles:  493216179 heartbeat IPC: 0.14657 cumulative IPC: 0.39205 (Simulation time: 0 hr 11 min 52 sec) 
Heartbeat CPU  0 instructions:  267000002 cycles:  495118120 heartbeat IPC: 0.52578 cumulative IPC: 0.39264 (Simulation time: 0 hr 11 min 54 sec) 
Heartbeat CPU  0 instructions:  268000000 cycles:  497063000 heartbeat IPC: 0.51417 cumulative IPC: 0.39320 (Simulation time: 0 hr 11 min 57 sec) 
Heartbeat CPU  0 instructions:  269000000 cycles:  498935878 heartbeat IPC: 0.53394 cumulative IPC: 0.39381 (Simulation time: 0 hr 12 min 0 sec) 
Heartbeat CPU  0 instructions:  270000003 cycles:  500764119 heartbeat IPC: 0.54698 cumulative IPC: 0.39446 (Simulation time: 0 hr 12 min 3 sec) 
Heartbeat CPU  0 instructions:  271000002 cycles:  502705794 heartbeat IPC: 0.51502 cumulative IPC: 0.39500 (Simulation time: 0 hr 12 min 6 sec) 
Heartbeat CPU  0 instructions:  272000000 cycles:  504634437 heartbeat IPC: 0.51850 cumulative IPC: 0.39555 (Simulation time: 0 hr 12 min 8 sec) 
Heartbeat CPU  0 instructions:  273000002 cycles:  506423424 heartbeat IPC: 0.55898 cumulative IPC: 0.39622 (Simulation time: 0 hr 12 min 11 sec) 
Heartbeat CPU  0 instructions:  274000000 cycles:  508342514 heartbeat IPC: 0.52108 cumulative IPC: 0.39677 (Simulation time: 0 hr 12 min 14 sec) 
Heartbeat CPU  0 instructions:  275000000 cycles:  510280726 heartbeat IPC: 0.51594 cumulative IPC: 0.39729 (Simulation time: 0 hr 12 min 17 sec) 
Heartbeat CPU  0 instructions:  276000000 cycles:  512090940 heartbeat IPC: 0.55242 cumulative IPC: 0.39793 (Simulation time: 0 hr 12 min 20 sec) 
Heartbeat CPU  0 instructions:  277000001 cycles:  513975327 heartbeat IPC: 0.53068 cumulative IPC: 0.39849 (Simulation time: 0 hr 12 min 22 sec) 
Heartbeat CPU  0 instructions:  278000000 cycles:  515915910 heartbeat IPC: 0.51531 cumulative IPC: 0.39900 (Simulation time: 0 hr 12 min 25 sec) 
Heartbeat CPU  0 instructions:  279000003 cycles:  517920506 heartbeat IPC: 0.49886 cumulative IPC: 0.39944 (Simulation time: 0 hr 12 min 28 sec) 
Heartbeat CPU  0 instructions:  280000000 cycles:  519838019 heartbeat IPC: 0.52151 cumulative IPC: 0.39996 (Simulation time: 0 hr 12 min 31 sec) 
Heartbeat CPU  0 instructions:  281000002 cycles:  521892843 heartbeat IPC: 0.48666 cumulative IPC: 0.40036 (Simulation time: 0 hr 12 min 34 sec) 
Heartbeat CPU  0 instructions:  282000002 cycles:  523825967 heartbeat IPC: 0.51730 cumulative IPC: 0.40086 (Simulation time: 0 hr 12 min 36 sec) 
Heartbeat CPU  0 instructions:  283000000 cycles:  525604945 heartbeat IPC: 0.56212 cumulative IPC: 0.40149 (Simulation time: 0 hr 12 min 39 sec) 
Heartbeat CPU  0 instructions:  284000000 cycles:  527525811 heartbeat IPC: 0.52060 cumulative IPC: 0.40199 (Simulation time: 0 hr 12 min 42 sec) 
Heartbeat CPU  0 instructions:  285000001 cycles:  529467290 heartbeat IPC: 0.51507 cumulative IPC: 0.40246 (Simulation time: 0 hr 12 min 45 sec) 
Heartbeat CPU  0 instructions:  286000003 cycles:  531290874 heartbeat IPC: 0.54837 cumulative IPC: 0.40304 (Simulation time: 0 hr 12 min 47 sec) 
Heartbeat CPU  0 instructions:  287000002 cycles:  536862836 heartbeat IPC: 0.17947 cumulative IPC: 0.40037 (Simulation time: 0 hr 12 min 51 sec) 
Heartbeat CPU  0 instructions:  288000000 cycles:  548950643 heartbeat IPC: 0.08273 cumulative IPC: 0.39236 (Simulation time: 0 hr 12 min 54 sec) 
Heartbeat CPU  0 instructions:  289000003 cycles:  550839501 heartbeat IPC: 0.52942 cumulative IPC: 0.39290 (Simulation time: 0 hr 12 min 57 sec) 
Heartbeat CPU  0 instructions:  290000003 cycles:  552651468 heartbeat IPC: 0.55189 cumulative IPC: 0.39349 (Simulation time: 0 hr 13 min 0 sec) 
Heartbeat CPU  0 instructions:  291000002 cycles:  554589094 heartbeat IPC: 0.51609 cumulative IPC: 0.39398 (Simulation time: 0 hr 13 min 3 sec) 
Heartbeat CPU  0 instructions:  292000000 cycles:  556515613 heartbeat IPC: 0.51907 cumulative IPC: 0.39448 (Simulation time: 0 hr 13 min 6 sec) 
Heartbeat CPU  0 instructions:  293000001 cycles:  558312228 heartbeat IPC: 0.55660 cumulative IPC: 0.39507 (Simulation time: 0 hr 13 min 8 sec) 
Heartbeat CPU  0 instructions:  294000000 cycles:  560230059 heartbeat IPC: 0.52142 cumulative IPC: 0.39557 (Simulation time: 0 hr 13 min 11 sec) 
Heartbeat CPU  0 instructions:  295000002 cycles:  562173840 heartbeat IPC: 0.51446 cumulative IPC: 0.39604 (Simulation time: 0 hr 13 min 14 sec) 
Heartbeat CPU  0 instructions:  296000000 cycles:  564001025 heartbeat IPC: 0.54729 cumulative IPC: 0.39660 (Simulation time: 0 hr 13 min 17 sec) 
Heartbeat CPU  0 instructions:  297000001 cycles:  565866243 heartbeat IPC: 0.53613 cumulative IPC: 0.39712 (Simulation time: 0 hr 13 min 19 sec) 
Heartbeat CPU  0 instructions:  298000003 cycles:  567803745 heartbeat IPC: 0.51613 cumulative IPC: 0.39759 (Simulation time: 0 hr 13 min 22 sec) 
Heartbeat CPU  0 instructions:  299000000 cycles:  569708589 heartbeat IPC: 0.52498 cumulative IPC: 0.39807 (Simulation time: 0 hr 13 min 25 sec) 
Heartbeat CPU  0 instructions:  300000000 cycles:  571507075 heartbeat IPC: 0.55602 cumulative IPC: 0.39864 (Simulation time: 0 hr 13 min 28 sec) 
Heartbeat CPU  0 instructions:  301000003 cycles:  573436480 heartbeat IPC: 0.51830 cumulative IPC: 0.39910 (Simulation time: 0 hr 13 min 31 sec) 
Heartbeat CPU  0 instructions:  302000000 cycles:  575371534 heartbeat IPC: 0.51678 cumulative IPC: 0.39955 (Simulation time: 0 hr 13 min 33 sec) 
Heartbeat CPU  0 instructions:  303000000 cycles:  577160701 heartbeat IPC: 0.55892 cumulative IPC: 0.40011 (Simulation time: 0 hr 13 min 36 sec) 
Heartbeat CPU  0 instructions:  304000000 cycles:  579066997 heartbeat IPC: 0.52458 cumulative IPC: 0.40057 (Simulation time: 0 hr 13 min 39 sec) 
Heartbeat CPU  0 instructions:  305000000 cycles:  581011299 heartbeat IPC: 0.51432 cumulative IPC: 0.40101 (Simulation time: 0 hr 13 min 42 sec) 
Heartbeat CPU  0 instructions:  306000002 cycles:  582855042 heartbeat IPC: 0.54238 cumulative IPC: 0.40151 (Simulation time: 0 hr 13 min 44 sec) 
Heartbeat CPU  0 instructions:  307000003 cycles:  584697951 heartbeat IPC: 0.54262 cumulative IPC: 0.40202 (Simulation time: 0 hr 13 min 47 sec) 
Heartbeat CPU  0 instructions:  308000000 cycles:  586638331 heartbeat IPC: 0.51536 cumulative IPC: 0.40244 (Simulation time: 0 hr 13 min 50 sec) 
Heartbeat CPU  0 instructions:  309000003 cycles:  588558454 heartbeat IPC: 0.52080 cumulative IPC: 0.40288 (Simulation time: 0 hr 13 min 53 sec) 
Heartbeat CPU  0 instructions:  310000002 cycles:  601202292 heartbeat IPC: 0.07909 cumulative IPC: 0.39518 (Simulation time: 0 hr 13 min 57 sec) 
Heartbeat CPU  0 instructions:  311000000 cycles:  606084848 heartbeat IPC: 0.20481 cumulative IPC: 0.39345 (Simulation time: 0 hr 14 min 0 sec) 
Heartbeat CPU  0 instructions:  312000000 cycles:  608024400 heartbeat IPC: 0.51558 cumulative IPC: 0.39389 (Simulation time: 0 hr 14 min 3 sec) 
Heartbeat CPU  0 instructions:  313000003 cycles:  609811434 heartbeat IPC: 0.55959 cumulative IPC: 0.39443 (Simulation time: 0 hr 14 min 5 sec) 
Heartbeat CPU  0 instructions:  314000003 cycles:  611726484 heartbeat IPC: 0.52218 cumulative IPC: 0.39489 (Simulation time: 0 hr 14 min 8 sec) 
Heartbeat CPU  0 instructions:  315000000 cycles:  613666877 heartbeat IPC: 0.51536 cumulative IPC: 0.39532 (Simulation time: 0 hr 14 min 11 sec) 
Heartbeat CPU  0 instructions:  316000000 cycles:  615508821 heartbeat IPC: 0.54290 cumulative IPC: 0.39581 (Simulation time: 0 hr 14 min 14 sec) 
Heartbeat CPU  0 instructions:  317000001 cycles:  617356185 heartbeat IPC: 0.54131 cumulative IPC: 0.39630 (Simulation time: 0 hr 14 min 17 sec) 
Heartbeat CPU  0 instructions:  318000002 cycles:  619298029 heartbeat IPC: 0.51497 cumulative IPC: 0.39672 (Simulation time: 0 hr 14 min 19 sec) 
Heartbeat CPU  0 instructions:  319000001 cycles:  621215796 heartbeat IPC: 0.52144 cumulative IPC: 0.39716 (Simulation time: 0 hr 14 min 22 sec) 
Heartbeat CPU  0 instructions:  320000000 cycles:  623003080 heartbeat IPC: 0.55951 cumulative IPC: 0.39768 (Simulation time: 0 hr 14 min 25 sec) 
Heartbeat CPU  0 instructions:  321000002 cycles:  624932650 heartbeat IPC: 0.51825 cumulative IPC: 0.39810 (Simulation time: 0 hr 14 min 28 sec) 
Heartbeat CPU  0 instructions:  322000001 cycles:  626869590 heartbeat IPC: 0.51628 cumulative IPC: 0.39851 (Simulation time: 0 hr 14 min 30 sec) 
Heartbeat CPU  0 instructions:  323000002 cycles:  628661973 heartbeat IPC: 0.55792 cumulative IPC: 0.39902 (Simulation time: 0 hr 14 min 33 sec) 
Heartbeat CPU  0 instructions:  324000000 cycles:  630563028 heartbeat IPC: 0.52602 cumulative IPC: 0.39945 (Simulation time: 0 hr 14 min 36 sec) 
Heartbeat CPU  0 instructions:  325000001 cycles:  632501076 heartbeat IPC: 0.51598 cumulative IPC: 0.39986 (Simulation time: 0 hr 14 min 39 sec) 
Heartbeat CPU  0 instructions:  326000002 cycles:  634364582 heartbeat IPC: 0.53662 cumulative IPC: 0.40031 (Simulation time: 0 hr 14 min 42 sec) 
Heartbeat CPU  0 instructions:  327000002 cycles:  636192529 heartbeat IPC: 0.54706 cumulative IPC: 0.40078 (Simulation time: 0 hr 14 min 44 sec) 
Heartbeat CPU  0 instructions:  328000000 cycles:  638130718 heartbeat IPC: 0.51594 cumulative IPC: 0.40117 (Simulation time: 0 hr 14 min 47 sec) 
Heartbeat CPU  0 instructions:  329000002 cycles:  640056639 heartbeat IPC: 0.51923 cumulative IPC: 0.40157 (Simulation time: 0 hr 14 min 50 sec) 
Heartbeat CPU  0 instructions:  330000001 cycles:  641848167 heartbeat IPC: 0.55818 cumulative IPC: 0.40206 (Simulation time: 0 hr 14 min 53 sec) 
Heartbeat CPU  0 instructions:  331000002 cycles:  643887794 heartbeat IPC: 0.49029 cumulative IPC: 0.40238 (Simulation time: 0 hr 14 min 55 sec) 
Heartbeat CPU  0 instructions:  332000000 cycles:  651224504 heartbeat IPC: 0.13630 cumulative IPC: 0.39902 (Simulation time: 0 hr 14 min 59 sec) 
Heartbeat CPU  0 instructions:  333000000 cycles:  661442073 heartbeat IPC: 0.09787 cumulative IPC: 0.39382 (Simulation time: 0 hr 15 min 3 sec) 
Heartbeat CPU  0 instructions:  334000001 cycles:  663348487 heartbeat IPC: 0.52455 cumulative IPC: 0.39424 (Simulation time: 0 hr 15 min 6 sec) 
Heartbeat CPU  0 instructions:  335000001 cycles:  665294394 heartbeat IPC: 0.51390 cumulative IPC: 0.39463 (Simulation time: 0 hr 15 min 9 sec) 
Heartbeat CPU  0 instructions:  336000000 cycles:  667157674 heartbeat IPC: 0.53669 cumulative IPC: 0.39507 (Simulation time: 0 hr 15 min 12 sec) 
Heartbeat CPU  0 instructions:  337000003 cycles:  668986203 heartbeat IPC: 0.54689 cumulative IPC: 0.39553 (Simulation time: 0 hr 15 min 15 sec) 
Heartbeat CPU  0 instructions:  338000002 cycles:  670930912 heartbeat IPC: 0.51422 cumulative IPC: 0.39592 (Simulation time: 0 hr 15 min 18 sec) 
Heartbeat CPU  0 instructions:  339000000 cycles:  672856736 heartbeat IPC: 0.51926 cumulative IPC: 0.39631 (Simulation time: 0 hr 15 min 21 sec) 
Heartbeat CPU  0 instructions:  340000000 cycles:  674636477 heartbeat IPC: 0.56188 cumulative IPC: 0.39680 (Simulation time: 0 hr 15 min 24 sec) 
Heartbeat CPU  0 instructions:  341000000 cycles:  676563290 heartbeat IPC: 0.51899 cumulative IPC: 0.39719 (Simulation time: 0 hr 15 min 27 sec) 
Heartbeat CPU  0 instructions:  342000001 cycles:  678498923 heartbeat IPC: 0.51663 cumulative IPC: 0.39757 (Simulation time: 0 hr 15 min 30 sec) 
Heartbeat CPU  0 instructions:  343000000 cycles:  680298110 heartbeat IPC: 0.55581 cumulative IPC: 0.39803 (Simulation time: 0 hr 15 min 33 sec) 
Heartbeat CPU  0 instructions:  344000000 cycles:  682190961 heartbeat IPC: 0.52830 cumulative IPC: 0.39844 (Simulation time: 0 hr 15 min 36 sec) 
Heartbeat CPU  0 instructions:  345000000 cycles:  684126128 heartbeat IPC: 0.51675 cumulative IPC: 0.39881 (Simulation time: 0 hr 15 min 39 sec) 
Heartbeat CPU  0 instructions:  346000001 cycles:  686005831 heartbeat IPC: 0.53200 cumulative IPC: 0.39922 (Simulation time: 0 hr 15 min 42 sec) 
Heartbeat CPU  0 instructions:  347000000 cycles:  687817214 heartbeat IPC: 0.55206 cumulative IPC: 0.39966 (Simulation time: 0 hr 15 min 46 sec) 
Heartbeat CPU  0 instructions:  348000000 cycles:  689751358 heartbeat IPC: 0.51702 cumulative IPC: 0.40003 (Simulation time: 0 hr 15 min 49 sec) 
Heartbeat CPU  0 instructions:  349000001 cycles:  691680732 heartbeat IPC: 0.51830 cumulative IPC: 0.40040 (Simulation time: 0 hr 15 min 52 sec) 
Heartbeat CPU  0 instructions:  350000003 cycles:  693466393 heartbeat IPC: 0.56002 cumulative IPC: 0.40085 (Simulation time: 0 hr 15 min 55 sec) 
Heartbeat CPU  0 instructions:  351000003 cycles:  695381590 heartbeat IPC: 0.52214 cumulative IPC: 0.40122 (Simulation time: 0 hr 15 min 58 sec) 
Heartbeat CPU  0 instructions:  352000000 cycles:  697320626 heartbeat IPC: 0.51572 cumulative IPC: 0.40158 (Simulation time: 0 hr 16 min 1 sec) 
Heartbeat CPU  0 instructions:  353000001 cycles:  699140584 heartbeat IPC: 0.54946 cumulative IPC: 0.40201 (Simulation time: 0 hr 16 min 4 sec) 
Heartbeat CPU  0 instructions:  354000003 cycles:  701224795 heartbeat IPC: 0.47980 cumulative IPC: 0.40226 (Simulation time: 0 hr 16 min 7 sec) 
Heartbeat CPU  0 instructions:  355000003 cycles:  715775784 heartbeat IPC: 0.06872 cumulative IPC: 0.39475 (Simulation time: 0 hr 16 min 12 sec) 
Heartbeat CPU  0 instructions:  356000000 cycles:  718864185 heartbeat IPC: 0.32379 cumulative IPC: 0.39441 (Simulation time: 0 hr 16 min 15 sec) 
Heartbeat CPU  0 instructions:  357000003 cycles:  720685405 heartbeat IPC: 0.54908 cumulative IPC: 0.39485 (Simulation time: 0 hr 16 min 18 sec) 
Heartbeat CPU  0 instructions:  358000002 cycles:  722620656 heartbeat IPC: 0.51673 cumulative IPC: 0.39521 (Simulation time: 0 hr 16 min 21 sec) 
Heartbeat CPU  0 instructions:  359000003 cycles:  724556104 heartbeat IPC: 0.51668 cumulative IPC: 0.39557 (Simulation time: 0 hr 16 min 24 sec) 
Heartbeat CPU  0 instructions:  360000000 cycles:  726339342 heartbeat IPC: 0.56078 cumulative IPC: 0.39601 (Simulation time: 0 hr 16 min 27 sec) 
Heartbeat CPU  0 instructions:  361000003 cycles:  728255818 heartbeat IPC: 0.52179 cumulative IPC: 0.39638 (Simulation time: 0 hr 16 min 30 sec) 
Heartbeat CPU  0 instructions:  362000000 cycles:  730204046 heartbeat IPC: 0.51329 cumulative IPC: 0.39673 (Simulation time: 0 hr 16 min 33 sec) 
Heartbeat CPU  0 instructions:  363000000 cycles:  732024911 heartbeat IPC: 0.54919 cumulative IPC: 0.39714 (Simulation time: 0 hr 16 min 36 sec) 
Heartbeat CPU  0 instructions:  364000000 cycles:  733891644 heartbeat IPC: 0.53570 cumulative IPC: 0.39753 (Simulation time: 0 hr 16 min 39 sec) 
Heartbeat CPU  0 instructions:  365000000 cycles:  735834053 heartbeat IPC: 0.51482 cumulative IPC: 0.39788 (Simulation time: 0 hr 16 min 43 sec) 
Heartbeat CPU  0 instructions:  366000001 cycles:  737731517 heartbeat IPC: 0.52702 cumulative IPC: 0.39824 (Simulation time: 0 hr 16 min 46 sec) 
Heartbeat CPU  0 instructions:  367000001 cycles:  739529607 heartbeat IPC: 0.55615 cumulative IPC: 0.39867 (Simulation time: 0 hr 16 min 49 sec) 
Heartbeat CPU  0 instructions:  368000000 cycles:  741463782 heartbeat IPC: 0.51702 cumulative IPC: 0.39901 (Simulation time: 0 hr 16 min 52 sec) 
Heartbeat CPU  0 instructions:  369000003 cycles:  743404308 heartbeat IPC: 0.51533 cumulative IPC: 0.39934 (Simulation time: 0 hr 16 min 55 sec) 
Heartbeat CPU  0 instructions:  370000000 cycles:  745182468 heartbeat IPC: 0.56238 cumulative IPC: 0.39977 (Simulation time: 0 hr 16 min 58 sec) 
Heartbeat CPU  0 instructions:  371000001 cycles:  747095853 heartbeat IPC: 0.52263 cumulative IPC: 0.40012 (Simulation time: 0 hr 17 min 0 sec) 
Heartbeat CPU  0 instructions:  372000000 cycles:  749037743 heartbeat IPC: 0.51496 cumulative IPC: 0.40045 (Simulation time: 0 hr 17 min 3 sec) 
Heartbeat CPU  0 instructions:  373000003 cycles:  750874013 heartbeat IPC: 0.54458 cumulative IPC: 0.40084 (Simulation time: 0 hr 17 min 6 sec) 
Heartbeat CPU  0 instructions:  374000001 cycles:  752724245 heartbeat IPC: 0.54047 cumulative IPC: 0.40121 (Simulation time: 0 hr 17 min 9 sec) 
Heartbeat CPU  0 instructions:  375000001 cycles:  754664111 heartbeat IPC: 0.51550 cumulative IPC: 0.40154 (Simulation time: 0 hr 17 min 11 sec) 
Heartbeat CPU  0 instructions:  376000000 cycles:  756579426 heartbeat IPC: 0.52211 cumulative IPC: 0.40187 (Simulation time: 0 hr 17 min 14 sec) 
Heartbeat CPU  0 instructions:  377000002 cycles:  765577797 heartbeat IPC: 0.11113 cumulative IPC: 0.39811 (Simulation time: 0 hr 17 min 18 sec) 
Heartbeat CPU  0 instructions:  378000003 cycles:  774138135 heartbeat IPC: 0.11682 cumulative IPC: 0.39470 (Simulation time: 0 hr 17 min 21 sec) 
Heartbeat CPU  0 instructions:  379000001 cycles:  776073647 heartbeat IPC: 0.51666 cumulative IPC: 0.39503 (Simulation time: 0 hr 17 min 24 sec) 
Heartbeat CPU  0 instructions:  380000000 cycles:  777860676 heartbeat IPC: 0.55959 cumulative IPC: 0.39544 (Simulation time: 0 hr 17 min 27 sec) 
Heartbeat CPU  0 instructions:  381000002 cycles:  779819599 heartbeat IPC: 0.51049 cumulative IPC: 0.39576 (Simulation time: 0 hr 17 min 30 sec) 
Heartbeat CPU  0 instructions:  382000002 cycles:  781909911 heartbeat IPC: 0.47840 cumulative IPC: 0.39600 (Simulation time: 0 hr 17 min 32 sec) 
Heartbeat CPU  0 instructions:  383000002 cycles:  783901710 heartbeat IPC: 0.50206 cumulative IPC: 0.39630 (Simulation time: 0 hr 17 min 35 sec) 
Heartbeat CPU  0 instructions:  384000000 cycles:  785752838 heartbeat IPC: 0.54021 cumulative IPC: 0.39667 (Simulation time: 0 hr 17 min 38 sec) 
Heartbeat CPU  0 instructions:  385000003 cycles:  787692785 heartbeat IPC: 0.51548 cumulative IPC: 0.39699 (Simulation time: 0 hr 17 min 41 sec) 
Heartbeat CPU  0 instructions:  386000002 cycles:  789613459 heartbeat IPC: 0.52065 cumulative IPC: 0.39732 (Simulation time: 0 hr 17 min 43 sec) 
Heartbeat CPU  0 instructions:  387000001 cycles:  791394846 heartbeat IPC: 0.56136 cumulative IPC: 0.39773 (Simulation time: 0 hr 17 min 46 sec) 
Heartbeat CPU  0 instructions:  388000000 cycles:  793321973 heartbeat IPC: 0.51891 cumulative IPC: 0.39805 (Simulation time: 0 hr 17 min 49 sec) 
Heartbeat CPU  0 instructions:  389000003 cycles:  795260950 heartbeat IPC: 0.51574 cumulative IPC: 0.39837 (Simulation time: 0 hr 17 min 52 sec) 
Heartbeat CPU  0 instructions:  390000003 cycles:  797049547 heartbeat IPC: 0.55910 cumulative IPC: 0.39876 (Simulation time: 0 hr 17 min 55 sec) 
Heartbeat CPU  0 instructions:  391000001 cycles:  798954647 heartbeat IPC: 0.52491 cumulative IPC: 0.39909 (Simulation time: 0 hr 17 min 57 sec) 
Heartbeat CPU  0 instructions:  392000000 cycles:  800893180 heartbeat IPC: 0.51585 cumulative IPC: 0.39940 (Simulation time: 0 hr 18 min 0 sec) 
Heartbeat CPU  0 instructions:  393000000 cycles:  802747376 heartbeat IPC: 0.53932 cumulative IPC: 0.39975 (Simulation time: 0 hr 18 min 3 sec) 
Heartbeat CPU  0 instructions:  394000000 cycles:  804571900 heartbeat IPC: 0.54809 cumulative IPC: 0.40012 (Simulation time: 0 hr 18 min 6 sec) 
Heartbeat CPU  0 instructions:  395000002 cycles:  806520959 heartbeat IPC: 0.51307 cumulative IPC: 0.40042 (Simulation time: 0 hr 18 min 8 sec) 
Heartbeat CPU  0 instructions:  396000000 cycles:  808440828 heartbeat IPC: 0.52087 cumulative IPC: 0.40073 (Simulation time: 0 hr 18 min 11 sec) 
Heartbeat CPU  0 instructions:  397000001 cycles:  810220210 heartbeat IPC: 0.56199 cumulative IPC: 0.40112 (Simulation time: 0 hr 18 min 14 sec) 
Heartbeat CPU  0 instructions:  398000003 cycles:  812145612 heartbeat IPC: 0.51937 cumulative IPC: 0.40143 (Simulation time: 0 hr 18 min 17 sec) 
Heartbeat CPU  0 instructions:  399000001 cycles:  815954223 heartbeat IPC: 0.26256 cumulative IPC: 0.40072 (Simulation time: 0 hr 18 min 20 sec) 
Heartbeat CPU  0 instructions:  400000000 cycles:  829750313 heartbeat IPC: 0.07248 cumulative IPC: 0.39476 (Simulation time: 0 hr 18 min 24 sec) 
Heartbeat CPU  0 instructions:  401000002 cycles:  831664449 heartbeat IPC: 0.52243 cumulative IPC: 0.39508 (Simulation time: 0 hr 18 min 27 sec) 
Heartbeat CPU  0 instructions:  402000001 cycles:  833607174 heartbeat IPC: 0.51474 cumulative IPC: 0.39539 (Simulation time: 0 hr 18 min 29 sec) 
Heartbeat CPU  0 instructions:  403000003 cycles:  835468444 heartbeat IPC: 0.53727 cumulative IPC: 0.39573 (Simulation time: 0 hr 18 min 32 sec) 
Heartbeat CPU  0 instructions:  404000000 cycles:  837309198 heartbeat IPC: 0.54325 cumulative IPC: 0.39609 (Simulation time: 0 hr 18 min 35 sec) 
Heartbeat CPU  0 instructions:  405000001 cycles:  839253071 heartbeat IPC: 0.51444 cumulative IPC: 0.39638 (Simulation time: 0 hr 18 min 38 sec) 
Heartbeat CPU  0 instructions:  406000002 cycles:  841179569 heartbeat IPC: 0.51908 cumulative IPC: 0.39669 (Simulation time: 0 hr 18 min 40 sec) 
Heartbeat CPU  0 instructions:  407000001 cycles:  842957442 heartbeat IPC: 0.56247 cumulative IPC: 0.39707 (Simulation time: 0 hr 18 min 43 sec) 
Heartbeat CPU  0 instructions:  408000000 cycles:  844891945 heartbeat IPC: 0.51693 cumulative IPC: 0.39737 (Simulation time: 0 hr 18 min 46 sec) 
Heartbeat CPU  0 instructions:  409000001 cycles:  846825967 heartbeat IPC: 0.51706 cumulative IPC: 0.39767 (Simulation time: 0 hr 18 min 49 sec) 
Heartbeat CPU  0 instructions:  410000003 cycles:  848628792 heartbeat IPC: 0.55469 cumulative IPC: 0.39803 (Simulation time: 0 hr 18 min 52 sec) 
Heartbeat CPU  0 instructions:  411000000 cycles:  850522757 heartbeat IPC: 0.52799 cumulative IPC: 0.39835 (Simulation time: 0 hr 18 min 54 sec) 
Heartbeat CPU  0 instructions:  412000000 cycles:  852460624 heartbeat IPC: 0.51603 cumulative IPC: 0.39864 (Simulation time: 0 hr 18 min 57 sec) 
Heartbeat CPU  0 instructions:  413000002 cycles:  854344569 heartbeat IPC: 0.53080 cumulative IPC: 0.39896 (Simulation time: 0 hr 19 min 0 sec) 
Heartbeat CPU  0 instructions:  414000003 cycles:  856162555 heartbeat IPC: 0.55006 cumulative IPC: 0.39931 (Simulation time: 0 hr 19 min 3 sec) 
Heartbeat CPU  0 instructions:  415000002 cycles:  858097199 heartbeat IPC: 0.51689 cumulative IPC: 0.39959 (Simulation time: 0 hr 19 min 5 sec) 
Heartbeat CPU  0 instructions:  416000000 cycles:  860027687 heartbeat IPC: 0.51800 cumulative IPC: 0.39988 (Simulation time: 0 hr 19 min 8 sec) 
Heartbeat CPU  0 instructions:  417000003 cycles:  861812664 heartbeat IPC: 0.56023 cumulative IPC: 0.40024 (Simulation time: 0 hr 19 min 11 sec) 
Heartbeat CPU  0 instructions:  418000003 cycles:  863733068 heartbeat IPC: 0.52072 cumulative IPC: 0.40054 (Simulation time: 0 hr 19 min 14 sec) 
Heartbeat CPU  0 instructions:  419000003 cycles:  865677431 heartbeat IPC: 0.51431 cumulative IPC: 0.40081 (Simulation time: 0 hr 19 min 17 sec) 
Heartbeat CPU  0 instructions:  420000000 cycles:  867499491 heartbeat IPC: 0.54883 cumulative IPC: 0.40115 (Simulation time: 0 hr 19 min 19 sec) 
Heartbeat CPU  0 instructions:  421000001 cycles:  869369305 heartbeat IPC: 0.53481 cumulative IPC: 0.40146 (Simulation time: 0 hr 19 min 22 sec) 
Heartbeat CPU  0 instructions:  422000002 cycles:  880215537 heartbeat IPC: 0.09220 cumulative IPC: 0.39733 (Simulation time: 0 hr 19 min 26 sec) 
Heartbeat CPU  0 instructions:  423000003 cycles:  887077200 heartbeat IPC: 0.14574 cumulative IPC: 0.39521 (Simulation time: 0 hr 19 min 29 sec) 
Heartbeat CPU  0 instructions:  424000000 cycles:  888888045 heartbeat IPC: 0.55223 cumulative IPC: 0.39556 (Simulation time: 0 hr 19 min 32 sec) 
Heartbeat CPU  0 instructions:  425000003 cycles:  890828588 heartbeat IPC: 0.51532 cumulative IPC: 0.39584 (Simulation time: 0 hr 19 min 35 sec) 
Heartbeat CPU  0 instructions:  426000001 cycles:  892753965 heartbeat IPC: 0.51938 cumulative IPC: 0.39613 (Simulation time: 0 hr 19 min 37 sec) 
Heartbeat CPU  0 instructions:  427000000 cycles:  894532269 heartbeat IPC: 0.56233 cumulative IPC: 0.39649 (Simulation time: 0 hr 19 min 40 sec) 
Heartbeat CPU  0 instructions:  428000000 cycles:  896446277 heartbeat IPC: 0.52246 cumulative IPC: 0.39678 (Simulation time: 0 hr 19 min 43 sec) 
Heartbeat CPU  0 instructions:  429000002 cycles:  898382231 heartbeat IPC: 0.51654 cumulative IPC: 0.39706 (Simulation time: 0 hr 19 min 46 sec) 
Heartbeat CPU  0 instructions:  430000000 cycles:  900194434 heartbeat IPC: 0.55181 cumulative IPC: 0.39740 (Simulation time: 0 hr 19 min 48 sec) 
Heartbeat CPU  0 instructions:  431000000 cycles:  902064012 heartbeat IPC: 0.53488 cumulative IPC: 0.39771 (Simulation time: 0 hr 19 min 51 sec) 
Heartbeat CPU  0 instructions:  432000000 cycles:  903991470 heartbeat IPC: 0.51882 cumulative IPC: 0.39799 (Simulation time: 0 hr 19 min 54 sec) 
Heartbeat CPU  0 instructions:  433000003 cycles:  906018952 heartbeat IPC: 0.49322 cumulative IPC: 0.39822 (Simulation time: 0 hr 19 min 57 sec) 
Heartbeat CPU  0 instructions:  434000002 cycles:  907812444 heartbeat IPC: 0.55757 cumulative IPC: 0.39856 (Simulation time: 0 hr 20 min 0 sec) 
Heartbeat CPU  0 instructions:  435000001 cycles:  909748378 heartbeat IPC: 0.51655 cumulative IPC: 0.39883 (Simulation time: 0 hr 20 min 2 sec) 
Heartbeat CPU  0 instructions:  436000000 cycles:  911670458 heartbeat IPC: 0.52027 cumulative IPC: 0.39911 (Simulation time: 0 hr 20 min 5 sec) 
Heartbeat CPU  0 instructions:  437000000 cycles:  913449809 heartbeat IPC: 0.56200 cumulative IPC: 0.39945 (Simulation time: 0 hr 20 min 8 sec) 
Heartbeat CPU  0 instructions:  438000000 cycles:  915360907 heartbeat IPC: 0.52326 cumulative IPC: 0.39973 (Simulation time: 0 hr 20 min 11 sec) 
Heartbeat CPU  0 instructions:  439000001 cycles:  917293607 heartbeat IPC: 0.51741 cumulative IPC: 0.40000 (Simulation time: 0 hr 20 min 13 sec) 
Heartbeat CPU  0 instructions:  440000000 cycles:  919125304 heartbeat IPC: 0.54594 cumulative IPC: 0.40032 (Simulation time: 0 hr 20 min 16 sec) 
Heartbeat CPU  0 instructions:  441000001 cycles:  920974615 heartbeat IPC: 0.54074 cumulative IPC: 0.40062 (Simulation time: 0 hr 20 min 19 sec) 
Heartbeat CPU  0 instructions:  442000001 cycles:  922906435 heartbeat IPC: 0.51765 cumulative IPC: 0.40089 (Simulation time: 0 hr 20 min 22 sec) 
Heartbeat CPU  0 instructions:  443000002 cycles:  924811642 heartbeat IPC: 0.52488 cumulative IPC: 0.40116 (Simulation time: 0 hr 20 min 25 sec) 
Heartbeat CPU  0 instructions:  444000000 cycles:  930329990 heartbeat IPC: 0.18121 cumulative IPC: 0.39975 (Simulation time: 0 hr 20 min 28 sec) 
Heartbeat CPU  0 instructions:  445000003 cycles:  942604102 heartbeat IPC: 0.08147 cumulative IPC: 0.39528 (Simulation time: 0 hr 20 min 31 sec) 
Heartbeat CPU  0 instructions:  446000000 cycles:  944532490 heartbeat IPC: 0.51857 cumulative IPC: 0.39555 (Simulation time: 0 hr 20 min 34 sec) 
Heartbeat CPU  0 instructions:  447000003 cycles:  946276309 heartbeat IPC: 0.57346 cumulative IPC: 0.39590 (Simulation time: 0 hr 20 min 37 sec) 
Heartbeat CPU  0 instructions:  448000000 cycles:  948171343 heartbeat IPC: 0.52769 cumulative IPC: 0.39619 (Simulation time: 0 hr 20 min 40 sec) 
Heartbeat CPU  0 instructions:  449000000 cycles:  950091731 heartbeat IPC: 0.52073 cumulative IPC: 0.39646 (Simulation time: 0 hr 20 min 43 sec) 
Heartbeat CPU  0 instructions:  450000000 cycles:  951902123 heartbeat IPC: 0.55237 cumulative IPC: 0.39678 (Simulation time: 0 hr 20 min 45 sec) 
Heartbeat CPU  0 instructions:  451000000 cycles:  953723722 heartbeat IPC: 0.54897 cumulative IPC: 0.39709 (Simulation time: 0 hr 20 min 48 sec) 
Heartbeat CPU  0 instructions:  452000000 cycles:  955646350 heartbeat IPC: 0.52012 cumulative IPC: 0.39736 (Simulation time: 0 hr 20 min 51 sec) 
Heartbeat CPU  0 instructions:  453000001 cycles:  957530348 heartbeat IPC: 0.53079 cumulative IPC: 0.39764 (Simulation time: 0 hr 20 min 54 sec) 
Heartbeat CPU  0 instructions:  454000001 cycles:  959277924 heartbeat IPC: 0.57222 cumulative IPC: 0.39799 (Simulation time: 0 hr 20 min 57 sec) 
Heartbeat CPU  0 instructions:  455000000 cycles:  961193125 heartbeat IPC: 0.52214 cumulative IPC: 0.39825 (Simulation time: 0 hr 20 min 59 sec) 
Heartbeat CPU  0 instructions:  456000000 cycles:  963107385 heartbeat IPC: 0.52240 cumulative IPC: 0.39852 (Simulation time: 0 hr 21 min 2 sec) 
Heartbeat CPU  0 instructions:  457000000 cycles:  964861444 heartbeat IPC: 0.57011 cumulative IPC: 0.39885 (Simulation time: 0 hr 21 min 5 sec) 
Heartbeat CPU  0 instructions:  458000003 cycles:  966735876 heartbeat IPC: 0.53350 cumulative IPC: 0.39914 (Simulation time: 0 hr 21 min 8 sec) 
Heartbeat CPU  0 instructions:  459000000 cycles:  968657692 heartbeat IPC: 0.52034 cumulative IPC: 0.39939 (Simulation time: 0 hr 21 min 10 sec) 
Heartbeat CPU  0 instructions:  460000000 cycles:  970484508 heartbeat IPC: 0.54740 cumulative IPC: 0.39969 (Simulation time: 0 hr 21 min 13 sec) 
Heartbeat CPU  0 instructions:  461000000 cycles:  972284353 heartbeat IPC: 0.55560 cumulative IPC: 0.40001 (Simulation time: 0 hr 21 min 16 sec) 
Heartbeat CPU  0 instructions:  462000003 cycles:  974201399 heartbeat IPC: 0.52164 cumulative IPC: 0.40026 (Simulation time: 0 hr 21 min 19 sec) 
Heartbeat CPU  0 instructions:  463000003 cycles:  976095633 heartbeat IPC: 0.52792 cumulative IPC: 0.40053 (Simulation time: 0 hr 21 min 22 sec) 
Heartbeat CPU  0 instructions:  464000000 cycles:  977838451 heartbeat IPC: 0.57378 cumulative IPC: 0.40086 (Simulation time: 0 hr 21 min 24 sec) 
Heartbeat CPU  0 instructions:  465000000 cycles:  979745699 heartbeat IPC: 0.52432 cumulative IPC: 0.40112 (Simulation time: 0 hr 21 min 27 sec) 
Heartbeat CPU  0 instructions:  466000000 cycles:  981656607 heartbeat IPC: 0.52331 cumulative IPC: 0.40138 (Simulation time: 0 hr 21 min 30 sec) 
Heartbeat CPU  0 instructions:  467000000 cycles:  994322956 heartbeat IPC: 0.07895 cumulative IPC: 0.39696 (Simulation time: 0 hr 21 min 34 sec) 
Heartbeat CPU  0 instructions:  468000000 cycles:  999123948 heartbeat IPC: 0.20829 cumulative IPC: 0.39599 (Simulation time: 0 hr 21 min 37 sec) 
Heartbeat CPU  0 instructions:  469000002 cycles: 1001043086 heartbeat IPC: 0.52107 cumulative IPC: 0.39624 (Simulation time: 0 hr 21 min 40 sec) 
Heartbeat CPU  0 instructions:  470000000 cycles: 1002880332 heartbeat IPC: 0.54429 cumulative IPC: 0.39653 (Simulation time: 0 hr 21 min 42 sec) 
Heartbeat CPU  0 instructions:  471000002 cycles: 1004679394 heartbeat IPC: 0.55585 cumulative IPC: 0.39684 (Simulation time: 0 hr 21 min 45 sec) 
Heartbeat CPU  0 instructions:  472000000 cycles: 1006609108 heartbeat IPC: 0.51821 cumulative IPC: 0.39709 (Simulation time: 0 hr 21 min 48 sec) 
Heartbeat CPU  0 instructions:  473000003 cycles: 1008511372 heartbeat IPC: 0.52569 cumulative IPC: 0.39735 (Simulation time: 0 hr 21 min 51 sec) 
Heartbeat CPU  0 instructions:  474000002 cycles: 1010261004 heartbeat IPC: 0.57155 cumulative IPC: 0.39768 (Simulation time: 0 hr 21 min 54 sec) 
Heartbeat CPU  0 instructions:  475000003 cycles: 1012165484 heartbeat IPC: 0.52508 cumulative IPC: 0.39793 (Simulation time: 0 hr 21 min 56 sec) 
Heartbeat CPU  0 instructions:  476000000 cycles: 1014082229 heartbeat IPC: 0.52172 cumulative IPC: 0.39818 (Simulation time: 0 hr 21 min 59 sec) 
Heartbeat CPU  0 instructions:  477000003 cycles: 1015852533 heartbeat IPC: 0.56488 cumulative IPC: 0.39850 (Simulation time: 0 hr 22 min 2 sec) 
Heartbeat CPU  0 instructions:  478000003 cycles: 1017710112 heartbeat IPC: 0.53834 cumulative IPC: 0.39877 (Simulation time: 0 hr 22 min 5 sec) 
Heartbeat CPU  0 instructions:  479000000 cycles: 1019631907 heartbeat IPC: 0.52035 cumulative IPC: 0.39902 (Simulation time: 0 hr 22 min 8 sec) 
Heartbeat CPU  0 instructions:  480000000 cycles: 1021477922 heartbeat IPC: 0.54171 cumulative IPC: 0.39929 (Simulation time: 0 hr 22 min 10 sec) 
Heartbeat CPU  0 instructions:  481000000 cycles: 1023252724 heartbeat IPC: 0.56344 cumulative IPC: 0.39960 (Simulation time: 0 hr 22 min 13 sec) 
Heartbeat CPU  0 instructions:  482000000 cycles: 1025173300 heartbeat IPC: 0.52068 cumulative IPC: 0.39984 (Simulation time: 0 hr 22 min 16 sec) 
Heartbeat CPU  0 instructions:  483000001 cycles: 1027173246 heartbeat IPC: 0.50001 cumulative IPC: 0.40005 (Simulation time: 0 hr 22 min 19 sec) 
Heartbeat CPU  0 instructions:  484000000 cycles: 1029041795 heartbeat IPC: 0.53517 cumulative IPC: 0.40032 (Simulation time: 0 hr 22 min 22 sec) 
Heartbeat CPU  0 instructions:  485000001 cycles: 1031062003 heartbeat IPC: 0.49500 cumulative IPC: 0.40051 (Simulation time: 0 hr 22 min 24 sec) 
Heartbeat CPU  0 instructions:  486000001 cycles: 1032983954 heartbeat IPC: 0.52030 cumulative IPC: 0.40075 (Simulation time: 0 hr 22 min 27 sec) 
Heartbeat CPU  0 instructions:  487000000 cycles: 1034772562 heartbeat IPC: 0.55909 cumulative IPC: 0.40105 (Simulation time: 0 hr 22 min 30 sec) 
Heartbeat CPU  0 instructions:  488000000 cycles: 1036611654 heartbeat IPC: 0.54375 cumulative IPC: 0.40132 (Simulation time: 0 hr 22 min 33 sec) 
Heartbeat CPU  0 instructions:  489000001 cycles: 1043999588 heartbeat IPC: 0.13536 cumulative IPC: 0.39930 (Simulation time: 0 hr 22 min 36 sec) 
Heartbeat CPU  0 instructions:  490000003 cycles: 1054157277 heartbeat IPC: 0.09845 cumulative IPC: 0.39620 (Simulation time: 0 hr 22 min 40 sec) 
Heartbeat CPU  0 instructions:  491000001 cycles: 1055947053 heartbeat IPC: 0.55873 cumulative IPC: 0.39649 (Simulation time: 0 hr 22 min 42 sec) 
Heartbeat CPU  0 instructions:  492000000 cycles: 1057876622 heartbeat IPC: 0.51825 cumulative IPC: 0.39673 (Simulation time: 0 hr 22 min 45 sec) 
Heartbeat CPU  0 instructions:  493000000 cycles: 1059789952 heartbeat IPC: 0.52265 cumulative IPC: 0.39697 (Simulation time: 0 hr 22 min 48 sec) 
Heartbeat CPU  0 instructions:  494000002 cycles: 1061544036 heartbeat IPC: 0.57010 cumulative IPC: 0.39728 (Simulation time: 0 hr 22 min 51 sec) 
Heartbeat CPU  0 instructions:  495000000 cycles: 1063451172 heartbeat IPC: 0.52435 cumulative IPC: 0.39752 (Simulation time: 0 hr 22 min 54 sec) 
Heartbeat CPU  0 instructions:  496000000 cycles: 1065376740 heartbeat IPC: 0.51933 cumulative IPC: 0.39776 (Simulation time: 0 hr 22 min 56 sec) 
Heartbeat CPU  0 instructions:  497000001 cycles: 1067189609 heartbeat IPC: 0.55161 cumulative IPC: 0.39804 (Simulation time: 0 hr 22 min 59 sec) 
Heartbeat CPU  0 instructions:  498000001 cycles: 1069027008 heartbeat IPC: 0.54425 cumulative IPC: 0.39831 (Simulation time: 0 hr 23 min 2 sec) 
Heartbeat CPU  0 instructions:  499000001 cycles: 1070953715 heartbeat IPC: 0.51902 cumulative IPC: 0.39854 (Simulation time: 0 hr 23 min 5 sec) 
Heartbeat CPU  0 instructions:  500000000 cycles: 1072830879 heartbeat IPC: 0.53272 cumulative IPC: 0.39879 (Simulation time: 0 hr 23 min 8 sec) 
Heartbeat CPU  0 instructions:  501000002 cycles: 1074602150 heartbeat IPC: 0.56457 cumulative IPC: 0.39908 (Simulation time: 0 hr 23 min 10 sec) 
Heartbeat CPU  0 instructions:  502000002 cycles: 1076522806 heartbeat IPC: 0.52066 cumulative IPC: 0.39931 (Simulation time: 0 hr 23 min 13 sec) 
Heartbeat CPU  0 instructions:  503000002 cycles: 1078441915 heartbeat IPC: 0.52108 cumulative IPC: 0.39955 (Simulation time: 0 hr 23 min 16 sec) 
Heartbeat CPU  0 instructions:  504000000 cycles: 1080190884 heartbeat IPC: 0.57176 cumulative IPC: 0.39984 (Simulation time: 0 hr 23 min 19 sec) 
Heartbeat CPU  0 instructions:  505000002 cycles: 1082088262 heartbeat IPC: 0.52704 cumulative IPC: 0.40008 (Simulation time: 0 hr 23 min 21 sec) 
Heartbeat CPU  0 instructions:  506000002 cycles: 1084014261 heartbeat IPC: 0.51921 cumulative IPC: 0.40031 (Simulation time: 0 hr 23 min 24 sec) 
Heartbeat CPU  0 instructions:  507000001 cycles: 1085823334 heartbeat IPC: 0.55277 cumulative IPC: 0.40058 (Simulation time: 0 hr 23 min 27 sec) 
Heartbeat CPU  0 instructions:  508000000 cycles: 1087651424 heartbeat IPC: 0.54702 cumulative IPC: 0.40084 (Simulation time: 0 hr 23 min 30 sec) 
Heartbeat CPU  0 instructions:  509000000 cycles: 1089587266 heartbeat IPC: 0.51657 cumulative IPC: 0.40106 (Simulation time: 0 hr 23 min 33 sec) 
Heartbeat CPU  0 instructions:  510000003 cycles: 1091477594 heartbeat IPC: 0.52901 cumulative IPC: 0.40130 (Simulation time: 0 hr 23 min 35 sec) 
Heartbeat CPU  0 instructions:  511000001 cycles: 1093545730 heartbeat IPC: 0.48353 cumulative IPC: 0.40147 (Simulation time: 0 hr 23 min 38 sec) 
Heartbeat CPU  0 instructions:  512000000 cycles: 1107839588 heartbeat IPC: 0.06996 cumulative IPC: 0.39690 (Simulation time: 0 hr 23 min 42 sec) 
[...]
scooby_state_410e39|57|0 1,0,0,0,0,0,0,0,0,0,0,0,0,0,0,1,
scooby_state_40d42d|39|-16 1,0,0,0,0,0,0,0,0,0,0,0,0,0,0,1,
scooby_state_40ec1c|58|0 1,0,0,0,0,0,0,0,0,0,0,0,0,0,0,1,
scooby_state_40e886|34|1 1,0,0,0,0,0,0,0,0,0,0,0,0,0,0,1,
scooby_state_40f146|5|1 1,0,0,0,0,0,0,0,0,0,0,0,0,0,0,1,
scooby_state_40de83|58|1 1,0,0,0,0,0,0,0,0,0,0,0,0,0,0,1,
scooby_state_410f1f|26|1 1,0,0,0,0,0,0,0,0,0,0,0,0,0,0,1,
scooby_state_40e300|12|1 1,0,0,0,0,0,0,0,0,0,0,0,0,0,0,1,
scooby_state_40f241|9|1 1,0,0,0,0,0,0,0,0,0,0,0,0,0,0,1,
scooby_state_40f146|23|-15 1,0,0,0,0,0,0,0,0,0,0,0,0,0,0,1,
scooby_state_40d325|41|1 1,0,0,0,0,0,0,0,0,0,0,0,0,0,0,1,
scooby_state_40de42|57|1 1,0,0,0,0,0,0,0,0,0,0,0,0,0,0,1,
scooby_state_411086|2|1 1,0,0,0,0,0,0,0,0,0,0,0,0,0,0,1,
scooby_state_40e481|18|1 1,0,0,0,0,0,0,0,0,0,0,0,0,0,0,1,
scooby_state_410941|37|1 1,0,0,0,0,0,0,0,0,0,0,0,0,0,0,1,
scooby_state_410785|30|1 1,0,0,0,0,0,0,0,0,0,0,0,0,0,0,1,
scooby_state_410e43|57|1 1,0,0,0,0,0,0,0,0,0,0,0,0,0,0,1,
scooby_state_410542|21|1 1,0,0,0,0,0,0,0,0,0,0,0,0,0,0,1,
scooby_state_40e5c5|23|1 1,0,0,0,0,0,0,0,0,0,0,0,0,0,0,1,
scooby_state_411040|1|1 1,0,0,0,0,0,0,0,0,0,0,0,0,0,0,1,
scooby_state_40e9c0|39|1 1,0,0,0,0,0,0,0,0,0,0,0,0,0,0,1,
scooby_state_40edfe|13|0 1,0,0,0,0,0,0,0,0,0,0,0,0,0,0,1,
scooby_state_40eb08|21|16 1,0,0,0,0,0,0,0,0,0,0,0,0,0,0,1,
scooby_state_40e2c7|11|1 1,0,0,0,0,0,0,0,0,0,0,0,0,0,0,1,
scooby_state_40dd02|52|1 1,0,0,0,0,0,0,0,0,0,0,0,0,0,0,1,
scooby_state_40fe80|58|1 1,0,0,0,0,0,0,0,0,0,0,0,0,0,0,1,
scooby_state_40f342|13|1 1,0,0,0,0,0,0,0,0,0,0,0,0,0,0,1,
scooby_state_410ec5|59|1 1,0,0,0,0,0,0,0,0,0,0,0,0,0,0,1,
scooby_state_40d604|24|1 1,0,0,0,0,0,0,0,0,0,0,0,0,0,0,1,
scooby_state_40eea7|22|0 1,0,0,0,0,0,0,0,0,0,0,0,0,0,0,1,
scooby_state_40f0c4|38|-15 1,0,0,0,0,0,0,0,0,0,0,0,0,0,0,1,
scooby_state_40ed01|52|1 1,0,0,0,0,0,0,0,0,0,0,0,0,0,0,1,
scooby_state_40e442|17|1 1,0,0,0,0,0,0,0,0,0,0,0,0,0,0,1,
scooby_state_410807|32|1 1,0,0,0,0,0,0,0,0,0,0,0,0,0,0,1,
scooby_state_40f7c5|31|1 1,0,0,0,0,0,0,0,0,0,0,0,0,0,0,1,
scooby_state_4104c0|19|1 1,0,0,0,0,0,0,0,0,0,0,0,0,0,0,1,
scooby_state_40e929|16|-6 1,0,0,0,0,0,0,0,0,0,0,0,0,0,0,1,
scooby_state_40d685|26|1 1,0,0,0,0,0,0,0,0,0,0,0,0,0,0,1,
scooby_state_4105c3|23|1 1,0,0,0,0,0,0,0,0,0,0,0,0,0,0,1,
scooby_state_410a05|40|1 1,0,0,0,0,0,0,0,0,0,0,0,0,0,0,1,
scooby_state_40f4a5|7|0 1,0,0,0,0,0,0,0,0,0,0,0,0,0,0,1,
scooby_state_40cec7|59|1 1,0,0,0,0,0,0,0,0,0,0,0,0,0,0,1,
scooby_state_40e6a3|39|0 1,0,0,0,0,0,0,0,0,0,0,0,0,0,0,1,
scooby_state_410c42|49|1 1,0,0,0,0,0,0,0,0,0,0,0,0,0,0,1,
scooby_state_40e6ba|35|0 1,0,0,0,0,0,0,0,0,0,0,0,0,0,0,1,
scooby_state_40dc02|48|1 1,0,0,0,0,0,0,0,0,0,0,0,0,0,0,1,
scooby_state_40ec60|41|-14 1,0,0,0,0,0,0,0,0,0,0,0,0,0,0,1,
scooby_state_4112c6|11|1 1,0,0,0,0,0,0,0,0,0,0,0,0,0,0,1,
scooby_state_40ef8a|56|17 1,0,0,0,0,0,0,0,0,0,0,0,0,0,0,1,
scooby_state_4108c5|35|1 1,0,0,0,0,0,0,0,0,0,0,0,0,0,0,1,
scooby_state_4100c5|3|1 1,0,0,0,0,0,0,0,0,0,0,0,0,0,0,1,
scooby_state_410f83|62|1 1,0,0,0,0,0,0,0,0,0,0,0,0,0,0,1,
scooby_state_40ebc2|47|1 1,0,0,0,0,0,0,0,0,0,0,0,0,0,0,1,
scooby_state_410248|9|1 1,0,0,0,0,0,0,0,0,0,0,0,0,0,0,1,
scooby_state_40d6c2|27|1 1,0,0,0,0,0,0,0,0,0,0,0,0,0,0,1,
scooby_state_40d844|33|1 1,0,0,0,0,0,0,0,0,0,0,0,0,0,0,1,
scooby_state_411346|13|1 1,0,0,0,0,0,0,0,0,0,0,0,0,0,0,1,
scooby_state_411145|5|1 1,0,0,0,0,0,0,0,0,0,0,0,0,0,0,1,
scooby_state_4110c5|3|1 1,0,0,0,0,0,0,0,0,0,0,0,0,0,0,1,
scooby_state_40d502|20|1 1,0,0,0,0,0,0,0,0,0,0,0,0,0,0,1,
scooby_state_40d3ed|40|-16 1,0,0,0,0,0,0,0,0,0,0,0,0,0,0,1,
scooby_state_40eea2|14|0 1,0,0,0,0,0,0,0,0,0,0,0,0,0,0,1,
scooby_state_4111c6|7|1 1,0,0,0,0,0,0,0,0,0,0,0,0,0,0,1,
scooby_state_41042d|45|0 1,0,0,0,0,0,0,0,0,0,0,0,0,0,0,1,
scooby_state_410fcb|28|1 1,0,0,0,0,0,0,0,0,0,0,0,0,0,0,1,
scooby_state_40ed43|62|0 1,0,0,0,0,0,0,0,0,0,0,0,0,0,0,1,
scooby_state_40f4c7|19|1 1,0,0,0,0,0,0,0,0,0,0,0,0,0,0,1,
scooby_state_40e5cd|21|0 1,0,0,0,0,0,0,0,0,0,0,0,0,0,0,1,
scooby_state_411246|9|1 1,0,0,0,0,0,0,0,0,0,0,0,0,0,0,1,
scooby_state_40ec41|49|1 1,0,0,0,0,0,0,0,0,0,0,0,0,0,0,1,
scooby_state_40f1c0|30|15 1,0,0,0,0,0,0,0,0,0,0,0,0,0,0,1,
scooby_state_40f0b2|39|0 1,0,0,0,0,0,0,0,0,0,0,0,0,0,0,1,
scooby_state_40f07a|5|-1 1,0,0,0,0,0,0,0,0,0,0,0,0,0,0,1,
scooby_state_40dd45|53|1 1,0,0,0,0,0,0,0,0,0,0,0,0,0,0,1,
scooby_state_410444|17|1 1,0,0,0,0,0,0,0,0,0,0,0,0,0,0,1,
scooby_state_411013|29|1 1,0,0,0,0,0,0,0,0,0,0,0,0,0,0,1,
scooby_state_40f080|39|-1 1,0,0,0,0,0,0,0,0,0,0,0,0,0,0,1,
scooby_state_40f903|36|1 1,0,0,0,0,0,0,0,0,0,0,0,0,0,0,1,
scooby_state_40f701|28|1 1,0,0,0,0,0,0,0,0,0,0,0,0,0,0,1,
scooby_state_40f443|17|1 1,0,0,0,0,0,0,0,0,0,0,0,0,0,0,1,
scooby_state_40d202|8|1 1,0,0,0,0,0,0,0,0,0,0,0,0,0,0,1,
scooby_state_40d2ed|8|-14 1,0,0,0,0,0,0,0,0,0,0,0,0,0,0,1,
scooby_state_40fa02|40|1 1,0,0,0,0,0,0,0,0,0,0,0,0,0,0,1,
scooby_state_40eaa6|61|15 1,0,0,0,0,0,0,0,0,0,0,0,0,0,0,1,
scooby_state_40fa87|42|1 1,0,0,0,0,0,0,0,0,0,0,0,0,0,0,1,
scooby_state_40fb09|44|1 1,0,0,0,0,0,0,0,0,0,0,0,0,0,0,1,
scooby_state_40e725|41|0 1,0,0,0,0,0,0,0,0,0,0,0,0,0,0,1,
scooby_state_40fb48|45|1 1,0,0,0,0,0,0,0,0,0,0,0,0,0,0,1,
scooby_state_40d806|32|1 1,0,0,0,0,0,0,0,0,0,0,0,0,0,0,1,
scooby_state_40ec9d|55|30 1,0,0,0,0,0,0,0,0,0,0,0,0,0,0,1,
scooby_state_40edc0|55|1 1,0,0,0,0,0,0,0,0,0,0,0,0,0,0,1,
scooby_state_40d583|22|1 1,0,0,0,0,0,0,0,0,0,0,0,0,0,0,1,
scooby_state_40d5c3|23|1 1,0,0,0,0,0,0,0,0,0,0,0,0,0,0,1,
scooby_state_40d643|25|1 1,0,0,0,0,0,0,0,0,0,0,0,0,0,0,1,
scooby_state_40d703|28|1 1,0,0,0,0,0,0,0,0,0,0,0,0,0,0,1,
scooby_state_40d741|29|1 1,0,0,0,0,0,0,0,0,0,0,0,0,0,0,1,
scooby_state_40d783|30|1 1,0,0,0,0,0,0,0,0,0,0,0,0,0,0,1,
scooby_state_40d7c0|31|1 1,0,0,0,0,0,0,0,0,0,0,0,0,0,0,1,
scooby_state_411381|14|0 1,0,0,0,0,0,0,0,0,0,0,0,0,0,0,1,
scooby_state_40d887|34|1 1,0,0,0,0,0,0,0,0,0,0,0,0,0,0,1,
scooby_state_40d902|36|1 1,0,0,0,0,0,0,0,0,0,0,0,0,0,0,1,
scooby_state_40d985|38|1 1,0,0,0,0,0,0,0,0,0,0,0,0,0,0,1,
scooby_state_40d9c7|39|1 1,0,0,0,0,0,0,0,0,0,0,0,0,0,0,1,
scooby_state_40da03|40|1 1,0,0,0,0,0,0,0,0,0,0,0,0,0,0,1,
scooby_state_40f403|16|1 1,0,0,0,0,0,0,0,0,0,0,0,0,0,0,1,
scooby_state_411306|12|1 1,0,0,0,0,0,0,0,0,0,0,0,0,0,0,1,
scooby_state_40f5c2|23|1 1,0,0,0,0,0,0,0,0,0,0,0,0,0,0,1,
scooby_state_410cc1|51|1 1,0,0,0,0,0,0,0,0,0,0,0,0,0,0,1,
scooby_state_40f483|18|1 1,0,0,0,0,0,0,0,0,0,0,0,0,0,0,1,
scooby_state_410840|33|1 1,0,0,0,0,0,0,0,0,0,0,0,0,0,0,1,
scooby_state_40f6c5|27|1 1,0,0,0,0,0,0,0,0,0,0,0,0,0,0,1,
scooby_state_410f83|27|1 1,0,0,0,0,0,0,0,0,0,0,0,0,0,0,1,
scooby_state_4101c1|7|1 1,0,0,0,0,0,0,0,0,0,0,0,0,0,0,1,
scooby_state_40d2c7|11|1 1,0,0,0,0,0,0,0,0,0,0,0,0,0,0,1,
scooby_state_410b00|44|1 1,0,0,0,0,0,0,0,0,0,0,0,0,0,0,1,
scooby_state_410bc1|47|1 1,0,0,0,0,0,0,0,0,0,0,0,0,0,0,1,
scooby_state_40f641|25|1 1,0,0,0,0,0,0,0,0,0,0,0,0,0,0,1,
scooby_state_40f0d9|46|-15 1,0,0,0,0,0,0,0,0,0,0,0,0,0,0,1,
scooby_state_40dac0|43|1 1,0,0,0,0,0,0,0,0,0,0,0,0,0,0,1,
scooby_state_40ea11|54|0 1,0,0,0,0,0,0,0,0,0,0,0,0,0,0,1,
scooby_state_40e5dc|30|0 1,0,0,0,0,0,0,0,0,0,0,0,0,0,0,1,
scooby_state_40db46|45|1 1,0,0,0,0,0,0,0,0,0,0,0,0,0,0,1,
scooby_state_40dbc5|47|1 1,0,0,0,0,0,0,0,0,0,0,0,0,0,0,1,
scooby_state_40dd85|54|1 1,0,0,0,0,0,0,0,0,0,0,0,0,0,0,1,
scooby_state_40ecc6|5|-15 1,0,0,0,0,0,0,0,0,0,0,0,0,0,0,1,
scooby_state_40e182|6|1 1,0,0,0,0,0,0,0,0,0,0,0,0,0,0,1,
scooby_state_40f602|24|1 1,0,0,0,0,0,0,0,0,0,0,0,0,0,0,1,
scooby_state_4110fd|39|-15 1,0,0,0,0,0,0,0,0,0,0,0,0,0,0,1,
scooby_state_40fcc3|51|1 1,0,0,0,0,0,0,0,0,0,0,0,0,0,0,1,
scooby_state_40f886|34|1 1,0,0,0,0,0,0,0,0,0,0,0,0,0,0,1,
scooby_state_40fd43|53|1 1,0,0,0,0,0,0,0,0,0,0,0,0,0,0,1,
scooby_state_410980|38|1 1,0,0,0,0,0,0,0,0,0,0,0,0,0,0,1,
scooby_state_40ec07|48|1 1,0,0,0,0,0,0,0,0,0,0,0,0,0,0,1,
scooby_state_410086|2|1 1,0,0,0,0,0,0,0,0,0,0,0,0,0,0,1,
scooby_state_410280|10|1 1,0,0,0,0,0,0,0,0,0,0,0,0,0,0,1,
scooby_state_410685|26|1 1,0,0,0,0,0,0,0,0,0,0,0,0,0,0,1,
scooby_state_40ce80|58|1 1,0,0,0,0,0,0,0,0,0,0,0,0,0,0,1,
scooby_state_40e61b|23|0 1,0,0,0,0,0,0,0,0,0,0,0,0,0,0,1,
scooby_state_410381|14|1 1,0,0,0,0,0,0,0,0,0,0,0,0,0,0,1,
scooby_state_40ed43|53|1 1,0,0,0,0,0,0,0,0,0,0,0,0,0,0,1,
scooby_state_410409|16|1 1,0,0,0,0,0,0,0,0,0,0,0,0,0,0,1,
scooby_state_40d486|18|0 1,0,0,0,0,0,0,0,0,0,0,0,0,0,0,1,
scooby_state_40e6b2|18|-1 1,0,0,0,0,0,0,0,0,0,0,0,0,0,0,1,
scooby_state_40e500|59|38 1,0,0,0,0,0,0,0,0,0,0,0,0,0,0,1,
scooby_state_410a46|41|1 1,0,0,0,0,0,0,0,0,0,0,0,0,0,0,1,
scooby_state_40ce40|57|1 1,0,0,0,0,0,0,0,0,0,0,0,0,0,0,1,
scooby_state_40cc41|49|1 1,0,0,0,0,0,0,0,0,0,0,0,0,0,0,1,
scooby_state_40cc83|50|1 1,0,0,0,0,0,0,0,0,0,0,0,0,0,0,1,
scooby_state_40cd47|53|1 1,0,0,0,0,0,0,0,0,0,0,0,0,0,0,1,
scooby_state_40cd80|54|1 1,0,0,0,0,0,0,0,0,0,0,0,0,0,0,1,
scooby_state_40ecc6|25|-15 1,0,0,0,0,0,0,0,0,0,0,0,0,0,0,1,
scooby_state_40f102|4|1 1,0,0,0,0,0,0,0,0,0,0,0,0,0,0,1,
scooby_state_40cdc0|55|1 1,0,0,0,0,0,0,0,0,0,0,0,0,0,0,1,
scooby_state_40ce00|56|1 1,0,0,0,0,0,0,0,0,0,0,0,0,0,0,1,
scooby_state_40ec9d|39|30 1,0,0,0,0,0,0,0,0,0,0,0,0,0,0,1,
scooby_state_40f9c4|39|1 1,0,0,0,0,0,0,0,0,0,0,0,0,0,0,1,
scooby_state_40cf04|60|1 1,0,0,0,0,0,0,0,0,0,0,0,0,0,0,1,
scooby_state_40cf45|61|1 1,0,0,0,0,0,0,0,0,0,0,0,0,0,0,1,
scooby_state_40cf86|62|1 1,0,0,0,0,0,0,0,0,0,0,0,0,0,0,1,
scooby_state_40cfc2|63|1 1,0,0,0,0,0,0,0,0,0,0,0,0,0,0,1,
scooby_state_40e642|25|1 1,0,0,0,0,0,0,0,0,0,0,0,0,0,0,1,
scooby_state_40d002|0|0 1,0,0,0,0,0,0,0,0,0,0,0,0,0,0,1,
scooby_state_40d043|1|1 1,0,0,0,0,0,0,0,0,0,0,0,0,0,0,1,
scooby_state_410885|34|1 1,0,0,0,0,0,0,0,0,0,0,0,0,0,0,1,
scooby_state_411501|20|1 1,0,0,0,0,0,0,0,0,0,0,0,0,0,0,1,
scooby_state_410d02|52|1 1,0,0,0,0,0,0,0,0,0,0,0,0,0,0,1,
scooby_state_40fc86|50|1 1,0,0,0,0,0,0,0,0,0,0,0,0,0,0,1,
scooby_state_40ee80|58|1 1,0,0,0,0,0,0,0,0,0,0,0,0,0,0,1,
scooby_state_40e94a|13|0 1,0,0,0,0,0,0,0,0,0,0,0,0,0,0,1,
scooby_state_40d325|41|-19 1,0,0,0,0,0,0,0,0,0,0,0,0,0,0,1,
scooby_state_4113c1|15|1 1,0,0,0,0,0,0,0,0,0,0,0,0,0,0,1,
scooby_state_411401|16|1 1,0,0,0,0,0,0,0,0,0,0,0,0,0,0,1,
scooby_state_411481|18|1 1,0,0,0,0,0,0,0,0,0,0,0,0,0,0,1,
scooby_state_4114c1|19|1 1,0,0,0,0,0,0,0,0,0,0,0,0,0,0,1,
scooby_state_40d080|2|1 1,0,0,0,0,0,0,0,0,0,0,0,0,0,0,1,
scooby_state_411541|21|1 1,0,0,0,0,0,0,0,0,0,0,0,0,0,0,1,
scooby_state_411581|22|1 1,0,0,0,0,0,0,0,0,0,0,0,0,0,0,1,
scooby_state_4115c0|23|1 1,0,0,0,0,0,0,0,0,0,0,0,0,0,0,1,
scooby_state_40cb80|46|0 1,0,0,0,0,0,0,0,0,0,0,0,0,0,0,1,
scooby_state_40e006|0|-63 1,0,0,0,0,0,0,0,0,0,0,0,0,0,0,1,
scooby_state_40cbc2|47|1 1,0,0,0,0,0,0,0,0,0,0,0,0,0,0,1,
scooby_state_40cc02|48|1 1,0,0,0,0,0,0,0,0,0,0,0,0,0,0,1,
scooby_state_40dfc2|63|1 1,0,0,0,0,0,0,0,0,0,0,0,0,0,0,1,
scooby_state_40e588|22|1 1,0,0,0,0,0,0,0,0,0,0,0,0,0,0,1,
scooby_state_40e5e1|27|0 1,0,0,0,0,0,0,0,0,0,0,0,0,0,0,1,
scooby_state_40e5ef|15|0 1,0,0,0,0,0,0,0,0,0,0,0,0,0,0,1,
scooby_state_40ff43|61|1 1,0,0,0,0,0,0,0,0,0,0,0,0,0,0,1,
scooby_state_410344|13|1 1,0,0,0,0,0,0,0,0,0,0,0,0,0,0,1,
scooby_state_40f587|22|1 1,0,0,0,0,0,0,0,0,0,0,0,0,0,0,1,
scooby_state_410704|28|1 1,0,0,0,0,0,0,0,0,0,0,0,0,0,0,1,
scooby_state_40f0b7|47|0 1,0,0,0,0,0,0,0,0,0,0,0,0,0,0,1,
scooby_state_40ea46|41|1 1,0,0,0,0,0,0,0,0,0,0,0,0,0,0,1,
scooby_state_40df41|61|1 1,0,0,0,0,0,0,0,0,0,0,0,0,0,0,1,
scooby_state_40fa3f|61|0 1,0,0,0,0,0,0,0,0,0,0,0,0,0,0,1,
scooby_state_40e681|26|1 1,0,0,0,0,0,0,0,0,0,0,0,0,0,0,1,
scooby_state_410457|53|0 1,0,0,0,0,0,0,0,0,0,0,0,0,0,0,1,
scooby_state_40e8c1|35|1 1,0,0,0,0,0,0,0,0,0,0,0,0,0,0,1,
scooby_state_40fe43|57|1 1,0,0,0,0,0,0,0,0,0,0,0,0,0,0,1,
scooby_state_410d46|53|1 1,0,0,0,0,0,0,0,0,0,0,0,0,0,0,1,
scooby_state_410b45|45|1 1,0,0,0,0,0,0,0,0,0,0,0,0,0,0,1,
scooby_state_40ec60|21|-14 1,0,0,0,0,0,0,0,0,0,0,0,0,0,0,1,
scooby_state_40e53f|62|1 1,0,0,0,0,0,0,0,0,0,0,0,0,0,0,1,
scooby_state_40fac7|43|1 1,0,0,0,0,0,0,0,0,0,0,0,0,0,0,1,
scooby_state_40d0c2|3|1 1,0,0,0,0,0,0,0,0,0,0,0,0,0,0,1,
scooby_state_40d102|4|1 1,0,0,0,0,0,0,0,0,0,0,0,0,0,0,1,
scooby_state_40d147|5|1 1,0,0,0,0,0,0,0,0,0,0,0,0,0,0,1,
scooby_state_40d183|6|1 1,0,0,0,0,0,0,0,0,0,0,0,0,0,0,1,
scooby_state_40d1c3|7|1 1,0,0,0,0,0,0,0,0,0,0,0,0,0,0,1,
scooby_state_40d41d|40|-12 1,0,0,0,0,0,0,0,0,0,0,0,0,0,0,1,
scooby_state_40d241|9|1 1,0,0,0,0,0,0,0,0,0,0,0,0,0,0,1,
scooby_state_40d283|10|1 1,0,0,0,0,0,0,0,0,0,0,0,0,0,0,1,
scooby_state_40d305|12|1 1,0,0,0,0,0,0,0,0,0,0,0,0,0,0,1,
scooby_state_40fe01|56|1 1,0,0,0,0,0,0,0,0,0,0,0,0,0,0,1,
scooby_state_40d3c5|15|1 1,0,0,0,0,0,0,0,0,0,0,0,0,0,0,1,
scooby_state_40d445|17|1 1,0,0,0,0,0,0,0,0,0,0,0,0,0,0,1,
scooby_state_411001|0|0 1,0,0,0,0,0,0,0,0,0,0,0,0,0,0,1,
scooby_state_40edf0|5|0 1,0,0,0,0,0,0,0,0,0,0,0,0,0,0,1,
scooby_state_40e500|20|0 1,0,0,0,0,0,0,0,0,0,0,0,0,0,0,1,
scooby_state_40d4c2|19|1 1,0,0,0,0,0,0,0,0,0,0,0,0,0,0,1,
scooby_state_40ccc0|51|1 1,0,0,0,0,0,0,0,0,0,0,0,0,0,0,1,
scooby_state_40eb04|44|1 1,0,0,0,0,0,0,0,0,0,0,0,0,0,0,1,

scooby_action_0_deg_dist 0,474,0,0,0,0,0,0,0,0,0,0,0,0,0,0,
scooby_action_4_deg_dist 0,474,0,0,0,0,0,0,0,0,0,0,0,0,0,0,
scooby_action_3_deg_dist 0,492,0,0,0,0,0,0,0,0,0,0,0,0,0,0,
scooby_action_32_deg_dist 0,433,0,0,0,0,0,0,0,0,0,0,0,0,0,0,
scooby_action_5_deg_dist 0,439,0,0,0,0,0,0,0,0,0,0,0,0,0,0,
scooby_action_1_deg_dist 0,179415,70540,0,179119,0,3442403,0,0,0,0,0,0,0,0,0,
scooby_action_30_deg_dist 0,482,0,0,0,0,0,0,0,0,0,0,0,0,0,0,
scooby_action_-3_deg_dist 0,456,0,0,0,0,0,0,0,0,0,0,0,0,0,0,
scooby_action_10_deg_dist 0,514,0,0,0,0,0,0,0,0,0,0,0,0,0,0,
scooby_action_-1_deg_dist 0,471,0,0,0,0,0,0,0,0,0,0,0,0,0,0,
scooby_action_23_deg_dist 0,488,0,0,0,0,0,0,0,0,0,0,0,0,0,0,
scooby_action_-6_deg_dist 0,449,0,0,0,0,0,0,0,0,0,0,0,0,0,0,
scooby_action_11_deg_dist 0,471,0,0,0,0,0,0,0,0,0,0,0,0,0,0,
scooby_action_22_deg_dist 0,465,0,0,0,0,0,0,0,0,0,0,0,0,0,0,
scooby_action_12_deg_dist 0,473,0,0,0,0,0,0,0,0,0,0,0,0,0,0,

scooby_track_called 3878058
scooby_track_same_address 7129
scooby_track_evict 3870673

scooby_reward_demand_called 3878058
scooby_reward_demand_pt_not_found 129558
scooby_reward_demand_pt_found 3748500
scooby_reward_demand_pt_found_total 3748500
scooby_reward_demand_has_reward 1472
scooby_reward_train_called 59547
scooby_reward_assign_reward_called 3870852
scooby_reward_no_pref 474
scooby_reward_incorrect 59073
scooby_reward_correct_untimely 3592417
scooby_reward_correct_timely 154611
scooby_reward_out_of_bounds 64277
scooby_reward_tracker_hit 0

scooby_reward_none_low_bw 474
scooby_reward_none_high_bw 0
scooby_reward_incorrect_low_bw 59073
scooby_reward_incorrect_high_bw 0
scooby_reward_correct_untimely_low_bw 3592417
scooby_reward_correct_untimely_high_bw 0
scooby_reward_correct_timely_low_bw 154611
scooby_reward_correct_timely_high_bw 0
scooby_reward_out_of_bounds_low_bw 64277
scooby_reward_out_of_bounds_high_bw 0
scooby_reward_tracker_hit_low_bw 0
scooby_reward_tracker_hit_high_bw 0

scooby_reward_1 0,55678,3591837,154345,63078,0,
scooby_reward_3 0,5,423,40,19,0,
scooby_reward_4 0,379,51,17,25,0,
scooby_reward_5 0,355,40,7,34,0,
scooby_reward_10 0,348,1,82,83,0,
scooby_reward_11 0,334,1,60,76,0,
scooby_reward_12 0,297,2,60,105,0,
scooby_reward_22 0,308,1,0,156,0,
scooby_reward_23 0,302,0,0,184,0,
scooby_reward_30 0,200,0,0,225,0,
scooby_reward_32 0,152,58,0,222,0,
scooby_reward_-1 0,13,2,0,15,0,
scooby_reward_-3 0,345,0,0,24,0,
scooby_reward_-6 0,357,1,0,31,0,
scooby_reward_0 474,0,0,0,0,0,

scooby_train_called 3870672
scooby_train_compute_reward 59547

scooby_register_fill_called 2102506
scooby_register_fill_set 156196
scooby_register_fill_set_total 156196

scooby_register_prefetch_hit_called 16796460
scooby_register_prefetch_hit_set 3440971
scooby_register_prefetch_hit_set_total 3440971

scooby_pref_issue_scooby 20428350

learning_engine_featurewise.action.called 3878058
learning_engine_featurewise.action.explore 7052
learning_engine_featurewise.action.exploit 3871006
learning_engine_featurewise.action.fallback 0
learning_engine_featurewise.action.dyn_fallback_saved_bw 0
learning_engine_featurewise.action.dyn_fallback_saved_bw_acc 11587
learning_engine_featurewise.action.index_1_explored 472
learning_engine_featurewise.action.index_1_exploited 3871005
learning_engine_featurewise.action.index_3_explored 491
learning_engine_featurewise.action.index_3_exploited 1
learning_engine_featurewise.action.index_4_explored 474
learning_engine_featurewise.action.index_4_exploited 0
learning_engine_featurewise.action.index_5_explored 439
learning_engine_featurewise.action.index_5_exploited 0
learning_engine_featurewise.action.index_10_explored 514
learning_engine_featurewise.action.index_10_exploited 0
learning_engine_featurewise.action.index_11_explored 471
learning_engine_featurewise.action.index_11_exploited 0
learning_engine_featurewise.action.index_12_explored 473
learning_engine_featurewise.action.index_12_exploited 0
learning_engine_featurewise.action.index_22_explored 465
learning_engine_featurewise.action.index_22_exploited 0
learning_engine_featurewise.action.index_23_explored 488
learning_engine_featurewise.action.index_23_exploited 0
learning_engine_featurewise.action.index_30_explored 482
learning_engine_featurewise.action.index_30_exploited 0
learning_engine_featurewise.action.index_32_explored 433
learning_engine_featurewise.action.index_32_exploited 0
learning_engine_featurewise.action.index_-1_explored 471
learning_engine_featurewise.action.index_-1_exploited 0
learning_engine_featurewise.action.index_-3_explored 456
learning_engine_featurewise.action.index_-3_exploited 0
learning_engine_featurewise.action.index_-6_explored 449
learning_engine_featurewise.action.index_-6_exploited 0
learning_engine_featurewise.action.index_0_explored 474
learning_engine_featurewise.action.index_0_exploited 0
learning_engine_featurewise.learn.called 3870672
learning_engine_featurewise.learn.su_skip_PC 0
learning_engine_featurewise.learn.su_skip_PC_Delta 0

learning_engine_featurewise.q_value_histogram.bucket_0 0
learning_engine_featurewise.q_value_histogram.bucket_1 0
learning_engine_featurewise.q_value_histogram.bucket_2 0
learning_engine_featurewise.q_value_histogram.bucket_3 0
learning_engine_featurewise.q_value_histogram.bucket_4 1907
learning_engine_featurewise.q_value_histogram.bucket_5 6842
learning_engine_featurewise.q_value_histogram.bucket_6 3862257
learning_engine_featurewise.q_value_histogram.bucket_7 0

learning_engine_featurewise.consensus.total 3871006
learning_engine_featurewise.consensus.feature_align_PC 3859059
learning_engine_featurewise.consensus.feature_align_PC_ratio 1.00
learning_engine_featurewise.consensus.feature_align_PC_Delta 3871002
learning_engine_featurewise.consensus.feature_align_PC_Delta_ratio 1.00
learning_engine_featurewise.consensus.feature_align_all 3859055
learning_engine_featurewise.consensus.feature_align_all_ratio 1.00

learning_engine_featurewise.feature_PC_min_weight 1000000.00000000
learning_engine_featurewise.feature_PC_max_weight 0.00000000
learning_engine_featurewise.feature_PC_Delta_min_weight 1000000.00000000
learning_engine_featurewise.feature_PC_Delta_max_weight 0.00000000
unique_pcs 491
unique_pages 14953
unique_trigger_pcs 104
total_bitmaps_seen 0
unique_bitmaps_seen 0

scooby_bw_epochs 5142205
scooby_bw_level_0 5090316
scooby_bw_level_1 48206
scooby_bw_level_2 3645
scooby_bw_level_3 38

scooby_ipc_epochs 0
scooby_ipc_level_0 0
scooby_ipc_level_1 0
scooby_ipc_level_2 0
scooby_ipc_level_3 0

scooby_cache_acc_epochs 657022
scooby_cache_acc_level_0 590
scooby_cache_acc_level_1 9810
scooby_cache_acc_level_2 25169
scooby_cache_acc_level_3 63966
scooby_cache_acc_level_4 66541
scooby_cache_acc_level_5 41272
scooby_cache_acc_level_6 72975
scooby_cache_acc_level_7 69392
scooby_cache_acc_level_8 66570
scooby_cache_acc_level_9 240737

Channel_0_RQ_row_buffer_hit 559958
Channel_0_RQ_row_buffer_miss 1368666
Channel_0_WQ_row_buffer_hit 81706
Channel_0_WQ_row_buffer_miss 522577
Channel_0_WQ_full 0
Channel_0_dbus_congested 423729

avg_congested_cycle 4

DRAM_bw_pochs 5142205
DRAM_bw_level_0 5090316
DRAM_bw_level_1 48206
DRAM_bw_level_2 3645
DRAM_bw_level_3 38
