*************************************************
   ChampSim Multicore Out-of-Order Simulator
   Last compiled: Dec 11 2024 17:59:53
*************************************************
parsing config file: /home/functionmain/桌面/Pythia/config/spp_dev2.ini

trace_0 /home/functionmain/桌面/Pythia/traces/436.cactusADM-1804B.champsimtrace.xz
adding L2C_PREFETCHER: SPP_dev2
Initialize SIGNATURE TABLE
ST_SET: 1
ST_WAY: 256
ST_TAG_BIT: 16
ST_TAG_MASK: ffff

Initialize PATTERN TABLE
PT_SET: 512
PT_WAY: 4
SIG_DELTA_BIT: 7
C_SIG_BIT: 4
C_DELTA_BIT: 4

Initialize PREFETCH FILTER
FILTER_SET: 1024
fill_threshold: 90
pf_threshold: 40

Initialize SHIP state
warmup_instructions 100000000
simulation_instructions 500000000
champsim_seed 271
measure_ipc 0
measure_ipc_epoch 1000
measure_dram_bw 1
measure_dram_bw_epoch 256
measure_cache_acc 1
measure_cache_acc_epoch 1024
l1d_perfect 0
l2c_perfect 0
llc_perfect 0
l1d_semi_perfect 0
l2c_semi_perfect 0
llc_semi_perfect 0
semi_perfect_cache_page_buffer_size 64

num_cpus 1
cpu_freq 4000
dram_io_freq 600
page_size 4096
block_size 64
max_read_per_cycle 8
max_fill_per_cycle 1
dram_channels 1
log2_dram_channels 0
dram_ranks 1
dram_banks 8
dram_rows 65536
dram_columns 128
dram_row_size 8
dram_size 4096
dram_pages 1048576

fetch_width 6
decode_width 6
exec_width 4
lq_width 2
sq_width 2
retire_width 4
scheduler_size 128
branch_mispredict_penalty 20
rob_size 256
lq_size 72
sq_size 56
num_instr_destinations_sparc 4
num_instr_destinations 2
num_instr_sources 4

itlb_set 16
itlb_way 8
itlb_rq_size 16
itlb_wq_size 16
itlb_pq_size 0
itlb_mshr_size 8
itlb_latency 1

dtlb_set 16
dtlb_way 4
dtlb_rq_size 16
dtlb_wq_size 16
dtlb_pq_size 0
dtlb_mshr_size 8
dtlb_latency 1

stlb_set 128
stlb_way 12
stlb_rq_size 32
stlb_wq_size 32
stlb_pq_size 0
stlb_mshr_size 16
stlb_latency 8

l1i_size 32
l1i_set 64
l1i_way 8
l1i_rq_size 64
l1i_wq_size 64
l1i_pq_size 8
l1i_mshr_size 8
l1i_latency 1

l1d_size 32
l1d_set 64
l1d_way 8
l1d_rq_size 64
l1d_wq_size 64
l1d_pq_size 8
l1d_mshr_size 16
l1d_latency 4

l2c_size 256
l2c_set 512
l2c_way 8
l2c_rq_size 32
l2c_wq_size 32
l2c_pq_size 32
l2c_mshr_size 32
l2c_latency 10

llc_size 2048
llc_set 2048
llc_way 16
llc_rq_size 32
llc_wq_size 32
llc_pq_size 32
llc_mshr_size 64
llc_latency 20

dram_channel_width 8
dram_wq_size 64
dram_rq_size 64
tRP 15
tRCD 15
tCAS 12.5
dram_dbus_turn_around_time 30
dram_write_high_wm 56
dram_write_low_wm 48
min_dram_writes_per_switch 16
dram_mtps 600
dram_dbus_return_time 53


Heartbeat CPU  0 instructions:    1000000 cycles:     702346 heartbeat IPC: 1.42380 cumulative IPC: 1.42380 (Simulation time: 0 hr 0 min 2 sec) 
Heartbeat CPU  0 instructions:    2000000 cycles:    1404560 heartbeat IPC: 1.42407 cumulative IPC: 1.42393 (Simulation time: 0 hr 0 min 5 sec) 
Heartbeat CPU  0 instructions:    3000000 cycles:    2106930 heartbeat IPC: 1.42375 cumulative IPC: 1.42387 (Simulation time: 0 hr 0 min 8 sec) 
Heartbeat CPU  0 instructions:    4000000 cycles:    2809292 heartbeat IPC: 1.42377 cumulative IPC: 1.42385 (Simulation time: 0 hr 0 min 11 sec) 
Heartbeat CPU  0 instructions:    5000000 cycles:    3511500 heartbeat IPC: 1.42408 cumulative IPC: 1.42389 (Simulation time: 0 hr 0 min 14 sec) 
Heartbeat CPU  0 instructions:    6000000 cycles:    4213918 heartbeat IPC: 1.42365 cumulative IPC: 1.42385 (Simulation time: 0 hr 0 min 17 sec) 
Heartbeat CPU  0 instructions:    7000001 cycles:    4916339 heartbeat IPC: 1.42365 cumulative IPC: 1.42382 (Simulation time: 0 hr 0 min 19 sec) 
Heartbeat CPU  0 instructions:    8000000 cycles:    5618454 heartbeat IPC: 1.42427 cumulative IPC: 1.42388 (Simulation time: 0 hr 0 min 22 sec) 
Heartbeat CPU  0 instructions:    9000001 cycles:    6320932 heartbeat IPC: 1.42353 cumulative IPC: 1.42384 (Simulation time: 0 hr 0 min 25 sec) 
Heartbeat CPU  0 instructions:   10000000 cycles:    7023154 heartbeat IPC: 1.42405 cumulative IPC: 1.42386 (Simulation time: 0 hr 0 min 28 sec) 
Heartbeat CPU  0 instructions:   11000002 cycles:    7725368 heartbeat IPC: 1.42407 cumulative IPC: 1.42388 (Simulation time: 0 hr 0 min 30 sec) 
Heartbeat CPU  0 instructions:   12000000 cycles:    8427564 heartbeat IPC: 1.42410 cumulative IPC: 1.42390 (Simulation time: 0 hr 0 min 33 sec) 
Heartbeat CPU  0 instructions:   13000000 cycles:    9130107 heartbeat IPC: 1.42340 cumulative IPC: 1.42386 (Simulation time: 0 hr 0 min 35 sec) 
Heartbeat CPU  0 instructions:   14000002 cycles:    9832352 heartbeat IPC: 1.42401 cumulative IPC: 1.42387 (Simulation time: 0 hr 0 min 38 sec) 
Heartbeat CPU  0 instructions:   15000002 cycles:   10534339 heartbeat IPC: 1.42453 cumulative IPC: 1.42391 (Simulation time: 0 hr 0 min 40 sec) 
Heartbeat CPU  0 instructions:   16000000 cycles:   11236902 heartbeat IPC: 1.42336 cumulative IPC: 1.42388 (Simulation time: 0 hr 0 min 43 sec) 
Heartbeat CPU  0 instructions:   17000000 cycles:   11939517 heartbeat IPC: 1.42325 cumulative IPC: 1.42384 (Simulation time: 0 hr 0 min 45 sec) 
Heartbeat CPU  0 instructions:   18000001 cycles:   12600735 heartbeat IPC: 1.51236 cumulative IPC: 1.42849 (Simulation time: 0 hr 0 min 48 sec) 
Heartbeat CPU  0 instructions:   19000000 cycles:   13236230 heartbeat IPC: 1.57357 cumulative IPC: 1.43545 (Simulation time: 0 hr 0 min 50 sec) 
Heartbeat CPU  0 instructions:   20000000 cycles:   13938792 heartbeat IPC: 1.42336 cumulative IPC: 1.43484 (Simulation time: 0 hr 0 min 53 sec) 
Heartbeat CPU  0 instructions:   21000000 cycles:   14641251 heartbeat IPC: 1.42357 cumulative IPC: 1.43430 (Simulation time: 0 hr 0 min 55 sec) 
Heartbeat CPU  0 instructions:   22000002 cycles:   15343530 heartbeat IPC: 1.42394 cumulative IPC: 1.43383 (Simulation time: 0 hr 0 min 58 sec) 
Heartbeat CPU  0 instructions:   23000001 cycles:   16045981 heartbeat IPC: 1.42359 cumulative IPC: 1.43338 (Simulation time: 0 hr 1 min 0 sec) 
Heartbeat CPU  0 instructions:   24000000 cycles:   16748131 heartbeat IPC: 1.42420 cumulative IPC: 1.43300 (Simulation time: 0 hr 1 min 3 sec) 
Heartbeat CPU  0 instructions:   25000001 cycles:   17450456 heartbeat IPC: 1.42384 cumulative IPC: 1.43263 (Simulation time: 0 hr 1 min 5 sec) 
Heartbeat CPU  0 instructions:   26000003 cycles:   18153109 heartbeat IPC: 1.42318 cumulative IPC: 1.43226 (Simulation time: 0 hr 1 min 8 sec) 
Heartbeat CPU  0 instructions:   27000003 cycles:   18855399 heartbeat IPC: 1.42391 cumulative IPC: 1.43195 (Simulation time: 0 hr 1 min 10 sec) 
Heartbeat CPU  0 instructions:   28000000 cycles:   19557596 heartbeat IPC: 1.42410 cumulative IPC: 1.43167 (Simulation time: 0 hr 1 min 13 sec) 
Heartbeat CPU  0 instructions:   29000000 cycles:   20260050 heartbeat IPC: 1.42358 cumulative IPC: 1.43139 (Simulation time: 0 hr 1 min 15 sec) 
Heartbeat CPU  0 instructions:   30000003 cycles:   20962466 heartbeat IPC: 1.42366 cumulative IPC: 1.43113 (Simulation time: 0 hr 1 min 18 sec) 
Heartbeat CPU  0 instructions:   31000003 cycles:   21664400 heartbeat IPC: 1.42464 cumulative IPC: 1.43092 (Simulation time: 0 hr 1 min 20 sec) 
Heartbeat CPU  0 instructions:   32000000 cycles:   22366507 heartbeat IPC: 1.42428 cumulative IPC: 1.43071 (Simulation time: 0 hr 1 min 23 sec) 
Heartbeat CPU  0 instructions:   33000001 cycles:   23069272 heartbeat IPC: 1.42295 cumulative IPC: 1.43047 (Simulation time: 0 hr 1 min 25 sec) 
Heartbeat CPU  0 instructions:   34000000 cycles:   23771441 heartbeat IPC: 1.42416 cumulative IPC: 1.43029 (Simulation time: 0 hr 1 min 28 sec) 
Heartbeat CPU  0 instructions:   35000001 cycles:   24473695 heartbeat IPC: 1.42399 cumulative IPC: 1.43011 (Simulation time: 0 hr 1 min 30 sec) 
Heartbeat CPU  0 instructions:   36000000 cycles:   25175917 heartbeat IPC: 1.42405 cumulative IPC: 1.42994 (Simulation time: 0 hr 1 min 33 sec) 
Heartbeat CPU  0 instructions:   37000000 cycles:   25878526 heartbeat IPC: 1.42327 cumulative IPC: 1.42976 (Simulation time: 0 hr 1 min 35 sec) 
Heartbeat CPU  0 instructions:   38000001 cycles:   26580767 heartbeat IPC: 1.42401 cumulative IPC: 1.42961 (Simulation time: 0 hr 1 min 38 sec) 
Heartbeat CPU  0 instructions:   39000000 cycles:   27283049 heartbeat IPC: 1.42393 cumulative IPC: 1.42946 (Simulation time: 0 hr 1 min 40 sec) 
Heartbeat CPU  0 instructions:   40000000 cycles:   27985330 heartbeat IPC: 1.42393 cumulative IPC: 1.42932 (Simulation time: 0 hr 1 min 43 sec) 
Heartbeat CPU  0 instructions:   41000000 cycles:   28590920 heartbeat IPC: 1.65128 cumulative IPC: 1.43402 (Simulation time: 0 hr 1 min 45 sec) 
Heartbeat CPU  0 instructions:   42000002 cycles:   29282348 heartbeat IPC: 1.44629 cumulative IPC: 1.43431 (Simulation time: 0 hr 1 min 48 sec) 
Heartbeat CPU  0 instructions:   43000002 cycles:   29984801 heartbeat IPC: 1.42358 cumulative IPC: 1.43406 (Simulation time: 0 hr 1 min 50 sec) 
Heartbeat CPU  0 instructions:   44000000 cycles:   30687294 heartbeat IPC: 1.42350 cumulative IPC: 1.43382 (Simulation time: 0 hr 1 min 53 sec) 
Heartbeat CPU  0 instructions:   45000003 cycles:   31389617 heartbeat IPC: 1.42385 cumulative IPC: 1.43360 (Simulation time: 0 hr 1 min 55 sec) 
Heartbeat CPU  0 instructions:   46000003 cycles:   32091871 heartbeat IPC: 1.42399 cumulative IPC: 1.43338 (Simulation time: 0 hr 1 min 58 sec) 
Heartbeat CPU  0 instructions:   47000000 cycles:   32794095 heartbeat IPC: 1.42404 cumulative IPC: 1.43318 (Simulation time: 0 hr 2 min 0 sec) 
Heartbeat CPU  0 instructions:   48000000 cycles:   33496795 heartbeat IPC: 1.42308 cumulative IPC: 1.43297 (Simulation time: 0 hr 2 min 3 sec) 
Heartbeat CPU  0 instructions:   49000000 cycles:   34198786 heartbeat IPC: 1.42452 cumulative IPC: 1.43280 (Simulation time: 0 hr 2 min 5 sec) 
Heartbeat CPU  0 instructions:   50000000 cycles:   34901146 heartbeat IPC: 1.42377 cumulative IPC: 1.43262 (Simulation time: 0 hr 2 min 8 sec) 
Heartbeat CPU  0 instructions:   51000000 cycles:   35603721 heartbeat IPC: 1.42334 cumulative IPC: 1.43243 (Simulation time: 0 hr 2 min 10 sec) 
Heartbeat CPU  0 instructions:   52000000 cycles:   36305844 heartbeat IPC: 1.42425 cumulative IPC: 1.43228 (Simulation time: 0 hr 2 min 12 sec) 
Heartbeat CPU  0 instructions:   53000000 cycles:   37008283 heartbeat IPC: 1.42361 cumulative IPC: 1.43211 (Simulation time: 0 hr 2 min 15 sec) 
Heartbeat CPU  0 instructions:   54000001 cycles:   37710446 heartbeat IPC: 1.42417 cumulative IPC: 1.43196 (Simulation time: 0 hr 2 min 17 sec) 
Heartbeat CPU  0 instructions:   55000001 cycles:   38412794 heartbeat IPC: 1.42380 cumulative IPC: 1.43181 (Simulation time: 0 hr 2 min 20 sec) 
Heartbeat CPU  0 instructions:   56000000 cycles:   39115282 heartbeat IPC: 1.42351 cumulative IPC: 1.43167 (Simulation time: 0 hr 2 min 22 sec) 
Heartbeat CPU  0 instructions:   57000000 cycles:   39817785 heartbeat IPC: 1.42348 cumulative IPC: 1.43152 (Simulation time: 0 hr 2 min 25 sec) 
Heartbeat CPU  0 instructions:   58000003 cycles:   40520110 heartbeat IPC: 1.42385 cumulative IPC: 1.43139 (Simulation time: 0 hr 2 min 27 sec) 
Heartbeat CPU  0 instructions:   59000000 cycles:   41222298 heartbeat IPC: 1.42412 cumulative IPC: 1.43126 (Simulation time: 0 hr 2 min 30 sec) 
Heartbeat CPU  0 instructions:   60000000 cycles:   41924790 heartbeat IPC: 1.42350 cumulative IPC: 1.43113 (Simulation time: 0 hr 2 min 32 sec) 
Heartbeat CPU  0 instructions:   61000000 cycles:   42627029 heartbeat IPC: 1.42402 cumulative IPC: 1.43102 (Simulation time: 0 hr 2 min 35 sec) 
Heartbeat CPU  0 instructions:   62000002 cycles:   43329251 heartbeat IPC: 1.42405 cumulative IPC: 1.43090 (Simulation time: 0 hr 2 min 37 sec) 
Heartbeat CPU  0 instructions:   63000000 cycles:   43976888 heartbeat IPC: 1.54407 cumulative IPC: 1.43257 (Simulation time: 0 hr 2 min 40 sec) 
Heartbeat CPU  0 instructions:   64000000 cycles:   44628313 heartbeat IPC: 1.53510 cumulative IPC: 1.43407 (Simulation time: 0 hr 2 min 42 sec) 
Heartbeat CPU  0 instructions:   65000000 cycles:   45330465 heartbeat IPC: 1.42419 cumulative IPC: 1.43391 (Simulation time: 0 hr 2 min 45 sec) 
Heartbeat CPU  0 instructions:   66000001 cycles:   46032560 heartbeat IPC: 1.42431 cumulative IPC: 1.43377 (Simulation time: 0 hr 2 min 47 sec) 
Heartbeat CPU  0 instructions:   67000002 cycles:   46734703 heartbeat IPC: 1.42421 cumulative IPC: 1.43362 (Simulation time: 0 hr 2 min 50 sec) 
Heartbeat CPU  0 instructions:   68000000 cycles:   47437145 heartbeat IPC: 1.42360 cumulative IPC: 1.43348 (Simulation time: 0 hr 2 min 52 sec) 
Heartbeat CPU  0 instructions:   69000000 cycles:   48139326 heartbeat IPC: 1.42413 cumulative IPC: 1.43334 (Simulation time: 0 hr 2 min 55 sec) 
Heartbeat CPU  0 instructions:   70000002 cycles:   48841469 heartbeat IPC: 1.42421 cumulative IPC: 1.43321 (Simulation time: 0 hr 2 min 57 sec) 
Heartbeat CPU  0 instructions:   71000003 cycles:   49544108 heartbeat IPC: 1.42321 cumulative IPC: 1.43307 (Simulation time: 0 hr 3 min 0 sec) 
Heartbeat CPU  0 instructions:   72000000 cycles:   50246206 heartbeat IPC: 1.42430 cumulative IPC: 1.43294 (Simulation time: 0 hr 3 min 2 sec) 
Heartbeat CPU  0 instructions:   73000001 cycles:   50948316 heartbeat IPC: 1.42428 cumulative IPC: 1.43282 (Simulation time: 0 hr 3 min 5 sec) 
Heartbeat CPU  0 instructions:   74000003 cycles:   51650697 heartbeat IPC: 1.42373 cumulative IPC: 1.43270 (Simulation time: 0 hr 3 min 7 sec) 
Heartbeat CPU  0 instructions:   75000002 cycles:   52353405 heartbeat IPC: 1.42306 cumulative IPC: 1.43257 (Simulation time: 0 hr 3 min 10 sec) 
Heartbeat CPU  0 instructions:   76000000 cycles:   53055654 heartbeat IPC: 1.42399 cumulative IPC: 1.43246 (Simulation time: 0 hr 3 min 12 sec) 
Heartbeat CPU  0 instructions:   77000003 cycles:   53758301 heartbeat IPC: 1.42319 cumulative IPC: 1.43234 (Simulation time: 0 hr 3 min 15 sec) 
Heartbeat CPU  0 instructions:   78000001 cycles:   54460826 heartbeat IPC: 1.42343 cumulative IPC: 1.43222 (Simulation time: 0 hr 3 min 17 sec) 
Heartbeat CPU  0 instructions:   79000001 cycles:   55162785 heartbeat IPC: 1.42458 cumulative IPC: 1.43212 (Simulation time: 0 hr 3 min 20 sec) 
Heartbeat CPU  0 instructions:   80000000 cycles:   55864832 heartbeat IPC: 1.42440 cumulative IPC: 1.43203 (Simulation time: 0 hr 3 min 22 sec) 
Heartbeat CPU  0 instructions:   81000002 cycles:   56567213 heartbeat IPC: 1.42373 cumulative IPC: 1.43192 (Simulation time: 0 hr 3 min 25 sec) 
Heartbeat CPU  0 instructions:   82000003 cycles:   57269448 heartbeat IPC: 1.42403 cumulative IPC: 1.43183 (Simulation time: 0 hr 3 min 27 sec) 
Heartbeat CPU  0 instructions:   83000001 cycles:   57971703 heartbeat IPC: 1.42398 cumulative IPC: 1.43173 (Simulation time: 0 hr 3 min 30 sec) 
Heartbeat CPU  0 instructions:   84000000 cycles:   58673976 heartbeat IPC: 1.42395 cumulative IPC: 1.43164 (Simulation time: 0 hr 3 min 32 sec) 
Heartbeat CPU  0 instructions:   85000000 cycles:   59362737 heartbeat IPC: 1.45188 cumulative IPC: 1.43187 (Simulation time: 0 hr 3 min 35 sec) 
Heartbeat CPU  0 instructions:   86000002 cycles:   59972379 heartbeat IPC: 1.64031 cumulative IPC: 1.43399 (Simulation time: 0 hr 3 min 37 sec) 
Heartbeat CPU  0 instructions:   87000002 cycles:   60674837 heartbeat IPC: 1.42357 cumulative IPC: 1.43387 (Simulation time: 0 hr 3 min 40 sec) 
Heartbeat CPU  0 instructions:   88000000 cycles:   61377487 heartbeat IPC: 1.42318 cumulative IPC: 1.43375 (Simulation time: 0 hr 3 min 42 sec) 
Heartbeat CPU  0 instructions:   89000001 cycles:   62079522 heartbeat IPC: 1.42443 cumulative IPC: 1.43365 (Simulation time: 0 hr 3 min 45 sec) 
Heartbeat CPU  0 instructions:   90000003 cycles:   62781901 heartbeat IPC: 1.42374 cumulative IPC: 1.43353 (Simulation time: 0 hr 3 min 47 sec) 
Heartbeat CPU  0 instructions:   91000003 cycles:   63484341 heartbeat IPC: 1.42361 cumulative IPC: 1.43342 (Simulation time: 0 hr 3 min 50 sec) 
Heartbeat CPU  0 instructions:   92000000 cycles:   64186575 heartbeat IPC: 1.42402 cumulative IPC: 1.43332 (Simulation time: 0 hr 3 min 52 sec) 
Heartbeat CPU  0 instructions:   93000002 cycles:   64888991 heartbeat IPC: 1.42366 cumulative IPC: 1.43322 (Simulation time: 0 hr 3 min 55 sec) 
Heartbeat CPU  0 instructions:   94000002 cycles:   65591009 heartbeat IPC: 1.42446 cumulative IPC: 1.43312 (Simulation time: 0 hr 3 min 58 sec) 
Heartbeat CPU  0 instructions:   95000003 cycles:   66293225 heartbeat IPC: 1.42406 cumulative IPC: 1.43303 (Simulation time: 0 hr 4 min 1 sec) 
Heartbeat CPU  0 instructions:   96000000 cycles:   66995564 heartbeat IPC: 1.42381 cumulative IPC: 1.43293 (Simulation time: 0 hr 4 min 3 sec) 
Heartbeat CPU  0 instructions:   97000000 cycles:   67697961 heartbeat IPC: 1.42370 cumulative IPC: 1.43283 (Simulation time: 0 hr 4 min 6 sec) 
Heartbeat CPU  0 instructions:   98000002 cycles:   68400208 heartbeat IPC: 1.42400 cumulative IPC: 1.43274 (Simulation time: 0 hr 4 min 8 sec) 
Heartbeat CPU  0 instructions:   99000003 cycles:   69102450 heartbeat IPC: 1.42401 cumulative IPC: 1.43266 (Simulation time: 0 hr 4 min 11 sec) 
Heartbeat CPU  0 instructions:  100000000 cycles:   69804809 heartbeat IPC: 1.42377 cumulative IPC: 1.43257 (Simulation time: 0 hr 4 min 13 sec) 

Warmup complete CPU  0 instructions:  100000001 cycles:   69804829 (Simulation time: 0 hr 4 min 13 sec) 

Heartbeat CPU  0 instructions:  101000000 cycles:   71768432 heartbeat IPC: 0.50926 cumulative IPC: 0.50927 (Simulation time: 0 hr 4 min 16 sec) 
Heartbeat CPU  0 instructions:  102000003 cycles:   73569940 heartbeat IPC: 0.55509 cumulative IPC: 0.53119 (Simulation time: 0 hr 4 min 19 sec) 
Heartbeat CPU  0 instructions:  103000003 cycles:   75476545 heartbeat IPC: 0.52449 cumulative IPC: 0.52894 (Simulation time: 0 hr 4 min 22 sec) 
Heartbeat CPU  0 instructions:  104000000 cycles:   77424571 heartbeat IPC: 0.51334 cumulative IPC: 0.52495 (Simulation time: 0 hr 4 min 25 sec) 
Heartbeat CPU  0 instructions:  105000002 cycles:   79303938 heartbeat IPC: 0.53210 cumulative IPC: 0.52637 (Simulation time: 0 hr 4 min 28 sec) 
Heartbeat CPU  0 instructions:  106000000 cycles:   81133081 heartbeat IPC: 0.54670 cumulative IPC: 0.52965 (Simulation time: 0 hr 4 min 31 sec) 
Heartbeat CPU  0 instructions:  107000003 cycles:   83078357 heartbeat IPC: 0.51407 cumulative IPC: 0.52737 (Simulation time: 0 hr 4 min 34 sec) 
Heartbeat CPU  0 instructions:  108000000 cycles:   94113515 heartbeat IPC: 0.09062 cumulative IPC: 0.32910 (Simulation time: 0 hr 4 min 37 sec) 
Heartbeat CPU  0 instructions:  109000003 cycles:  101138640 heartbeat IPC: 0.14235 cumulative IPC: 0.28723 (Simulation time: 0 hr 4 min 41 sec) 
Heartbeat CPU  0 instructions:  110000001 cycles:  103080662 heartbeat IPC: 0.51493 cumulative IPC: 0.30052 (Simulation time: 0 hr 4 min 44 sec) 
Heartbeat CPU  0 instructions:  111000000 cycles:  105031938 heartbeat IPC: 0.51248 cumulative IPC: 0.31226 (Simulation time: 0 hr 4 min 47 sec) 
Heartbeat CPU  0 instructions:  112000000 cycles:  106839546 heartbeat IPC: 0.55322 cumulative IPC: 0.32402 (Simulation time: 0 hr 4 min 50 sec) 
Heartbeat CPU  0 instructions:  113000000 cycles:  108746087 heartbeat IPC: 0.52451 cumulative IPC: 0.33384 (Simulation time: 0 hr 4 min 53 sec) 
Heartbeat CPU  0 instructions:  114000000 cycles:  110713704 heartbeat IPC: 0.50823 cumulative IPC: 0.34222 (Simulation time: 0 hr 4 min 56 sec) 
Heartbeat CPU  0 instructions:  115000001 cycles:  112586193 heartbeat IPC: 0.53405 cumulative IPC: 0.35062 (Simulation time: 0 hr 4 min 59 sec) 
Heartbeat CPU  0 instructions:  116000000 cycles:  114419931 heartbeat IPC: 0.54533 cumulative IPC: 0.35862 (Simulation time: 0 hr 5 min 1 sec) 
Heartbeat CPU  0 instructions:  117000003 cycles:  116377546 heartbeat IPC: 0.51083 cumulative IPC: 0.36502 (Simulation time: 0 hr 5 min 4 sec) 
Heartbeat CPU  0 instructions:  118000002 cycles:  118315674 heartbeat IPC: 0.51596 cumulative IPC: 0.37105 (Simulation time: 0 hr 5 min 7 sec) 
Heartbeat CPU  0 instructions:  119000002 cycles:  120098070 heartbeat IPC: 0.56104 cumulative IPC: 0.37778 (Simulation time: 0 hr 5 min 10 sec) 
Heartbeat CPU  0 instructions:  120000000 cycles:  122040180 heartbeat IPC: 0.51490 cumulative IPC: 0.38288 (Simulation time: 0 hr 5 min 13 sec) 
Heartbeat CPU  0 instructions:  121000003 cycles:  123990735 heartbeat IPC: 0.51268 cumulative IPC: 0.38755 (Simulation time: 0 hr 5 min 16 sec) 
Heartbeat CPU  0 instructions:  122000000 cycles:  125805500 heartbeat IPC: 0.55103 cumulative IPC: 0.39285 (Simulation time: 0 hr 5 min 19 sec) 
Heartbeat CPU  0 instructions:  123000002 cycles:  127693217 heartbeat IPC: 0.52974 cumulative IPC: 0.39732 (Simulation time: 0 hr 5 min 22 sec) 
Heartbeat CPU  0 instructions:  124000000 cycles:  129646690 heartbeat IPC: 0.51191 cumulative IPC: 0.40106 (Simulation time: 0 hr 5 min 25 sec) 
Heartbeat CPU  0 instructions:  125000000 cycles:  131537532 heartbeat IPC: 0.52886 cumulative IPC: 0.40497 (Simulation time: 0 hr 5 min 28 sec) 
Heartbeat CPU  0 instructions:  126000002 cycles:  133369233 heartbeat IPC: 0.54594 cumulative IPC: 0.40903 (Simulation time: 0 hr 5 min 31 sec) 
Heartbeat CPU  0 instructions:  127000002 cycles:  135436519 heartbeat IPC: 0.48373 cumulative IPC: 0.41139 (Simulation time: 0 hr 5 min 34 sec) 
Heartbeat CPU  0 instructions:  128000000 cycles:  137378006 heartbeat IPC: 0.51507 cumulative IPC: 0.41437 (Simulation time: 0 hr 5 min 36 sec) 
Heartbeat CPU  0 instructions:  129000001 cycles:  139155503 heartbeat IPC: 0.56259 cumulative IPC: 0.41816 (Simulation time: 0 hr 5 min 39 sec) 
Heartbeat CPU  0 instructions:  130000000 cycles:  144791881 heartbeat IPC: 0.17742 cumulative IPC: 0.40007 (Simulation time: 0 hr 5 min 43 sec) 
Heartbeat CPU  0 instructions:  131000003 cycles:  157338404 heartbeat IPC: 0.07970 cumulative IPC: 0.35415 (Simulation time: 0 hr 5 min 47 sec) 
Heartbeat CPU  0 instructions:  132000000 cycles:  159163490 heartbeat IPC: 0.54792 cumulative IPC: 0.35811 (Simulation time: 0 hr 5 min 50 sec) 
Heartbeat CPU  0 instructions:  133000000 cycles:  161053753 heartbeat IPC: 0.52903 cumulative IPC: 0.36165 (Simulation time: 0 hr 5 min 53 sec) 
Heartbeat CPU  0 instructions:  134000000 cycles:  163006603 heartbeat IPC: 0.51207 cumulative IPC: 0.36480 (Simulation time: 0 hr 5 min 55 sec) 
Heartbeat CPU  0 instructions:  135000000 cycles:  164899263 heartbeat IPC: 0.52836 cumulative IPC: 0.36806 (Simulation time: 0 hr 5 min 58 sec) 
Heartbeat CPU  0 instructions:  136000000 cycles:  166717732 heartbeat IPC: 0.54991 cumulative IPC: 0.37147 (Simulation time: 0 hr 6 min 1 sec) 
Heartbeat CPU  0 instructions:  137000002 cycles:  168671588 heartbeat IPC: 0.51181 cumulative IPC: 0.37424 (Simulation time: 0 hr 6 min 4 sec) 
Heartbeat CPU  0 instructions:  138000000 cycles:  170615728 heartbeat IPC: 0.51437 cumulative IPC: 0.37694 (Simulation time: 0 hr 6 min 7 sec) 
Heartbeat CPU  0 instructions:  139000001 cycles:  172391469 heartbeat IPC: 0.56315 cumulative IPC: 0.38017 (Simulation time: 0 hr 6 min 10 sec) 
Heartbeat CPU  0 instructions:  140000000 cycles:  174338809 heartbeat IPC: 0.51352 cumulative IPC: 0.38265 (Simulation time: 0 hr 6 min 13 sec) 
Heartbeat CPU  0 instructions:  141000000 cycles:  176297248 heartbeat IPC: 0.51061 cumulative IPC: 0.38500 (Simulation time: 0 hr 6 min 16 sec) 
Heartbeat CPU  0 instructions:  142000001 cycles:  178129356 heartbeat IPC: 0.54582 cumulative IPC: 0.38772 (Simulation time: 0 hr 6 min 19 sec) 
Heartbeat CPU  0 instructions:  143000001 cycles:  180004029 heartbeat IPC: 0.53343 cumulative IPC: 0.39020 (Simulation time: 0 hr 6 min 22 sec) 
Heartbeat CPU  0 instructions:  144000000 cycles:  181964924 heartbeat IPC: 0.50997 cumulative IPC: 0.39230 (Simulation time: 0 hr 6 min 25 sec) 
Heartbeat CPU  0 instructions:  145000000 cycles:  183872711 heartbeat IPC: 0.52417 cumulative IPC: 0.39450 (Simulation time: 0 hr 6 min 28 sec) 
Heartbeat CPU  0 instructions:  146000002 cycles:  185676634 heartbeat IPC: 0.55435 cumulative IPC: 0.39699 (Simulation time: 0 hr 6 min 30 sec) 
Heartbeat CPU  0 instructions:  147000003 cycles:  187631526 heartbeat IPC: 0.51154 cumulative IPC: 0.39889 (Simulation time: 0 hr 6 min 33 sec) 
Heartbeat CPU  0 instructions:  148000000 cycles:  189577815 heartbeat IPC: 0.51380 cumulative IPC: 0.40076 (Simulation time: 0 hr 6 min 36 sec) 
Heartbeat CPU  0 instructions:  149000002 cycles:  191363506 heartbeat IPC: 0.56001 cumulative IPC: 0.40310 (Simulation time: 0 hr 6 min 39 sec) 
Heartbeat CPU  0 instructions:  150000003 cycles:  193295518 heartbeat IPC: 0.51760 cumulative IPC: 0.40489 (Simulation time: 0 hr 6 min 42 sec) 
Heartbeat CPU  0 instructions:  151000003 cycles:  195246647 heartbeat IPC: 0.51252 cumulative IPC: 0.40656 (Simulation time: 0 hr 6 min 45 sec) 
Heartbeat CPU  0 instructions:  152000000 cycles:  197108133 heartbeat IPC: 0.53720 cumulative IPC: 0.40847 (Simulation time: 0 hr 6 min 48 sec) 
Heartbeat CPU  0 instructions:  153000003 cycles:  210298939 heartbeat IPC: 0.07581 cumulative IPC: 0.37724 (Simulation time: 0 hr 6 min 52 sec) 
Heartbeat CPU  0 instructions:  154000000 cycles:  215442848 heartbeat IPC: 0.19440 cumulative IPC: 0.37078 (Simulation time: 0 hr 6 min 55 sec) 
Heartbeat CPU  0 instructions:  155000000 cycles:  217352147 heartbeat IPC: 0.52375 cumulative IPC: 0.37276 (Simulation time: 0 hr 6 min 58 sec) 
Heartbeat CPU  0 instructions:  156000000 cycles:  219153719 heartbeat IPC: 0.55507 cumulative IPC: 0.37496 (Simulation time: 0 hr 7 min 1 sec) 
Heartbeat CPU  0 instructions:  157000001 cycles:  221108025 heartbeat IPC: 0.51169 cumulative IPC: 0.37673 (Simulation time: 0 hr 7 min 4 sec) 
Heartbeat CPU  0 instructions:  158000001 cycles:  223059306 heartbeat IPC: 0.51248 cumulative IPC: 0.37846 (Simulation time: 0 hr 7 min 7 sec) 
Heartbeat CPU  0 instructions:  159000000 cycles:  224842686 heartbeat IPC: 0.56073 cumulative IPC: 0.38055 (Simulation time: 0 hr 7 min 10 sec) 
Heartbeat CPU  0 instructions:  160000000 cycles:  226771785 heartbeat IPC: 0.51838 cumulative IPC: 0.38225 (Simulation time: 0 hr 7 min 13 sec) 
Heartbeat CPU  0 instructions:  161000003 cycles:  228726353 heartbeat IPC: 0.51162 cumulative IPC: 0.38384 (Simulation time: 0 hr 7 min 16 sec) 
Heartbeat CPU  0 instructions:  162000000 cycles:  230575048 heartbeat IPC: 0.54092 cumulative IPC: 0.38564 (Simulation time: 0 hr 7 min 19 sec) 
Heartbeat CPU  0 instructions:  163000003 cycles:  232430685 heartbeat IPC: 0.53890 cumulative IPC: 0.38739 (Simulation time: 0 hr 7 min 22 sec) 
Heartbeat CPU  0 instructions:  164000000 cycles:  234386028 heartbeat IPC: 0.51142 cumulative IPC: 0.38887 (Simulation time: 0 hr 7 min 25 sec) 
Heartbeat CPU  0 instructions:  165000000 cycles:  236316002 heartbeat IPC: 0.51814 cumulative IPC: 0.39036 (Simulation time: 0 hr 7 min 28 sec) 
Heartbeat CPU  0 instructions:  166000001 cycles:  238100103 heartbeat IPC: 0.56051 cumulative IPC: 0.39217 (Simulation time: 0 hr 7 min 30 sec) 
Heartbeat CPU  0 instructions:  167000000 cycles:  240046844 heartbeat IPC: 0.51368 cumulative IPC: 0.39356 (Simulation time: 0 hr 7 min 33 sec) 
Heartbeat CPU  0 instructions:  168000000 cycles:  241996873 heartbeat IPC: 0.51281 cumulative IPC: 0.39491 (Simulation time: 0 hr 7 min 36 sec) 
Heartbeat CPU  0 instructions:  169000001 cycles:  243790369 heartbeat IPC: 0.55757 cumulative IPC: 0.39658 (Simulation time: 0 hr 7 min 39 sec) 
Heartbeat CPU  0 instructions:  170000002 cycles:  245706707 heartbeat IPC: 0.52183 cumulative IPC: 0.39795 (Simulation time: 0 hr 7 min 42 sec) 
Heartbeat CPU  0 instructions:  171000001 cycles:  247665758 heartbeat IPC: 0.51045 cumulative IPC: 0.39919 (Simulation time: 0 hr 7 min 45 sec) 
Heartbeat CPU  0 instructions:  172000000 cycles:  249530517 heartbeat IPC: 0.53626 cumulative IPC: 0.40061 (Simulation time: 0 hr 7 min 48 sec) 
Heartbeat CPU  0 instructions:  173000000 cycles:  251370449 heartbeat IPC: 0.54350 cumulative IPC: 0.40206 (Simulation time: 0 hr 7 min 51 sec) 
Heartbeat CPU  0 instructions:  174000003 cycles:  253329775 heartbeat IPC: 0.51038 cumulative IPC: 0.40321 (Simulation time: 0 hr 7 min 54 sec) 
Heartbeat CPU  0 instructions:  175000000 cycles:  260680431 heartbeat IPC: 0.13604 cumulative IPC: 0.39293 (Simulation time: 0 hr 7 min 57 sec) 
Heartbeat CPU  0 instructions:  176000000 cycles:  271358324 heartbeat IPC: 0.09365 cumulative IPC: 0.37707 (Simulation time: 0 hr 8 min 1 sec) 
Heartbeat CPU  0 instructions:  177000001 cycles:  273376322 heartbeat IPC: 0.49554 cumulative IPC: 0.37825 (Simulation time: 0 hr 8 min 4 sec) 
Heartbeat CPU  0 instructions:  178000003 cycles:  275479146 heartbeat IPC: 0.47555 cumulative IPC: 0.37924 (Simulation time: 0 hr 8 min 7 sec) 
Heartbeat CPU  0 instructions:  179000002 cycles:  277440037 heartbeat IPC: 0.50997 cumulative IPC: 0.38047 (Simulation time: 0 hr 8 min 10 sec) 
Heartbeat CPU  0 instructions:  180000000 cycles:  279380920 heartbeat IPC: 0.51523 cumulative IPC: 0.38172 (Simulation time: 0 hr 8 min 13 sec) 
Heartbeat CPU  0 instructions:  181000003 cycles:  281353333 heartbeat IPC: 0.50699 cumulative IPC: 0.38289 (Simulation time: 0 hr 8 min 16 sec) 
Heartbeat CPU  0 instructions:  182000003 cycles:  283237508 heartbeat IPC: 0.53074 cumulative IPC: 0.38420 (Simulation time: 0 hr 8 min 19 sec) 
Heartbeat CPU  0 instructions:  183000000 cycles:  285108451 heartbeat IPC: 0.53449 cumulative IPC: 0.38550 (Simulation time: 0 hr 8 min 22 sec) 
Heartbeat CPU  0 instructions:  184000000 cycles:  287079917 heartbeat IPC: 0.50724 cumulative IPC: 0.38661 (Simulation time: 0 hr 8 min 25 sec) 
Heartbeat CPU  0 instructions:  185000002 cycles:  289034007 heartbeat IPC: 0.51175 cumulative IPC: 0.38772 (Simulation time: 0 hr 8 min 28 sec) 
Heartbeat CPU  0 instructions:  186000001 cycles:  290848576 heartbeat IPC: 0.55109 cumulative IPC: 0.38906 (Simulation time: 0 hr 8 min 31 sec) 
Heartbeat CPU  0 instructions:  187000000 cycles:  292804821 heartbeat IPC: 0.51118 cumulative IPC: 0.39013 (Simulation time: 0 hr 8 min 33 sec) 
Heartbeat CPU  0 instructions:  188000000 cycles:  294771478 heartbeat IPC: 0.50848 cumulative IPC: 0.39117 (Simulation time: 0 hr 8 min 36 sec) 
Heartbeat CPU  0 instructions:  189000000 cycles:  296598112 heartbeat IPC: 0.54746 cumulative IPC: 0.39243 (Simulation time: 0 hr 8 min 39 sec) 
Heartbeat CPU  0 instructions:  190000000 cycles:  298525371 heartbeat IPC: 0.51887 cumulative IPC: 0.39349 (Simulation time: 0 hr 8 min 42 sec) 
Heartbeat CPU  0 instructions:  191000000 cycles:  300496275 heartbeat IPC: 0.50738 cumulative IPC: 0.39447 (Simulation time: 0 hr 8 min 45 sec) 
Heartbeat CPU  0 instructions:  192000000 cycles:  302397171 heartbeat IPC: 0.52607 cumulative IPC: 0.39554 (Simulation time: 0 hr 8 min 48 sec) 
Heartbeat CPU  0 instructions:  193000001 cycles:  304258130 heartbeat IPC: 0.53736 cumulative IPC: 0.39667 (Simulation time: 0 hr 8 min 51 sec) 
Heartbeat CPU  0 instructions:  194000000 cycles:  306227715 heartbeat IPC: 0.50772 cumulative IPC: 0.39759 (Simulation time: 0 hr 8 min 54 sec) 
Heartbeat CPU  0 instructions:  195000002 cycles:  308187646 heartbeat IPC: 0.51022 cumulative IPC: 0.39852 (Simulation time: 0 hr 8 min 57 sec) 
Heartbeat CPU  0 instructions:  196000000 cycles:  310002646 heartbeat IPC: 0.55096 cumulative IPC: 0.39967 (Simulation time: 0 hr 9 min 0 sec) 
Heartbeat CPU  0 instructions:  197000000 cycles:  312069547 heartbeat IPC: 0.48382 cumulative IPC: 0.40039 (Simulation time: 0 hr 9 min 3 sec) 
Heartbeat CPU  0 instructions:  198000003 cycles:  326824457 heartbeat IPC: 0.06777 cumulative IPC: 0.38129 (Simulation time: 0 hr 9 min 7 sec) 
Heartbeat CPU  0 instructions:  199000001 cycles:  330061425 heartbeat IPC: 0.30893 cumulative IPC: 0.38039 (Simulation time: 0 hr 9 min 10 sec) 
Heartbeat CPU  0 instructions:  200000000 cycles:  331994180 heartbeat IPC: 0.51740 cumulative IPC: 0.38140 (Simulation time: 0 hr 9 min 13 sec) 
Heartbeat CPU  0 instructions:  201000002 cycles:  333961601 heartbeat IPC: 0.50828 cumulative IPC: 0.38235 (Simulation time: 0 hr 9 min 16 sec) 
Heartbeat CPU  0 instructions:  202000003 cycles:  335864571 heartbeat IPC: 0.52549 cumulative IPC: 0.38337 (Simulation time: 0 hr 9 min 19 sec) 
Heartbeat CPU  0 instructions:  203000002 cycles:  337716993 heartbeat IPC: 0.53983 cumulative IPC: 0.38445 (Simulation time: 0 hr 9 min 22 sec) 
Heartbeat CPU  0 instructions:  204000000 cycles:  339692555 heartbeat IPC: 0.50618 cumulative IPC: 0.38535 (Simulation time: 0 hr 9 min 25 sec) 
Heartbeat CPU  0 instructions:  205000002 cycles:  341647374 heartbeat IPC: 0.51156 cumulative IPC: 0.38625 (Simulation time: 0 hr 9 min 28 sec) 
Heartbeat CPU  0 instructions:  206000000 cycles:  343460752 heartbeat IPC: 0.55146 cumulative IPC: 0.38735 (Simulation time: 0 hr 9 min 31 sec) 
Heartbeat CPU  0 instructions:  207000002 cycles:  345415813 heartbeat IPC: 0.51149 cumulative IPC: 0.38823 (Simulation time: 0 hr 9 min 34 sec) 
Heartbeat CPU  0 instructions:  208000000 cycles:  347380716 heartbeat IPC: 0.50893 cumulative IPC: 0.38908 (Simulation time: 0 hr 9 min 37 sec) 
Heartbeat CPU  0 instructions:  209000002 cycles:  349228014 heartbeat IPC: 0.54133 cumulative IPC: 0.39009 (Simulation time: 0 hr 9 min 39 sec) 
Heartbeat CPU  0 instructions:  210000000 cycles:  351142566 heartbeat IPC: 0.52231 cumulative IPC: 0.39099 (Simulation time: 0 hr 9 min 42 sec) 
Heartbeat CPU  0 instructions:  211000000 cycles:  353112118 heartbeat IPC: 0.50773 cumulative IPC: 0.39180 (Simulation time: 0 hr 9 min 45 sec) 
Heartbeat CPU  0 instructions:  212000000 cycles:  355032665 heartbeat IPC: 0.52069 cumulative IPC: 0.39267 (Simulation time: 0 hr 9 min 48 sec) 
Heartbeat CPU  0 instructions:  213000003 cycles:  356865090 heartbeat IPC: 0.54573 cumulative IPC: 0.39365 (Simulation time: 0 hr 9 min 51 sec) 
Heartbeat CPU  0 instructions:  214000003 cycles:  358832467 heartbeat IPC: 0.50829 cumulative IPC: 0.39443 (Simulation time: 0 hr 9 min 54 sec) 
Heartbeat CPU  0 instructions:  215000003 cycles:  360793201 heartbeat IPC: 0.51001 cumulative IPC: 0.39520 (Simulation time: 0 hr 9 min 57 sec) 
Heartbeat CPU  0 instructions:  216000000 cycles:  362613687 heartbeat IPC: 0.54930 cumulative IPC: 0.39616 (Simulation time: 0 hr 10 min 0 sec) 
Heartbeat CPU  0 instructions:  217000002 cycles:  364558086 heartbeat IPC: 0.51430 cumulative IPC: 0.39694 (Simulation time: 0 hr 10 min 3 sec) 
Heartbeat CPU  0 instructions:  218000001 cycles:  366530033 heartbeat IPC: 0.50711 cumulative IPC: 0.39767 (Simulation time: 0 hr 10 min 6 sec) 
Heartbeat CPU  0 instructions:  219000002 cycles:  368389407 heartbeat IPC: 0.53782 cumulative IPC: 0.39855 (Simulation time: 0 hr 10 min 9 sec) 
Heartbeat CPU  0 instructions:  220000000 cycles:  377577051 heartbeat IPC: 0.10884 cumulative IPC: 0.38990 (Simulation time: 0 hr 10 min 12 sec) 
Heartbeat CPU  0 instructions:  221000000 cycles:  386628627 heartbeat IPC: 0.11048 cumulative IPC: 0.38192 (Simulation time: 0 hr 10 min 16 sec) 
Heartbeat CPU  0 instructions:  222000000 cycles:  388553255 heartbeat IPC: 0.51958 cumulative IPC: 0.38275 (Simulation time: 0 hr 10 min 19 sec) 
Heartbeat CPU  0 instructions:  223000001 cycles:  390388783 heartbeat IPC: 0.54480 cumulative IPC: 0.38367 (Simulation time: 0 hr 10 min 22 sec) 
Heartbeat CPU  0 instructions:  224000000 cycles:  392352750 heartbeat IPC: 0.50917 cumulative IPC: 0.38444 (Simulation time: 0 hr 10 min 25 sec) 
Heartbeat CPU  0 instructions:  225000002 cycles:  394323656 heartbeat IPC: 0.50738 cumulative IPC: 0.38519 (Simulation time: 0 hr 10 min 28 sec) 
Heartbeat CPU  0 instructions:  226000002 cycles:  396131719 heartbeat IPC: 0.55308 cumulative IPC: 0.38612 (Simulation time: 0 hr 10 min 31 sec) 
Heartbeat CPU  0 instructions:  227000003 cycles:  398080307 heartbeat IPC: 0.51319 cumulative IPC: 0.38687 (Simulation time: 0 hr 10 min 34 sec) 
Heartbeat CPU  0 instructions:  228000000 cycles:  400048751 heartbeat IPC: 0.50801 cumulative IPC: 0.38759 (Simulation time: 0 hr 10 min 37 sec) 
Heartbeat CPU  0 instructions:  229000003 cycles:  402049368 heartbeat IPC: 0.49985 cumulative IPC: 0.38827 (Simulation time: 0 hr 10 min 39 sec) 
Heartbeat CPU  0 instructions:  230000000 cycles:  403933745 heartbeat IPC: 0.53068 cumulative IPC: 0.38907 (Simulation time: 0 hr 10 min 42 sec) 
Heartbeat CPU  0 instructions:  231000003 cycles:  405903431 heartbeat IPC: 0.50770 cumulative IPC: 0.38977 (Simulation time: 0 hr 10 min 45 sec) 
Heartbeat CPU  0 instructions:  232000000 cycles:  407834990 heartbeat IPC: 0.51771 cumulative IPC: 0.39050 (Simulation time: 0 hr 10 min 48 sec) 
Heartbeat CPU  0 instructions:  233000002 cycles:  409662237 heartbeat IPC: 0.54727 cumulative IPC: 0.39134 (Simulation time: 0 hr 10 min 51 sec) 
Heartbeat CPU  0 instructions:  234000001 cycles:  411625563 heartbeat IPC: 0.50934 cumulative IPC: 0.39202 (Simulation time: 0 hr 10 min 54 sec) 
Heartbeat CPU  0 instructions:  235000003 cycles:  413588169 heartbeat IPC: 0.50953 cumulative IPC: 0.39269 (Simulation time: 0 hr 10 min 57 sec) 
Heartbeat CPU  0 instructions:  236000000 cycles:  415408644 heartbeat IPC: 0.54931 cumulative IPC: 0.39351 (Simulation time: 0 hr 11 min 0 sec) 
Heartbeat CPU  0 instructions:  237000002 cycles:  417346997 heartbeat IPC: 0.51590 cumulative IPC: 0.39420 (Simulation time: 0 hr 11 min 3 sec) 
Heartbeat CPU  0 instructions:  238000002 cycles:  419320072 heartbeat IPC: 0.50682 cumulative IPC: 0.39483 (Simulation time: 0 hr 11 min 6 sec) 
Heartbeat CPU  0 instructions:  239000001 cycles:  421199641 heartbeat IPC: 0.53204 cumulative IPC: 0.39557 (Simulation time: 0 hr 11 min 9 sec) 
Heartbeat CPU  0 instructions:  240000000 cycles:  423071171 heartbeat IPC: 0.53432 cumulative IPC: 0.39630 (Simulation time: 0 hr 11 min 12 sec) 
Heartbeat CPU  0 instructions:  241000003 cycles:  425042337 heartbeat IPC: 0.50732 cumulative IPC: 0.39692 (Simulation time: 0 hr 11 min 14 sec) 
Heartbeat CPU  0 instructions:  242000002 cycles:  428834008 heartbeat IPC: 0.26374 cumulative IPC: 0.39551 (Simulation time: 0 hr 11 min 18 sec) 
Heartbeat CPU  0 instructions:  243000003 cycles:  443399931 heartbeat IPC: 0.06865 cumulative IPC: 0.38277 (Simulation time: 0 hr 11 min 22 sec) 
Heartbeat CPU  0 instructions:  244000000 cycles:  445366667 heartbeat IPC: 0.50846 cumulative IPC: 0.38343 (Simulation time: 0 hr 11 min 25 sec) 
Heartbeat CPU  0 instructions:  245000000 cycles:  447334880 heartbeat IPC: 0.50808 cumulative IPC: 0.38408 (Simulation time: 0 hr 11 min 28 sec) 
Heartbeat CPU  0 instructions:  246000000 cycles:  449160478 heartbeat IPC: 0.54777 cumulative IPC: 0.38486 (Simulation time: 0 hr 11 min 31 sec) 
Heartbeat CPU  0 instructions:  247000000 cycles:  451096683 heartbeat IPC: 0.51647 cumulative IPC: 0.38553 (Simulation time: 0 hr 11 min 33 sec) 
Heartbeat CPU  0 instructions:  248000000 cycles:  453067100 heartbeat IPC: 0.50751 cumulative IPC: 0.38616 (Simulation time: 0 hr 11 min 36 sec) 
Heartbeat CPU  0 instructions:  249000001 cycles:  454953182 heartbeat IPC: 0.53020 cumulative IPC: 0.38686 (Simulation time: 0 hr 11 min 39 sec) 
Heartbeat CPU  0 instructions:  250000003 cycles:  456826647 heartbeat IPC: 0.53377 cumulative IPC: 0.38758 (Simulation time: 0 hr 11 min 42 sec) 
Heartbeat CPU  0 instructions:  251000002 cycles:  458793469 heartbeat IPC: 0.50843 cumulative IPC: 0.38819 (Simulation time: 0 hr 11 min 45 sec) 
Heartbeat CPU  0 instructions:  252000000 cycles:  460742767 heartbeat IPC: 0.51300 cumulative IPC: 0.38881 (Simulation time: 0 hr 11 min 48 sec) 
Heartbeat CPU  0 instructions:  253000000 cycles:  462558827 heartbeat IPC: 0.55064 cumulative IPC: 0.38956 (Simulation time: 0 hr 11 min 51 sec) 
Heartbeat CPU  0 instructions:  254000002 cycles:  464519238 heartbeat IPC: 0.51010 cumulative IPC: 0.39016 (Simulation time: 0 hr 11 min 54 sec) 
Heartbeat CPU  0 instructions:  255000000 cycles:  466494477 heartbeat IPC: 0.50627 cumulative IPC: 0.39073 (Simulation time: 0 hr 11 min 57 sec) 
Heartbeat CPU  0 instructions:  256000000 cycles:  468313203 heartbeat IPC: 0.54984 cumulative IPC: 0.39146 (Simulation time: 0 hr 12 min 0 sec) 
Heartbeat CPU  0 instructions:  257000000 cycles:  470245180 heartbeat IPC: 0.51760 cumulative IPC: 0.39207 (Simulation time: 0 hr 12 min 3 sec) 
Heartbeat CPU  0 instructions:  258000003 cycles:  472218424 heartbeat IPC: 0.50678 cumulative IPC: 0.39263 (Simulation time: 0 hr 12 min 6 sec) 
Heartbeat CPU  0 instructions:  259000000 cycles:  474117714 heartbeat IPC: 0.52651 cumulative IPC: 0.39326 (Simulation time: 0 hr 12 min 8 sec) 
Heartbeat CPU  0 instructions:  260000000 cycles:  475976011 heartbeat IPC: 0.53813 cumulative IPC: 0.39392 (Simulation time: 0 hr 12 min 11 sec) 
Heartbeat CPU  0 instructions:  261000000 cycles:  477942549 heartbeat IPC: 0.50851 cumulative IPC: 0.39447 (Simulation time: 0 hr 12 min 14 sec) 
Heartbeat CPU  0 instructions:  262000002 cycles:  479896721 heartbeat IPC: 0.51173 cumulative IPC: 0.39503 (Simulation time: 0 hr 12 min 17 sec) 
Heartbeat CPU  0 instructions:  263000001 cycles:  481713765 heartbeat IPC: 0.55034 cumulative IPC: 0.39572 (Simulation time: 0 hr 12 min 20 sec) 
Heartbeat CPU  0 instructions:  264000000 cycles:  483668288 heartbeat IPC: 0.51163 cumulative IPC: 0.39627 (Simulation time: 0 hr 12 min 23 sec) 
Heartbeat CPU  0 instructions:  265000002 cycles:  494775699 heartbeat IPC: 0.09003 cumulative IPC: 0.38826 (Simulation time: 0 hr 12 min 27 sec) 
Heartbeat CPU  0 instructions:  266000001 cycles:  501837128 heartbeat IPC: 0.14161 cumulative IPC: 0.38423 (Simulation time: 0 hr 12 min 31 sec) 
Heartbeat CPU  0 instructions:  267000002 cycles:  503768441 heartbeat IPC: 0.51778 cumulative IPC: 0.38482 (Simulation time: 0 hr 12 min 34 sec) 
Heartbeat CPU  0 instructions:  268000000 cycles:  505736665 heartbeat IPC: 0.50807 cumulative IPC: 0.38538 (Simulation time: 0 hr 12 min 37 sec) 
Heartbeat CPU  0 instructions:  269000000 cycles:  507638732 heartbeat IPC: 0.52574 cumulative IPC: 0.38599 (Simulation time: 0 hr 12 min 39 sec) 
Heartbeat CPU  0 instructions:  270000003 cycles:  509494958 heartbeat IPC: 0.53873 cumulative IPC: 0.38664 (Simulation time: 0 hr 12 min 42 sec) 
Heartbeat CPU  0 instructions:  271000002 cycles:  511458914 heartbeat IPC: 0.50918 cumulative IPC: 0.38718 (Simulation time: 0 hr 12 min 45 sec) 
Heartbeat CPU  0 instructions:  272000000 cycles:  513415794 heartbeat IPC: 0.51102 cumulative IPC: 0.38773 (Simulation time: 0 hr 12 min 48 sec) 
Heartbeat CPU  0 instructions:  273000002 cycles:  515235332 heartbeat IPC: 0.54959 cumulative IPC: 0.38839 (Simulation time: 0 hr 12 min 51 sec) 
Heartbeat CPU  0 instructions:  274000000 cycles:  517188702 heartbeat IPC: 0.51193 cumulative IPC: 0.38893 (Simulation time: 0 hr 12 min 54 sec) 
Heartbeat CPU  0 instructions:  275000000 cycles:  519156600 heartbeat IPC: 0.50816 cumulative IPC: 0.38945 (Simulation time: 0 hr 12 min 57 sec) 
Heartbeat CPU  0 instructions:  276000000 cycles:  520996968 heartbeat IPC: 0.54337 cumulative IPC: 0.39008 (Simulation time: 0 hr 13 min 0 sec) 
Heartbeat CPU  0 instructions:  277000001 cycles:  522910777 heartbeat IPC: 0.52252 cumulative IPC: 0.39064 (Simulation time: 0 hr 13 min 3 sec) 
Heartbeat CPU  0 instructions:  278000000 cycles:  524878482 heartbeat IPC: 0.50821 cumulative IPC: 0.39115 (Simulation time: 0 hr 13 min 6 sec) 
Heartbeat CPU  0 instructions:  279000003 cycles:  526913179 heartbeat IPC: 0.49148 cumulative IPC: 0.39159 (Simulation time: 0 hr 13 min 9 sec) 
Heartbeat CPU  0 instructions:  280000000 cycles:  528867676 heartbeat IPC: 0.51164 cumulative IPC: 0.39210 (Simulation time: 0 hr 13 min 12 sec) 
Heartbeat CPU  0 instructions:  281000002 cycles:  530946319 heartbeat IPC: 0.48108 cumulative IPC: 0.39250 (Simulation time: 0 hr 13 min 15 sec) 
Heartbeat CPU  0 instructions:  282000002 cycles:  532908467 heartbeat IPC: 0.50965 cumulative IPC: 0.39300 (Simulation time: 0 hr 13 min 17 sec) 
Heartbeat CPU  0 instructions:  283000000 cycles:  534716038 heartbeat IPC: 0.55323 cumulative IPC: 0.39362 (Simulation time: 0 hr 13 min 20 sec) 
Heartbeat CPU  0 instructions:  284000000 cycles:  536660283 heartbeat IPC: 0.51434 cumulative IPC: 0.39413 (Simulation time: 0 hr 13 min 23 sec) 
Heartbeat CPU  0 instructions:  285000001 cycles:  538633868 heartbeat IPC: 0.50669 cumulative IPC: 0.39460 (Simulation time: 0 hr 13 min 26 sec) 
Heartbeat CPU  0 instructions:  286000003 cycles:  540489824 heartbeat IPC: 0.53881 cumulative IPC: 0.39517 (Simulation time: 0 hr 13 min 29 sec) 
Heartbeat CPU  0 instructions:  287000002 cycles:  546158110 heartbeat IPC: 0.17642 cumulative IPC: 0.39257 (Simulation time: 0 hr 13 min 33 sec) 
Heartbeat CPU  0 instructions:  288000000 cycles:  558662136 heartbeat IPC: 0.07997 cumulative IPC: 0.38457 (Simulation time: 0 hr 13 min 38 sec) 
Heartbeat CPU  0 instructions:  289000003 cycles:  560582130 heartbeat IPC: 0.52084 cumulative IPC: 0.38510 (Simulation time: 0 hr 13 min 41 sec) 
Heartbeat CPU  0 instructions:  290000003 cycles:  562423599 heartbeat IPC: 0.54304 cumulative IPC: 0.38569 (Simulation time: 0 hr 13 min 44 sec) 
Heartbeat CPU  0 instructions:  291000002 cycles:  564389907 heartbeat IPC: 0.50857 cumulative IPC: 0.38618 (Simulation time: 0 hr 13 min 47 sec) 
Heartbeat CPU  0 instructions:  292000000 cycles:  566346631 heartbeat IPC: 0.51106 cumulative IPC: 0.38667 (Simulation time: 0 hr 13 min 50 sec) 
Heartbeat CPU  0 instructions:  293000001 cycles:  568174586 heartbeat IPC: 0.54706 cumulative IPC: 0.38726 (Simulation time: 0 hr 13 min 53 sec) 
Heartbeat CPU  0 instructions:  294000000 cycles:  570126196 heartbeat IPC: 0.51240 cumulative IPC: 0.38775 (Simulation time: 0 hr 13 min 56 sec) 
Heartbeat CPU  0 instructions:  295000002 cycles:  572095822 heartbeat IPC: 0.50771 cumulative IPC: 0.38822 (Simulation time: 0 hr 13 min 58 sec) 
Heartbeat CPU  0 instructions:  296000000 cycles:  573955225 heartbeat IPC: 0.53781 cumulative IPC: 0.38877 (Simulation time: 0 hr 14 min 1 sec) 
Heartbeat CPU  0 instructions:  297000001 cycles:  575858791 heartbeat IPC: 0.52533 cumulative IPC: 0.38929 (Simulation time: 0 hr 14 min 4 sec) 
Heartbeat CPU  0 instructions:  298000003 cycles:  577826654 heartbeat IPC: 0.50817 cumulative IPC: 0.38975 (Simulation time: 0 hr 14 min 7 sec) 
Heartbeat CPU  0 instructions:  299000000 cycles:  579759817 heartbeat IPC: 0.51729 cumulative IPC: 0.39023 (Simulation time: 0 hr 14 min 10 sec) 
Heartbeat CPU  0 instructions:  300000000 cycles:  581590365 heartbeat IPC: 0.54628 cumulative IPC: 0.39079 (Simulation time: 0 hr 14 min 13 sec) 
Heartbeat CPU  0 instructions:  301000003 cycles:  583548642 heartbeat IPC: 0.51065 cumulative IPC: 0.39125 (Simulation time: 0 hr 14 min 16 sec) 
Heartbeat CPU  0 instructions:  302000000 cycles:  585512594 heartbeat IPC: 0.50918 cumulative IPC: 0.39169 (Simulation time: 0 hr 14 min 19 sec) 
Heartbeat CPU  0 instructions:  303000000 cycles:  587324830 heartbeat IPC: 0.55180 cumulative IPC: 0.39226 (Simulation time: 0 hr 14 min 22 sec) 
Heartbeat CPU  0 instructions:  304000000 cycles:  589263077 heartbeat IPC: 0.51593 cumulative IPC: 0.39272 (Simulation time: 0 hr 14 min 25 sec) 
Heartbeat CPU  0 instructions:  305000000 cycles:  591236344 heartbeat IPC: 0.50677 cumulative IPC: 0.39315 (Simulation time: 0 hr 14 min 28 sec) 
Heartbeat CPU  0 instructions:  306000002 cycles:  593110490 heartbeat IPC: 0.53358 cumulative IPC: 0.39365 (Simulation time: 0 hr 14 min 31 sec) 
Heartbeat CPU  0 instructions:  307000003 cycles:  594987714 heartbeat IPC: 0.53270 cumulative IPC: 0.39415 (Simulation time: 0 hr 14 min 33 sec) 
Heartbeat CPU  0 instructions:  308000000 cycles:  596957496 heartbeat IPC: 0.50767 cumulative IPC: 0.39457 (Simulation time: 0 hr 14 min 36 sec) 
Heartbeat CPU  0 instructions:  309000003 cycles:  598907964 heartbeat IPC: 0.51270 cumulative IPC: 0.39501 (Simulation time: 0 hr 14 min 39 sec) 
Heartbeat CPU  0 instructions:  310000003 cycles:  611901040 heartbeat IPC: 0.07696 cumulative IPC: 0.38739 (Simulation time: 0 hr 14 min 43 sec) 
Heartbeat CPU  0 instructions:  311000000 cycles:  616960654 heartbeat IPC: 0.19764 cumulative IPC: 0.38563 (Simulation time: 0 hr 14 min 47 sec) 
Heartbeat CPU  0 instructions:  312000000 cycles:  618926683 heartbeat IPC: 0.50864 cumulative IPC: 0.38607 (Simulation time: 0 hr 14 min 50 sec) 
Heartbeat CPU  0 instructions:  313000003 cycles:  620752062 heartbeat IPC: 0.54783 cumulative IPC: 0.38661 (Simulation time: 0 hr 14 min 53 sec) 
Heartbeat CPU  0 instructions:  314000000 cycles:  622697719 heartbeat IPC: 0.51396 cumulative IPC: 0.38706 (Simulation time: 0 hr 14 min 56 sec) 
Heartbeat CPU  0 instructions:  315000000 cycles:  624668645 heartbeat IPC: 0.50738 cumulative IPC: 0.38748 (Simulation time: 0 hr 14 min 58 sec) 
Heartbeat CPU  0 instructions:  316000000 cycles:  626542995 heartbeat IPC: 0.53352 cumulative IPC: 0.38797 (Simulation time: 0 hr 15 min 1 sec) 
Heartbeat CPU  0 instructions:  317000001 cycles:  628422579 heartbeat IPC: 0.53203 cumulative IPC: 0.38846 (Simulation time: 0 hr 15 min 4 sec) 
Heartbeat CPU  0 instructions:  318000002 cycles:  630396447 heartbeat IPC: 0.50662 cumulative IPC: 0.38887 (Simulation time: 0 hr 15 min 7 sec) 
Heartbeat CPU  0 instructions:  319000001 cycles:  632347125 heartbeat IPC: 0.51264 cumulative IPC: 0.38930 (Simulation time: 0 hr 15 min 10 sec) 
Heartbeat CPU  0 instructions:  320000000 cycles:  634165436 heartbeat IPC: 0.54996 cumulative IPC: 0.38982 (Simulation time: 0 hr 15 min 13 sec) 
Heartbeat CPU  0 instructions:  321000002 cycles:  636126116 heartbeat IPC: 0.51003 cumulative IPC: 0.39024 (Simulation time: 0 hr 15 min 16 sec) 
Heartbeat CPU  0 instructions:  322000001 cycles:  638090618 heartbeat IPC: 0.50903 cumulative IPC: 0.39065 (Simulation time: 0 hr 15 min 19 sec) 
Heartbeat CPU  0 instructions:  323000002 cycles:  639909328 heartbeat IPC: 0.54984 cumulative IPC: 0.39116 (Simulation time: 0 hr 15 min 22 sec) 
Heartbeat CPU  0 instructions:  324000000 cycles:  641844211 heartbeat IPC: 0.51683 cumulative IPC: 0.39158 (Simulation time: 0 hr 15 min 25 sec) 
Heartbeat CPU  0 instructions:  325000001 cycles:  643813296 heartbeat IPC: 0.50785 cumulative IPC: 0.39198 (Simulation time: 0 hr 15 min 28 sec) 
Heartbeat CPU  0 instructions:  326000002 cycles:  645706356 heartbeat IPC: 0.52825 cumulative IPC: 0.39243 (Simulation time: 0 hr 15 min 31 sec) 
Heartbeat CPU  0 instructions:  327000002 cycles:  647566378 heartbeat IPC: 0.53763 cumulative IPC: 0.39290 (Simulation time: 0 hr 15 min 33 sec) 
Heartbeat CPU  0 instructions:  328000000 cycles:  649536515 heartbeat IPC: 0.50758 cumulative IPC: 0.39329 (Simulation time: 0 hr 15 min 36 sec) 
Heartbeat CPU  0 instructions:  329000002 cycles:  651489497 heartbeat IPC: 0.51204 cumulative IPC: 0.39368 (Simulation time: 0 hr 15 min 39 sec) 
Heartbeat CPU  0 instructions:  330000001 cycles:  653311747 heartbeat IPC: 0.54877 cumulative IPC: 0.39417 (Simulation time: 0 hr 15 min 42 sec) 
Heartbeat CPU  0 instructions:  331000002 cycles:  655381102 heartbeat IPC: 0.48324 cumulative IPC: 0.39448 (Simulation time: 0 hr 15 min 45 sec) 
Heartbeat CPU  0 instructions:  332000000 cycles:  662859242 heartbeat IPC: 0.13372 cumulative IPC: 0.39120 (Simulation time: 0 hr 15 min 49 sec) 
Heartbeat CPU  0 instructions:  333000000 cycles:  673439341 heartbeat IPC: 0.09452 cumulative IPC: 0.38600 (Simulation time: 0 hr 15 min 53 sec) 
Heartbeat CPU  0 instructions:  334000001 cycles:  675376207 heartbeat IPC: 0.51630 cumulative IPC: 0.38641 (Simulation time: 0 hr 15 min 55 sec) 
Heartbeat CPU  0 instructions:  335000001 cycles:  677349389 heartbeat IPC: 0.50680 cumulative IPC: 0.38680 (Simulation time: 0 hr 15 min 58 sec) 
Heartbeat CPU  0 instructions:  336000000 cycles:  679240713 heartbeat IPC: 0.52873 cumulative IPC: 0.38724 (Simulation time: 0 hr 16 min 1 sec) 
Heartbeat CPU  0 instructions:  337000003 cycles:  681099376 heartbeat IPC: 0.53802 cumulative IPC: 0.38770 (Simulation time: 0 hr 16 min 4 sec) 
Heartbeat CPU  0 instructions:  338000002 cycles:  683069971 heartbeat IPC: 0.50746 cumulative IPC: 0.38809 (Simulation time: 0 hr 16 min 7 sec) 
Heartbeat CPU  0 instructions:  339000000 cycles:  685025246 heartbeat IPC: 0.51144 cumulative IPC: 0.38848 (Simulation time: 0 hr 16 min 10 sec) 
Heartbeat CPU  0 instructions:  340000000 cycles:  686833974 heartbeat IPC: 0.55287 cumulative IPC: 0.38896 (Simulation time: 0 hr 16 min 13 sec) 
Heartbeat CPU  0 instructions:  341000000 cycles:  688790170 heartbeat IPC: 0.51120 cumulative IPC: 0.38935 (Simulation time: 0 hr 16 min 16 sec) 
Heartbeat CPU  0 instructions:  342000001 cycles:  690755613 heartbeat IPC: 0.50879 cumulative IPC: 0.38972 (Simulation time: 0 hr 16 min 19 sec) 
Heartbeat CPU  0 instructions:  343000000 cycles:  692589911 heartbeat IPC: 0.54517 cumulative IPC: 0.39018 (Simulation time: 0 hr 16 min 22 sec) 
Heartbeat CPU  0 instructions:  344000000 cycles:  694512978 heartbeat IPC: 0.52000 cumulative IPC: 0.39058 (Simulation time: 0 hr 16 min 25 sec) 
Heartbeat CPU  0 instructions:  345000000 cycles:  696476620 heartbeat IPC: 0.50926 cumulative IPC: 0.39095 (Simulation time: 0 hr 16 min 28 sec) 
Heartbeat CPU  0 instructions:  346000001 cycles:  698384021 heartbeat IPC: 0.52427 cumulative IPC: 0.39136 (Simulation time: 0 hr 16 min 31 sec) 
Heartbeat CPU  0 instructions:  347000000 cycles:  700229294 heartbeat IPC: 0.54192 cumulative IPC: 0.39180 (Simulation time: 0 hr 16 min 33 sec) 
Heartbeat CPU  0 instructions:  348000000 cycles:  702195477 heartbeat IPC: 0.50860 cumulative IPC: 0.39216 (Simulation time: 0 hr 16 min 36 sec) 
Heartbeat CPU  0 instructions:  349000001 cycles:  704157828 heartbeat IPC: 0.50959 cumulative IPC: 0.39253 (Simulation time: 0 hr 16 min 39 sec) 
Heartbeat CPU  0 instructions:  350000003 cycles:  705971826 heartbeat IPC: 0.55127 cumulative IPC: 0.39298 (Simulation time: 0 hr 16 min 42 sec) 
Heartbeat CPU  0 instructions:  351000003 cycles:  707918425 heartbeat IPC: 0.51372 cumulative IPC: 0.39335 (Simulation time: 0 hr 16 min 45 sec) 
Heartbeat CPU  0 instructions:  352000000 cycles:  709888429 heartbeat IPC: 0.50761 cumulative IPC: 0.39370 (Simulation time: 0 hr 16 min 48 sec) 
Heartbeat CPU  0 instructions:  353000001 cycles:  711740047 heartbeat IPC: 0.54007 cumulative IPC: 0.39412 (Simulation time: 0 hr 16 min 51 sec) 
Heartbeat CPU  0 instructions:  354000003 cycles:  713860916 heartbeat IPC: 0.47151 cumulative IPC: 0.39438 (Simulation time: 0 hr 16 min 54 sec) 
Heartbeat CPU  0 instructions:  355000003 cycles:  728808754 heartbeat IPC: 0.06690 cumulative IPC: 0.38695 (Simulation time: 0 hr 16 min 58 sec) 
Heartbeat CPU  0 instructions:  356000000 cycles:  732006600 heartbeat IPC: 0.31271 cumulative IPC: 0.38659 (Simulation time: 0 hr 17 min 1 sec) 
Heartbeat CPU  0 instructions:  357000003 cycles:  733857149 heartbeat IPC: 0.54038 cumulative IPC: 0.38702 (Simulation time: 0 hr 17 min 4 sec) 
Heartbeat CPU  0 instructions:  358000002 cycles:  735817956 heartbeat IPC: 0.50999 cumulative IPC: 0.38738 (Simulation time: 0 hr 17 min 7 sec) 
Heartbeat CPU  0 instructions:  359000000 cycles:  737782188 heartbeat IPC: 0.50910 cumulative IPC: 0.38774 (Simulation time: 0 hr 17 min 10 sec) 
Heartbeat CPU  0 instructions:  360000000 cycles:  739595971 heartbeat IPC: 0.55133 cumulative IPC: 0.38818 (Simulation time: 0 hr 17 min 13 sec) 
Heartbeat CPU  0 instructions:  361000003 cycles:  741543622 heartbeat IPC: 0.51344 cumulative IPC: 0.38854 (Simulation time: 0 hr 17 min 16 sec) 
Heartbeat CPU  0 instructions:  362000000 cycles:  743522931 heartbeat IPC: 0.50523 cumulative IPC: 0.38889 (Simulation time: 0 hr 17 min 19 sec) 
Heartbeat CPU  0 instructions:  363000000 cycles:  745372882 heartbeat IPC: 0.54055 cumulative IPC: 0.38930 (Simulation time: 0 hr 17 min 22 sec) 
Heartbeat CPU  0 instructions:  364000000 cycles:  747271022 heartbeat IPC: 0.52683 cumulative IPC: 0.38969 (Simulation time: 0 hr 17 min 25 sec) 
Heartbeat CPU  0 instructions:  365000000 cycles:  749241070 heartbeat IPC: 0.50760 cumulative IPC: 0.39003 (Simulation time: 0 hr 17 min 28 sec) 
Heartbeat CPU  0 instructions:  366000001 cycles:  751163103 heartbeat IPC: 0.52028 cumulative IPC: 0.39040 (Simulation time: 0 hr 17 min 31 sec) 
Heartbeat CPU  0 instructions:  367000001 cycles:  752994222 heartbeat IPC: 0.54611 cumulative IPC: 0.39081 (Simulation time: 0 hr 17 min 33 sec) 
Heartbeat CPU  0 instructions:  368000000 cycles:  754957534 heartbeat IPC: 0.50934 cumulative IPC: 0.39115 (Simulation time: 0 hr 17 min 36 sec) 
Heartbeat CPU  0 instructions:  369000003 cycles:  756933375 heartbeat IPC: 0.50612 cumulative IPC: 0.39148 (Simulation time: 0 hr 17 min 39 sec) 
Heartbeat CPU  0 instructions:  370000000 cycles:  758743513 heartbeat IPC: 0.55244 cumulative IPC: 0.39191 (Simulation time: 0 hr 17 min 42 sec) 
Heartbeat CPU  0 instructions:  371000001 cycles:  760687310 heartbeat IPC: 0.51446 cumulative IPC: 0.39225 (Simulation time: 0 hr 17 min 45 sec) 
Heartbeat CPU  0 instructions:  372000000 cycles:  762658489 heartbeat IPC: 0.50731 cumulative IPC: 0.39258 (Simulation time: 0 hr 17 min 48 sec) 
Heartbeat CPU  0 instructions:  373000003 cycles:  764525855 heartbeat IPC: 0.53552 cumulative IPC: 0.39296 (Simulation time: 0 hr 17 min 51 sec) 
Heartbeat CPU  0 instructions:  374000001 cycles:  766407279 heartbeat IPC: 0.53151 cumulative IPC: 0.39334 (Simulation time: 0 hr 17 min 54 sec) 
Heartbeat CPU  0 instructions:  375000001 cycles:  768374320 heartbeat IPC: 0.50838 cumulative IPC: 0.39366 (Simulation time: 0 hr 17 min 57 sec) 
Heartbeat CPU  0 instructions:  376000000 cycles:  770319912 heartbeat IPC: 0.51398 cumulative IPC: 0.39400 (Simulation time: 0 hr 18 min 0 sec) 
Heartbeat CPU  0 instructions:  377000000 cycles:  779531812 heartbeat IPC: 0.10856 cumulative IPC: 0.39029 (Simulation time: 0 hr 18 min 3 sec) 
Heartbeat CPU  0 instructions:  378000003 cycles:  788381804 heartbeat IPC: 0.11299 cumulative IPC: 0.38688 (Simulation time: 0 hr 18 min 7 sec) 
Heartbeat CPU  0 instructions:  379000001 cycles:  790345895 heartbeat IPC: 0.50914 cumulative IPC: 0.38721 (Simulation time: 0 hr 18 min 10 sec) 
Heartbeat CPU  0 instructions:  380000000 cycles:  792160126 heartbeat IPC: 0.55120 cumulative IPC: 0.38762 (Simulation time: 0 hr 18 min 13 sec) 
Heartbeat CPU  0 instructions:  381000002 cycles:  794150708 heartbeat IPC: 0.50237 cumulative IPC: 0.38794 (Simulation time: 0 hr 18 min 16 sec) 
Heartbeat CPU  0 instructions:  382000002 cycles:  796271358 heartbeat IPC: 0.47155 cumulative IPC: 0.38818 (Simulation time: 0 hr 18 min 19 sec) 
Heartbeat CPU  0 instructions:  383000002 cycles:  798290217 heartbeat IPC: 0.49533 cumulative IPC: 0.38848 (Simulation time: 0 hr 18 min 22 sec) 
Heartbeat CPU  0 instructions:  384000000 cycles:  800169830 heartbeat IPC: 0.53202 cumulative IPC: 0.38885 (Simulation time: 0 hr 18 min 25 sec) 
Heartbeat CPU  0 instructions:  385000003 cycles:  802140456 heartbeat IPC: 0.50745 cumulative IPC: 0.38917 (Simulation time: 0 hr 18 min 28 sec) 
Heartbeat CPU  0 instructions:  386000002 cycles:  804091191 heartbeat IPC: 0.51263 cumulative IPC: 0.38949 (Simulation time: 0 hr 18 min 31 sec) 
Heartbeat CPU  0 instructions:  387000001 cycles:  805905224 heartbeat IPC: 0.55126 cumulative IPC: 0.38989 (Simulation time: 0 hr 18 min 34 sec) 
Heartbeat CPU  0 instructions:  388000000 cycles:  807865462 heartbeat IPC: 0.51014 cumulative IPC: 0.39021 (Simulation time: 0 hr 18 min 37 sec) 
Heartbeat CPU  0 instructions:  389000003 cycles:  809833522 heartbeat IPC: 0.50812 cumulative IPC: 0.39053 (Simulation time: 0 hr 18 min 40 sec) 
Heartbeat CPU  0 instructions:  390000003 cycles:  811654033 heartbeat IPC: 0.54930 cumulative IPC: 0.39092 (Simulation time: 0 hr 18 min 43 sec) 
Heartbeat CPU  0 instructions:  391000001 cycles:  813587950 heartbeat IPC: 0.51708 cumulative IPC: 0.39124 (Simulation time: 0 hr 18 min 46 sec) 
Heartbeat CPU  0 instructions:  392000000 cycles:  815557772 heartbeat IPC: 0.50766 cumulative IPC: 0.39155 (Simulation time: 0 hr 18 min 48 sec) 
Heartbeat CPU  0 instructions:  393000000 cycles:  817446283 heartbeat IPC: 0.52952 cumulative IPC: 0.39190 (Simulation time: 0 hr 18 min 51 sec) 
Heartbeat CPU  0 instructions:  394000000 cycles:  819301609 heartbeat IPC: 0.53899 cumulative IPC: 0.39226 (Simulation time: 0 hr 18 min 54 sec) 
Heartbeat CPU  0 instructions:  395000002 cycles:  821280474 heartbeat IPC: 0.50534 cumulative IPC: 0.39256 (Simulation time: 0 hr 18 min 57 sec) 
Heartbeat CPU  0 instructions:  396000000 cycles:  823233262 heartbeat IPC: 0.51209 cumulative IPC: 0.39287 (Simulation time: 0 hr 19 min 0 sec) 
Heartbeat CPU  0 instructions:  397000001 cycles:  825039761 heartbeat IPC: 0.55356 cumulative IPC: 0.39326 (Simulation time: 0 hr 19 min 3 sec) 
Heartbeat CPU  0 instructions:  398000003 cycles:  826996638 heartbeat IPC: 0.51102 cumulative IPC: 0.39356 (Simulation time: 0 hr 19 min 6 sec) 
Heartbeat CPU  0 instructions:  399000001 cycles:  830870507 heartbeat IPC: 0.25814 cumulative IPC: 0.39287 (Simulation time: 0 hr 19 min 9 sec) 
Heartbeat CPU  0 instructions:  400000000 cycles:  845101842 heartbeat IPC: 0.07027 cumulative IPC: 0.38695 (Simulation time: 0 hr 19 min 14 sec) 
Heartbeat CPU  0 instructions:  401000002 cycles:  847051034 heartbeat IPC: 0.51303 cumulative IPC: 0.38726 (Simulation time: 0 hr 19 min 17 sec) 
Heartbeat CPU  0 instructions:  402000001 cycles:  849022004 heartbeat IPC: 0.50736 cumulative IPC: 0.38757 (Simulation time: 0 hr 19 min 19 sec) 
Heartbeat CPU  0 instructions:  403000003 cycles:  850912447 heartbeat IPC: 0.52898 cumulative IPC: 0.38791 (Simulation time: 0 hr 19 min 22 sec) 
Heartbeat CPU  0 instructions:  404000000 cycles:  852779821 heartbeat IPC: 0.53551 cumulative IPC: 0.38826 (Simulation time: 0 hr 19 min 25 sec) 
Heartbeat CPU  0 instructions:  405000001 cycles:  854757214 heartbeat IPC: 0.50572 cumulative IPC: 0.38856 (Simulation time: 0 hr 19 min 28 sec) 
Heartbeat CPU  0 instructions:  406000002 cycles:  856711948 heartbeat IPC: 0.51158 cumulative IPC: 0.38886 (Simulation time: 0 hr 19 min 31 sec) 
Heartbeat CPU  0 instructions:  407000001 cycles:  858522476 heartbeat IPC: 0.55232 cumulative IPC: 0.38924 (Simulation time: 0 hr 19 min 34 sec) 
Heartbeat CPU  0 instructions:  408000000 cycles:  860489362 heartbeat IPC: 0.50842 cumulative IPC: 0.38954 (Simulation time: 0 hr 19 min 37 sec) 
Heartbeat CPU  0 instructions:  409000001 cycles:  862453945 heartbeat IPC: 0.50901 cumulative IPC: 0.38983 (Simulation time: 0 hr 19 min 40 sec) 
Heartbeat CPU  0 instructions:  410000003 cycles:  864289986 heartbeat IPC: 0.54465 cumulative IPC: 0.39019 (Simulation time: 0 hr 19 min 43 sec) 
Heartbeat CPU  0 instructions:  411000000 cycles:  866215190 heartbeat IPC: 0.51942 cumulative IPC: 0.39050 (Simulation time: 0 hr 19 min 46 sec) 
Heartbeat CPU  0 instructions:  412000000 cycles:  868184407 heartbeat IPC: 0.50782 cumulative IPC: 0.39079 (Simulation time: 0 hr 19 min 49 sec) 
Heartbeat CPU  0 instructions:  413000002 cycles:  870096321 heartbeat IPC: 0.52304 cumulative IPC: 0.39111 (Simulation time: 0 hr 19 min 52 sec) 
Heartbeat CPU  0 instructions:  414000000 cycles:  871942078 heartbeat IPC: 0.54178 cumulative IPC: 0.39145 (Simulation time: 0 hr 19 min 55 sec) 
Heartbeat CPU  0 instructions:  415000002 cycles:  873904641 heartbeat IPC: 0.50954 cumulative IPC: 0.39174 (Simulation time: 0 hr 19 min 58 sec) 
Heartbeat CPU  0 instructions:  416000000 cycles:  875867223 heartbeat IPC: 0.50953 cumulative IPC: 0.39203 (Simulation time: 0 hr 20 min 1 sec) 
Heartbeat CPU  0 instructions:  417000003 cycles:  877682377 heartbeat IPC: 0.55092 cumulative IPC: 0.39239 (Simulation time: 0 hr 20 min 3 sec) 
Heartbeat CPU  0 instructions:  418000003 cycles:  879629534 heartbeat IPC: 0.51357 cumulative IPC: 0.39268 (Simulation time: 0 hr 20 min 7 sec) 
Heartbeat CPU  0 instructions:  419000003 cycles:  881602226 heartbeat IPC: 0.50692 cumulative IPC: 0.39296 (Simulation time: 0 hr 20 min 10 sec) 
Heartbeat CPU  0 instructions:  420000000 cycles:  883457928 heartbeat IPC: 0.53888 cumulative IPC: 0.39329 (Simulation time: 0 hr 20 min 13 sec) 
Heartbeat CPU  0 instructions:  421000001 cycles:  885358777 heartbeat IPC: 0.52608 cumulative IPC: 0.39360 (Simulation time: 0 hr 20 min 16 sec) 
Heartbeat CPU  0 instructions:  422000002 cycles:  896487142 heartbeat IPC: 0.08986 cumulative IPC: 0.38951 (Simulation time: 0 hr 20 min 20 sec) 
Heartbeat CPU  0 instructions:  423000003 cycles:  903587544 heartbeat IPC: 0.14084 cumulative IPC: 0.38739 (Simulation time: 0 hr 20 min 24 sec) 
Heartbeat CPU  0 instructions:  424000000 cycles:  905425340 heartbeat IPC: 0.54413 cumulative IPC: 0.38774 (Simulation time: 0 hr 20 min 27 sec) 
Heartbeat CPU  0 instructions:  425000003 cycles:  907391526 heartbeat IPC: 0.50860 cumulative IPC: 0.38802 (Simulation time: 0 hr 20 min 30 sec) 
Heartbeat CPU  0 instructions:  426000001 cycles:  909343075 heartbeat IPC: 0.51241 cumulative IPC: 0.38831 (Simulation time: 0 hr 20 min 33 sec) 
Heartbeat CPU  0 instructions:  427000000 cycles:  911151281 heartbeat IPC: 0.55303 cumulative IPC: 0.38866 (Simulation time: 0 hr 20 min 36 sec) 
Heartbeat CPU  0 instructions:  428000000 cycles:  913091937 heartbeat IPC: 0.51529 cumulative IPC: 0.38895 (Simulation time: 0 hr 20 min 39 sec) 
Heartbeat CPU  0 instructions:  429000002 cycles:  915059232 heartbeat IPC: 0.50831 cumulative IPC: 0.38923 (Simulation time: 0 hr 20 min 42 sec) 
Heartbeat CPU  0 instructions:  430000000 cycles:  916897622 heartbeat IPC: 0.54395 cumulative IPC: 0.38957 (Simulation time: 0 hr 20 min 44 sec) 
Heartbeat CPU  0 instructions:  431000000 cycles:  918792379 heartbeat IPC: 0.52777 cumulative IPC: 0.38988 (Simulation time: 0 hr 20 min 47 sec) 
Heartbeat CPU  0 instructions:  432000000 cycles:  920753712 heartbeat IPC: 0.50986 cumulative IPC: 0.39015 (Simulation time: 0 hr 20 min 50 sec) 
Heartbeat CPU  0 instructions:  433000003 cycles:  922813981 heartbeat IPC: 0.48537 cumulative IPC: 0.39038 (Simulation time: 0 hr 20 min 53 sec) 
Heartbeat CPU  0 instructions:  434000002 cycles:  924640309 heartbeat IPC: 0.54755 cumulative IPC: 0.39072 (Simulation time: 0 hr 20 min 56 sec) 
Heartbeat CPU  0 instructions:  435000001 cycles:  926609453 heartbeat IPC: 0.50783 cumulative IPC: 0.39099 (Simulation time: 0 hr 20 min 59 sec) 
Heartbeat CPU  0 instructions:  436000000 cycles:  928565342 heartbeat IPC: 0.51128 cumulative IPC: 0.39126 (Simulation time: 0 hr 21 min 2 sec) 
Heartbeat CPU  0 instructions:  437000000 cycles:  930379759 heartbeat IPC: 0.55114 cumulative IPC: 0.39160 (Simulation time: 0 hr 21 min 5 sec) 
Heartbeat CPU  0 instructions:  438000000 cycles:  932318893 heartbeat IPC: 0.51569 cumulative IPC: 0.39188 (Simulation time: 0 hr 21 min 8 sec) 
Heartbeat CPU  0 instructions:  439000001 cycles:  934282585 heartbeat IPC: 0.50925 cumulative IPC: 0.39214 (Simulation time: 0 hr 21 min 11 sec) 
Heartbeat CPU  0 instructions:  440000000 cycles:  936151970 heartbeat IPC: 0.53493 cumulative IPC: 0.39245 (Simulation time: 0 hr 21 min 14 sec) 
Heartbeat CPU  0 instructions:  441000001 cycles:  938030667 heartbeat IPC: 0.53228 cumulative IPC: 0.39275 (Simulation time: 0 hr 21 min 17 sec) 
Heartbeat CPU  0 instructions:  442000001 cycles:  939994180 heartbeat IPC: 0.50929 cumulative IPC: 0.39302 (Simulation time: 0 hr 21 min 20 sec) 
Heartbeat CPU  0 instructions:  443000002 cycles:  941932169 heartbeat IPC: 0.51600 cumulative IPC: 0.39329 (Simulation time: 0 hr 21 min 23 sec) 
Heartbeat CPU  0 instructions:  444000000 cycles:  947559941 heartbeat IPC: 0.17769 cumulative IPC: 0.39191 (Simulation time: 0 hr 21 min 26 sec) 
Heartbeat CPU  0 instructions:  445000003 cycles:  960217173 heartbeat IPC: 0.07901 cumulative IPC: 0.38746 (Simulation time: 0 hr 21 min 30 sec) 
Heartbeat CPU  0 instructions:  446000000 cycles:  962177979 heartbeat IPC: 0.50999 cumulative IPC: 0.38773 (Simulation time: 0 hr 21 min 33 sec) 
Heartbeat CPU  0 instructions:  447000003 cycles:  963956590 heartbeat IPC: 0.56224 cumulative IPC: 0.38808 (Simulation time: 0 hr 21 min 36 sec) 
Heartbeat CPU  0 instructions:  448000000 cycles:  965881346 heartbeat IPC: 0.51954 cumulative IPC: 0.38836 (Simulation time: 0 hr 21 min 40 sec) 
Heartbeat CPU  0 instructions:  449000000 cycles:  967829702 heartbeat IPC: 0.51325 cumulative IPC: 0.38863 (Simulation time: 0 hr 21 min 42 sec) 
Heartbeat CPU  0 instructions:  450000000 cycles:  969667491 heartbeat IPC: 0.54413 cumulative IPC: 0.38895 (Simulation time: 0 hr 21 min 45 sec) 
Heartbeat CPU  0 instructions:  451000000 cycles:  971520810 heartbeat IPC: 0.53957 cumulative IPC: 0.38926 (Simulation time: 0 hr 21 min 48 sec) 
Heartbeat CPU  0 instructions:  452000000 cycles:  973472344 heartbeat IPC: 0.51242 cumulative IPC: 0.38952 (Simulation time: 0 hr 21 min 51 sec) 
Heartbeat CPU  0 instructions:  453000001 cycles:  975387819 heartbeat IPC: 0.52206 cumulative IPC: 0.38980 (Simulation time: 0 hr 21 min 53 sec) 
Heartbeat CPU  0 instructions:  454000001 cycles:  977172970 heartbeat IPC: 0.56018 cumulative IPC: 0.39014 (Simulation time: 0 hr 21 min 56 sec) 
Heartbeat CPU  0 instructions:  455000000 cycles:  979120929 heartbeat IPC: 0.51336 cumulative IPC: 0.39040 (Simulation time: 0 hr 21 min 59 sec) 
Heartbeat CPU  0 instructions:  456000000 cycles:  981064492 heartbeat IPC: 0.51452 cumulative IPC: 0.39067 (Simulation time: 0 hr 22 min 2 sec) 
Heartbeat CPU  0 instructions:  457000000 cycles:  982851038 heartbeat IPC: 0.55974 cumulative IPC: 0.39100 (Simulation time: 0 hr 22 min 4 sec) 
Heartbeat CPU  0 instructions:  458000003 cycles:  984757813 heartbeat IPC: 0.52445 cumulative IPC: 0.39128 (Simulation time: 0 hr 22 min 7 sec) 
Heartbeat CPU  0 instructions:  459000000 cycles:  986711077 heartbeat IPC: 0.51196 cumulative IPC: 0.39153 (Simulation time: 0 hr 22 min 10 sec) 
Heartbeat CPU  0 instructions:  460000000 cycles:  988570407 heartbeat IPC: 0.53783 cumulative IPC: 0.39183 (Simulation time: 0 hr 22 min 13 sec) 
Heartbeat CPU  0 instructions:  461000000 cycles:  990402000 heartbeat IPC: 0.54597 cumulative IPC: 0.39214 (Simulation time: 0 hr 22 min 15 sec) 
Heartbeat CPU  0 instructions:  462000003 cycles:  992352377 heartbeat IPC: 0.51272 cumulative IPC: 0.39239 (Simulation time: 0 hr 22 min 18 sec) 
Heartbeat CPU  0 instructions:  463000003 cycles:  994278006 heartbeat IPC: 0.51931 cumulative IPC: 0.39266 (Simulation time: 0 hr 22 min 21 sec) 
Heartbeat CPU  0 instructions:  464000000 cycles:  996050284 heartbeat IPC: 0.56424 cumulative IPC: 0.39298 (Simulation time: 0 hr 22 min 24 sec) 
Heartbeat CPU  0 instructions:  465000000 cycles:  997985093 heartbeat IPC: 0.51685 cumulative IPC: 0.39324 (Simulation time: 0 hr 22 min 26 sec) 
Heartbeat CPU  0 instructions:  466000000 cycles:  999924025 heartbeat IPC: 0.51575 cumulative IPC: 0.39350 (Simulation time: 0 hr 22 min 29 sec) 
Heartbeat CPU  0 instructions:  467000000 cycles: 1012926219 heartbeat IPC: 0.07691 cumulative IPC: 0.38913 (Simulation time: 0 hr 22 min 33 sec) 
Heartbeat CPU  0 instructions:  468000000 cycles: 1017911165 heartbeat IPC: 0.20060 cumulative IPC: 0.38814 (Simulation time: 0 hr 22 min 37 sec) 
Heartbeat CPU  0 instructions:  469000002 cycles: 1019860070 heartbeat IPC: 0.51311 cumulative IPC: 0.38840 (Simulation time: 0 hr 22 min 39 sec) 
Heartbeat CPU  0 instructions:  470000000 cycles: 1021724632 heartbeat IPC: 0.53632 cumulative IPC: 0.38869 (Simulation time: 0 hr 22 min 42 sec) 
Heartbeat CPU  0 instructions:  471000002 cycles: 1023560392 heartbeat IPC: 0.54473 cumulative IPC: 0.38899 (Simulation time: 0 hr 22 min 45 sec) 
Heartbeat CPU  0 instructions:  472000000 cycles: 1025514094 heartbeat IPC: 0.51185 cumulative IPC: 0.38924 (Simulation time: 0 hr 22 min 48 sec) 
Heartbeat CPU  0 instructions:  473000003 cycles: 1027443966 heartbeat IPC: 0.51817 cumulative IPC: 0.38950 (Simulation time: 0 hr 22 min 50 sec) 
Heartbeat CPU  0 instructions:  474000002 cycles: 1029220764 heartbeat IPC: 0.56281 cumulative IPC: 0.38982 (Simulation time: 0 hr 22 min 53 sec) 
Heartbeat CPU  0 instructions:  475000003 cycles: 1031152700 heartbeat IPC: 0.51762 cumulative IPC: 0.39008 (Simulation time: 0 hr 22 min 56 sec) 
Heartbeat CPU  0 instructions:  476000000 cycles: 1033101283 heartbeat IPC: 0.51319 cumulative IPC: 0.39033 (Simulation time: 0 hr 22 min 58 sec) 
Heartbeat CPU  0 instructions:  477000003 cycles: 1034908236 heartbeat IPC: 0.55342 cumulative IPC: 0.39063 (Simulation time: 0 hr 23 min 1 sec) 
Heartbeat CPU  0 instructions:  478000003 cycles: 1036804145 heartbeat IPC: 0.52745 cumulative IPC: 0.39090 (Simulation time: 0 hr 23 min 4 sec) 
Heartbeat CPU  0 instructions:  479000000 cycles: 1038755511 heartbeat IPC: 0.51246 cumulative IPC: 0.39114 (Simulation time: 0 hr 23 min 7 sec) 
Heartbeat CPU  0 instructions:  480000000 cycles: 1040632493 heartbeat IPC: 0.53277 cumulative IPC: 0.39142 (Simulation time: 0 hr 23 min 10 sec) 
Heartbeat CPU  0 instructions:  481000000 cycles: 1042441156 heartbeat IPC: 0.55289 cumulative IPC: 0.39172 (Simulation time: 0 hr 23 min 12 sec) 
Heartbeat CPU  0 instructions:  482000000 cycles: 1044391288 heartbeat IPC: 0.51279 cumulative IPC: 0.39196 (Simulation time: 0 hr 23 min 15 sec) 
Heartbeat CPU  0 instructions:  483000001 cycles: 1046425096 heartbeat IPC: 0.49169 cumulative IPC: 0.39217 (Simulation time: 0 hr 23 min 18 sec) 
Heartbeat CPU  0 instructions:  484000000 cycles: 1048329098 heartbeat IPC: 0.52521 cumulative IPC: 0.39243 (Simulation time: 0 hr 23 min 20 sec) 
Heartbeat CPU  0 instructions:  485000001 cycles: 1050379149 heartbeat IPC: 0.48779 cumulative IPC: 0.39263 (Simulation time: 0 hr 23 min 23 sec) 
Heartbeat CPU  0 instructions:  486000001 cycles: 1052332419 heartbeat IPC: 0.51196 cumulative IPC: 0.39286 (Simulation time: 0 hr 23 min 26 sec) 
Heartbeat CPU  0 instructions:  487000000 cycles: 1054155391 heartbeat IPC: 0.54855 cumulative IPC: 0.39315 (Simulation time: 0 hr 23 min 29 sec) 
Heartbeat CPU  0 instructions:  488000000 cycles: 1056023402 heartbeat IPC: 0.53533 cumulative IPC: 0.39342 (Simulation time: 0 hr 23 min 31 sec) 
Heartbeat CPU  0 instructions:  489000001 cycles: 1063560380 heartbeat IPC: 0.13268 cumulative IPC: 0.39144 (Simulation time: 0 hr 23 min 35 sec) 
Heartbeat CPU  0 instructions:  490000003 cycles: 1074099219 heartbeat IPC: 0.09489 cumulative IPC: 0.38833 (Simulation time: 0 hr 23 min 38 sec) 
Heartbeat CPU  0 instructions:  491000001 cycles: 1075918844 heartbeat IPC: 0.54956 cumulative IPC: 0.38862 (Simulation time: 0 hr 23 min 41 sec) 
Heartbeat CPU  0 instructions:  492000000 cycles: 1077877056 heartbeat IPC: 0.51067 cumulative IPC: 0.38886 (Simulation time: 0 hr 23 min 44 sec) 
Heartbeat CPU  0 instructions:  493000000 cycles: 1079815794 heartbeat IPC: 0.51580 cumulative IPC: 0.38910 (Simulation time: 0 hr 23 min 47 sec) 
Heartbeat CPU  0 instructions:  494000002 cycles: 1081594853 heartbeat IPC: 0.56210 cumulative IPC: 0.38941 (Simulation time: 0 hr 23 min 49 sec) 
Heartbeat CPU  0 instructions:  495000000 cycles: 1083536261 heartbeat IPC: 0.51509 cumulative IPC: 0.38965 (Simulation time: 0 hr 23 min 52 sec) 
Heartbeat CPU  0 instructions:  496000000 cycles: 1085488220 heartbeat IPC: 0.51231 cumulative IPC: 0.38989 (Simulation time: 0 hr 23 min 55 sec) 
Heartbeat CPU  0 instructions:  497000001 cycles: 1087330849 heartbeat IPC: 0.54270 cumulative IPC: 0.39016 (Simulation time: 0 hr 23 min 58 sec) 
Heartbeat CPU  0 instructions:  498000001 cycles: 1089200074 heartbeat IPC: 0.53498 cumulative IPC: 0.39043 (Simulation time: 0 hr 24 min 0 sec) 
Heartbeat CPU  0 instructions:  499000001 cycles: 1091151380 heartbeat IPC: 0.51248 cumulative IPC: 0.39066 (Simulation time: 0 hr 24 min 3 sec) 
Heartbeat CPU  0 instructions:  500000000 cycles: 1093055275 heartbeat IPC: 0.52524 cumulative IPC: 0.39091 (Simulation time: 0 hr 24 min 6 sec) 
Heartbeat CPU  0 instructions:  501000002 cycles: 1094857965 heartbeat IPC: 0.55473 cumulative IPC: 0.39120 (Simulation time: 0 hr 24 min 9 sec) 
Heartbeat CPU  0 instructions:  502000002 cycles: 1096808389 heartbeat IPC: 0.51271 cumulative IPC: 0.39143 (Simulation time: 0 hr 24 min 11 sec) 
Heartbeat CPU  0 instructions:  503000002 cycles: 1098752425 heartbeat IPC: 0.51439 cumulative IPC: 0.39166 (Simulation time: 0 hr 24 min 14 sec) 
Heartbeat CPU  0 instructions:  504000000 cycles: 1100529878 heartbeat IPC: 0.56260 cumulative IPC: 0.39196 (Simulation time: 0 hr 24 min 17 sec) 
Heartbeat CPU  0 instructions:  505000002 cycles: 1102458175 heartbeat IPC: 0.51859 cumulative IPC: 0.39219 (Simulation time: 0 hr 24 min 19 sec) 
Heartbeat CPU  0 instructions:  506000002 cycles: 1104415616 heartbeat IPC: 0.51087 cumulative IPC: 0.39242 (Simulation time: 0 hr 24 min 22 sec) 
Heartbeat CPU  0 instructions:  507000001 cycles: 1106259885 heartbeat IPC: 0.54222 cumulative IPC: 0.39268 (Simulation time: 0 hr 24 min 25 sec) 
Heartbeat CPU  0 instructions:  508000000 cycles: 1108123609 heartbeat IPC: 0.53656 cumulative IPC: 0.39294 (Simulation time: 0 hr 24 min 28 sec) 
Heartbeat CPU  0 instructions:  509000000 cycles: 1110090632 heartbeat IPC: 0.50838 cumulative IPC: 0.39316 (Simulation time: 0 hr 24 min 31 sec) 
Heartbeat CPU  0 instructions:  510000003 cycles: 1112009032 heartbeat IPC: 0.52127 cumulative IPC: 0.39340 (Simulation time: 0 hr 24 min 33 sec) 
Heartbeat CPU  0 instructions:  511000001 cycles: 1114114704 heartbeat IPC: 0.47491 cumulative IPC: 0.39356 (Simulation time: 0 hr 24 min 36 sec) 
Heartbeat CPU  0 instructions:  512000000 cycles: 1128803793 heartbeat IPC: 0.06808 cumulative IPC: 0.38905 (Simulation time: 0 hr 24 min 40 sec) 
Heartbeat CPU  0 instructions:  513000000 cycles: 1131951680 heartbeat IPC: 0.31767 cumulative IPC: 0.38884 (Simulation time: 0 hr 24 min 43 sec) 
Heartbeat CPU  0 instructions:  514000001 cycles: 1133770598 heartbeat IPC: 0.54978 cumulative IPC: 0.38911 (Simulation time: 0 hr 24 min 46 sec) 
Heartbeat CPU  0 instructions:  515000002 cycles: 1135716269 heartbeat IPC: 0.51396 cumulative IPC: 0.38934 (Simulation time: 0 hr 24 min 49 sec) 
Heartbeat CPU  0 instructions:  516000000 cycles: 1137689782 heartbeat IPC: 0.50671 cumulative IPC: 0.38956 (Simulation time: 0 hr 24 min 51 sec) 
Heartbeat CPU  0 instructions:  517000002 cycles: 1139553930 heartbeat IPC: 0.53644 cumulative IPC: 0.38981 (Simulation time: 0 hr 24 min 54 sec) 
Heartbeat CPU  0 instructions:  518000000 cycles: 1141451505 heartbeat IPC: 0.52699 cumulative IPC: 0.39005 (Simulation time: 0 hr 24 min 57 sec) 
Heartbeat CPU  0 instructions:  519000000 cycles: 1143426621 heartbeat IPC: 0.50630 cumulative IPC: 0.39027 (Simulation time: 0 hr 25 min 0 sec) 
Heartbeat CPU  0 instructions:  520000000 cycles: 1145362670 heartbeat IPC: 0.51652 cumulative IPC: 0.39050 (Simulation time: 0 hr 25 min 2 sec) 
Heartbeat CPU  0 instructions:  521000003 cycles: 1147192464 heartbeat IPC: 0.54651 cumulative IPC: 0.39076 (Simulation time: 0 hr 25 min 5 sec) 
Heartbeat CPU  0 instructions:  522000001 cycles: 1149168417 heartbeat IPC: 0.50608 cumulative IPC: 0.39097 (Simulation time: 0 hr 25 min 8 sec) 
Heartbeat CPU  0 instructions:  523000001 cycles: 1151139741 heartbeat IPC: 0.50727 cumulative IPC: 0.39118 (Simulation time: 0 hr 25 min 11 sec) 
Heartbeat CPU  0 instructions:  524000000 cycles: 1152954625 heartbeat IPC: 0.55100 cumulative IPC: 0.39145 (Simulation time: 0 hr 25 min 13 sec) 
Heartbeat CPU  0 instructions:  525000000 cycles: 1154897889 heartbeat IPC: 0.51460 cumulative IPC: 0.39167 (Simulation time: 0 hr 25 min 16 sec) 
Heartbeat CPU  0 instructions:  526000002 cycles: 1156870348 heartbeat IPC: 0.50698 cumulative IPC: 0.39188 (Simulation time: 0 hr 25 min 19 sec) 
Heartbeat CPU  0 instructions:  527000002 cycles: 1158745315 heartbeat IPC: 0.53334 cumulative IPC: 0.39212 (Simulation time: 0 hr 25 min 22 sec) 
Heartbeat CPU  0 instructions:  528000000 cycles: 1160621468 heartbeat IPC: 0.53300 cumulative IPC: 0.39237 (Simulation time: 0 hr 25 min 24 sec) 
[...]
Heartbeat CPU  0 instructions:  552000000 cycles: 1220945205 heartbeat IPC: 0.51128 cumulative IPC: 0.39265 (Simulation time: 0 hr 26 min 32 sec) 
Heartbeat CPU  0 instructions:  553000002 cycles: 1222912138 heartbeat IPC: 0.50841 cumulative IPC: 0.39285 (Simulation time: 0 hr 26 min 34 sec) 
Heartbeat CPU  0 instructions:  554000002 cycles: 1224752590 heartbeat IPC: 0.54334 cumulative IPC: 0.39309 (Simulation time: 0 hr 26 min 37 sec) 
Heartbeat CPU  0 instructions:  555000003 cycles: 1226662959 heartbeat IPC: 0.52346 cumulative IPC: 0.39331 (Simulation time: 0 hr 26 min 40 sec) 
Heartbeat CPU  0 instructions:  556000000 cycles: 1230619677 heartbeat IPC: 0.25273 cumulative IPC: 0.39283 (Simulation time: 0 hr 26 min 43 sec) 
Heartbeat CPU  0 instructions:  557000002 cycles: 1244955840 heartbeat IPC: 0.06975 cumulative IPC: 0.38889 (Simulation time: 0 hr 26 min 47 sec) 
Heartbeat CPU  0 instructions:  558000003 cycles: 1246814408 heartbeat IPC: 0.53805 cumulative IPC: 0.38912 (Simulation time: 0 hr 26 min 49 sec) 
Heartbeat CPU  0 instructions:  559000000 cycles: 1248789493 heartbeat IPC: 0.50631 cumulative IPC: 0.38932 (Simulation time: 0 hr 26 min 52 sec) 
Heartbeat CPU  0 instructions:  560000000 cycles: 1250743481 heartbeat IPC: 0.51177 cumulative IPC: 0.38952 (Simulation time: 0 hr 26 min 55 sec) 
Heartbeat CPU  0 instructions:  561000002 cycles: 1252559855 heartbeat IPC: 0.55055 cumulative IPC: 0.38977 (Simulation time: 0 hr 26 min 58 sec) 
Heartbeat CPU  0 instructions:  562000002 cycles: 1254510778 heartbeat IPC: 0.51258 cumulative IPC: 0.38997 (Simulation time: 0 hr 27 min 0 sec) 
Heartbeat CPU  0 instructions:  563000001 cycles: 1256483703 heartbeat IPC: 0.50686 cumulative IPC: 0.39016 (Simulation time: 0 hr 27 min 3 sec) 
Heartbeat CPU  0 instructions:  564000000 cycles: 1258317874 heartbeat IPC: 0.54520 cumulative IPC: 0.39040 (Simulation time: 0 hr 27 min 6 sec) 
Heartbeat CPU  0 instructions:  565000003 cycles: 1260231744 heartbeat IPC: 0.52250 cumulative IPC: 0.39062 (Simulation time: 0 hr 27 min 9 sec) 
Heartbeat CPU  0 instructions:  566000000 cycles: 1262204632 heartbeat IPC: 0.50687 cumulative IPC: 0.39081 (Simulation time: 0 hr 27 min 11 sec) 
Heartbeat CPU  0 instructions:  567000003 cycles: 1264115317 heartbeat IPC: 0.52337 cumulative IPC: 0.39102 (Simulation time: 0 hr 27 min 14 sec) 
Heartbeat CPU  0 instructions:  568000000 cycles: 1265954304 heartbeat IPC: 0.54378 cumulative IPC: 0.39126 (Simulation time: 0 hr 27 min 17 sec) 
Heartbeat CPU  0 instructions:  569000000 cycles: 1267927074 heartbeat IPC: 0.50690 cumulative IPC: 0.39145 (Simulation time: 0 hr 27 min 20 sec) 
Heartbeat CPU  0 instructions:  570000002 cycles: 1269890855 heartbeat IPC: 0.50922 cumulative IPC: 0.39164 (Simulation time: 0 hr 27 min 22 sec) 
Heartbeat CPU  0 instructions:  571000000 cycles: 1271699453 heartbeat IPC: 0.55291 cumulative IPC: 0.39188 (Simulation time: 0 hr 27 min 25 sec) 
Heartbeat CPU  0 instructions:  572000000 cycles: 1273639747 heartbeat IPC: 0.51539 cumulative IPC: 0.39208 (Simulation time: 0 hr 27 min 28 sec) 
Heartbeat CPU  0 instructions:  573000002 cycles: 1275616678 heartbeat IPC: 0.50584 cumulative IPC: 0.39227 (Simulation time: 0 hr 27 min 30 sec) 
Heartbeat CPU  0 instructions:  574000001 cycles: 1277468722 heartbeat IPC: 0.53994 cumulative IPC: 0.39249 (Simulation time: 0 hr 27 min 33 sec) 
Heartbeat CPU  0 instructions:  575000003 cycles: 1279364127 heartbeat IPC: 0.52759 cumulative IPC: 0.39271 (Simulation time: 0 hr 27 min 36 sec) 
Heartbeat CPU  0 instructions:  576000000 cycles: 1281333840 heartbeat IPC: 0.50769 cumulative IPC: 0.39289 (Simulation time: 0 hr 27 min 39 sec) 
Heartbeat CPU  0 instructions:  577000002 cycles: 1283263420 heartbeat IPC: 0.51825 cumulative IPC: 0.39309 (Simulation time: 0 hr 27 min 42 sec) 
Heartbeat CPU  0 instructions:  578000002 cycles: 1285089989 heartbeat IPC: 0.54747 cumulative IPC: 0.39332 (Simulation time: 0 hr 27 min 44 sec) 
Heartbeat CPU  0 instructions:  579000003 cycles: 1296309932 heartbeat IPC: 0.08913 cumulative IPC: 0.39054 (Simulation time: 0 hr 27 min 48 sec) 
Heartbeat CPU  0 instructions:  580000000 cycles: 1303311867 heartbeat IPC: 0.14282 cumulative IPC: 0.38913 (Simulation time: 0 hr 27 min 51 sec) 
Heartbeat CPU  0 instructions:  581000003 cycles: 1305091259 heartbeat IPC: 0.56199 cumulative IPC: 0.38938 (Simulation time: 0 hr 27 min 54 sec) 
Heartbeat CPU  0 instructions:  582000001 cycles: 1307017136 heartbeat IPC: 0.51924 cumulative IPC: 0.38959 (Simulation time: 0 hr 27 min 57 sec) 
Heartbeat CPU  0 instructions:  583000002 cycles: 1308975372 heartbeat IPC: 0.51066 cumulative IPC: 0.38978 (Simulation time: 0 hr 28 min 0 sec) 
Heartbeat CPU  0 instructions:  584000000 cycles: 1310818312 heartbeat IPC: 0.54261 cumulative IPC: 0.39000 (Simulation time: 0 hr 28 min 2 sec) 
Heartbeat CPU  0 instructions:  585000003 cycles: 1312705951 heartbeat IPC: 0.52976 cumulative IPC: 0.39022 (Simulation time: 0 hr 28 min 5 sec) 
Heartbeat CPU  0 instructions:  586000003 cycles: 1314808381 heartbeat IPC: 0.47564 cumulative IPC: 0.39036 (Simulation time: 0 hr 28 min 8 sec) 
Heartbeat CPU  0 instructions:  587000001 cycles: 1316891781 heartbeat IPC: 0.47998 cumulative IPC: 0.39051 (Simulation time: 0 hr 28 min 11 sec) 
Heartbeat CPU  0 instructions:  588000000 cycles: 1318687734 heartbeat IPC: 0.55681 cumulative IPC: 0.39075 (Simulation time: 0 hr 28 min 13 sec) 
Heartbeat CPU  0 instructions:  589000000 cycles: 1320635006 heartbeat IPC: 0.51354 cumulative IPC: 0.39094 (Simulation time: 0 hr 28 min 16 sec) 
Heartbeat CPU  0 instructions:  590000001 cycles: 1322583679 heartbeat IPC: 0.51317 cumulative IPC: 0.39113 (Simulation time: 0 hr 28 min 19 sec) 
Heartbeat CPU  0 instructions:  591000000 cycles: 1324366547 heartbeat IPC: 0.56089 cumulative IPC: 0.39137 (Simulation time: 0 hr 28 min 22 sec) 
Heartbeat CPU  0 instructions:  592000000 cycles: 1326285911 heartbeat IPC: 0.52101 cumulative IPC: 0.39157 (Simulation time: 0 hr 28 min 24 sec) 
Heartbeat CPU  0 instructions:  593000002 cycles: 1328240495 heartbeat IPC: 0.51162 cumulative IPC: 0.39176 (Simulation time: 0 hr 28 min 27 sec) 
Heartbeat CPU  0 instructions:  594000002 cycles: 1330093986 heartbeat IPC: 0.53952 cumulative IPC: 0.39197 (Simulation time: 0 hr 28 min 30 sec) 
Heartbeat CPU  0 instructions:  595000001 cycles: 1331941755 heartbeat IPC: 0.54119 cumulative IPC: 0.39219 (Simulation time: 0 hr 28 min 32 sec) 
Heartbeat CPU  0 instructions:  596000000 cycles: 1333895663 heartbeat IPC: 0.51179 cumulative IPC: 0.39238 (Simulation time: 0 hr 28 min 35 sec) 
Heartbeat CPU  0 instructions:  597000003 cycles: 1335827543 heartbeat IPC: 0.51763 cumulative IPC: 0.39257 (Simulation time: 0 hr 28 min 38 sec) 
Heartbeat CPU  0 instructions:  598000000 cycles: 1337599158 heartbeat IPC: 0.56446 cumulative IPC: 0.39281 (Simulation time: 0 hr 28 min 41 sec) 
Heartbeat CPU  0 instructions:  599000000 cycles: 1339554929 heartbeat IPC: 0.51131 cumulative IPC: 0.39299 (Simulation time: 0 hr 28 min 43 sec) 
Heartbeat CPU  0 instructions:  600000000 cycles: 1341502356 heartbeat IPC: 0.51350 cumulative IPC: 0.39318 (Simulation time: 0 hr 28 min 46 sec) 
Finished CPU 0 instructions: 500000000 cycles: 1271697548 cumulative IPC: 0.39318 (Simulation time: 0 hr 28 min 46 sec) 

ChampSim completed all CPUs

[ROI Statistics]
Core_0_instructions 500000000
Core_0_cycles 1271697548
Core_0_IPC 0.39318

Core_0_branch_prediction_accuracy 99.17161
Core_0_branch_MPKI 0.01066
Core_0_average_ROB_occupancy_at_mispredict 253.69863

Core_0_L1D_total_access 253590993
Core_0_L1D_total_hit 249601421
Core_0_L1D_total_miss 3989572
Core_0_L1D_loads 171387493
Core_0_L1D_load_hit 168150459
Core_0_L1D_load_miss 3237034
Core_0_L1D_RFOs 82203500
Core_0_L1D_RFO_hit 81450962
Core_0_L1D_RFO_miss 752538
Core_0_L1D_prefetches 0
Core_0_L1D_prefetch_hit 0
Core_0_L1D_prefetch_miss 0
Core_0_L1D_writebacks 0
Core_0_L1D_writeback_hit 0
Core_0_L1D_writeback_miss 0
Core_0_L1D_prefetch_requested 0
Core_0_L1D_prefetch_dropped 0
Core_0_L1D_prefetch_issued 0
Core_0_L1D_prefetch_filled 0
Core_0_L1D_prefetch_useful 0
Core_0_L1D_prefetch_useless 0
Core_0_L1D_prefetch_late 0
Core_0_L1D_average_miss_latency 165.71045

Core_0_L1D_rq_access 255856641
Core_0_L1D_rq_forward 0
Core_0_L1D_rq_merged 83899211
Core_0_L1D_rq_to_cache 171418641
Core_0_L1D_rq_full 0

Core_0_L1D_wq_access 84479085
Core_0_L1D_wq_forward 538789
Core_0_L1D_wq_merged 1496205
Core_0_L1D_wq_to_cache 82982880
Core_0_L1D_wq_full 1492595

Core_0_L1D_pq_access 0
Core_0_L1D_pq_forward 0
Core_0_L1D_pq_merged 0
Core_0_L1D_pq_to_cache 0
Core_0_L1D_pq_full 0

Core_0_L1D_acc_epochs 681949
Core_0_L1D_acc_level_0 681949
Core_0_L1D_acc_level_1 0
Core_0_L1D_acc_level_2 0
Core_0_L1D_acc_level_3 0
Core_0_L1D_acc_level_4 0
Core_0_L1D_acc_level_5 0
Core_0_L1D_acc_level_6 0
Core_0_L1D_acc_level_7 0
Core_0_L1D_acc_level_8 0
Core_0_L1D_acc_level_9 0

Core_0_L1I_total_access 133637894
Core_0_L1I_total_hit 133637894
Core_0_L1I_total_miss 0
Core_0_L1I_loads 133637894
Core_0_L1I_load_hit 133637894
Core_0_L1I_load_miss 0
Core_0_L1I_RFOs 0
Core_0_L1I_RFO_hit 0
Core_0_L1I_RFO_miss 0
Core_0_L1I_prefetches 0
Core_0_L1I_prefetch_hit 0
Core_0_L1I_prefetch_miss 0
Core_0_L1I_writebacks 0
Core_0_L1I_writeback_hit 0
Core_0_L1I_writeback_miss 0
Core_0_L1I_prefetch_requested 0
Core_0_L1I_prefetch_dropped 0
Core_0_L1I_prefetch_issued 0
Core_0_L1I_prefetch_filled 0
Core_0_L1I_prefetch_useful 0
Core_0_L1I_prefetch_useless 0
Core_0_L1I_prefetch_late 0
Core_0_L1I_average_miss_latency -nan

Core_0_L1I_rq_access 500000000
Core_0_L1I_rq_forward 0
Core_0_L1I_rq_merged 366362106
Core_0_L1I_rq_to_cache 133637894
Core_0_L1I_rq_full 0

Core_0_L1I_wq_access 0
Core_0_L1I_wq_forward 0
Core_0_L1I_wq_merged 0
Core_0_L1I_wq_to_cache 0
Core_0_L1I_wq_full 0

Core_0_L1I_pq_access 0
Core_0_L1I_pq_forward 0
Core_0_L1I_pq_merged 0
Core_0_L1I_pq_to_cache 0
Core_0_L1I_pq_full 0

Core_0_L1I_acc_epochs 681949
Core_0_L1I_acc_level_0 681949
Core_0_L1I_acc_level_1 0
Core_0_L1I_acc_level_2 0
Core_0_L1I_acc_level_3 0
Core_0_L1I_acc_level_4 0
Core_0_L1I_acc_level_5 0
Core_0_L1I_acc_level_6 0
Core_0_L1I_acc_level_7 0
Core_0_L1I_acc_level_8 0
Core_0_L1I_acc_level_9 0

Core_0_L2C_total_access 9959255
Core_0_L2C_total_hit 7375425
Core_0_L2C_total_miss 2583830
Core_0_L2C_loads 3237034
Core_0_L2C_load_hit 2464477
Core_0_L2C_load_miss 772557
Core_0_L2C_RFOs 752538
Core_0_L2C_RFO_hit 77
Core_0_L2C_RFO_miss 752461
Core_0_L2C_prefetches 5183413
Core_0_L2C_prefetch_hit 4125390
Core_0_L2C_prefetch_miss 1058023
Core_0_L2C_writebacks 786270
Core_0_L2C_writeback_hit 785481
Core_0_L2C_writeback_miss 789
Core_0_L2C_prefetch_requested 16812906
Core_0_L2C_prefetch_dropped 1418937
Core_0_L2C_prefetch_issued 15393969
Core_0_L2C_prefetch_filled 1240056
Core_0_L2C_prefetch_useful 1239012
Core_0_L2C_prefetch_useless 1028
Core_0_L2C_prefetch_late 25531
Core_0_L2C_average_miss_latency 224.19100

Core_0_L2C_rq_access 3989572
Core_0_L2C_rq_forward 0
Core_0_L2C_rq_merged 0
Core_0_L2C_rq_to_cache 3989572
Core_0_L2C_rq_full 0

Core_0_L2C_wq_access 786270
Core_0_L2C_wq_forward 0
Core_0_L2C_wq_merged 0
Core_0_L2C_wq_to_cache 786270
Core_0_L2C_wq_full 0

Core_0_L2C_pq_access 15393969
Core_0_L2C_pq_forward 0
Core_0_L2C_pq_merged 493128
Core_0_L2C_pq_to_cache 14900841
Core_0_L2C_pq_full 0

Core_0_L2C_acc_epochs 681949
Core_0_L2C_acc_level_0 190579
Core_0_L2C_acc_level_1 84245
Core_0_L2C_acc_level_2 75237
Core_0_L2C_acc_level_3 56691
Core_0_L2C_acc_level_4 35092
Core_0_L2C_acc_level_5 61924
Core_0_L2C_acc_level_6 35008
Core_0_L2C_acc_level_7 28980
Core_0_L2C_acc_level_8 21957
Core_0_L2C_acc_level_9 92236

Core_0_LLC_total_access 10571137
Core_0_LLC_total_hit 7306381
Core_0_LLC_total_miss 3264756
Core_0_LLC_loads 747037
Core_0_LLC_load_hit 667958
Core_0_LLC_load_miss 79079
Core_0_LLC_RFOs 752461
Core_0_LLC_RFO_hit 17288
Core_0_LLC_RFO_miss 735173
Core_0_LLC_prefetches 8318649
Core_0_LLC_prefetch_hit 6563250
Core_0_LLC_prefetch_miss 1755399
Core_0_LLC_writebacks 752990
Core_0_LLC_writeback_hit 57885
Core_0_LLC_writeback_miss 695105
Core_0_LLC_prefetch_requested 0
Core_0_LLC_prefetch_dropped 0
Core_0_LLC_prefetch_issued 0
Core_0_LLC_prefetch_filled 2078055
Core_0_LLC_prefetch_useful 820500
Core_0_LLC_prefetch_useless 1240830
Core_0_LLC_prefetch_late 1625
Core_0_LLC_average_miss_latency 351.10904

Core_0_LLC_rq_access 1499498
Core_0_LLC_rq_forward 0
Core_0_LLC_rq_merged 0
Core_0_LLC_rq_to_cache 1499498
Core_0_LLC_rq_full 0

Core_0_LLC_wq_access 752990
Core_0_LLC_wq_forward 0
Core_0_LLC_wq_merged 0
Core_0_LLC_wq_to_cache 752990
Core_0_LLC_wq_full 0

Core_0_LLC_pq_access 9889744
Core_0_LLC_pq_forward 0
Core_0_LLC_pq_merged 16511
Core_0_LLC_pq_to_cache 9873233
Core_0_LLC_pq_full 0

Core_0_LLC_acc_epochs 1310061
Core_0_LLC_acc_level_0 738046
Core_0_LLC_acc_level_1 192567
Core_0_LLC_acc_level_2 138906
Core_0_LLC_acc_level_3 62644
Core_0_LLC_acc_level_4 24258
Core_0_LLC_acc_level_5 83053
Core_0_LLC_acc_level_6 20125
Core_0_LLC_acc_level_7 13286
Core_0_LLC_acc_level_8 6454
Core_0_LLC_acc_level_9 30722

Core_0_major_page_fault 0
Core_0_minor_page_fault 23870

spp.pref.total 16812906
spp.pref.at_L2 2108684
spp.pref.at_LLC 14704222

spp.depth.max 10
spp.depth.min 0
spp.depth.avg 5

spp.breadth.max 2
spp.breadth.min 0
spp.breadth.avg 0

delta_1 9449696
delta_15 2850571
delta_16 2803526
delta_-30 2002076
delta_-15 973846
delta_-14 913512
delta_2 56509
delta_-1 30704
delta_-5 20936
delta_31 15025
delta_30 10371
delta_-2 9886
delta_-3 8722
delta_4 6911
delta_-7 5725
delta_-22 4929
delta_26 4366
delta_-26 4279
delta_8 3971
delta_27 3896
delta_-19 3566
delta_18 2268
delta_-23 2244
delta_48 2122
delta_-6 2084
delta_-4 2040
delta_7 1373
delta_20 1234
delta_-44 685
delta_24 551
delta_-46 411
delta_-56 356
delta_52 297
delta_51 285
delta_25 218
delta_11 202
delta_6 179
delta_29 140
delta_21 129
delta_-11 124
delta_-50 116
delta_13 87
delta_5 87
delta_-27 77
delta_-24 66
delta_17 54
delta_55 43
delta_3 38
delta_-35 34
delta_-49 30
delta_-12 30
delta_-38 29
delta_-32 22
delta_53 16
delta_-55 15
delta_14 15
delta_19 13
delta_33 10
delta_36 10
delta_-47 9
delta_-10 8
delta_39 6
delta_56 5
delta_10 5
delta_54 5
delta_-57 3
delta_9 3
delta_40 2
delta_22 2
delta_-18 1
delta_-17 1
delta_23 1

depth_1_delta_1 1722178
depth_1_delta_16 596249
depth_1_delta_15 571717
depth_1_delta_-30 383777
depth_1_delta_-15 230666
depth_1_delta_-14 209066
depth_1_delta_2 12397
depth_1_delta_30 10079
depth_1_delta_-1 9992
depth_1_delta_31 9984
depth_1_delta_-2 6047
depth_1_delta_-5 4595
depth_1_delta_8 2870
depth_1_delta_-3 2505
depth_1_delta_-22 2367
depth_1_delta_4 2352
depth_1_delta_48 2122
depth_1_delta_-7 1908
depth_1_delta_26 1579
depth_1_delta_27 1510
depth_1_delta_-26 1396
depth_1_delta_-6 1117
depth_1_delta_-4 1059
depth_1_delta_-19 1034
depth_1_delta_18 763
depth_1_delta_7 575
depth_1_delta_-23 470
depth_1_delta_20 424
depth_1_delta_24 373
depth_1_delta_-44 318
depth_1_delta_52 284
depth_1_delta_51 228
depth_1_delta_-46 225
depth_1_delta_-56 209
depth_1_delta_11 186
depth_1_delta_25 156
depth_1_delta_6 143
depth_1_delta_29 140
depth_1_delta_-50 115
depth_1_delta_21 110
depth_1_delta_5 76
depth_1_delta_-27 66
depth_1_delta_-24 60
depth_1_delta_13 60
depth_1_delta_-11 55
depth_1_delta_17 51
depth_1_delta_55 43
depth_1_delta_3 38
depth_1_delta_-35 29
depth_1_delta_-49 29
depth_1_delta_-12 27
depth_1_delta_-38 22
depth_1_delta_-32 21
depth_1_delta_53 16
depth_1_delta_14 14
depth_1_delta_19 13
depth_1_delta_-55 13
depth_1_delta_33 10
depth_1_delta_36 10
depth_1_delta_-47 9
depth_1_delta_-10 7
depth_1_delta_39 6
depth_1_delta_56 5
depth_1_delta_10 5
depth_1_delta_54 5
depth_1_delta_-57 3
depth_1_delta_9 3
depth_1_delta_40 2
depth_1_delta_22 2
depth_1_delta_-18 1
depth_1_delta_-17 1
depth_1_delta_23 1
depth_2_delta_1 1677702
depth_2_delta_15 578515
depth_2_delta_16 559638
depth_2_delta_-30 393920
depth_2_delta_-15 221696
depth_2_delta_-14 197414
depth_2_delta_2 11487
depth_2_delta_-1 8679
depth_2_delta_-5 4619
depth_2_delta_31 4112
depth_2_delta_-2 3035
depth_2_delta_-3 2611
depth_2_delta_-22 2079
depth_2_delta_4 1519
depth_2_delta_-7 1491
depth_2_delta_26 1404
depth_2_delta_-26 1327
depth_2_delta_27 1269
depth_2_delta_-19 1026
depth_2_delta_8 938
depth_2_delta_-6 778
depth_2_delta_18 736
depth_2_delta_-4 490
depth_2_delta_-23 473
depth_2_delta_7 337
depth_2_delta_20 312
depth_2_delta_30 275
depth_2_delta_-44 236
depth_2_delta_-46 183
depth_2_delta_-56 137
depth_2_delta_24 115
depth_2_delta_25 62
depth_2_delta_51 57
depth_2_delta_-11 29
depth_2_delta_13 27
depth_2_delta_6 24
depth_2_delta_21 16
depth_2_delta_11 13
depth_2_delta_52 12
depth_2_delta_-27 11
depth_2_delta_5 11
depth_2_delta_-24 6
depth_2_delta_-35 5
depth_2_delta_-12 2
depth_2_delta_-55 2
depth_2_delta_17 2
depth_2_delta_-38 1
depth_2_delta_-49 1
depth_2_delta_14 1
depth_2_delta_-50 1
depth_2_delta_-32 1
depth_2_delta_-10 1
depth_3_delta_1 1630810
depth_3_delta_15 561017
depth_3_delta_16 547503
depth_3_delta_-30 389295
depth_3_delta_-15 180150
depth_3_delta_-14 176627
depth_3_delta_2 10064
depth_3_delta_-1 4564
depth_3_delta_-5 4320
depth_3_delta_-3 2436
depth_3_delta_-7 1357
depth_3_delta_4 1288
depth_3_delta_26 1185
depth_3_delta_-26 1066
depth_3_delta_31 929
depth_3_delta_27 865
depth_3_delta_-19 801
depth_3_delta_-2 674
depth_3_delta_18 491
depth_3_delta_-22 472
depth_3_delta_-23 470
depth_3_delta_20 289
depth_3_delta_7 282
depth_3_delta_-4 262
depth_3_delta_-6 184
depth_3_delta_-44 131
depth_3_delta_8 96
depth_3_delta_24 63
depth_3_delta_30 17
depth_3_delta_-11 15
depth_3_delta_6 12
depth_3_delta_-56 10
depth_3_delta_-38 6
depth_3_delta_-46 3
depth_3_delta_21 3
depth_3_delta_11 3
depth_3_delta_-12 1
depth_3_delta_52 1
depth_3_delta_17 1
depth_4_delta_1 1577279
depth_4_delta_16 509886
depth_4_delta_15 508286
depth_4_delta_-30 364023
depth_4_delta_-15 166761
depth_4_delta_-14 162474
depth_4_delta_2 9135
depth_4_delta_-1 3041
depth_4_delta_-5 2951
depth_4_delta_-3 1159
depth_4_delta_4 1093
depth_4_delta_-7 955
depth_4_delta_-19 483
depth_4_delta_-23 456
depth_4_delta_-26 437
depth_4_delta_18 271
depth_4_delta_27 228
depth_4_delta_20 192
depth_4_delta_26 190
depth_4_delta_7 174
depth_4_delta_-4 173
depth_4_delta_-2 129
depth_4_delta_8 67
depth_4_delta_-11 12
depth_4_delta_-22 11
depth_4_delta_-6 5
depth_5_delta_1 1375212
depth_5_delta_15 430307
depth_5_delta_16 401911
depth_5_delta_-30 308212
depth_5_delta_-15 123860
depth_5_delta_-14 114871
depth_5_delta_2 8439
depth_5_delta_-1 2831
depth_5_delta_-5 2804
depth_5_delta_4 608
depth_5_delta_-23 319
depth_5_delta_-19 222
depth_5_delta_-4 56
depth_5_delta_-26 53
depth_5_delta_20 17
depth_5_delta_27 17
depth_5_delta_-7 14
depth_5_delta_-3 11
depth_5_delta_26 8
depth_5_delta_-11 8
depth_5_delta_18 7
depth_5_delta_7 5
depth_5_delta_-2 1
depth_6_delta_1 951788
depth_6_delta_15 183888
depth_6_delta_16 171434
depth_6_delta_-30 149410
depth_6_delta_-14 48620
depth_6_delta_-15 46091
depth_6_delta_2 4601
depth_6_delta_-5 1522
depth_6_delta_-1 1490
depth_6_delta_-23 55
depth_6_delta_4 51
depth_6_delta_27 6
depth_6_delta_-11 4
depth_7_delta_1 412701
depth_7_delta_16 16743
depth_7_delta_15 16680
depth_7_delta_-30 13272
depth_7_delta_-15 4599
depth_7_delta_-14 4399
depth_7_delta_2 372
depth_7_delta_-5 121
depth_7_delta_-1 104
depth_7_delta_-11 1
depth_7_delta_-23 1
depth_7_delta_27 1
depth_8_delta_1 87798
depth_8_delta_-30 166
depth_8_delta_16 162
depth_8_delta_15 159
depth_8_delta_-14 41
depth_8_delta_-15 23
depth_8_delta_2 13
depth_8_delta_-5 3
depth_8_delta_-1 2
depth_9_delta_1 14195
depth_9_delta_15 2
depth_9_delta_-5 1
depth_9_delta_-30 1
depth_9_delta_-1 1
depth_9_delta_2 1
depth_10_delta_1 33

Channel_0_RQ_row_buffer_hit 672701
Channel_0_RQ_row_buffer_miss 1896949
Channel_0_WQ_row_buffer_hit 124162
Channel_0_WQ_row_buffer_miss 628643
Channel_0_WQ_full 0
Channel_0_dbus_congested 1986860

avg_congested_cycle 46

DRAM_bw_pochs 5240244
DRAM_bw_level_0 4480428
DRAM_bw_level_1 307578
DRAM_bw_level_2 119536
DRAM_bw_level_3 332702
