*************************************************
   ChampSim Multicore Out-of-Order Simulator
   Last compiled: Dec 11 2024 17:59:53
*************************************************
parsing config file: /home/functionmain/桌面/Pythia/config/nopref.ini

trace_0 /home/functionmain/桌面/Pythia/traces/436.cactusADM-1804B.champsimtrace.xz
adding L2C_PREFETCHER: NONE
Initialize SHIP state
warmup_instructions 100000000
simulation_instructions 500000000
champsim_seed 271
measure_ipc 0
measure_ipc_epoch 1000
measure_dram_bw 1
measure_dram_bw_epoch 256
measure_cache_acc 1
measure_cache_acc_epoch 1024
l1d_perfect 0
l2c_perfect 0
llc_perfect 0
l1d_semi_perfect 0
l2c_semi_perfect 0
llc_semi_perfect 0
semi_perfect_cache_page_buffer_size 64

num_cpus 1
cpu_freq 4000
dram_io_freq 300
page_size 4096
block_size 64
max_read_per_cycle 8
max_fill_per_cycle 1
dram_channels 1
log2_dram_channels 0
dram_ranks 1
dram_banks 8
dram_rows 65536
dram_columns 128
dram_row_size 8
dram_size 4096
dram_pages 1048576

fetch_width 6
decode_width 6
exec_width 4
lq_width 2
sq_width 2
retire_width 4
scheduler_size 128
branch_mispredict_penalty 20
rob_size 256
lq_size 72
sq_size 56
num_instr_destinations_sparc 4
num_instr_destinations 2
num_instr_sources 4

itlb_set 16
itlb_way 8
itlb_rq_size 16
itlb_wq_size 16
itlb_pq_size 0
itlb_mshr_size 8
itlb_latency 1

dtlb_set 16
dtlb_way 4
dtlb_rq_size 16
dtlb_wq_size 16
dtlb_pq_size 0
dtlb_mshr_size 8
dtlb_latency 1

stlb_set 128
stlb_way 12
stlb_rq_size 32
stlb_wq_size 32
stlb_pq_size 0
stlb_mshr_size 16
stlb_latency 8

l1i_size 32
l1i_set 64
l1i_way 8
l1i_rq_size 64
l1i_wq_size 64
l1i_pq_size 8
l1i_mshr_size 8
l1i_latency 1

l1d_size 32
l1d_set 64
l1d_way 8
l1d_rq_size 64
l1d_wq_size 64
l1d_pq_size 8
l1d_mshr_size 16
l1d_latency 4

l2c_size 256
l2c_set 512
l2c_way 8
l2c_rq_size 32
l2c_wq_size 32
l2c_pq_size 32
l2c_mshr_size 32
l2c_latency 10

llc_size 2048
llc_set 2048
llc_way 16
llc_rq_size 32
llc_wq_size 32
llc_pq_size 32
llc_mshr_size 64
llc_latency 20

dram_channel_width 8
dram_wq_size 64
dram_rq_size 64
tRP 15
tRCD 15
tCAS 12.5
dram_dbus_turn_around_time 30
dram_write_high_wm 56
dram_write_low_wm 48
min_dram_writes_per_switch 16
dram_mtps 300
dram_dbus_return_time 106


Heartbeat CPU  0 instructions:    1000003 cycles:     702358 heartbeat IPC: 1.42378 cumulative IPC: 1.42378 (Simulation time: 0 hr 0 min 2 sec) 
Heartbeat CPU  0 instructions:    2000000 cycles:    1404572 heartbeat IPC: 1.42406 cumulative IPC: 1.42392 (Simulation time: 0 hr 0 min 5 sec) 
Heartbeat CPU  0 instructions:    3000000 cycles:    2106946 heartbeat IPC: 1.42374 cumulative IPC: 1.42386 (Simulation time: 0 hr 0 min 7 sec) 
Heartbeat CPU  0 instructions:    4000000 cycles:    2809279 heartbeat IPC: 1.42383 cumulative IPC: 1.42385 (Simulation time: 0 hr 0 min 9 sec) 
Heartbeat CPU  0 instructions:    5000000 cycles:    3511467 heartbeat IPC: 1.42412 cumulative IPC: 1.42391 (Simulation time: 0 hr 0 min 12 sec) 
Heartbeat CPU  0 instructions:    6000000 cycles:    4213839 heartbeat IPC: 1.42375 cumulative IPC: 1.42388 (Simulation time: 0 hr 0 min 14 sec) 
Heartbeat CPU  0 instructions:    7000001 cycles:    4916238 heartbeat IPC: 1.42369 cumulative IPC: 1.42385 (Simulation time: 0 hr 0 min 16 sec) 
Heartbeat CPU  0 instructions:    8000000 cycles:    5618388 heartbeat IPC: 1.42420 cumulative IPC: 1.42390 (Simulation time: 0 hr 0 min 19 sec) 
Heartbeat CPU  0 instructions:    9000001 cycles:    6320823 heartbeat IPC: 1.42362 cumulative IPC: 1.42387 (Simulation time: 0 hr 0 min 21 sec) 
Heartbeat CPU  0 instructions:   10000000 cycles:    7023046 heartbeat IPC: 1.42405 cumulative IPC: 1.42388 (Simulation time: 0 hr 0 min 23 sec) 
Heartbeat CPU  0 instructions:   11000002 cycles:    7725291 heartbeat IPC: 1.42401 cumulative IPC: 1.42389 (Simulation time: 0 hr 0 min 26 sec) 
Heartbeat CPU  0 instructions:   12000000 cycles:    8427446 heartbeat IPC: 1.42418 cumulative IPC: 1.42392 (Simulation time: 0 hr 0 min 28 sec) 
Heartbeat CPU  0 instructions:   13000000 cycles:    9129995 heartbeat IPC: 1.42339 cumulative IPC: 1.42388 (Simulation time: 0 hr 0 min 30 sec) 
Heartbeat CPU  0 instructions:   14000002 cycles:    9832234 heartbeat IPC: 1.42402 cumulative IPC: 1.42389 (Simulation time: 0 hr 0 min 33 sec) 
Heartbeat CPU  0 instructions:   15000002 cycles:   10534154 heartbeat IPC: 1.42466 cumulative IPC: 1.42394 (Simulation time: 0 hr 0 min 35 sec) 
Heartbeat CPU  0 instructions:   16000000 cycles:   11236702 heartbeat IPC: 1.42339 cumulative IPC: 1.42391 (Simulation time: 0 hr 0 min 37 sec) 
Heartbeat CPU  0 instructions:   17000000 cycles:   11939222 heartbeat IPC: 1.42345 cumulative IPC: 1.42388 (Simulation time: 0 hr 0 min 39 sec) 
Heartbeat CPU  0 instructions:   18000001 cycles:   12602182 heartbeat IPC: 1.50839 cumulative IPC: 1.42832 (Simulation time: 0 hr 0 min 42 sec) 
Heartbeat CPU  0 instructions:   19000000 cycles:   13240559 heartbeat IPC: 1.56647 cumulative IPC: 1.43498 (Simulation time: 0 hr 0 min 44 sec) 
Heartbeat CPU  0 instructions:   20000000 cycles:   13943079 heartbeat IPC: 1.42345 cumulative IPC: 1.43440 (Simulation time: 0 hr 0 min 46 sec) 
Heartbeat CPU  0 instructions:   21000000 cycles:   14645456 heartbeat IPC: 1.42374 cumulative IPC: 1.43389 (Simulation time: 0 hr 0 min 49 sec) 
Heartbeat CPU  0 instructions:   22000002 cycles:   15347758 heartbeat IPC: 1.42389 cumulative IPC: 1.43343 (Simulation time: 0 hr 0 min 51 sec) 
Heartbeat CPU  0 instructions:   23000001 cycles:   16050127 heartbeat IPC: 1.42375 cumulative IPC: 1.43301 (Simulation time: 0 hr 0 min 53 sec) 
Heartbeat CPU  0 instructions:   24000000 cycles:   16752222 heartbeat IPC: 1.42431 cumulative IPC: 1.43265 (Simulation time: 0 hr 0 min 56 sec) 
Heartbeat CPU  0 instructions:   25000001 cycles:   17454533 heartbeat IPC: 1.42387 cumulative IPC: 1.43229 (Simulation time: 0 hr 0 min 58 sec) 
Heartbeat CPU  0 instructions:   26000003 cycles:   18157230 heartbeat IPC: 1.42309 cumulative IPC: 1.43194 (Simulation time: 0 hr 1 min 0 sec) 
Heartbeat CPU  0 instructions:   27000003 cycles:   18859396 heartbeat IPC: 1.42416 cumulative IPC: 1.43165 (Simulation time: 0 hr 1 min 3 sec) 
Heartbeat CPU  0 instructions:   28000000 cycles:   19561519 heartbeat IPC: 1.42425 cumulative IPC: 1.43138 (Simulation time: 0 hr 1 min 5 sec) 
Heartbeat CPU  0 instructions:   29000000 cycles:   20263929 heartbeat IPC: 1.42367 cumulative IPC: 1.43111 (Simulation time: 0 hr 1 min 7 sec) 
Heartbeat CPU  0 instructions:   30000003 cycles:   20966335 heartbeat IPC: 1.42368 cumulative IPC: 1.43087 (Simulation time: 0 hr 1 min 10 sec) 
Heartbeat CPU  0 instructions:   31000003 cycles:   21668209 heartbeat IPC: 1.42476 cumulative IPC: 1.43067 (Simulation time: 0 hr 1 min 12 sec) 
Heartbeat CPU  0 instructions:   32000000 cycles:   22370307 heartbeat IPC: 1.42430 cumulative IPC: 1.43047 (Simulation time: 0 hr 1 min 14 sec) 
Heartbeat CPU  0 instructions:   33000001 cycles:   23073040 heartbeat IPC: 1.42302 cumulative IPC: 1.43024 (Simulation time: 0 hr 1 min 17 sec) 
Heartbeat CPU  0 instructions:   34000000 cycles:   23775217 heartbeat IPC: 1.42414 cumulative IPC: 1.43006 (Simulation time: 0 hr 1 min 19 sec) 
Heartbeat CPU  0 instructions:   35000001 cycles:   24477481 heartbeat IPC: 1.42397 cumulative IPC: 1.42989 (Simulation time: 0 hr 1 min 21 sec) 
Heartbeat CPU  0 instructions:   36000000 cycles:   25179679 heartbeat IPC: 1.42410 cumulative IPC: 1.42972 (Simulation time: 0 hr 1 min 24 sec) 
Heartbeat CPU  0 instructions:   37000000 cycles:   25882211 heartbeat IPC: 1.42342 cumulative IPC: 1.42955 (Simulation time: 0 hr 1 min 26 sec) 
Heartbeat CPU  0 instructions:   38000001 cycles:   26584459 heartbeat IPC: 1.42400 cumulative IPC: 1.42941 (Simulation time: 0 hr 1 min 28 sec) 
Heartbeat CPU  0 instructions:   39000000 cycles:   27286775 heartbeat IPC: 1.42386 cumulative IPC: 1.42926 (Simulation time: 0 hr 1 min 31 sec) 
Heartbeat CPU  0 instructions:   40000000 cycles:   27988940 heartbeat IPC: 1.42417 cumulative IPC: 1.42914 (Simulation time: 0 hr 1 min 33 sec) 
Heartbeat CPU  0 instructions:   41000000 cycles:   28598843 heartbeat IPC: 1.63961 cumulative IPC: 1.43362 (Simulation time: 0 hr 1 min 35 sec) 
Heartbeat CPU  0 instructions:   42000002 cycles:   29290723 heartbeat IPC: 1.44534 cumulative IPC: 1.43390 (Simulation time: 0 hr 1 min 38 sec) 
Heartbeat CPU  0 instructions:   43000002 cycles:   29993179 heartbeat IPC: 1.42358 cumulative IPC: 1.43366 (Simulation time: 0 hr 1 min 40 sec) 
Heartbeat CPU  0 instructions:   44000000 cycles:   30695671 heartbeat IPC: 1.42350 cumulative IPC: 1.43343 (Simulation time: 0 hr 1 min 42 sec) 
Heartbeat CPU  0 instructions:   45000003 cycles:   31397939 heartbeat IPC: 1.42396 cumulative IPC: 1.43322 (Simulation time: 0 hr 1 min 45 sec) 
Heartbeat CPU  0 instructions:   46000003 cycles:   32100187 heartbeat IPC: 1.42400 cumulative IPC: 1.43301 (Simulation time: 0 hr 1 min 47 sec) 
Heartbeat CPU  0 instructions:   47000000 cycles:   32802418 heartbeat IPC: 1.42403 cumulative IPC: 1.43282 (Simulation time: 0 hr 1 min 49 sec) 
Heartbeat CPU  0 instructions:   48000000 cycles:   33505113 heartbeat IPC: 1.42309 cumulative IPC: 1.43262 (Simulation time: 0 hr 1 min 52 sec) 
Heartbeat CPU  0 instructions:   49000000 cycles:   34207131 heartbeat IPC: 1.42446 cumulative IPC: 1.43245 (Simulation time: 0 hr 1 min 54 sec) 
Heartbeat CPU  0 instructions:   50000000 cycles:   34909566 heartbeat IPC: 1.42362 cumulative IPC: 1.43227 (Simulation time: 0 hr 1 min 56 sec) 
Heartbeat CPU  0 instructions:   51000000 cycles:   35612205 heartbeat IPC: 1.42321 cumulative IPC: 1.43209 (Simulation time: 0 hr 1 min 59 sec) 
Heartbeat CPU  0 instructions:   52000000 cycles:   36314495 heartbeat IPC: 1.42391 cumulative IPC: 1.43194 (Simulation time: 0 hr 2 min 1 sec) 
Heartbeat CPU  0 instructions:   53000000 cycles:   37016958 heartbeat IPC: 1.42356 cumulative IPC: 1.43178 (Simulation time: 0 hr 2 min 3 sec) 
Heartbeat CPU  0 instructions:   54000001 cycles:   37719191 heartbeat IPC: 1.42403 cumulative IPC: 1.43163 (Simulation time: 0 hr 2 min 6 sec) 
Heartbeat CPU  0 instructions:   55000001 cycles:   38421567 heartbeat IPC: 1.42374 cumulative IPC: 1.43149 (Simulation time: 0 hr 2 min 8 sec) 
Heartbeat CPU  0 instructions:   56000000 cycles:   39124185 heartbeat IPC: 1.42325 cumulative IPC: 1.43134 (Simulation time: 0 hr 2 min 10 sec) 
Heartbeat CPU  0 instructions:   57000000 cycles:   39826799 heartbeat IPC: 1.42326 cumulative IPC: 1.43120 (Simulation time: 0 hr 2 min 13 sec) 
Heartbeat CPU  0 instructions:   58000002 cycles:   40529162 heartbeat IPC: 1.42377 cumulative IPC: 1.43107 (Simulation time: 0 hr 2 min 15 sec) 
Heartbeat CPU  0 instructions:   59000000 cycles:   41231466 heartbeat IPC: 1.42388 cumulative IPC: 1.43095 (Simulation time: 0 hr 2 min 17 sec) 
Heartbeat CPU  0 instructions:   60000000 cycles:   41934066 heartbeat IPC: 1.42328 cumulative IPC: 1.43082 (Simulation time: 0 hr 2 min 20 sec) 
Heartbeat CPU  0 instructions:   61000000 cycles:   42636428 heartbeat IPC: 1.42377 cumulative IPC: 1.43070 (Simulation time: 0 hr 2 min 22 sec) 
Heartbeat CPU  0 instructions:   62000002 cycles:   43338721 heartbeat IPC: 1.42391 cumulative IPC: 1.43059 (Simulation time: 0 hr 2 min 24 sec) 
Heartbeat CPU  0 instructions:   63000000 cycles:   43988761 heartbeat IPC: 1.53836 cumulative IPC: 1.43218 (Simulation time: 0 hr 2 min 27 sec) 
Heartbeat CPU  0 instructions:   64000000 cycles:   44642311 heartbeat IPC: 1.53010 cumulative IPC: 1.43362 (Simulation time: 0 hr 2 min 29 sec) 
Heartbeat CPU  0 instructions:   65000000 cycles:   45344405 heartbeat IPC: 1.42431 cumulative IPC: 1.43347 (Simulation time: 0 hr 2 min 31 sec) 
Heartbeat CPU  0 instructions:   66000001 cycles:   46046550 heartbeat IPC: 1.42421 cumulative IPC: 1.43333 (Simulation time: 0 hr 2 min 33 sec) 
Heartbeat CPU  0 instructions:   67000002 cycles:   46748662 heartbeat IPC: 1.42428 cumulative IPC: 1.43320 (Simulation time: 0 hr 2 min 36 sec) 
Heartbeat CPU  0 instructions:   68000000 cycles:   47451128 heartbeat IPC: 1.42355 cumulative IPC: 1.43305 (Simulation time: 0 hr 2 min 38 sec) 
Heartbeat CPU  0 instructions:   69000000 cycles:   48153373 heartbeat IPC: 1.42400 cumulative IPC: 1.43292 (Simulation time: 0 hr 2 min 40 sec) 
Heartbeat CPU  0 instructions:   70000002 cycles:   48855614 heartbeat IPC: 1.42402 cumulative IPC: 1.43279 (Simulation time: 0 hr 2 min 43 sec) 
Heartbeat CPU  0 instructions:   71000003 cycles:   49558300 heartbeat IPC: 1.42311 cumulative IPC: 1.43266 (Simulation time: 0 hr 2 min 45 sec) 
Heartbeat CPU  0 instructions:   72000000 cycles:   50260430 heartbeat IPC: 1.42423 cumulative IPC: 1.43254 (Simulation time: 0 hr 2 min 47 sec) 
Heartbeat CPU  0 instructions:   73000001 cycles:   50962615 heartbeat IPC: 1.42413 cumulative IPC: 1.43242 (Simulation time: 0 hr 2 min 50 sec) 
Heartbeat CPU  0 instructions:   74000003 cycles:   51665062 heartbeat IPC: 1.42360 cumulative IPC: 1.43230 (Simulation time: 0 hr 2 min 52 sec) 
Heartbeat CPU  0 instructions:   75000002 cycles:   52367805 heartbeat IPC: 1.42299 cumulative IPC: 1.43218 (Simulation time: 0 hr 2 min 54 sec) 
Heartbeat CPU  0 instructions:   76000000 cycles:   53070152 heartbeat IPC: 1.42379 cumulative IPC: 1.43207 (Simulation time: 0 hr 2 min 57 sec) 
Heartbeat CPU  0 instructions:   77000003 cycles:   53772852 heartbeat IPC: 1.42309 cumulative IPC: 1.43195 (Simulation time: 0 hr 2 min 59 sec) 
Heartbeat CPU  0 instructions:   78000001 cycles:   54475490 heartbeat IPC: 1.42321 cumulative IPC: 1.43184 (Simulation time: 0 hr 3 min 1 sec) 
Heartbeat CPU  0 instructions:   79000001 cycles:   55177465 heartbeat IPC: 1.42455 cumulative IPC: 1.43174 (Simulation time: 0 hr 3 min 4 sec) 
Heartbeat CPU  0 instructions:   80000000 cycles:   55879508 heartbeat IPC: 1.42441 cumulative IPC: 1.43165 (Simulation time: 0 hr 3 min 6 sec) 
Heartbeat CPU  0 instructions:   81000002 cycles:   56581961 heartbeat IPC: 1.42359 cumulative IPC: 1.43155 (Simulation time: 0 hr 3 min 8 sec) 
Heartbeat CPU  0 instructions:   82000000 cycles:   57284302 heartbeat IPC: 1.42381 cumulative IPC: 1.43146 (Simulation time: 0 hr 3 min 11 sec) 
Heartbeat CPU  0 instructions:   83000001 cycles:   57986690 heartbeat IPC: 1.42372 cumulative IPC: 1.43136 (Simulation time: 0 hr 3 min 13 sec) 
Heartbeat CPU  0 instructions:   84000000 cycles:   58688990 heartbeat IPC: 1.42389 cumulative IPC: 1.43127 (Simulation time: 0 hr 3 min 15 sec) 
Heartbeat CPU  0 instructions:   85000000 cycles:   59378252 heartbeat IPC: 1.45083 cumulative IPC: 1.43150 (Simulation time: 0 hr 3 min 18 sec) 
Heartbeat CPU  0 instructions:   86000002 cycles:   59991859 heartbeat IPC: 1.62971 cumulative IPC: 1.43353 (Simulation time: 0 hr 3 min 20 sec) 
Heartbeat CPU  0 instructions:   87000002 cycles:   60694336 heartbeat IPC: 1.42353 cumulative IPC: 1.43341 (Simulation time: 0 hr 3 min 22 sec) 
Heartbeat CPU  0 instructions:   88000000 cycles:   61396939 heartbeat IPC: 1.42328 cumulative IPC: 1.43330 (Simulation time: 0 hr 3 min 25 sec) 
Heartbeat CPU  0 instructions:   89000001 cycles:   62098967 heartbeat IPC: 1.42445 cumulative IPC: 1.43320 (Simulation time: 0 hr 3 min 27 sec) 
Heartbeat CPU  0 instructions:   90000003 cycles:   62801357 heartbeat IPC: 1.42371 cumulative IPC: 1.43309 (Simulation time: 0 hr 3 min 29 sec) 
Heartbeat CPU  0 instructions:   91000003 cycles:   63503759 heartbeat IPC: 1.42369 cumulative IPC: 1.43299 (Simulation time: 0 hr 3 min 32 sec) 
Heartbeat CPU  0 instructions:   92000000 cycles:   64206010 heartbeat IPC: 1.42399 cumulative IPC: 1.43289 (Simulation time: 0 hr 3 min 34 sec) 
Heartbeat CPU  0 instructions:   93000002 cycles:   64908342 heartbeat IPC: 1.42383 cumulative IPC: 1.43279 (Simulation time: 0 hr 3 min 36 sec) 
Heartbeat CPU  0 instructions:   94000002 cycles:   65610359 heartbeat IPC: 1.42447 cumulative IPC: 1.43270 (Simulation time: 0 hr 3 min 39 sec) 
Heartbeat CPU  0 instructions:   95000003 cycles:   66312643 heartbeat IPC: 1.42393 cumulative IPC: 1.43261 (Simulation time: 0 hr 3 min 41 sec) 
Heartbeat CPU  0 instructions:   96000000 cycles:   67014928 heartbeat IPC: 1.42392 cumulative IPC: 1.43252 (Simulation time: 0 hr 3 min 43 sec) 
Heartbeat CPU  0 instructions:   97000000 cycles:   67717289 heartbeat IPC: 1.42377 cumulative IPC: 1.43243 (Simulation time: 0 hr 3 min 45 sec) 
Heartbeat CPU  0 instructions:   98000002 cycles:   68419423 heartbeat IPC: 1.42423 cumulative IPC: 1.43234 (Simulation time: 0 hr 3 min 48 sec) 
Heartbeat CPU  0 instructions:   99000003 cycles:   69121737 heartbeat IPC: 1.42387 cumulative IPC: 1.43226 (Simulation time: 0 hr 3 min 50 sec) 
Heartbeat CPU  0 instructions:  100000000 cycles:   69824092 heartbeat IPC: 1.42378 cumulative IPC: 1.43217 (Simulation time: 0 hr 3 min 52 sec) 

Warmup complete CPU  0 instructions:  100000001 cycles:   69824112 (Simulation time: 0 hr 3 min 52 sec) 

Heartbeat CPU  0 instructions:  101000000 cycles:   71947253 heartbeat IPC: 0.47100 cumulative IPC: 0.47100 (Simulation time: 0 hr 3 min 55 sec) 
Heartbeat CPU  0 instructions:  102000003 cycles:   73879646 heartbeat IPC: 0.51749 cumulative IPC: 0.49315 (Simulation time: 0 hr 3 min 58 sec) 
Heartbeat CPU  0 instructions:  103000003 cycles:   75933245 heartbeat IPC: 0.48695 cumulative IPC: 0.49107 (Simulation time: 0 hr 4 min 1 sec) 
Heartbeat CPU  0 instructions:  104000000 cycles:   78018913 heartbeat IPC: 0.47946 cumulative IPC: 0.48811 (Simulation time: 0 hr 4 min 3 sec) 
Heartbeat CPU  0 instructions:  105000002 cycles:   80026396 heartbeat IPC: 0.49814 cumulative IPC: 0.49009 (Simulation time: 0 hr 4 min 6 sec) 
Heartbeat CPU  0 instructions:  106000000 cycles:   82000770 heartbeat IPC: 0.50649 cumulative IPC: 0.49275 (Simulation time: 0 hr 4 min 9 sec) 
Heartbeat CPU  0 instructions:  107000003 cycles:   84087441 heartbeat IPC: 0.47923 cumulative IPC: 0.49077 (Simulation time: 0 hr 4 min 12 sec) 
Heartbeat CPU  0 instructions:  108000000 cycles:   96444881 heartbeat IPC: 0.08092 cumulative IPC: 0.30052 (Simulation time: 0 hr 4 min 16 sec) 
Heartbeat CPU  0 instructions:  109000003 cycles:  104289819 heartbeat IPC: 0.12747 cumulative IPC: 0.26113 (Simulation time: 0 hr 4 min 20 sec) 
Heartbeat CPU  0 instructions:  110000001 cycles:  106554299 heartbeat IPC: 0.44160 cumulative IPC: 0.27226 (Simulation time: 0 hr 4 min 23 sec) 
Heartbeat CPU  0 instructions:  111000000 cycles:  108779016 heartbeat IPC: 0.44949 cumulative IPC: 0.28238 (Simulation time: 0 hr 4 min 25 sec) 
Heartbeat CPU  0 instructions:  112000000 cycles:  110854565 heartbeat IPC: 0.48180 cumulative IPC: 0.29247 (Simulation time: 0 hr 4 min 28 sec) 
Heartbeat CPU  0 instructions:  113000000 cycles:  113023463 heartbeat IPC: 0.46106 cumulative IPC: 0.30093 (Simulation time: 0 hr 4 min 31 sec) 
Heartbeat CPU  0 instructions:  114000000 cycles:  115247593 heartbeat IPC: 0.44961 cumulative IPC: 0.30821 (Simulation time: 0 hr 4 min 34 sec) 
Heartbeat CPU  0 instructions:  115000001 cycles:  117344343 heartbeat IPC: 0.47693 cumulative IPC: 0.31566 (Simulation time: 0 hr 4 min 37 sec) 
Heartbeat CPU  0 instructions:  116000000 cycles:  119384780 heartbeat IPC: 0.49009 cumulative IPC: 0.32284 (Simulation time: 0 hr 4 min 39 sec) 
Heartbeat CPU  0 instructions:  117000003 cycles:  121534351 heartbeat IPC: 0.46521 cumulative IPC: 0.32876 (Simulation time: 0 hr 4 min 42 sec) 
Heartbeat CPU  0 instructions:  118000002 cycles:  123634229 heartbeat IPC: 0.47622 cumulative IPC: 0.33451 (Simulation time: 0 hr 4 min 45 sec) 
Heartbeat CPU  0 instructions:  119000002 cycles:  125573777 heartbeat IPC: 0.51558 cumulative IPC: 0.34081 (Simulation time: 0 hr 4 min 48 sec) 
Heartbeat CPU  0 instructions:  120000000 cycles:  127713245 heartbeat IPC: 0.46740 cumulative IPC: 0.34549 (Simulation time: 0 hr 4 min 51 sec) 
Heartbeat CPU  0 instructions:  121000003 cycles:  129866561 heartbeat IPC: 0.46440 cumulative IPC: 0.34975 (Simulation time: 0 hr 4 min 53 sec) 
Heartbeat CPU  0 instructions:  122000000 cycles:  131870084 heartbeat IPC: 0.49912 cumulative IPC: 0.35458 (Simulation time: 0 hr 4 min 56 sec) 
Heartbeat CPU  0 instructions:  123000002 cycles:  133932778 heartbeat IPC: 0.48480 cumulative IPC: 0.35877 (Simulation time: 0 hr 4 min 59 sec) 
Heartbeat CPU  0 instructions:  124000000 cycles:  136034471 heartbeat IPC: 0.47581 cumulative IPC: 0.36248 (Simulation time: 0 hr 5 min 2 sec) 
Heartbeat CPU  0 instructions:  125000000 cycles:  138069085 heartbeat IPC: 0.49149 cumulative IPC: 0.36633 (Simulation time: 0 hr 5 min 4 sec) 
Heartbeat CPU  0 instructions:  126000002 cycles:  140014784 heartbeat IPC: 0.51396 cumulative IPC: 0.37042 (Simulation time: 0 hr 5 min 7 sec) 
Heartbeat CPU  0 instructions:  127000002 cycles:  142220013 heartbeat IPC: 0.45347 cumulative IPC: 0.37295 (Simulation time: 0 hr 5 min 10 sec) 
Heartbeat CPU  0 instructions:  128000000 cycles:  144303469 heartbeat IPC: 0.47997 cumulative IPC: 0.37594 (Simulation time: 0 hr 5 min 13 sec) 
Heartbeat CPU  0 instructions:  129000001 cycles:  146222962 heartbeat IPC: 0.52097 cumulative IPC: 0.37959 (Simulation time: 0 hr 5 min 16 sec) 
Heartbeat CPU  0 instructions:  130000000 cycles:  152536487 heartbeat IPC: 0.15839 cumulative IPC: 0.36270 (Simulation time: 0 hr 5 min 19 sec) 
Heartbeat CPU  0 instructions:  131000003 cycles:  166623208 heartbeat IPC: 0.07099 cumulative IPC: 0.32025 (Simulation time: 0 hr 5 min 24 sec) 
Heartbeat CPU  0 instructions:  132000000 cycles:  168774014 heartbeat IPC: 0.46494 cumulative IPC: 0.32340 (Simulation time: 0 hr 5 min 26 sec) 
Heartbeat CPU  0 instructions:  133000000 cycles:  170984044 heartbeat IPC: 0.45248 cumulative IPC: 0.32622 (Simulation time: 0 hr 5 min 29 sec) 
Heartbeat CPU  0 instructions:  134000000 cycles:  173215180 heartbeat IPC: 0.44820 cumulative IPC: 0.32885 (Simulation time: 0 hr 5 min 32 sec) 
Heartbeat CPU  0 instructions:  135000000 cycles:  175381715 heartbeat IPC: 0.46157 cumulative IPC: 0.33157 (Simulation time: 0 hr 5 min 35 sec) 
Heartbeat CPU  0 instructions:  136000000 cycles:  177458474 heartbeat IPC: 0.48152 cumulative IPC: 0.33447 (Simulation time: 0 hr 5 min 38 sec) 
Heartbeat CPU  0 instructions:  137000002 cycles:  179628192 heartbeat IPC: 0.46089 cumulative IPC: 0.33696 (Simulation time: 0 hr 5 min 41 sec) 
Heartbeat CPU  0 instructions:  138000000 cycles:  181786764 heartbeat IPC: 0.46327 cumulative IPC: 0.33940 (Simulation time: 0 hr 5 min 43 sec) 
Heartbeat CPU  0 instructions:  139000001 cycles:  183771524 heartbeat IPC: 0.50384 cumulative IPC: 0.34226 (Simulation time: 0 hr 5 min 46 sec) 
Heartbeat CPU  0 instructions:  140000000 cycles:  185863264 heartbeat IPC: 0.47807 cumulative IPC: 0.34471 (Simulation time: 0 hr 5 min 49 sec) 
Heartbeat CPU  0 instructions:  141000000 cycles:  187961076 heartbeat IPC: 0.47669 cumulative IPC: 0.34705 (Simulation time: 0 hr 5 min 52 sec) 
Heartbeat CPU  0 instructions:  142000001 cycles:  189939410 heartbeat IPC: 0.50548 cumulative IPC: 0.34966 (Simulation time: 0 hr 5 min 54 sec) 
Heartbeat CPU  0 instructions:  143000001 cycles:  191995163 heartbeat IPC: 0.48644 cumulative IPC: 0.35197 (Simulation time: 0 hr 5 min 57 sec) 
Heartbeat CPU  0 instructions:  144000000 cycles:  194141257 heartbeat IPC: 0.46596 cumulative IPC: 0.35393 (Simulation time: 0 hr 6 min 0 sec) 
Heartbeat CPU  0 instructions:  145000000 cycles:  196197330 heartbeat IPC: 0.48636 cumulative IPC: 0.35609 (Simulation time: 0 hr 6 min 3 sec) 
Heartbeat CPU  0 instructions:  146000002 cycles:  198159455 heartbeat IPC: 0.50965 cumulative IPC: 0.35844 (Simulation time: 0 hr 6 min 6 sec) 
Heartbeat CPU  0 instructions:  147000003 cycles:  200254058 heartbeat IPC: 0.47742 cumulative IPC: 0.36035 (Simulation time: 0 hr 6 min 8 sec) 
Heartbeat CPU  0 instructions:  148000000 cycles:  202344683 heartbeat IPC: 0.47832 cumulative IPC: 0.36221 (Simulation time: 0 hr 6 min 11 sec) 
Heartbeat CPU  0 instructions:  149000002 cycles:  204277034 heartbeat IPC: 0.51751 cumulative IPC: 0.36444 (Simulation time: 0 hr 6 min 14 sec) 
Heartbeat CPU  0 instructions:  150000003 cycles:  206357477 heartbeat IPC: 0.48067 cumulative IPC: 0.36621 (Simulation time: 0 hr 6 min 17 sec) 
Heartbeat CPU  0 instructions:  151000003 cycles:  208438372 heartbeat IPC: 0.48056 cumulative IPC: 0.36793 (Simulation time: 0 hr 6 min 19 sec) 
Heartbeat CPU  0 instructions:  152000000 cycles:  210438112 heartbeat IPC: 0.50006 cumulative IPC: 0.36981 (Simulation time: 0 hr 6 min 22 sec) 
Heartbeat CPU  0 instructions:  153000003 cycles:  225081566 heartbeat IPC: 0.06829 cumulative IPC: 0.34137 (Simulation time: 0 hr 6 min 27 sec) 
Heartbeat CPU  0 instructions:  154000000 cycles:  230846596 heartbeat IPC: 0.17346 cumulative IPC: 0.33536 (Simulation time: 0 hr 6 min 30 sec) 
Heartbeat CPU  0 instructions:  155000000 cycles:  233087209 heartbeat IPC: 0.44631 cumulative IPC: 0.33688 (Simulation time: 0 hr 6 min 33 sec) 
Heartbeat CPU  0 instructions:  156000000 cycles:  235170574 heartbeat IPC: 0.47999 cumulative IPC: 0.33868 (Simulation time: 0 hr 6 min 36 sec) 
Heartbeat CPU  0 instructions:  157000001 cycles:  237396577 heartbeat IPC: 0.44924 cumulative IPC: 0.34015 (Simulation time: 0 hr 6 min 39 sec) 
Heartbeat CPU  0 instructions:  158000001 cycles:  239615956 heartbeat IPC: 0.45058 cumulative IPC: 0.34159 (Simulation time: 0 hr 6 min 41 sec) 
Heartbeat CPU  0 instructions:  159000000 cycles:  241652711 heartbeat IPC: 0.49098 cumulative IPC: 0.34337 (Simulation time: 0 hr 6 min 44 sec) 
Heartbeat CPU  0 instructions:  160000000 cycles:  243811565 heartbeat IPC: 0.46321 cumulative IPC: 0.34485 (Simulation time: 0 hr 6 min 47 sec) 
Heartbeat CPU  0 instructions:  161000003 cycles:  245958547 heartbeat IPC: 0.46577 cumulative IPC: 0.34633 (Simulation time: 0 hr 6 min 50 sec) 
Heartbeat CPU  0 instructions:  162000000 cycles:  247998920 heartbeat IPC: 0.49011 cumulative IPC: 0.34797 (Simulation time: 0 hr 6 min 53 sec) 
Heartbeat CPU  0 instructions:  163000003 cycles:  250002647 heartbeat IPC: 0.49907 cumulative IPC: 0.34965 (Simulation time: 0 hr 6 min 55 sec) 
Heartbeat CPU  0 instructions:  164000000 cycles:  252103883 heartbeat IPC: 0.47591 cumulative IPC: 0.35111 (Simulation time: 0 hr 6 min 58 sec) 
Heartbeat CPU  0 instructions:  165000000 cycles:  254201996 heartbeat IPC: 0.47662 cumulative IPC: 0.35254 (Simulation time: 0 hr 7 min 1 sec) 
Heartbeat CPU  0 instructions:  166000001 cycles:  256161025 heartbeat IPC: 0.51046 cumulative IPC: 0.35420 (Simulation time: 0 hr 7 min 4 sec) 
Heartbeat CPU  0 instructions:  167000000 cycles:  258267360 heartbeat IPC: 0.47476 cumulative IPC: 0.35554 (Simulation time: 0 hr 7 min 7 sec) 
Heartbeat CPU  0 instructions:  168000000 cycles:  260359444 heartbeat IPC: 0.47799 cumulative IPC: 0.35689 (Simulation time: 0 hr 7 min 9 sec) 
Heartbeat CPU  0 instructions:  169000001 cycles:  262300425 heartbeat IPC: 0.51520 cumulative IPC: 0.35849 (Simulation time: 0 hr 7 min 12 sec) 
Heartbeat CPU  0 instructions:  170000002 cycles:  264335254 heartbeat IPC: 0.49144 cumulative IPC: 0.35988 (Simulation time: 0 hr 7 min 15 sec) 
Heartbeat CPU  0 instructions:  171000001 cycles:  266423276 heartbeat IPC: 0.47892 cumulative IPC: 0.36114 (Simulation time: 0 hr 7 min 18 sec) 
Heartbeat CPU  0 instructions:  172000000 cycles:  268438753 heartbeat IPC: 0.49616 cumulative IPC: 0.36251 (Simulation time: 0 hr 7 min 20 sec) 
Heartbeat CPU  0 instructions:  173000000 cycles:  270433669 heartbeat IPC: 0.50127 cumulative IPC: 0.36389 (Simulation time: 0 hr 7 min 23 sec) 
Heartbeat CPU  0 instructions:  174000003 cycles:  272537609 heartbeat IPC: 0.47530 cumulative IPC: 0.36505 (Simulation time: 0 hr 7 min 26 sec) 
Heartbeat CPU  0 instructions:  175000000 cycles:  280772906 heartbeat IPC: 0.12143 cumulative IPC: 0.35554 (Simulation time: 0 hr 7 min 30 sec) 
Heartbeat CPU  0 instructions:  176000000 cycles:  292598331 heartbeat IPC: 0.08456 cumulative IPC: 0.34115 (Simulation time: 0 hr 7 min 34 sec) 
Heartbeat CPU  0 instructions:  177000001 cycles:  294943004 heartbeat IPC: 0.42650 cumulative IPC: 0.34204 (Simulation time: 0 hr 7 min 37 sec) 
Heartbeat CPU  0 instructions:  178000003 cycles:  297343934 heartbeat IPC: 0.41651 cumulative IPC: 0.34283 (Simulation time: 0 hr 7 min 40 sec) 
Heartbeat CPU  0 instructions:  179000002 cycles:  299591035 heartbeat IPC: 0.44502 cumulative IPC: 0.34383 (Simulation time: 0 hr 7 min 42 sec) 
Heartbeat CPU  0 instructions:  180000000 cycles:  301797346 heartbeat IPC: 0.45324 cumulative IPC: 0.34487 (Simulation time: 0 hr 7 min 45 sec) 
Heartbeat CPU  0 instructions:  181000003 cycles:  304025773 heartbeat IPC: 0.44875 cumulative IPC: 0.34586 (Simulation time: 0 hr 7 min 48 sec) 
Heartbeat CPU  0 instructions:  182000003 cycles:  306135664 heartbeat IPC: 0.47396 cumulative IPC: 0.34700 (Simulation time: 0 hr 7 min 51 sec) 
Heartbeat CPU  0 instructions:  183000000 cycles:  308201378 heartbeat IPC: 0.48409 cumulative IPC: 0.34819 (Simulation time: 0 hr 7 min 54 sec) 
Heartbeat CPU  0 instructions:  184000000 cycles:  310370285 heartbeat IPC: 0.46106 cumulative IPC: 0.34921 (Simulation time: 0 hr 7 min 56 sec) 
Heartbeat CPU  0 instructions:  185000002 cycles:  312477873 heartbeat IPC: 0.47448 cumulative IPC: 0.35029 (Simulation time: 0 hr 7 min 59 sec) 
Heartbeat CPU  0 instructions:  186000001 cycles:  314452941 heartbeat IPC: 0.50631 cumulative IPC: 0.35155 (Simulation time: 0 hr 8 min 2 sec) 
Heartbeat CPU  0 instructions:  187000000 cycles:  316564344 heartbeat IPC: 0.47362 cumulative IPC: 0.35260 (Simulation time: 0 hr 8 min 5 sec) 
Heartbeat CPU  0 instructions:  188000000 cycles:  318699277 heartbeat IPC: 0.46840 cumulative IPC: 0.35359 (Simulation time: 0 hr 8 min 8 sec) 
Heartbeat CPU  0 instructions:  189000000 cycles:  320697129 heartbeat IPC: 0.50054 cumulative IPC: 0.35476 (Simulation time: 0 hr 8 min 10 sec) 
Heartbeat CPU  0 instructions:  190000000 cycles:  322769633 heartbeat IPC: 0.48251 cumulative IPC: 0.35581 (Simulation time: 0 hr 8 min 13 sec) 
Heartbeat CPU  0 instructions:  191000000 cycles:  324871694 heartbeat IPC: 0.47572 cumulative IPC: 0.35680 (Simulation time: 0 hr 8 min 16 sec) 
Heartbeat CPU  0 instructions:  192000000 cycles:  326908284 heartbeat IPC: 0.49102 cumulative IPC: 0.35786 (Simulation time: 0 hr 8 min 19 sec) 
Heartbeat CPU  0 instructions:  193000001 cycles:  328885593 heartbeat IPC: 0.50574 cumulative IPC: 0.35899 (Simulation time: 0 hr 8 min 22 sec) 
Heartbeat CPU  0 instructions:  194000000 cycles:  330985245 heartbeat IPC: 0.47627 cumulative IPC: 0.35993 (Simulation time: 0 hr 8 min 24 sec) 
Heartbeat CPU  0 instructions:  195000002 cycles:  333085633 heartbeat IPC: 0.47610 cumulative IPC: 0.36086 (Simulation time: 0 hr 8 min 27 sec) 
Heartbeat CPU  0 instructions:  196000000 cycles:  335034783 heartbeat IPC: 0.51304 cumulative IPC: 0.36198 (Simulation time: 0 hr 8 min 30 sec) 
Heartbeat CPU  0 instructions:  197000000 cycles:  337239098 heartbeat IPC: 0.45366 cumulative IPC: 0.36273 (Simulation time: 0 hr 8 min 33 sec) 
Heartbeat CPU  0 instructions:  198000003 cycles:  353810485 heartbeat IPC: 0.06035 cumulative IPC: 0.34509 (Simulation time: 0 hr 8 min 38 sec) 
Heartbeat CPU  0 instructions:  199000001 cycles:  357517209 heartbeat IPC: 0.26978 cumulative IPC: 0.34412 (Simulation time: 0 hr 8 min 41 sec) 
Heartbeat CPU  0 instructions:  200000000 cycles:  359775633 heartbeat IPC: 0.44279 cumulative IPC: 0.34489 (Simulation time: 0 hr 8 min 44 sec) 
Heartbeat CPU  0 instructions:  201000002 cycles:  362042867 heartbeat IPC: 0.44107 cumulative IPC: 0.34563 (Simulation time: 0 hr 8 min 46 sec) 
Heartbeat CPU  0 instructions:  202000003 cycles:  364209109 heartbeat IPC: 0.46163 cumulative IPC: 0.34649 (Simulation time: 0 hr 8 min 49 sec) 
Heartbeat CPU  0 instructions:  203000002 cycles:  366318516 heartbeat IPC: 0.47407 cumulative IPC: 0.34739 (Simulation time: 0 hr 8 min 52 sec) 
Heartbeat CPU  0 instructions:  204000000 cycles:  368516661 heartbeat IPC: 0.45493 cumulative IPC: 0.34818 (Simulation time: 0 hr 8 min 55 sec) 
Heartbeat CPU  0 instructions:  205000002 cycles:  370680982 heartbeat IPC: 0.46204 cumulative IPC: 0.34900 (Simulation time: 0 hr 8 min 58 sec) 
Heartbeat CPU  0 instructions:  206000000 cycles:  372689431 heartbeat IPC: 0.49790 cumulative IPC: 0.34999 (Simulation time: 0 hr 9 min 0 sec) 
Heartbeat CPU  0 instructions:  207000002 cycles:  374812449 heartbeat IPC: 0.47103 cumulative IPC: 0.35083 (Simulation time: 0 hr 9 min 3 sec) 
Heartbeat CPU  0 instructions:  208000000 cycles:  376914756 heartbeat IPC: 0.47567 cumulative IPC: 0.35169 (Simulation time: 0 hr 9 min 6 sec) 
Heartbeat CPU  0 instructions:  209000002 cycles:  378897999 heartbeat IPC: 0.50423 cumulative IPC: 0.35267 (Simulation time: 0 hr 9 min 9 sec) 
Heartbeat CPU  0 instructions:  210000000 cycles:  380981335 heartbeat IPC: 0.48000 cumulative IPC: 0.35352 (Simulation time: 0 hr 9 min 12 sec) 
Heartbeat CPU  0 instructions:  211000000 cycles:  383131652 heartbeat IPC: 0.46505 cumulative IPC: 0.35428 (Simulation time: 0 hr 9 min 14 sec) 
Heartbeat CPU  0 instructions:  212000000 cycles:  385210070 heartbeat IPC: 0.48114 cumulative IPC: 0.35512 (Simulation time: 0 hr 9 min 17 sec) 
Heartbeat CPU  0 instructions:  213000003 cycles:  387189560 heartbeat IPC: 0.50518 cumulative IPC: 0.35606 (Simulation time: 0 hr 9 min 20 sec) 
Heartbeat CPU  0 instructions:  214000003 cycles:  389305259 heartbeat IPC: 0.47266 cumulative IPC: 0.35683 (Simulation time: 0 hr 9 min 23 sec) 
Heartbeat CPU  0 instructions:  215000003 cycles:  391389121 heartbeat IPC: 0.47988 cumulative IPC: 0.35763 (Simulation time: 0 hr 9 min 25 sec) 
Heartbeat CPU  0 instructions:  216000000 cycles:  393354028 heartbeat IPC: 0.50893 cumulative IPC: 0.35854 (Simulation time: 0 hr 9 min 28 sec) 
Heartbeat CPU  0 instructions:  217000002 cycles:  395450206 heartbeat IPC: 0.47706 cumulative IPC: 0.35931 (Simulation time: 0 hr 9 min 31 sec) 
Heartbeat CPU  0 instructions:  218000001 cycles:  397560540 heartbeat IPC: 0.47386 cumulative IPC: 0.36005 (Simulation time: 0 hr 9 min 34 sec) 
Heartbeat CPU  0 instructions:  219000002 cycles:  399549109 heartbeat IPC: 0.50287 cumulative IPC: 0.36091 (Simulation time: 0 hr 9 min 37 sec) 
Heartbeat CPU  0 instructions:  220000000 cycles:  409849218 heartbeat IPC: 0.09709 cumulative IPC: 0.35292 (Simulation time: 0 hr 9 min 41 sec) 
Heartbeat CPU  0 instructions:  221000000 cycles:  419846704 heartbeat IPC: 0.10003 cumulative IPC: 0.34569 (Simulation time: 0 hr 9 min 45 sec) 
Heartbeat CPU  0 instructions:  222000000 cycles:  422102553 heartbeat IPC: 0.44329 cumulative IPC: 0.34632 (Simulation time: 0 hr 9 min 47 sec) 
Heartbeat CPU  0 instructions:  223000001 cycles:  424231023 heartbeat IPC: 0.46982 cumulative IPC: 0.34706 (Simulation time: 0 hr 9 min 50 sec) 
Heartbeat CPU  0 instructions:  224000000 cycles:  426451767 heartbeat IPC: 0.45030 cumulative IPC: 0.34770 (Simulation time: 0 hr 9 min 53 sec) 
Heartbeat CPU  0 instructions:  225000002 cycles:  428661440 heartbeat IPC: 0.45256 cumulative IPC: 0.34835 (Simulation time: 0 hr 9 min 56 sec) 
Heartbeat CPU  0 instructions:  226000002 cycles:  430734415 heartbeat IPC: 0.48240 cumulative IPC: 0.34912 (Simulation time: 0 hr 9 min 59 sec) 
Heartbeat CPU  0 instructions:  227000003 cycles:  432870097 heartbeat IPC: 0.46823 cumulative IPC: 0.34982 (Simulation time: 0 hr 10 min 1 sec) 
Heartbeat CPU  0 instructions:  228000000 cycles:  435013402 heartbeat IPC: 0.46657 cumulative IPC: 0.35050 (Simulation time: 0 hr 10 min 4 sec) 
Heartbeat CPU  0 instructions:  229000003 cycles:  437204443 heartbeat IPC: 0.45641 cumulative IPC: 0.35113 (Simulation time: 0 hr 10 min 7 sec) 
Heartbeat CPU  0 instructions:  230000001 cycles:  439234938 heartbeat IPC: 0.49249 cumulative IPC: 0.35191 (Simulation time: 0 hr 10 min 10 sec) 
Heartbeat CPU  0 instructions:  231000003 cycles:  441342293 heartbeat IPC: 0.47453 cumulative IPC: 0.35261 (Simulation time: 0 hr 10 min 13 sec) 
Heartbeat CPU  0 instructions:  232000000 cycles:  443448863 heartbeat IPC: 0.47470 cumulative IPC: 0.35330 (Simulation time: 0 hr 10 min 15 sec) 
Heartbeat CPU  0 instructions:  233000002 cycles:  445460106 heartbeat IPC: 0.49721 cumulative IPC: 0.35407 (Simulation time: 0 hr 10 min 18 sec) 
Heartbeat CPU  0 instructions:  234000001 cycles:  447592707 heartbeat IPC: 0.46891 cumulative IPC: 0.35471 (Simulation time: 0 hr 10 min 21 sec) 
Heartbeat CPU  0 instructions:  235000003 cycles:  449706765 heartbeat IPC: 0.47302 cumulative IPC: 0.35537 (Simulation time: 0 hr 10 min 24 sec) 
Heartbeat CPU  0 instructions:  236000000 cycles:  451671155 heartbeat IPC: 0.50906 cumulative IPC: 0.35616 (Simulation time: 0 hr 10 min 27 sec) 
Heartbeat CPU  0 instructions:  237000002 cycles:  453749824 heartbeat IPC: 0.48108 cumulative IPC: 0.35684 (Simulation time: 0 hr 10 min 29 sec) 
Heartbeat CPU  0 instructions:  238000002 cycles:  455871245 heartbeat IPC: 0.47138 cumulative IPC: 0.35747 (Simulation time: 0 hr 10 min 32 sec) 
Heartbeat CPU  0 instructions:  239000001 cycles:  457903411 heartbeat IPC: 0.49209 cumulative IPC: 0.35817 (Simulation time: 0 hr 10 min 35 sec) 
Heartbeat CPU  0 instructions:  240000000 cycles:  459941099 heartbeat IPC: 0.49075 cumulative IPC: 0.35887 (Simulation time: 0 hr 10 min 38 sec) 
Heartbeat CPU  0 instructions:  241000003 cycles:  462061876 heartbeat IPC: 0.47153 cumulative IPC: 0.35948 (Simulation time: 0 hr 10 min 41 sec) 
Heartbeat CPU  0 instructions:  242000002 cycles:  466257897 heartbeat IPC: 0.23832 cumulative IPC: 0.35819 (Simulation time: 0 hr 10 min 44 sec) 
Heartbeat CPU  0 instructions:  243000003 cycles:  482448086 heartbeat IPC: 0.06177 cumulative IPC: 0.34656 (Simulation time: 0 hr 10 min 48 sec) 
Heartbeat CPU  0 instructions:  244000000 cycles:  484753346 heartbeat IPC: 0.43379 cumulative IPC: 0.34705 (Simulation time: 0 hr 10 min 51 sec) 
Heartbeat CPU  0 instructions:  245000000 cycles:  487032364 heartbeat IPC: 0.43879 cumulative IPC: 0.34755 (Simulation time: 0 hr 10 min 54 sec) 
Heartbeat CPU  0 instructions:  246000000 cycles:  489123702 heartbeat IPC: 0.47816 cumulative IPC: 0.34820 (Simulation time: 0 hr 10 min 57 sec) 
Heartbeat CPU  0 instructions:  247000000 cycles:  491343978 heartbeat IPC: 0.45039 cumulative IPC: 0.34874 (Simulation time: 0 hr 11 min 0 sec) 
Heartbeat CPU  0 instructions:  248000000 cycles:  493563109 heartbeat IPC: 0.45063 cumulative IPC: 0.34927 (Simulation time: 0 hr 11 min 3 sec) 
Heartbeat CPU  0 instructions:  249000001 cycles:  495669627 heartbeat IPC: 0.47472 cumulative IPC: 0.34989 (Simulation time: 0 hr 11 min 5 sec) 
Heartbeat CPU  0 instructions:  250000003 cycles:  497740880 heartbeat IPC: 0.48280 cumulative IPC: 0.35054 (Simulation time: 0 hr 11 min 8 sec) 
Heartbeat CPU  0 instructions:  251000002 cycles:  499904805 heartbeat IPC: 0.46212 cumulative IPC: 0.35110 (Simulation time: 0 hr 11 min 11 sec) 
Heartbeat CPU  0 instructions:  252000000 cycles:  502018017 heartbeat IPC: 0.47321 cumulative IPC: 0.35169 (Simulation time: 0 hr 11 min 14 sec) 
Heartbeat CPU  0 instructions:  253000000 cycles:  503987897 heartbeat IPC: 0.50765 cumulative IPC: 0.35240 (Simulation time: 0 hr 11 min 17 sec) 
Heartbeat CPU  0 instructions:  254000002 cycles:  506100706 heartbeat IPC: 0.47330 cumulative IPC: 0.35299 (Simulation time: 0 hr 11 min 19 sec) 
Heartbeat CPU  0 instructions:  255000000 cycles:  508250377 heartbeat IPC: 0.46519 cumulative IPC: 0.35354 (Simulation time: 0 hr 11 min 22 sec) 
Heartbeat CPU  0 instructions:  256000000 cycles:  510245788 heartbeat IPC: 0.50115 cumulative IPC: 0.35421 (Simulation time: 0 hr 11 min 25 sec) 
Heartbeat CPU  0 instructions:  257000000 cycles:  512337448 heartbeat IPC: 0.47809 cumulative IPC: 0.35479 (Simulation time: 0 hr 11 min 28 sec) 
Heartbeat CPU  0 instructions:  258000003 cycles:  514431677 heartbeat IPC: 0.47750 cumulative IPC: 0.35537 (Simulation time: 0 hr 11 min 30 sec) 
Heartbeat CPU  0 instructions:  259000000 cycles:  516455830 heartbeat IPC: 0.49403 cumulative IPC: 0.35600 (Simulation time: 0 hr 11 min 33 sec) 
Heartbeat CPU  0 instructions:  260000000 cycles:  518460544 heartbeat IPC: 0.49882 cumulative IPC: 0.35664 (Simulation time: 0 hr 11 min 36 sec) 
Heartbeat CPU  0 instructions:  261000000 cycles:  520565586 heartbeat IPC: 0.47505 cumulative IPC: 0.35719 (Simulation time: 0 hr 11 min 39 sec) 
Heartbeat CPU  0 instructions:  262000002 cycles:  522671674 heartbeat IPC: 0.47481 cumulative IPC: 0.35774 (Simulation time: 0 hr 11 min 42 sec) 
Heartbeat CPU  0 instructions:  263000001 cycles:  524614521 heartbeat IPC: 0.51471 cumulative IPC: 0.35841 (Simulation time: 0 hr 11 min 44 sec) 
Heartbeat CPU  0 instructions:  264000000 cycles:  526699821 heartbeat IPC: 0.47955 cumulative IPC: 0.35896 (Simulation time: 0 hr 11 min 47 sec) 
Heartbeat CPU  0 instructions:  265000002 cycles:  539225358 heartbeat IPC: 0.07984 cumulative IPC: 0.35151 (Simulation time: 0 hr 11 min 51 sec) 
Heartbeat CPU  0 instructions:  266000001 cycles:  547114949 heartbeat IPC: 0.12675 cumulative IPC: 0.34780 (Simulation time: 0 hr 11 min 55 sec) 
Heartbeat CPU  0 instructions:  267000002 cycles:  549370350 heartbeat IPC: 0.44338 cumulative IPC: 0.34825 (Simulation time: 0 hr 11 min 58 sec) 
Heartbeat CPU  0 instructions:  268000000 cycles:  551644027 heartbeat IPC: 0.43982 cumulative IPC: 0.34868 (Simulation time: 0 hr 12 min 1 sec) 
Heartbeat CPU  0 instructions:  269000000 cycles:  553839802 heartbeat IPC: 0.45542 cumulative IPC: 0.34916 (Simulation time: 0 hr 12 min 4 sec) 
Heartbeat CPU  0 instructions:  270000003 cycles:  555957695 heartbeat IPC: 0.47217 cumulative IPC: 0.34970 (Simulation time: 0 hr 12 min 6 sec) 
Heartbeat CPU  0 instructions:  271000002 cycles:  558162759 heartbeat IPC: 0.45350 cumulative IPC: 0.35017 (Simulation time: 0 hr 12 min 9 sec) 
Heartbeat CPU  0 instructions:  272000000 cycles:  560322588 heartbeat IPC: 0.46300 cumulative IPC: 0.35066 (Simulation time: 0 hr 12 min 12 sec) 
Heartbeat CPU  0 instructions:  273000002 cycles:  562331423 heartbeat IPC: 0.49780 cumulative IPC: 0.35126 (Simulation time: 0 hr 12 min 15 sec) 
Heartbeat CPU  0 instructions:  274000000 cycles:  564456893 heartbeat IPC: 0.47048 cumulative IPC: 0.35178 (Simulation time: 0 hr 12 min 18 sec) 
Heartbeat CPU  0 instructions:  275000000 cycles:  566536978 heartbeat IPC: 0.48075 cumulative IPC: 0.35232 (Simulation time: 0 hr 12 min 20 sec) 
Heartbeat CPU  0 instructions:  276000000 cycles:  568511181 heartbeat IPC: 0.50653 cumulative IPC: 0.35293 (Simulation time: 0 hr 12 min 23 sec) 
Heartbeat CPU  0 instructions:  277000001 cycles:  570594133 heartbeat IPC: 0.48009 cumulative IPC: 0.35346 (Simulation time: 0 hr 12 min 26 sec) 
Heartbeat CPU  0 instructions:  278000000 cycles:  572740291 heartbeat IPC: 0.46595 cumulative IPC: 0.35394 (Simulation time: 0 hr 12 min 29 sec) 
Heartbeat CPU  0 instructions:  279000003 cycles:  574921781 heartbeat IPC: 0.45840 cumulative IPC: 0.35439 (Simulation time: 0 hr 12 min 32 sec) 
Heartbeat CPU  0 instructions:  280000000 cycles:  577019905 heartbeat IPC: 0.47661 cumulative IPC: 0.35489 (Simulation time: 0 hr 12 min 34 sec) 
Heartbeat CPU  0 instructions:  281000002 cycles:  579241077 heartbeat IPC: 0.45021 cumulative IPC: 0.35531 (Simulation time: 0 hr 12 min 37 sec) 
Heartbeat CPU  0 instructions:  282000002 cycles:  581342890 heartbeat IPC: 0.47578 cumulative IPC: 0.35580 (Simulation time: 0 hr 12 min 40 sec) 
Heartbeat CPU  0 instructions:  283000000 cycles:  583302711 heartbeat IPC: 0.51025 cumulative IPC: 0.35639 (Simulation time: 0 hr 12 min 43 sec) 
Heartbeat CPU  0 instructions:  284000000 cycles:  585396643 heartbeat IPC: 0.47757 cumulative IPC: 0.35688 (Simulation time: 0 hr 12 min 45 sec) 
Heartbeat CPU  0 instructions:  285000001 cycles:  587483199 heartbeat IPC: 0.47926 cumulative IPC: 0.35738 (Simulation time: 0 hr 12 min 48 sec) 
Heartbeat CPU  0 instructions:  286000003 cycles:  589472608 heartbeat IPC: 0.50266 cumulative IPC: 0.35793 (Simulation time: 0 hr 12 min 51 sec) 
Heartbeat CPU  0 instructions:  287000002 cycles:  595802390 heartbeat IPC: 0.15798 cumulative IPC: 0.35553 (Simulation time: 0 hr 12 min 54 sec) 
Heartbeat CPU  0 instructions:  288000000 cycles:  609652499 heartbeat IPC: 0.07220 cumulative IPC: 0.34826 (Simulation time: 0 hr 12 min 59 sec) 
Heartbeat CPU  0 instructions:  289000003 cycles:  611902367 heartbeat IPC: 0.44447 cumulative IPC: 0.34866 (Simulation time: 0 hr 13 min 2 sec) 
Heartbeat CPU  0 instructions:  290000003 cycles:  614078068 heartbeat IPC: 0.45962 cumulative IPC: 0.34910 (Simulation time: 0 hr 13 min 4 sec) 
Heartbeat CPU  0 instructions:  291000002 cycles:  616333185 heartbeat IPC: 0.44344 cumulative IPC: 0.34949 (Simulation time: 0 hr 13 min 7 sec) 
Heartbeat CPU  0 instructions:  292000000 cycles:  618554466 heartbeat IPC: 0.45019 cumulative IPC: 0.34990 (Simulation time: 0 hr 13 min 10 sec) 
Heartbeat CPU  0 instructions:  293000001 cycles:  620638289 heartbeat IPC: 0.47989 cumulative IPC: 0.35039 (Simulation time: 0 hr 13 min 13 sec) 
Heartbeat CPU  0 instructions:  294000000 cycles:  622789158 heartbeat IPC: 0.46493 cumulative IPC: 0.35084 (Simulation time: 0 hr 13 min 16 sec) 
Heartbeat CPU  0 instructions:  295000002 cycles:  624942967 heartbeat IPC: 0.46429 cumulative IPC: 0.35128 (Simulation time: 0 hr 13 min 19 sec) 
Heartbeat CPU  0 instructions:  296000000 cycles:  627002392 heartbeat IPC: 0.48557 cumulative IPC: 0.35177 (Simulation time: 0 hr 13 min 21 sec) 
Heartbeat CPU  0 instructions:  297000001 cycles:  629050223 heartbeat IPC: 0.48832 cumulative IPC: 0.35227 (Simulation time: 0 hr 13 min 24 sec) 
Heartbeat CPU  0 instructions:  298000003 cycles:  631145064 heartbeat IPC: 0.47736 cumulative IPC: 0.35274 (Simulation time: 0 hr 13 min 27 sec) 
Heartbeat CPU  0 instructions:  299000000 cycles:  633236809 heartbeat IPC: 0.47807 cumulative IPC: 0.35320 (Simulation time: 0 hr 13 min 30 sec) 
Heartbeat CPU  0 instructions:  300000000 cycles:  635249383 heartbeat IPC: 0.49688 cumulative IPC: 0.35372 (Simulation time: 0 hr 13 min 33 sec) 
Heartbeat CPU  0 instructions:  301000003 cycles:  637363828 heartbeat IPC: 0.47294 cumulative IPC: 0.35416 (Simulation time: 0 hr 13 min 35 sec) 
Heartbeat CPU  0 instructions:  302000000 cycles:  639475910 heartbeat IPC: 0.47347 cumulative IPC: 0.35460 (Simulation time: 0 hr 13 min 38 sec) 
Heartbeat CPU  0 instructions:  303000000 cycles:  641435488 heartbeat IPC: 0.51031 cumulative IPC: 0.35514 (Simulation time: 0 hr 13 min 41 sec) 
Heartbeat CPU  0 instructions:  304000000 cycles:  643520423 heartbeat IPC: 0.47963 cumulative IPC: 0.35559 (Simulation time: 0 hr 13 min 44 sec) 
Heartbeat CPU  0 instructions:  305000000 cycles:  645621971 heartbeat IPC: 0.47584 cumulative IPC: 0.35603 (Simulation time: 0 hr 13 min 46 sec) 
Heartbeat CPU  0 instructions:  306000002 cycles:  647619790 heartbeat IPC: 0.50055 cumulative IPC: 0.35653 (Simulation time: 0 hr 13 min 49 sec) 
Heartbeat CPU  0 instructions:  307000003 cycles:  649635994 heartbeat IPC: 0.49598 cumulative IPC: 0.35701 (Simulation time: 0 hr 13 min 52 sec) 
Heartbeat CPU  0 instructions:  308000000 cycles:  651716088 heartbeat IPC: 0.48075 cumulative IPC: 0.35745 (Simulation time: 0 hr 13 min 55 sec) 
Heartbeat CPU  0 instructions:  309000003 cycles:  653808193 heartbeat IPC: 0.47799 cumulative IPC: 0.35789 (Simulation time: 0 hr 13 min 58 sec) 
Heartbeat CPU  0 instructions:  310000003 cycles:  668289589 heartbeat IPC: 0.06905 cumulative IPC: 0.35090 (Simulation time: 0 hr 14 min 2 sec) 
Heartbeat CPU  0 instructions:  311000000 cycles:  673982353 heartbeat IPC: 0.17566 cumulative IPC: 0.34925 (Simulation time: 0 hr 14 min 5 sec) 
Heartbeat CPU  0 instructions:  312000000 cycles:  676275142 heartbeat IPC: 0.43615 cumulative IPC: 0.34957 (Simulation time: 0 hr 14 min 8 sec) 
Heartbeat CPU  0 instructions:  313000003 cycles:  678397360 heartbeat IPC: 0.47121 cumulative IPC: 0.35000 (Simulation time: 0 hr 14 min 11 sec) 
Heartbeat CPU  0 instructions:  314000000 cycles:  680640371 heartbeat IPC: 0.44583 cumulative IPC: 0.35035 (Simulation time: 0 hr 14 min 14 sec) 
Heartbeat CPU  0 instructions:  315000000 cycles:  682888201 heartbeat IPC: 0.44487 cumulative IPC: 0.35070 (Simulation time: 0 hr 14 min 17 sec) 
Heartbeat CPU  0 instructions:  316000000 cycles:  685005185 heartbeat IPC: 0.47237 cumulative IPC: 0.35112 (Simulation time: 0 hr 14 min 20 sec) 
Heartbeat CPU  0 instructions:  317000001 cycles:  687080800 heartbeat IPC: 0.48179 cumulative IPC: 0.35156 (Simulation time: 0 hr 14 min 22 sec) 
Heartbeat CPU  0 instructions:  318000002 cycles:  689237670 heartbeat IPC: 0.46364 cumulative IPC: 0.35195 (Simulation time: 0 hr 14 min 25 sec) 
Heartbeat CPU  0 instructions:  319000001 cycles:  691366319 heartbeat IPC: 0.46978 cumulative IPC: 0.35235 (Simulation time: 0 hr 14 min 28 sec) 
Heartbeat CPU  0 instructions:  320000000 cycles:  693320030 heartbeat IPC: 0.51185 cumulative IPC: 0.35285 (Simulation time: 0 hr 14 min 31 sec) 
Heartbeat CPU  0 instructions:  321000002 cycles:  695418716 heartbeat IPC: 0.47649 cumulative IPC: 0.35326 (Simulation time: 0 hr 14 min 34 sec) 
Heartbeat CPU  0 instructions:  322000001 cycles:  697565914 heartbeat IPC: 0.46572 cumulative IPC: 0.35365 (Simulation time: 0 hr 14 min 36 sec) 
Heartbeat CPU  0 instructions:  323000002 cycles:  699564468 heartbeat IPC: 0.50036 cumulative IPC: 0.35411 (Simulation time: 0 hr 14 min 39 sec) 
Heartbeat CPU  0 instructions:  324000000 cycles:  701640317 heartbeat IPC: 0.48173 cumulative IPC: 0.35453 (Simulation time: 0 hr 14 min 42 sec) 
Heartbeat CPU  0 instructions:  325000001 cycles:  703761538 heartbeat IPC: 0.47143 cumulative IPC: 0.35492 (Simulation time: 0 hr 14 min 45 sec) 
Heartbeat CPU  0 instructions:  326000002 cycles:  705780870 heartbeat IPC: 0.49521 cumulative IPC: 0.35537 (Simulation time: 0 hr 14 min 48 sec) 
Heartbeat CPU  0 instructions:  327000002 cycles:  707754481 heartbeat IPC: 0.50669 cumulative IPC: 0.35584 (Simulation time: 0 hr 14 min 50 sec) 
Heartbeat CPU  0 instructions:  328000000 cycles:  709855085 heartbeat IPC: 0.47605 cumulative IPC: 0.35623 (Simulation time: 0 hr 14 min 53 sec) 
Heartbeat CPU  0 instructions:  329000002 cycles:  711931096 heartbeat IPC: 0.48169 cumulative IPC: 0.35664 (Simulation time: 0 hr 14 min 56 sec) 
Heartbeat CPU  0 instructions:  330000001 cycles:  713875669 heartbeat IPC: 0.51425 cumulative IPC: 0.35711 (Simulation time: 0 hr 14 min 59 sec) 
Heartbeat CPU  0 instructions:  331000002 cycles:  716069710 heartbeat IPC: 0.45578 cumulative IPC: 0.35745 (Simulation time: 0 hr 15 min 1 sec) 
Heartbeat CPU  0 instructions:  332000000 cycles:  724495896 heartbeat IPC: 0.11868 cumulative IPC: 0.35438 (Simulation time: 0 hr 15 min 5 sec) 
Heartbeat CPU  0 instructions:  333000000 cycles:  736273028 heartbeat IPC: 0.08491 cumulative IPC: 0.34961 (Simulation time: 0 hr 15 min 9 sec) 
Heartbeat CPU  0 instructions:  334000001 cycles:  738546925 heartbeat IPC: 0.43977 cumulative IPC: 0.34992 (Simulation time: 0 hr 15 min 12 sec) 
Heartbeat CPU  0 instructions:  335000001 cycles:  740840590 heartbeat IPC: 0.43598 cumulative IPC: 0.35021 (Simulation time: 0 hr 15 min 15 sec) 
Heartbeat CPU  0 instructions:  336000000 cycles:  743028499 heartbeat IPC: 0.45706 cumulative IPC: 0.35056 (Simulation time: 0 hr 15 min 18 sec) 
Heartbeat CPU  0 instructions:  337000003 cycles:  745162923 heartbeat IPC: 0.46851 cumulative IPC: 0.35093 (Simulation time: 0 hr 15 min 21 sec) 
Heartbeat CPU  0 instructions:  338000002 cycles:  747384349 heartbeat IPC: 0.45016 cumulative IPC: 0.35126 (Simulation time: 0 hr 15 min 23 sec) 
Heartbeat CPU  0 instructions:  339000000 cycles:  749540357 heartbeat IPC: 0.46382 cumulative IPC: 0.35162 (Simulation time: 0 hr 15 min 26 sec) 
Heartbeat CPU  0 instructions:  340000000 cycles:  751539920 heartbeat IPC: 0.50011 cumulative IPC: 0.35205 (Simulation time: 0 hr 15 min 29 sec) 
Heartbeat CPU  0 instructions:  341000000 cycles:  753678486 heartbeat IPC: 0.46760 cumulative IPC: 0.35241 (Simulation time: 0 hr 15 min 32 sec) 
Heartbeat CPU  0 instructions:  342000001 cycles:  755772784 heartbeat IPC: 0.47749 cumulative IPC: 0.35280 (Simulation time: 0 hr 15 min 35 sec) 
Heartbeat CPU  0 instructions:  343000000 cycles:  757730669 heartbeat IPC: 0.51075 cumulative IPC: 0.35325 (Simulation time: 0 hr 15 min 37 sec) 
Heartbeat CPU  0 instructions:  344000000 cycles:  759812846 heartbeat IPC: 0.48027 cumulative IPC: 0.35363 (Simulation time: 0 hr 15 min 40 sec) 
Heartbeat CPU  0 instructions:  345000000 cycles:  761957445 heartbeat IPC: 0.46629 cumulative IPC: 0.35398 (Simulation time: 0 hr 15 min 43 sec) 
Heartbeat CPU  0 instructions:  346000001 cycles:  764009452 heartbeat IPC: 0.48733 cumulative IPC: 0.35437 (Simulation time: 0 hr 15 min 46 sec) 
Heartbeat CPU  0 instructions:  347000002 cycles:  766010003 heartbeat IPC: 0.49986 cumulative IPC: 0.35479 (Simulation time: 0 hr 15 min 49 sec) 
Heartbeat CPU  0 instructions:  348000000 cycles:  768104397 heartbeat IPC: 0.47746 cumulative IPC: 0.35516 (Simulation time: 0 hr 15 min 51 sec) 
Heartbeat CPU  0 instructions:  349000001 cycles:  770188480 heartbeat IPC: 0.47983 cumulative IPC: 0.35553 (Simulation time: 0 hr 15 min 54 sec) 
Heartbeat CPU  0 instructions:  350000003 cycles:  772123102 heartbeat IPC: 0.51690 cumulative IPC: 0.35597 (Simulation time: 0 hr 15 min 57 sec) 
Heartbeat CPU  0 instructions:  351000003 cycles:  774195137 heartbeat IPC: 0.48262 cumulative IPC: 0.35635 (Simulation time: 0 hr 16 min 0 sec) 
Heartbeat CPU  0 instructions:  352000000 cycles:  776292729 heartbeat IPC: 0.47674 cumulative IPC: 0.35670 (Simulation time: 0 hr 16 min 2 sec) 
Heartbeat CPU  0 instructions:  353000001 cycles:  778261623 heartbeat IPC: 0.50790 cumulative IPC: 0.35712 (Simulation time: 0 hr 16 min 5 sec) 
Heartbeat CPU  0 instructions:  354000003 cycles:  780521867 heartbeat IPC: 0.44243 cumulative IPC: 0.35740 (Simulation time: 0 hr 16 min 8 sec) 
Heartbeat CPU  0 instructions:  355000003 cycles:  797102764 heartbeat IPC: 0.06031 cumulative IPC: 0.35062 (Simulation time: 0 hr 16 min 13 sec) 
Heartbeat CPU  0 instructions:  356000000 cycles:  800763089 heartbeat IPC: 0.27320 cumulative IPC: 0.35023 (Simulation time: 0 hr 16 min 16 sec) 
Heartbeat CPU  0 instructions:  357000003 cycles:  802953324 heartbeat IPC: 0.45657 cumulative IPC: 0.35055 (Simulation time: 0 hr 16 min 19 sec) 
Heartbeat CPU  0 instructions:  358000002 cycles:  805205670 heartbeat IPC: 0.44398 cumulative IPC: 0.35084 (Simulation time: 0 hr 16 min 21 sec) 
Heartbeat CPU  0 instructions:  359000000 cycles:  807442477 heartbeat IPC: 0.44706 cumulative IPC: 0.35113 (Simulation time: 0 hr 16 min 24 sec) 
Heartbeat CPU  0 instructions:  360000000 cycles:  809534052 heartbeat IPC: 0.47811 cumulative IPC: 0.35149 (Simulation time: 0 hr 16 min 27 sec) 
Heartbeat CPU  0 instructions:  361000003 cycles:  811699835 heartbeat IPC: 0.46173 cumulative IPC: 0.35181 (Simulation time: 0 hr 16 min 30 sec) 
Heartbeat CPU  0 instructions:  362000000 cycles:  813862751 heartbeat IPC: 0.46234 cumulative IPC: 0.35213 (Simulation time: 0 hr 16 min 33 sec) 
Heartbeat CPU  0 instructions:  363000000 cycles:  815905735 heartbeat IPC: 0.48948 cumulative IPC: 0.35251 (Simulation time: 0 hr 16 min 36 sec) 
Heartbeat CPU  0 instructions:  364000000 cycles:  817973377 heartbeat IPC: 0.48364 cumulative IPC: 0.35287 (Simulation time: 0 hr 16 min 38 sec) 
Heartbeat CPU  0 instructions:  365000000 cycles:  820063983 heartbeat IPC: 0.47833 cumulative IPC: 0.35322 (Simulation time: 0 hr 16 min 41 sec) 
Heartbeat CPU  0 instructions:  366000001 cycles:  822155384 heartbeat IPC: 0.47815 cumulative IPC: 0.35357 (Simulation time: 0 hr 16 min 44 sec) 
Heartbeat CPU  0 instructions:  367000001 cycles:  824183073 heartbeat IPC: 0.49317 cumulative IPC: 0.35394 (Simulation time: 0 hr 16 min 47 sec) 
Heartbeat CPU  0 instructions:  368000000 cycles:  826320788 heartbeat IPC: 0.46779 cumulative IPC: 0.35426 (Simulation time: 0 hr 16 min 50 sec) 
Heartbeat CPU  0 instructions:  369000003 cycles:  828451658 heartbeat IPC: 0.46929 cumulative IPC: 0.35459 (Simulation time: 0 hr 16 min 52 sec) 
Heartbeat CPU  0 instructions:  370000000 cycles:  830408004 heartbeat IPC: 0.51116 cumulative IPC: 0.35499 (Simulation time: 0 hr 16 min 55 sec) 
Heartbeat CPU  0 instructions:  371000001 cycles:  832486693 heartbeat IPC: 0.48107 cumulative IPC: 0.35533 (Simulation time: 0 hr 16 min 58 sec) 
Heartbeat CPU  0 instructions:  372000000 cycles:  834608482 heartbeat IPC: 0.47130 cumulative IPC: 0.35566 (Simulation time: 0 hr 17 min 1 sec) 
Heartbeat CPU  0 instructions:  373000003 cycles:  836629830 heartbeat IPC: 0.49472 cumulative IPC: 0.35602 (Simulation time: 0 hr 17 min 3 sec) 
Heartbeat CPU  0 instructions:  374000001 cycles:  838672725 heartbeat IPC: 0.48950 cumulative IPC: 0.35638 (Simulation time: 0 hr 17 min 6 sec) 
Heartbeat CPU  0 instructions:  375000001 cycles:  840766867 heartbeat IPC: 0.47752 cumulative IPC: 0.35671 (Simulation time: 0 hr 17 min 9 sec) 
Heartbeat CPU  0 instructions:  376000000 cycles:  842855999 heartbeat IPC: 0.47867 cumulative IPC: 0.35704 (Simulation time: 0 hr 17 min 12 sec) 
Heartbeat CPU  0 instructions:  377000002 cycles:  853191823 heartbeat IPC: 0.09675 cumulative IPC: 0.35360 (Simulation time: 0 hr 17 min 16 sec) 
Heartbeat CPU  0 instructions:  378000003 cycles:  863047511 heartbeat IPC: 0.10146 cumulative IPC: 0.35047 (Simulation time: 0 hr 17 min 20 sec) 
Heartbeat CPU  0 instructions:  379000001 cycles:  865340601 heartbeat IPC: 0.43609 cumulative IPC: 0.35072 (Simulation time: 0 hr 17 min 23 sec) 
Heartbeat CPU  0 instructions:  380000000 cycles:  867450346 heartbeat IPC: 0.47399 cumulative IPC: 0.35104 (Simulation time: 0 hr 17 min 25 sec) 
Heartbeat CPU  0 instructions:  381000002 cycles:  869738070 heartbeat IPC: 0.43712 cumulative IPC: 0.35129 (Simulation time: 0 hr 17 min 28 sec) 
Heartbeat CPU  0 instructions:  382000002 cycles:  872126928 heartbeat IPC: 0.41861 cumulative IPC: 0.35149 (Simulation time: 0 hr 17 min 31 sec) 
Heartbeat CPU  0 instructions:  383000002 cycles:  874404462 heartbeat IPC: 0.43907 cumulative IPC: 0.35174 (Simulation time: 0 hr 17 min 34 sec) 
Heartbeat CPU  0 instructions:  384000000 cycles:  876488081 heartbeat IPC: 0.47993 cumulative IPC: 0.35207 (Simulation time: 0 hr 17 min 37 sec) 
Heartbeat CPU  0 instructions:  385000003 cycles:  878638023 heartbeat IPC: 0.46513 cumulative IPC: 0.35237 (Simulation time: 0 hr 17 min 40 sec) 
Heartbeat CPU  0 instructions:  386000002 cycles:  880781245 heartbeat IPC: 0.46659 cumulative IPC: 0.35267 (Simulation time: 0 hr 17 min 42 sec) 
Heartbeat CPU  0 instructions:  387000001 cycles:  882736512 heartbeat IPC: 0.51144 cumulative IPC: 0.35305 (Simulation time: 0 hr 17 min 45 sec) 
Heartbeat CPU  0 instructions:  388000000 cycles:  884827960 heartbeat IPC: 0.47814 cumulative IPC: 0.35337 (Simulation time: 0 hr 17 min 48 sec) 
Heartbeat CPU  0 instructions:  389000003 cycles:  886964322 heartbeat IPC: 0.46809 cumulative IPC: 0.35367 (Simulation time: 0 hr 17 min 51 sec) 
Heartbeat CPU  0 instructions:  390000003 cycles:  888945522 heartbeat IPC: 0.50474 cumulative IPC: 0.35404 (Simulation time: 0 hr 17 min 53 sec) 
Heartbeat CPU  0 instructions:  391000001 cycles:  891043090 heartbeat IPC: 0.47674 cumulative IPC: 0.35435 (Simulation time: 0 hr 17 min 56 sec) 
Heartbeat CPU  0 instructions:  392000000 cycles:  893152427 heartbeat IPC: 0.47408 cumulative IPC: 0.35466 (Simulation time: 0 hr 17 min 59 sec) 
Heartbeat CPU  0 instructions:  393000000 cycles:  895161656 heartbeat IPC: 0.49770 cumulative IPC: 0.35501 (Simulation time: 0 hr 18 min 2 sec) 
Heartbeat CPU  0 instructions:  394000000 cycles:  897147228 heartbeat IPC: 0.50363 cumulative IPC: 0.35536 (Simulation time: 0 hr 18 min 4 sec) 
Heartbeat CPU  0 instructions:  395000002 cycles:  899250536 heartbeat IPC: 0.47544 cumulative IPC: 0.35567 (Simulation time: 0 hr 18 min 7 sec) 
Heartbeat CPU  0 instructions:  396000000 cycles:  901344811 heartbeat IPC: 0.47749 cumulative IPC: 0.35597 (Simulation time: 0 hr 18 min 10 sec) 
Heartbeat CPU  0 instructions:  397000001 cycles:  903290262 heartbeat IPC: 0.51402 cumulative IPC: 0.35634 (Simulation time: 0 hr 18 min 13 sec) 
Heartbeat CPU  0 instructions:  398000003 cycles:  905365495 heartbeat IPC: 0.48187 cumulative IPC: 0.35666 (Simulation time: 0 hr 18 min 16 sec) 
Heartbeat CPU  0 instructions:  399000001 cycles:  909630059 heartbeat IPC: 0.23449 cumulative IPC: 0.35603 (Simulation time: 0 hr 18 min 19 sec) 
Heartbeat CPU  0 instructions:  400000000 cycles:  925523429 heartbeat IPC: 0.06292 cumulative IPC: 0.35059 (Simulation time: 0 hr 18 min 24 sec) 
Heartbeat CPU  0 instructions:  401000002 cycles:  927835759 heartbeat IPC: 0.43247 cumulative IPC: 0.35081 (Simulation time: 0 hr 18 min 26 sec) 
Heartbeat CPU  0 instructions:  402000001 cycles:  930135519 heartbeat IPC: 0.43483 cumulative IPC: 0.35104 (Simulation time: 0 hr 18 min 29 sec) 
Heartbeat CPU  0 instructions:  403000003 cycles:  932310873 heartbeat IPC: 0.45970 cumulative IPC: 0.35131 (Simulation time: 0 hr 18 min 32 sec) 
Heartbeat CPU  0 instructions:  404000000 cycles:  934460688 heartbeat IPC: 0.46515 cumulative IPC: 0.35159 (Simulation time: 0 hr 18 min 35 sec) 
Heartbeat CPU  0 instructions:  405000001 cycles:  936698827 heartbeat IPC: 0.44680 cumulative IPC: 0.35184 (Simulation time: 0 hr 18 min 38 sec) 
Heartbeat CPU  0 instructions:  406000002 cycles:  938856554 heartbeat IPC: 0.46345 cumulative IPC: 0.35212 (Simulation time: 0 hr 18 min 41 sec) 
Heartbeat CPU  0 instructions:  407000001 cycles:  940858450 heartbeat IPC: 0.49953 cumulative IPC: 0.35245 (Simulation time: 0 hr 18 min 43 sec) 
Heartbeat CPU  0 instructions:  408000000 cycles:  943005071 heartbeat IPC: 0.46585 cumulative IPC: 0.35273 (Simulation time: 0 hr 18 min 46 sec) 
Heartbeat CPU  0 instructions:  409000001 cycles:  945131814 heartbeat IPC: 0.47020 cumulative IPC: 0.35302 (Simulation time: 0 hr 18 min 49 sec) 
Heartbeat CPU  0 instructions:  410000003 cycles:  947080531 heartbeat IPC: 0.51316 cumulative IPC: 0.35337 (Simulation time: 0 hr 18 min 52 sec) 
Heartbeat CPU  0 instructions:  411000000 cycles:  949153687 heartbeat IPC: 0.48235 cumulative IPC: 0.35368 (Simulation time: 0 hr 18 min 55 sec) 
Heartbeat CPU  0 instructions:  412000000 cycles:  951304992 heartbeat IPC: 0.46483 cumulative IPC: 0.35395 (Simulation time: 0 hr 18 min 57 sec) 
Heartbeat CPU  0 instructions:  413000002 cycles:  953371070 heartbeat IPC: 0.48401 cumulative IPC: 0.35425 (Simulation time: 0 hr 19 min 0 sec) 
Heartbeat CPU  0 instructions:  414000003 cycles:  955363681 heartbeat IPC: 0.50185 cumulative IPC: 0.35459 (Simulation time: 0 hr 19 min 3 sec) 
Heartbeat CPU  0 instructions:  415000002 cycles:  957464073 heartbeat IPC: 0.47610 cumulative IPC: 0.35487 (Simulation time: 0 hr 19 min 6 sec) 
Heartbeat CPU  0 instructions:  416000000 cycles:  959554332 heartbeat IPC: 0.47841 cumulative IPC: 0.35516 (Simulation time: 0 hr 19 min 8 sec) 
Heartbeat CPU  0 instructions:  417000003 cycles:  961502779 heartbeat IPC: 0.51323 cumulative IPC: 0.35551 (Simulation time: 0 hr 19 min 11 sec) 
Heartbeat CPU  0 instructions:  418000003 cycles:  963599104 heartbeat IPC: 0.47703 cumulative IPC: 0.35579 (Simulation time: 0 hr 19 min 14 sec) 
Heartbeat CPU  0 instructions:  419000003 cycles:  965710034 heartbeat IPC: 0.47372 cumulative IPC: 0.35607 (Simulation time: 0 hr 19 min 17 sec) 
Heartbeat CPU  0 instructions:  420000000 cycles:  967680122 heartbeat IPC: 0.50759 cumulative IPC: 0.35640 (Simulation time: 0 hr 19 min 19 sec) 
Heartbeat CPU  0 instructions:  421000001 cycles:  969702663 heartbeat IPC: 0.49443 cumulative IPC: 0.35671 (Simulation time: 0 hr 19 min 22 sec) 
Heartbeat CPU  0 instructions:  422000002 cycles:  982142851 heartbeat IPC: 0.08038 cumulative IPC: 0.35295 (Simulation time: 0 hr 19 min 27 sec) 
Heartbeat CPU  0 instructions:  423000003 cycles:  990046534 heartbeat IPC: 0.12652 cumulative IPC: 0.35100 (Simulation time: 0 hr 19 min 30 sec) 
Heartbeat CPU  0 instructions:  424000000 cycles:  992225482 heartbeat IPC: 0.45894 cumulative IPC: 0.35126 (Simulation time: 0 hr 19 min 33 sec) 
Heartbeat CPU  0 instructions:  425000003 cycles:  994487273 heartbeat IPC: 0.44213 cumulative IPC: 0.35148 (Simulation time: 0 hr 19 min 36 sec) 
Heartbeat CPU  0 instructions:  426000001 cycles:  996720415 heartbeat IPC: 0.44780 cumulative IPC: 0.35171 (Simulation time: 0 hr 19 min 39 sec) 
Heartbeat CPU  0 instructions:  427000000 cycles:  998798362 heartbeat IPC: 0.48124 cumulative IPC: 0.35200 (Simulation time: 0 hr 19 min 42 sec) 
Heartbeat CPU  0 instructions:  428000000 cycles: 1000983484 heartbeat IPC: 0.45764 cumulative IPC: 0.35225 (Simulation time: 0 hr 19 min 44 sec) 
Heartbeat CPU  0 instructions:  429000002 cycles: 1003144503 heartbeat IPC: 0.46275 cumulative IPC: 0.35250 (Simulation time: 0 hr 19 min 47 sec) 
Heartbeat CPU  0 instructions:  430000000 cycles: 1005170952 heartbeat IPC: 0.49347 cumulative IPC: 0.35281 (Simulation time: 0 hr 19 min 50 sec) 
Heartbeat CPU  0 instructions:  431000000 cycles: 1007251128 heartbeat IPC: 0.48073 cumulative IPC: 0.35309 (Simulation time: 0 hr 19 min 53 sec) 
Heartbeat CPU  0 instructions:  432000000 cycles: 1009332679 heartbeat IPC: 0.48041 cumulative IPC: 0.35338 (Simulation time: 0 hr 19 min 56 sec) 
Heartbeat CPU  0 instructions:  433000003 cycles: 1011523066 heartbeat IPC: 0.45654 cumulative IPC: 0.35362 (Simulation time: 0 hr 19 min 58 sec) 
Heartbeat CPU  0 instructions:  434000002 cycles: 1013533961 heartbeat IPC: 0.49729 cumulative IPC: 0.35392 (Simulation time: 0 hr 20 min 1 sec) 
Heartbeat CPU  0 instructions:  435000001 cycles: 1015663163 heartbeat IPC: 0.46966 cumulative IPC: 0.35418 (Simulation time: 0 hr 20 min 4 sec) 
Heartbeat CPU  0 instructions:  436000000 cycles: 1017754220 heartbeat IPC: 0.47823 cumulative IPC: 0.35446 (Simulation time: 0 hr 20 min 7 sec) 
Heartbeat CPU  0 instructions:  437000000 cycles: 1019708480 heartbeat IPC: 0.51170 cumulative IPC: 0.35478 (Simulation time: 0 hr 20 min 9 sec) 
Heartbeat CPU  0 instructions:  438000000 cycles: 1021779888 heartbeat IPC: 0.48276 cumulative IPC: 0.35506 (Simulation time: 0 hr 20 min 12 sec) 
Heartbeat CPU  0 instructions:  439000001 cycles: 1023871448 heartbeat IPC: 0.47811 cumulative IPC: 0.35533 (Simulation time: 0 hr 20 min 15 sec) 
Heartbeat CPU  0 instructions:  440000000 cycles: 1025869517 heartbeat IPC: 0.50048 cumulative IPC: 0.35563 (Simulation time: 0 hr 20 min 18 sec) 
Heartbeat CPU  0 instructions:  441000001 cycles: 1027898312 heartbeat IPC: 0.49290 cumulative IPC: 0.35592 (Simulation time: 0 hr 20 min 21 sec) 
Heartbeat CPU  0 instructions:  442000001 cycles: 1029999095 heartbeat IPC: 0.47601 cumulative IPC: 0.35619 (Simulation time: 0 hr 20 min 23 sec) 
Heartbeat CPU  0 instructions:  443000002 cycles: 1032066800 heartbeat IPC: 0.48363 cumulative IPC: 0.35646 (Simulation time: 0 hr 20 min 26 sec) 
Heartbeat CPU  0 instructions:  444000000 cycles: 1038379635 heartbeat IPC: 0.15841 cumulative IPC: 0.35517 (Simulation time: 0 hr 20 min 30 sec) 
Heartbeat CPU  0 instructions:  445000003 cycles: 1052424981 heartbeat IPC: 0.07120 cumulative IPC: 0.35111 (Simulation time: 0 hr 20 min 34 sec) 
Heartbeat CPU  0 instructions:  446000000 cycles: 1054717435 heartbeat IPC: 0.43621 cumulative IPC: 0.35131 (Simulation time: 0 hr 20 min 37 sec) 
Heartbeat CPU  0 instructions:  447000003 cycles: 1056819099 heartbeat IPC: 0.47581 cumulative IPC: 0.35157 (Simulation time: 0 hr 20 min 40 sec) 
Heartbeat CPU  0 instructions:  448000000 cycles: 1059023780 heartbeat IPC: 0.45358 cumulative IPC: 0.35180 (Simulation time: 0 hr 20 min 43 sec) 
Heartbeat CPU  0 instructions:  449000000 cycles: 1061262487 heartbeat IPC: 0.44669 cumulative IPC: 0.35201 (Simulation time: 0 hr 20 min 45 sec) 
Heartbeat CPU  0 instructions:  450000000 cycles: 1063369721 heartbeat IPC: 0.47456 cumulative IPC: 0.35227 (Simulation time: 0 hr 20 min 48 sec) 
Heartbeat CPU  0 instructions:  451000000 cycles: 1065426784 heartbeat IPC: 0.48613 cumulative IPC: 0.35255 (Simulation time: 0 hr 20 min 51 sec) 
Heartbeat CPU  0 instructions:  452000000 cycles: 1067555176 heartbeat IPC: 0.46984 cumulative IPC: 0.35280 (Simulation time: 0 hr 20 min 54 sec) 
Heartbeat CPU  0 instructions:  453000001 cycles: 1069681610 heartbeat IPC: 0.47027 cumulative IPC: 0.35305 (Simulation time: 0 hr 20 min 57 sec) 
Heartbeat CPU  0 instructions:  454000001 cycles: 1071611202 heartbeat IPC: 0.51824 cumulative IPC: 0.35337 (Simulation time: 0 hr 20 min 59 sec) 
Heartbeat CPU  0 instructions:  455000000 cycles: 1073673629 heartbeat IPC: 0.48487 cumulative IPC: 0.35364 (Simulation time: 0 hr 21 min 2 sec) 
Heartbeat CPU  0 instructions:  456000000 cycles: 1075765812 heartbeat IPC: 0.47797 cumulative IPC: 0.35390 (Simulation time: 0 hr 21 min 5 sec) 
Heartbeat CPU  0 instructions:  457000000 cycles: 1077725768 heartbeat IPC: 0.51022 cumulative IPC: 0.35420 (Simulation time: 0 hr 21 min 8 sec) 
Heartbeat CPU  0 instructions:  458000001 cycles: 1079770058 heartbeat IPC: 0.48917 cumulative IPC: 0.35447 (Simulation time: 0 hr 21 min 10 sec) 
Heartbeat CPU  0 instructions:  459000000 cycles: 1081860263 heartbeat IPC: 0.47842 cumulative IPC: 0.35473 (Simulation time: 0 hr 21 min 13 sec) 
Heartbeat CPU  0 instructions:  460000000 cycles: 1083840273 heartbeat IPC: 0.50505 cumulative IPC: 0.35502 (Simulation time: 0 hr 21 min 16 sec) 
Heartbeat CPU  0 instructions:  461000000 cycles: 1085796949 heartbeat IPC: 0.51107 cumulative IPC: 0.35532 (Simulation time: 0 hr 21 min 19 sec) 
Heartbeat CPU  0 instructions:  462000003 cycles: 1087868245 heartbeat IPC: 0.48279 cumulative IPC: 0.35558 (Simulation time: 0 hr 21 min 22 sec) 
Heartbeat CPU  0 instructions:  463000003 cycles: 1089932164 heartbeat IPC: 0.48452 cumulative IPC: 0.35584 (Simulation time: 0 hr 21 min 24 sec) 
Heartbeat CPU  0 instructions:  464000000 cycles: 1091850703 heartbeat IPC: 0.52123 cumulative IPC: 0.35616 (Simulation time: 0 hr 21 min 27 sec) 
Heartbeat CPU  0 instructions:  465000000 cycles: 1093927885 heartbeat IPC: 0.48142 cumulative IPC: 0.35641 (Simulation time: 0 hr 21 min 30 sec) 
Heartbeat CPU  0 instructions:  466000000 cycles: 1096008411 heartbeat IPC: 0.48065 cumulative IPC: 0.35666 (Simulation time: 0 hr 21 min 33 sec) 
Heartbeat CPU  0 instructions:  467000000 cycles: 1110583798 heartbeat IPC: 0.06861 cumulative IPC: 0.35263 (Simulation time: 0 hr 21 min 37 sec) 
Heartbeat CPU  0 instructions:  468000000 cycles: 1116210216 heartbeat IPC: 0.17773 cumulative IPC: 0.35169 (Simulation time: 0 hr 21 min 41 sec) 
Heartbeat CPU  0 instructions:  469000002 cycles: 1118494844 heartbeat IPC: 0.43771 cumulative IPC: 0.35187 (Simulation time: 0 hr 21 min 44 sec) 
Heartbeat CPU  0 instructions:  470000000 cycles: 1120668896 heartbeat IPC: 0.45997 cumulative IPC: 0.35210 (Simulation time: 0 hr 21 min 46 sec) 
Heartbeat CPU  0 instructions:  471000002 cycles: 1122784422 heartbeat IPC: 0.47270 cumulative IPC: 0.35234 (Simulation time: 0 hr 21 min 49 sec) 
Heartbeat CPU  0 instructions:  472000000 cycles: 1124995602 heartbeat IPC: 0.45225 cumulative IPC: 0.35255 (Simulation time: 0 hr 21 min 52 sec) 
Heartbeat CPU  0 instructions:  473000003 cycles: 1127132660 heartbeat IPC: 0.46793 cumulative IPC: 0.35278 (Simulation time: 0 hr 21 min 55 sec) 
Heartbeat CPU  0 instructions:  474000002 cycles: 1129103136 heartbeat IPC: 0.50749 cumulative IPC: 0.35307 (Simulation time: 0 hr 21 min 58 sec) 
Heartbeat CPU  0 instructions:  475000003 cycles: 1131227768 heartbeat IPC: 0.47067 cumulative IPC: 0.35331 (Simulation time: 0 hr 22 min 1 sec) 
Heartbeat CPU  0 instructions:  476000000 cycles: 1133348645 heartbeat IPC: 0.47150 cumulative IPC: 0.35354 (Simulation time: 0 hr 22 min 3 sec) 
Heartbeat CPU  0 instructions:  477000003 cycles: 1135278981 heartbeat IPC: 0.51805 cumulative IPC: 0.35384 (Simulation time: 0 hr 22 min 6 sec) 
Heartbeat CPU  0 instructions:  478000003 cycles: 1137293742 heartbeat IPC: 0.49634 cumulative IPC: 0.35411 (Simulation time: 0 hr 22 min 9 sec) 
Heartbeat CPU  0 instructions:  479000000 cycles: 1139410896 heartbeat IPC: 0.47233 cumulative IPC: 0.35434 (Simulation time: 0 hr 22 min 12 sec) 
Heartbeat CPU  0 instructions:  480000000 cycles: 1141441283 heartbeat IPC: 0.49252 cumulative IPC: 0.35460 (Simulation time: 0 hr 22 min 15 sec) 
Heartbeat CPU  0 instructions:  481000000 cycles: 1143389341 heartbeat IPC: 0.51333 cumulative IPC: 0.35489 (Simulation time: 0 hr 22 min 17 sec) 
Heartbeat CPU  0 instructions:  482000000 cycles: 1145478687 heartbeat IPC: 0.47862 cumulative IPC: 0.35513 (Simulation time: 0 hr 22 min 20 sec) 
Heartbeat CPU  0 instructions:  483000001 cycles: 1147628955 heartbeat IPC: 0.46506 cumulative IPC: 0.35535 (Simulation time: 0 hr 22 min 23 sec) 
Heartbeat CPU  0 instructions:  484000000 cycles: 1149650030 heartbeat IPC: 0.49479 cumulative IPC: 0.35561 (Simulation time: 0 hr 22 min 26 sec) 
Heartbeat CPU  0 instructions:  485000001 cycles: 1151827471 heartbeat IPC: 0.45926 cumulative IPC: 0.35582 (Simulation time: 0 hr 22 min 28 sec) 
Heartbeat CPU  0 instructions:  486000001 cycles: 1153930397 heartbeat IPC: 0.47553 cumulative IPC: 0.35605 (Simulation time: 0 hr 22 min 31 sec) 
Heartbeat CPU  0 instructions:  487000000 cycles: 1155877881 heartbeat IPC: 0.51348 cumulative IPC: 0.35634 (Simulation time: 0 hr 22 min 34 sec) 
Heartbeat CPU  0 instructions:  488000000 cycles: 1157873715 heartbeat IPC: 0.50104 cumulative IPC: 0.35660 (Simulation time: 0 hr 22 min 37 sec) 
Heartbeat CPU  0 instructions:  489000001 cycles: 1166308953 heartbeat IPC: 0.11855 cumulative IPC: 0.35477 (Simulation time: 0 hr 22 min 40 sec) 
Heartbeat CPU  0 instructions:  490000003 cycles: 1177974093 heartbeat IPC: 0.08573 cumulative IPC: 0.35194 (Simulation time: 0 hr 22 min 45 sec) 
Heartbeat CPU  0 instructions:  491000001 cycles: 1180144291 heartbeat IPC: 0.46079 cumulative IPC: 0.35215 (Simulation time: 0 hr 22 min 48 sec) 
Heartbeat CPU  0 instructions:  492000000 cycles: 1182421619 heartbeat IPC: 0.43911 cumulative IPC: 0.35233 (Simulation time: 0 hr 22 min 50 sec) 
Heartbeat CPU  0 instructions:  493000000 cycles: 1184647498 heartbeat IPC: 0.44926 cumulative IPC: 0.35252 (Simulation time: 0 hr 22 min 53 sec) 
Heartbeat CPU  0 instructions:  494000002 cycles: 1186690179 heartbeat IPC: 0.48955 cumulative IPC: 0.35277 (Simulation time: 0 hr 22 min 56 sec) 
Heartbeat CPU  0 instructions:  495000000 cycles: 1188878097 heartbeat IPC: 0.45705 cumulative IPC: 0.35298 (Simulation time: 0 hr 22 min 59 sec) 
Heartbeat CPU  0 instructions:  496000000 cycles: 1191019557 heartbeat IPC: 0.46697 cumulative IPC: 0.35319 (Simulation time: 0 hr 23 min 2 sec) 
Heartbeat CPU  0 instructions:  497000001 cycles: 1193047230 heartbeat IPC: 0.49318 cumulative IPC: 0.35345 (Simulation time: 0 hr 23 min 5 sec) 
Heartbeat CPU  0 instructions:  498000001 cycles: 1195113465 heartbeat IPC: 0.48397 cumulative IPC: 0.35369 (Simulation time: 0 hr 23 min 8 sec) 
Heartbeat CPU  0 instructions:  499000001 cycles: 1197207501 heartbeat IPC: 0.47755 cumulative IPC: 0.35392 (Simulation time: 0 hr 23 min 10 sec) 
Heartbeat CPU  0 instructions:  500000000 cycles: 1199234532 heartbeat IPC: 0.49333 cumulative IPC: 0.35417 (Simulation time: 0 hr 23 min 13 sec) 
Heartbeat CPU  0 instructions:  501000002 cycles: 1201214809 heartbeat IPC: 0.50498 cumulative IPC: 0.35443 (Simulation time: 0 hr 23 min 16 sec) 
Heartbeat CPU  0 instructions:  502000002 cycles: 1203335649 heartbeat IPC: 0.47151 cumulative IPC: 0.35465 (Simulation time: 0 hr 23 min 19 sec) 
Heartbeat CPU  0 instructions:  503000002 cycles: 1205438839 heartbeat IPC: 0.47547 cumulative IPC: 0.35487 (Simulation time: 0 hr 23 min 22 sec) 
Heartbeat CPU  0 instructions:  504000000 cycles: 1207358334 heartbeat IPC: 0.52097 cumulative IPC: 0.35515 (Simulation time: 0 hr 23 min 24 sec) 
Heartbeat CPU  0 instructions:  505000002 cycles: 1209403992 heartbeat IPC: 0.48884 cumulative IPC: 0.35539 (Simulation time: 0 hr 23 min 27 sec) 
Heartbeat CPU  0 instructions:  506000002 cycles: 1211476766 heartbeat IPC: 0.48245 cumulative IPC: 0.35562 (Simulation time: 0 hr 23 min 30 sec) 
Heartbeat CPU  0 instructions:  507000001 cycles: 1213453485 heartbeat IPC: 0.50589 cumulative IPC: 0.35588 (Simulation time: 0 hr 23 min 33 sec) 
Heartbeat CPU  0 instructions:  508000000 cycles: 1215450149 heartbeat IPC: 0.50083 cumulative IPC: 0.35614 (Simulation time: 0 hr 23 min 35 sec) 
Heartbeat CPU  0 instructions:  509000000 cycles: 1217556894 heartbeat IPC: 0.47467 cumulative IPC: 0.35635 (Simulation time: 0 hr 23 min 38 sec) 
Heartbeat CPU  0 instructions:  510000003 cycles: 1219610214 heartbeat IPC: 0.48702 cumulative IPC: 0.35659 (Simulation time: 0 hr 23 min 41 sec) 
Heartbeat CPU  0 instructions:  511000001 cycles: 1221866093 heartbeat IPC: 0.44329 cumulative IPC: 0.35676 (Simulation time: 0 hr 23 min 44 sec) 
Heartbeat CPU  0 instructions:  512000000 cycles: 1238255593 heartbeat IPC: 0.06101 cumulative IPC: 0.35261 (Simulation time: 0 hr 23 min 49 sec) 
Heartbeat CPU  0 instructions:  513000000 cycles: 1241867858 heartbeat IPC: 0.27683 cumulative IPC: 0.35238 (Simulation time: 0 hr 23 min 52 sec) 
Heartbeat CPU  0 instructions:  514000001 cycles: 1244021455 heartbeat IPC: 0.46434 cumulative IPC: 0.35258 (Simulation time: 0 hr 23 min 55 sec) 
Heartbeat CPU  0 instructions:  515000002 cycles: 1246261160 heartbeat IPC: 0.44649 cumulative IPC: 0.35276 (Simulation time: 0 hr 23 min 57 sec) 
Heartbeat CPU  0 instructions:  516000000 cycles: 1248520034 heartbeat IPC: 0.44270 cumulative IPC: 0.35293 (Simulation time: 0 hr 24 min 0 sec) 
Heartbeat CPU  0 instructions:  517000002 cycles: 1250642289 heartbeat IPC: 0.47120 cumulative IPC: 0.35314 (Simulation time: 0 hr 24 min 3 sec) 
Heartbeat CPU  0 instructions:  518000000 cycles: 1252740489 heartbeat IPC: 0.47660 cumulative IPC: 0.35336 (Simulation time: 0 hr 24 min 6 sec) 
Heartbeat CPU  0 instructions:  519000000 cycles: 1254895978 heartbeat IPC: 0.46393 cumulative IPC: 0.35357 (Simulation time: 0 hr 24 min 9 sec) 
Heartbeat CPU  0 instructions:  520000000 cycles: 1257025554 heartbeat IPC: 0.46958 cumulative IPC: 0.35377 (Simulation time: 0 hr 24 min 12 sec) 
Heartbeat CPU  0 instructions:  521000003 cycles: 1259021723 heartbeat IPC: 0.50096 cumulative IPC: 0.35402 (Simulation time: 0 hr 24 min 14 sec) 
Heartbeat CPU  0 instructions:  522000001 cycles: 1261113658 heartbeat IPC: 0.47803 cumulative IPC: 0.35424 (Simulation time: 0 hr 24 min 17 sec) 
Heartbeat CPU  0 instructions:  523000001 cycles: 1263234481 heartbeat IPC: 0.47152 cumulative IPC: 0.35445 (Simulation time: 0 hr 24 min 20 sec) 
Heartbeat CPU  0 instructions:  524000000 cycles: 1265222330 heartbeat IPC: 0.50306 cumulative IPC: 0.35469 (Simulation time: 0 hr 24 min 23 sec) 
Heartbeat CPU  0 instructions:  525000000 cycles: 1267308255 heartbeat IPC: 0.47940 cumulative IPC: 0.35491 (Simulation time: 0 hr 24 min 26 sec) 
Heartbeat CPU  0 instructions:  526000002 cycles: 1269422809 heartbeat IPC: 0.47291 cumulative IPC: 0.35512 (Simulation time: 0 hr 24 min 28 sec) 
Heartbeat CPU  0 instructions:  527000002 cycles: 1271424151 heartbeat IPC: 0.49966 cumulative IPC: 0.35536 (Simulation time: 0 hr 24 min 31 sec) 
Heartbeat CPU  0 instructions:  528000000 cycles: 1273408065 heartbeat IPC: 0.50405 cumulative IPC: 0.35560 (Simulation time: 0 hr 24 min 34 sec) 
Heartbeat CPU  0 instructions:  529000001 cycles: 1275507581 heartbeat IPC: 0.47630 cumulative IPC: 0.35581 (Simulation time: 0 hr 24 min 37 sec) 
Heartbeat CPU  0 instructions:  530000002 cycles: 1277591310 heartbeat IPC: 0.47991 cumulative IPC: 0.35603 (Simulation time: 0 hr 24 min 39 sec) 
Heartbeat CPU  0 instructions:  531000001 cycles: 1279551244 heartbeat IPC: 0.51022 cumulative IPC: 0.35628 (Simulation time: 0 hr 24 min 42 sec) 
Heartbeat CPU  0 instructions:  532000000 cycles: 1281633075 heartbeat IPC: 0.48035 cumulative IPC: 0.35649 (Simulation time: 0 hr 24 min 45 sec) 
Heartbeat CPU  0 instructions:  533000002 cycles: 1283730593 heartbeat IPC: 0.47675 cumulative IPC: 0.35670 (Simulation time: 0 hr 24 min 48 sec) 
Heartbeat CPU  0 instructions:  534000003 cycles: 1294157197 heartbeat IPC: 0.09591 cumulative IPC: 0.35448 (Simulation time: 0 hr 24 min 52 sec) 
Heartbeat CPU  0 instructions:  535000001 cycles: 1303886050 heartbeat IPC: 0.10279 cumulative IPC: 0.35249 (Simulation time: 0 hr 24 min 56 sec) 
Heartbeat CPU  0 instructions:  536000000 cycles: 1306272331 heartbeat IPC: 0.41906 cumulative IPC: 0.35262 (Simulation time: 0 hr 24 min 59 sec) 
Heartbeat CPU  0 instructions:  537000000 cycles: 1308450875 heartbeat IPC: 0.45902 cumulative IPC: 0.35281 (Simulation time: 0 hr 25 min 1 sec) 
Heartbeat CPU  0 instructions:  538000003 cycles: 1310619789 heartbeat IPC: 0.46106 cumulative IPC: 0.35300 (Simulation time: 0 hr 25 min 4 sec) 
Heartbeat CPU  0 instructions:  539000000 cycles: 1312842614 heartbeat IPC: 0.44988 cumulative IPC: 0.35317 (Simulation time: 0 hr 25 min 7 sec) 
Heartbeat CPU  0 instructions:  540000000 cycles: 1315031181 heartbeat IPC: 0.45692 cumulative IPC: 0.35335 (Simulation time: 0 hr 25 min 10 sec) 
Heartbeat CPU  0 instructions:  541000000 cycles: 1317035910 heartbeat IPC: 0.49882 cumulative IPC: 0.35359 (Simulation time: 0 hr 25 min 13 sec) 
Heartbeat CPU  0 instructions:  542000000 cycles: 1319184443 heartbeat IPC: 0.46543 cumulative IPC: 0.35378 (Simulation time: 0 hr 25 min 16 sec) 
Heartbeat CPU  0 instructions:  543000002 cycles: 1321341964 heartbeat IPC: 0.46350 cumulative IPC: 0.35397 (Simulation time: 0 hr 25 min 18 sec) 
Heartbeat CPU  0 instructions:  544000000 cycles: 1323312745 heartbeat IPC: 0.50741 cumulative IPC: 0.35421 (Simulation time: 0 hr 25 min 21 sec) 
Heartbeat CPU  0 instructions:  545000001 cycles: 1325371535 heartbeat IPC: 0.48572 cumulative IPC: 0.35443 (Simulation time: 0 hr 25 min 24 sec) 
Heartbeat CPU  0 instructions:  546000001 cycles: 1327502038 heartbeat IPC: 0.46937 cumulative IPC: 0.35462 (Simulation time: 0 hr 25 min 27 sec) 
Heartbeat CPU  0 instructions:  547000000 cycles: 1329562008 heartbeat IPC: 0.48544 cumulative IPC: 0.35484 (Simulation time: 0 hr 25 min 29 sec) 
Heartbeat CPU  0 instructions:  548000000 cycles: 1331573866 heartbeat IPC: 0.49705 cumulative IPC: 0.35506 (Simulation time: 0 hr 25 min 32 sec) 
Heartbeat CPU  0 instructions:  549000001 cycles: 1333664650 heartbeat IPC: 0.47829 cumulative IPC: 0.35527 (Simulation time: 0 hr 25 min 35 sec) 
Heartbeat CPU  0 instructions:  550000000 cycles: 1335743280 heartbeat IPC: 0.48109 cumulative IPC: 0.35547 (Simulation time: 0 hr 25 min 38 sec) 
Heartbeat CPU  0 instructions:  551000001 cycles: 1337696946 heartbeat IPC: 0.51186 cumulative IPC: 0.35571 (Simulation time: 0 hr 25 min 41 sec) 
Heartbeat CPU  0 instructions:  552000000 cycles: 1339787554 heartbeat IPC: 0.47833 cumulative IPC: 0.35592 (Simulation time: 0 hr 25 min 43 sec) 
Heartbeat CPU  0 instructions:  553000002 cycles: 1341889605 heartbeat IPC: 0.47573 cumulative IPC: 0.35611 (Simulation time: 0 hr 25 min 46 sec) 
Heartbeat CPU  0 instructions:  554000002 cycles: 1343875945 heartbeat IPC: 0.50344 cumulative IPC: 0.35634 (Simulation time: 0 hr 25 min 49 sec) 
Heartbeat CPU  0 instructions:  555000003 cycles: 1345915122 heartbeat IPC: 0.49039 cumulative IPC: 0.35656 (Simulation time: 0 hr 25 min 52 sec) 
Heartbeat CPU  0 instructions:  556000000 cycles: 1350269960 heartbeat IPC: 0.22963 cumulative IPC: 0.35613 (Simulation time: 0 hr 25 min 55 sec) 
Heartbeat CPU  0 instructions:  557000002 cycles: 1366166067 heartbeat IPC: 0.06291 cumulative IPC: 0.35253 (Simulation time: 0 hr 26 min 0 sec) 
Heartbeat CPU  0 instructions:  558000003 cycles: 1368400479 heartbeat IPC: 0.44755 cumulative IPC: 0.35269 (Simulation time: 0 hr 26 min 3 sec) 
Heartbeat CPU  0 instructions:  559000000 cycles: 1370699412 heartbeat IPC: 0.43498 cumulative IPC: 0.35284 (Simulation time: 0 hr 26 min 6 sec) 
Heartbeat CPU  0 instructions:  560000000 cycles: 1372932629 heartbeat IPC: 0.44778 cumulative IPC: 0.35300 (Simulation time: 0 hr 26 min 9 sec) 
Heartbeat CPU  0 instructions:  561000002 cycles: 1375009842 heartbeat IPC: 0.48142 cumulative IPC: 0.35321 (Simulation time: 0 hr 26 min 12 sec) 
Heartbeat CPU  0 instructions:  562000002 cycles: 1377218137 heartbeat IPC: 0.45284 cumulative IPC: 0.35337 (Simulation time: 0 hr 26 min 14 sec) 
Heartbeat CPU  0 instructions:  563000001 cycles: 1379384428 heartbeat IPC: 0.46162 cumulative IPC: 0.35355 (Simulation time: 0 hr 26 min 17 sec) 
Heartbeat CPU  0 instructions:  564000000 cycles: 1381411212 heartbeat IPC: 0.49339 cumulative IPC: 0.35377 (Simulation time: 0 hr 26 min 20 sec) 
Heartbeat CPU  0 instructions:  565000003 cycles: 1383513679 heartbeat IPC: 0.47563 cumulative IPC: 0.35396 (Simulation time: 0 hr 26 min 23 sec) 
Heartbeat CPU  0 instructions:  566000000 cycles: 1385643754 heartbeat IPC: 0.46947 cumulative IPC: 0.35415 (Simulation time: 0 hr 26 min 26 sec) 
Heartbeat CPU  0 instructions:  567000003 cycles: 1387688332 heartbeat IPC: 0.48910 cumulative IPC: 0.35436 (Simulation time: 0 hr 26 min 28 sec) 
Heartbeat CPU  0 instructions:  568000000 cycles: 1389694276 heartbeat IPC: 0.49852 cumulative IPC: 0.35458 (Simulation time: 0 hr 26 min 31 sec) 
Heartbeat CPU  0 instructions:  569000000 cycles: 1391834660 heartbeat IPC: 0.46721 cumulative IPC: 0.35476 (Simulation time: 0 hr 26 min 34 sec) 
Heartbeat CPU  0 instructions:  570000002 cycles: 1393942861 heartbeat IPC: 0.47434 cumulative IPC: 0.35495 (Simulation time: 0 hr 26 min 37 sec) 
Heartbeat CPU  0 instructions:  571000000 cycles: 1395894971 heartbeat IPC: 0.51227 cumulative IPC: 0.35518 (Simulation time: 0 hr 26 min 39 sec) 
Heartbeat CPU  0 instructions:  572000000 cycles: 1397964070 heartbeat IPC: 0.48330 cumulative IPC: 0.35538 (Simulation time: 0 hr 26 min 42 sec) 
Heartbeat CPU  0 instructions:  573000002 cycles: 1400069085 heartbeat IPC: 0.47506 cumulative IPC: 0.35557 (Simulation time: 0 hr 26 min 45 sec) 
Heartbeat CPU  0 instructions:  574000001 cycles: 1402059873 heartbeat IPC: 0.50231 cumulative IPC: 0.35579 (Simulation time: 0 hr 26 min 48 sec) 
Heartbeat CPU  0 instructions:  575000003 cycles: 1404091280 heartbeat IPC: 0.49227 cumulative IPC: 0.35600 (Simulation time: 0 hr 26 min 51 sec) 
Heartbeat CPU  0 instructions:  576000000 cycles: 1406205613 heartbeat IPC: 0.47296 cumulative IPC: 0.35619 (Simulation time: 0 hr 26 min 53 sec) 
Heartbeat CPU  0 instructions:  577000002 cycles: 1408275047 heartbeat IPC: 0.48322 cumulative IPC: 0.35638 (Simulation time: 0 hr 26 min 56 sec) 
Heartbeat CPU  0 instructions:  578000002 cycles: 1410234195 heartbeat IPC: 0.51043 cumulative IPC: 0.35661 (Simulation time: 0 hr 26 min 59 sec) 
Heartbeat CPU  0 instructions:  579000003 cycles: 1422779191 heartbeat IPC: 0.07971 cumulative IPC: 0.35404 (Simulation time: 0 hr 27 min 3 sec) 
Heartbeat CPU  0 instructions:  580000000 cycles: 1430585600 heartbeat IPC: 0.12810 cumulative IPC: 0.35274 (Simulation time: 0 hr 27 min 7 sec) 
Heartbeat CPU  0 instructions:  581000003 cycles: 1432693729 heartbeat IPC: 0.47436 cumulative IPC: 0.35293 (Simulation time: 0 hr 27 min 10 sec) 
Heartbeat CPU  0 instructions:  582000001 cycles: 1434913775 heartbeat IPC: 0.45044 cumulative IPC: 0.35309 (Simulation time: 0 hr 27 min 12 sec) 
Heartbeat CPU  0 instructions:  583000002 cycles: 1437161273 heartbeat IPC: 0.44494 cumulative IPC: 0.35324 (Simulation time: 0 hr 27 min 15 sec) 
Heartbeat CPU  0 instructions:  584000000 cycles: 1439266035 heartbeat IPC: 0.47511 cumulative IPC: 0.35343 (Simulation time: 0 hr 27 min 18 sec) 
Heartbeat CPU  0 instructions:  585000003 cycles: 1441387711 heartbeat IPC: 0.47133 cumulative IPC: 0.35361 (Simulation time: 0 hr 27 min 21 sec) 
Heartbeat CPU  0 instructions:  586000003 cycles: 1443687058 heartbeat IPC: 0.43491 cumulative IPC: 0.35375 (Simulation time: 0 hr 27 min 24 sec) 
Heartbeat CPU  0 instructions:  587000001 cycles: 1445944517 heartbeat IPC: 0.44298 cumulative IPC: 0.35389 (Simulation time: 0 hr 27 min 27 sec) 
Heartbeat CPU  0 instructions:  588000000 cycles: 1447919585 heartbeat IPC: 0.50631 cumulative IPC: 0.35411 (Simulation time: 0 hr 27 min 29 sec) 
Heartbeat CPU  0 instructions:  589000000 cycles: 1450005224 heartbeat IPC: 0.47947 cumulative IPC: 0.35430 (Simulation time: 0 hr 27 min 32 sec) 
Heartbeat CPU  0 instructions:  590000001 cycles: 1452086806 heartbeat IPC: 0.48040 cumulative IPC: 0.35449 (Simulation time: 0 hr 27 min 35 sec) 
Heartbeat CPU  0 instructions:  591000000 cycles: 1454057327 heartbeat IPC: 0.50748 cumulative IPC: 0.35471 (Simulation time: 0 hr 27 min 38 sec) 
Heartbeat CPU  0 instructions:  592000000 cycles: 1456137751 heartbeat IPC: 0.48067 cumulative IPC: 0.35490 (Simulation time: 0 hr 27 min 41 sec) 
Heartbeat CPU  0 instructions:  593000002 cycles: 1458227833 heartbeat IPC: 0.47845 cumulative IPC: 0.35508 (Simulation time: 0 hr 27 min 43 sec) 
Heartbeat CPU  0 instructions:  594000002 cycles: 1460223633 heartbeat IPC: 0.50105 cumulative IPC: 0.35529 (Simulation time: 0 hr 27 min 46 sec) 
Heartbeat CPU  0 instructions:  595000001 cycles: 1462192982 heartbeat IPC: 0.50778 cumulative IPC: 0.35551 (Simulation time: 0 hr 27 min 49 sec) 
Heartbeat CPU  0 instructions:  596000000 cycles: 1464285132 heartbeat IPC: 0.47798 cumulative IPC: 0.35569 (Simulation time: 0 hr 27 min 52 sec) 
Heartbeat CPU  0 instructions:  597000003 cycles: 1466366737 heartbeat IPC: 0.48040 cumulative IPC: 0.35588 (Simulation time: 0 hr 27 min 54 sec) 
Heartbeat CPU  0 instructions:  598000000 cycles: 1468286356 heartbeat IPC: 0.52094 cumulative IPC: 0.35611 (Simulation time: 0 hr 27 min 57 sec) 
Heartbeat CPU  0 instructions:  599000000 cycles: 1470369686 heartbeat IPC: 0.48000 cumulative IPC: 0.35629 (Simulation time: 0 hr 28 min 0 sec) 
Heartbeat CPU  0 instructions:  600000000 cycles: 1472456324 heartbeat IPC: 0.47924 cumulative IPC: 0.35647 (Simulation time: 0 hr 28 min 3 sec) 
Finished CPU 0 instructions: 500000000 cycles: 1402632233 cumulative IPC: 0.35647 (Simulation time: 0 hr 28 min 3 sec) 

ChampSim completed all CPUs

[ROI Statistics]
Core_0_instructions 500000000
Core_0_cycles 1402632233
Core_0_IPC 0.35647

Core_0_branch_prediction_accuracy 99.17161
Core_0_branch_MPKI 0.01066
Core_0_average_ROB_occupancy_at_mispredict 253.69281

Core_0_L1D_total_access 254660354
Core_0_L1D_total_hit 250670392
Core_0_L1D_total_miss 3989962
Core_0_L1D_loads 171689616
Core_0_L1D_load_hit 168452192
Core_0_L1D_load_miss 3237424
Core_0_L1D_RFOs 82970738
Core_0_L1D_RFO_hit 82218200
Core_0_L1D_RFO_miss 752538
Core_0_L1D_prefetches 0
Core_0_L1D_prefetch_hit 0
Core_0_L1D_prefetch_miss 0
Core_0_L1D_writebacks 0
Core_0_L1D_writeback_hit 0
Core_0_L1D_writeback_miss 0
Core_0_L1D_prefetch_requested 0
Core_0_L1D_prefetch_dropped 0
Core_0_L1D_prefetch_issued 0
Core_0_L1D_prefetch_filled 0
Core_0_L1D_prefetch_useful 0
Core_0_L1D_prefetch_useless 0
Core_0_L1D_prefetch_late 0
Core_0_L1D_average_miss_latency 242.72294

Core_0_L1D_rq_access 255906725
Core_0_L1D_rq_forward 0
Core_0_L1D_rq_merged 83793869
Core_0_L1D_rq_to_cache 171722220
Core_0_L1D_rq_full 0

Core_0_L1D_wq_access 84479085
Core_0_L1D_wq_forward 390636
Core_0_L1D_wq_merged 1203513
Core_0_L1D_wq_to_cache 83275572
Core_0_L1D_wq_full 0

Core_0_L1D_pq_access 0
Core_0_L1D_pq_forward 0
Core_0_L1D_pq_merged 0
Core_0_L1D_pq_to_cache 0
Core_0_L1D_pq_full 0

Core_0_L1D_acc_epochs 809966
Core_0_L1D_acc_level_0 809966
Core_0_L1D_acc_level_1 0
Core_0_L1D_acc_level_2 0
Core_0_L1D_acc_level_3 0
Core_0_L1D_acc_level_4 0
Core_0_L1D_acc_level_5 0
Core_0_L1D_acc_level_6 0
Core_0_L1D_acc_level_7 0
Core_0_L1D_acc_level_8 0
Core_0_L1D_acc_level_9 0

Core_0_L1I_total_access 134369915
Core_0_L1I_total_hit 134369915
Core_0_L1I_total_miss 0
Core_0_L1I_loads 134369915
Core_0_L1I_load_hit 134369915
Core_0_L1I_load_miss 0
Core_0_L1I_RFOs 0
Core_0_L1I_RFO_hit 0
Core_0_L1I_RFO_miss 0
Core_0_L1I_prefetches 0
Core_0_L1I_prefetch_hit 0
Core_0_L1I_prefetch_miss 0
Core_0_L1I_writebacks 0
Core_0_L1I_writeback_hit 0
Core_0_L1I_writeback_miss 0
Core_0_L1I_prefetch_requested 0
Core_0_L1I_prefetch_dropped 0
Core_0_L1I_prefetch_issued 0
Core_0_L1I_prefetch_filled 0
Core_0_L1I_prefetch_useful 0
Core_0_L1I_prefetch_useless 0
Core_0_L1I_prefetch_late 0
Core_0_L1I_average_miss_latency -nan

Core_0_L1I_rq_access 500000000
Core_0_L1I_rq_forward 0
Core_0_L1I_rq_merged 365630085
Core_0_L1I_rq_to_cache 134369915
Core_0_L1I_rq_full 0

Core_0_L1I_wq_access 0
Core_0_L1I_wq_forward 0
Core_0_L1I_wq_merged 0
Core_0_L1I_wq_to_cache 0
Core_0_L1I_wq_full 0

Core_0_L1I_pq_access 0
Core_0_L1I_pq_forward 0
Core_0_L1I_pq_merged 0
Core_0_L1I_pq_to_cache 0
Core_0_L1I_pq_full 0

Core_0_L1I_acc_epochs 809966
Core_0_L1I_acc_level_0 809966
Core_0_L1I_acc_level_1 0
Core_0_L1I_acc_level_2 0
Core_0_L1I_acc_level_3 0
Core_0_L1I_acc_level_4 0
Core_0_L1I_acc_level_5 0
Core_0_L1I_acc_level_6 0
Core_0_L1I_acc_level_7 0
Core_0_L1I_acc_level_8 0
Core_0_L1I_acc_level_9 0

Core_0_L2C_total_access 4776302
Core_0_L2C_total_hit 2193331
Core_0_L2C_total_miss 2582971
Core_0_L2C_loads 3237422
Core_0_L2C_load_hit 1407766
Core_0_L2C_load_miss 1829656
Core_0_L2C_RFOs 752538
Core_0_L2C_RFO_hit 59
Core_0_L2C_RFO_miss 752479
Core_0_L2C_prefetches 0
Core_0_L2C_prefetch_hit 0
Core_0_L2C_prefetch_miss 0
Core_0_L2C_writebacks 786342
Core_0_L2C_writeback_hit 785506
Core_0_L2C_writeback_miss 836
Core_0_L2C_prefetch_requested 0
Core_0_L2C_prefetch_dropped 0
Core_0_L2C_prefetch_issued 0
Core_0_L2C_prefetch_filled 0
Core_0_L2C_prefetch_useful 0
Core_0_L2C_prefetch_useless 0
Core_0_L2C_prefetch_late 0
Core_0_L2C_average_miss_latency 324.72714

Core_0_L2C_rq_access 3989962
Core_0_L2C_rq_forward 0
Core_0_L2C_rq_merged 0
Core_0_L2C_rq_to_cache 3989960
Core_0_L2C_rq_full 0

Core_0_L2C_wq_access 786342
Core_0_L2C_wq_forward 2
Core_0_L2C_wq_merged 0
Core_0_L2C_wq_to_cache 786342
Core_0_L2C_wq_full 0

Core_0_L2C_pq_access 0
Core_0_L2C_pq_forward 0
Core_0_L2C_pq_merged 0
Core_0_L2C_pq_to_cache 0
Core_0_L2C_pq_full 0

Core_0_L2C_acc_epochs 809966
Core_0_L2C_acc_level_0 809966
Core_0_L2C_acc_level_1 0
Core_0_L2C_acc_level_2 0
Core_0_L2C_acc_level_3 0
Core_0_L2C_acc_level_4 0
Core_0_L2C_acc_level_5 0
Core_0_L2C_acc_level_6 0
Core_0_L2C_acc_level_7 0
Core_0_L2C_acc_level_8 0
Core_0_L2C_acc_level_9 0

Core_0_LLC_total_access 3335120
Core_0_LLC_total_hit 903995
Core_0_LLC_total_miss 2431125
Core_0_LLC_loads 1829656
Core_0_LLC_load_hit 505661
Core_0_LLC_load_miss 1323995
Core_0_LLC_RFOs 752479
Core_0_LLC_RFO_hit 148000
Core_0_LLC_RFO_miss 604479
Core_0_LLC_prefetches 0
Core_0_LLC_prefetch_hit 0
Core_0_LLC_prefetch_miss 0
Core_0_LLC_writebacks 752985
Core_0_LLC_writeback_hit 250334
Core_0_LLC_writeback_miss 502651
Core_0_LLC_prefetch_requested 0
Core_0_LLC_prefetch_dropped 0
Core_0_LLC_prefetch_issued 0
Core_0_LLC_prefetch_filled 0
Core_0_LLC_prefetch_useful 0
Core_0_LLC_prefetch_useless 0
Core_0_LLC_prefetch_late 0
Core_0_LLC_average_miss_latency 297.54097

Core_0_LLC_rq_access 2582135
Core_0_LLC_rq_forward 0
Core_0_LLC_rq_merged 0
Core_0_LLC_rq_to_cache 2582135
Core_0_LLC_rq_full 0

Core_0_LLC_wq_access 752985
Core_0_LLC_wq_forward 0
Core_0_LLC_wq_merged 0
Core_0_LLC_wq_to_cache 752985
Core_0_LLC_wq_full 0

Core_0_LLC_pq_access 0
Core_0_LLC_pq_forward 0
Core_0_LLC_pq_merged 0
Core_0_LLC_pq_to_cache 0
Core_0_LLC_pq_full 0

Core_0_LLC_acc_epochs 1437946
Core_0_LLC_acc_level_0 1437946
Core_0_LLC_acc_level_1 0
Core_0_LLC_acc_level_2 0
Core_0_LLC_acc_level_3 0
Core_0_LLC_acc_level_4 0
Core_0_LLC_acc_level_5 0
Core_0_LLC_acc_level_6 0
Core_0_LLC_acc_level_7 0
Core_0_LLC_acc_level_8 0
Core_0_LLC_acc_level_9 0

Core_0_major_page_fault 0
Core_0_minor_page_fault 23870

Channel_0_RQ_row_buffer_hit 451858
Channel_0_RQ_row_buffer_miss 1476616
Channel_0_WQ_row_buffer_hit 109951
Channel_0_WQ_row_buffer_miss 495358
Channel_0_WQ_full 0
Channel_0_dbus_congested 1615076

avg_congested_cycle 93

DRAM_bw_pochs 5751783
DRAM_bw_level_0 4470882
DRAM_bw_level_1 709227
DRAM_bw_level_2 0
DRAM_bw_level_3 571674
