*************************************************
   ChampSim Multicore Out-of-Order Simulator
   Last compiled: Dec 11 2024 17:59:53
*************************************************
parsing config file: /home/functionmain/桌面/Pythia/config/spp_dev2.ini

trace_0 /home/functionmain/桌面/Pythia/traces/436.cactusADM-1804B.champsimtrace.xz
adding L2C_PREFETCHER: SPP_dev2
Initialize SIGNATURE TABLE
ST_SET: 1
ST_WAY: 256
ST_TAG_BIT: 16
ST_TAG_MASK: ffff

Initialize PATTERN TABLE
PT_SET: 512
PT_WAY: 4
SIG_DELTA_BIT: 7
C_SIG_BIT: 4
C_DELTA_BIT: 4

Initialize PREFETCH FILTER
FILTER_SET: 1024
fill_threshold: 90
pf_threshold: 40

Initialize SHIP state
warmup_instructions 100000000
simulation_instructions 500000000
champsim_seed 271
measure_ipc 0
measure_ipc_epoch 1000
measure_dram_bw 1
measure_dram_bw_epoch 256
measure_cache_acc 1
measure_cache_acc_epoch 1024
l1d_perfect 0
l2c_perfect 0
llc_perfect 0
l1d_semi_perfect 0
l2c_semi_perfect 0
llc_semi_perfect 0
semi_perfect_cache_page_buffer_size 64

num_cpus 1
cpu_freq 4000
dram_io_freq 4800
page_size 4096
block_size 64
max_read_per_cycle 8
max_fill_per_cycle 1
dram_channels 1
log2_dram_channels 0
dram_ranks 1
dram_banks 8
dram_rows 65536
dram_columns 128
dram_row_size 8
dram_size 4096
dram_pages 1048576

fetch_width 6
decode_width 6
exec_width 4
lq_width 2
sq_width 2
retire_width 4
scheduler_size 128
branch_mispredict_penalty 20
rob_size 256
lq_size 72
sq_size 56
num_instr_destinations_sparc 4
num_instr_destinations 2
num_instr_sources 4

itlb_set 16
itlb_way 8
itlb_rq_size 16
itlb_wq_size 16
itlb_pq_size 0
itlb_mshr_size 8
itlb_latency 1

dtlb_set 16
dtlb_way 4
dtlb_rq_size 16
dtlb_wq_size 16
dtlb_pq_size 0
dtlb_mshr_size 8
dtlb_latency 1

stlb_set 128
stlb_way 12
stlb_rq_size 32
stlb_wq_size 32
stlb_pq_size 0
stlb_mshr_size 16
stlb_latency 8

l1i_size 32
l1i_set 64
l1i_way 8
l1i_rq_size 64
l1i_wq_size 64
l1i_pq_size 8
l1i_mshr_size 8
l1i_latency 1

l1d_size 32
l1d_set 64
l1d_way 8
l1d_rq_size 64
l1d_wq_size 64
l1d_pq_size 8
l1d_mshr_size 16
l1d_latency 4

l2c_size 256
l2c_set 512
l2c_way 8
l2c_rq_size 32
l2c_wq_size 32
l2c_pq_size 32
l2c_mshr_size 32
l2c_latency 10

llc_size 2048
llc_set 2048
llc_way 16
llc_rq_size 32
llc_wq_size 32
llc_pq_size 32
llc_mshr_size 64
llc_latency 20

dram_channel_width 8
dram_wq_size 64
dram_rq_size 64
tRP 15
tRCD 15
tCAS 12.5
dram_dbus_turn_around_time 30
dram_write_high_wm 56
dram_write_low_wm 48
min_dram_writes_per_switch 16
dram_mtps 4800
dram_dbus_return_time 6


Heartbeat CPU  0 instructions:    1000000 cycles:     702346 heartbeat IPC: 1.42380 cumulative IPC: 1.42380 (Simulation time: 0 hr 0 min 3 sec) 
Heartbeat CPU  0 instructions:    2000000 cycles:    1404560 heartbeat IPC: 1.42407 cumulative IPC: 1.42393 (Simulation time: 0 hr 0 min 5 sec) 
Heartbeat CPU  0 instructions:    3000000 cycles:    2106930 heartbeat IPC: 1.42375 cumulative IPC: 1.42387 (Simulation time: 0 hr 0 min 7 sec) 
Heartbeat CPU  0 instructions:    4000000 cycles:    2809292 heartbeat IPC: 1.42377 cumulative IPC: 1.42385 (Simulation time: 0 hr 0 min 9 sec) 
Heartbeat CPU  0 instructions:    5000000 cycles:    3511500 heartbeat IPC: 1.42408 cumulative IPC: 1.42389 (Simulation time: 0 hr 0 min 12 sec) 
Heartbeat CPU  0 instructions:    6000000 cycles:    4213918 heartbeat IPC: 1.42365 cumulative IPC: 1.42385 (Simulation time: 0 hr 0 min 14 sec) 
Heartbeat CPU  0 instructions:    7000001 cycles:    4916339 heartbeat IPC: 1.42365 cumulative IPC: 1.42382 (Simulation time: 0 hr 0 min 16 sec) 
Heartbeat CPU  0 instructions:    8000000 cycles:    5618454 heartbeat IPC: 1.42427 cumulative IPC: 1.42388 (Simulation time: 0 hr 0 min 19 sec) 
Heartbeat CPU  0 instructions:    9000001 cycles:    6320932 heartbeat IPC: 1.42353 cumulative IPC: 1.42384 (Simulation time: 0 hr 0 min 21 sec) 
Heartbeat CPU  0 instructions:   10000000 cycles:    7023154 heartbeat IPC: 1.42405 cumulative IPC: 1.42386 (Simulation time: 0 hr 0 min 23 sec) 
Heartbeat CPU  0 instructions:   11000002 cycles:    7725368 heartbeat IPC: 1.42407 cumulative IPC: 1.42388 (Simulation time: 0 hr 0 min 26 sec) 
Heartbeat CPU  0 instructions:   12000000 cycles:    8427564 heartbeat IPC: 1.42410 cumulative IPC: 1.42390 (Simulation time: 0 hr 0 min 28 sec) 
Heartbeat CPU  0 instructions:   13000000 cycles:    9130107 heartbeat IPC: 1.42340 cumulative IPC: 1.42386 (Simulation time: 0 hr 0 min 30 sec) 
Heartbeat CPU  0 instructions:   14000002 cycles:    9832352 heartbeat IPC: 1.42401 cumulative IPC: 1.42387 (Simulation time: 0 hr 0 min 33 sec) 
Heartbeat CPU  0 instructions:   15000002 cycles:   10534339 heartbeat IPC: 1.42453 cumulative IPC: 1.42391 (Simulation time: 0 hr 0 min 35 sec) 
Heartbeat CPU  0 instructions:   16000000 cycles:   11236902 heartbeat IPC: 1.42336 cumulative IPC: 1.42388 (Simulation time: 0 hr 0 min 37 sec) 
Heartbeat CPU  0 instructions:   17000000 cycles:   11939517 heartbeat IPC: 1.42325 cumulative IPC: 1.42384 (Simulation time: 0 hr 0 min 40 sec) 
Heartbeat CPU  0 instructions:   18000001 cycles:   12600735 heartbeat IPC: 1.51236 cumulative IPC: 1.42849 (Simulation time: 0 hr 0 min 42 sec) 
Heartbeat CPU  0 instructions:   19000000 cycles:   13236230 heartbeat IPC: 1.57357 cumulative IPC: 1.43545 (Simulation time: 0 hr 0 min 44 sec) 
Heartbeat CPU  0 instructions:   20000000 cycles:   13938792 heartbeat IPC: 1.42336 cumulative IPC: 1.43484 (Simulation time: 0 hr 0 min 47 sec) 
Heartbeat CPU  0 instructions:   21000000 cycles:   14641251 heartbeat IPC: 1.42357 cumulative IPC: 1.43430 (Simulation time: 0 hr 0 min 49 sec) 
Heartbeat CPU  0 instructions:   22000002 cycles:   15343530 heartbeat IPC: 1.42394 cumulative IPC: 1.43383 (Simulation time: 0 hr 0 min 51 sec) 
Heartbeat CPU  0 instructions:   23000001 cycles:   16045981 heartbeat IPC: 1.42359 cumulative IPC: 1.43338 (Simulation time: 0 hr 0 min 54 sec) 
Heartbeat CPU  0 instructions:   24000000 cycles:   16748131 heartbeat IPC: 1.42420 cumulative IPC: 1.43300 (Simulation time: 0 hr 0 min 56 sec) 
Heartbeat CPU  0 instructions:   25000001 cycles:   17450456 heartbeat IPC: 1.42384 cumulative IPC: 1.43263 (Simulation time: 0 hr 0 min 58 sec) 
Heartbeat CPU  0 instructions:   26000003 cycles:   18153109 heartbeat IPC: 1.42318 cumulative IPC: 1.43226 (Simulation time: 0 hr 1 min 1 sec) 
Heartbeat CPU  0 instructions:   27000003 cycles:   18855399 heartbeat IPC: 1.42391 cumulative IPC: 1.43195 (Simulation time: 0 hr 1 min 3 sec) 
Heartbeat CPU  0 instructions:   28000000 cycles:   19557596 heartbeat IPC: 1.42410 cumulative IPC: 1.43167 (Simulation time: 0 hr 1 min 5 sec) 
Heartbeat CPU  0 instructions:   29000000 cycles:   20260050 heartbeat IPC: 1.42358 cumulative IPC: 1.43139 (Simulation time: 0 hr 1 min 8 sec) 
Heartbeat CPU  0 instructions:   30000003 cycles:   20962466 heartbeat IPC: 1.42366 cumulative IPC: 1.43113 (Simulation time: 0 hr 1 min 10 sec) 
Heartbeat CPU  0 instructions:   31000003 cycles:   21664400 heartbeat IPC: 1.42464 cumulative IPC: 1.43092 (Simulation time: 0 hr 1 min 12 sec) 
Heartbeat CPU  0 instructions:   32000000 cycles:   22366507 heartbeat IPC: 1.42428 cumulative IPC: 1.43071 (Simulation time: 0 hr 1 min 15 sec) 
Heartbeat CPU  0 instructions:   33000001 cycles:   23069272 heartbeat IPC: 1.42295 cumulative IPC: 1.43047 (Simulation time: 0 hr 1 min 17 sec) 
Heartbeat CPU  0 instructions:   34000000 cycles:   23771441 heartbeat IPC: 1.42416 cumulative IPC: 1.43029 (Simulation time: 0 hr 1 min 19 sec) 
Heartbeat CPU  0 instructions:   35000001 cycles:   24473695 heartbeat IPC: 1.42399 cumulative IPC: 1.43011 (Simulation time: 0 hr 1 min 22 sec) 
Heartbeat CPU  0 instructions:   36000000 cycles:   25175917 heartbeat IPC: 1.42405 cumulative IPC: 1.42994 (Simulation time: 0 hr 1 min 24 sec) 
Heartbeat CPU  0 instructions:   37000000 cycles:   25878526 heartbeat IPC: 1.42327 cumulative IPC: 1.42976 (Simulation time: 0 hr 1 min 26 sec) 
Heartbeat CPU  0 instructions:   38000001 cycles:   26580767 heartbeat IPC: 1.42401 cumulative IPC: 1.42961 (Simulation time: 0 hr 1 min 29 sec) 
Heartbeat CPU  0 instructions:   39000000 cycles:   27283049 heartbeat IPC: 1.42393 cumulative IPC: 1.42946 (Simulation time: 0 hr 1 min 31 sec) 
Heartbeat CPU  0 instructions:   40000000 cycles:   27985330 heartbeat IPC: 1.42393 cumulative IPC: 1.42932 (Simulation time: 0 hr 1 min 33 sec) 
Heartbeat CPU  0 instructions:   41000000 cycles:   28590920 heartbeat IPC: 1.65128 cumulative IPC: 1.43402 (Simulation time: 0 hr 1 min 36 sec) 
Heartbeat CPU  0 instructions:   42000002 cycles:   29282348 heartbeat IPC: 1.44629 cumulative IPC: 1.43431 (Simulation time: 0 hr 1 min 38 sec) 
Heartbeat CPU  0 instructions:   43000002 cycles:   29984801 heartbeat IPC: 1.42358 cumulative IPC: 1.43406 (Simulation time: 0 hr 1 min 40 sec) 
Heartbeat CPU  0 instructions:   44000000 cycles:   30687294 heartbeat IPC: 1.42350 cumulative IPC: 1.43382 (Simulation time: 0 hr 1 min 43 sec) 
Heartbeat CPU  0 instructions:   45000003 cycles:   31389617 heartbeat IPC: 1.42385 cumulative IPC: 1.43360 (Simulation time: 0 hr 1 min 45 sec) 
Heartbeat CPU  0 instructions:   46000003 cycles:   32091871 heartbeat IPC: 1.42399 cumulative IPC: 1.43338 (Simulation time: 0 hr 1 min 47 sec) 
Heartbeat CPU  0 instructions:   47000000 cycles:   32794095 heartbeat IPC: 1.42404 cumulative IPC: 1.43318 (Simulation time: 0 hr 1 min 50 sec) 
Heartbeat CPU  0 instructions:   48000000 cycles:   33496795 heartbeat IPC: 1.42308 cumulative IPC: 1.43297 (Simulation time: 0 hr 1 min 52 sec) 
Heartbeat CPU  0 instructions:   49000000 cycles:   34198786 heartbeat IPC: 1.42452 cumulative IPC: 1.43280 (Simulation time: 0 hr 1 min 54 sec) 
Heartbeat CPU  0 instructions:   50000000 cycles:   34901146 heartbeat IPC: 1.42377 cumulative IPC: 1.43262 (Simulation time: 0 hr 1 min 57 sec) 
Heartbeat CPU  0 instructions:   51000000 cycles:   35603721 heartbeat IPC: 1.42334 cumulative IPC: 1.43243 (Simulation time: 0 hr 1 min 59 sec) 
Heartbeat CPU  0 instructions:   52000000 cycles:   36305844 heartbeat IPC: 1.42425 cumulative IPC: 1.43228 (Simulation time: 0 hr 2 min 1 sec) 
Heartbeat CPU  0 instructions:   53000000 cycles:   37008283 heartbeat IPC: 1.42361 cumulative IPC: 1.43211 (Simulation time: 0 hr 2 min 4 sec) 
Heartbeat CPU  0 instructions:   54000001 cycles:   37710446 heartbeat IPC: 1.42417 cumulative IPC: 1.43196 (Simulation time: 0 hr 2 min 6 sec) 
Heartbeat CPU  0 instructions:   55000001 cycles:   38412794 heartbeat IPC: 1.42380 cumulative IPC: 1.43181 (Simulation time: 0 hr 2 min 8 sec) 
Heartbeat CPU  0 instructions:   56000000 cycles:   39115282 heartbeat IPC: 1.42351 cumulative IPC: 1.43167 (Simulation time: 0 hr 2 min 11 sec) 
Heartbeat CPU  0 instructions:   57000000 cycles:   39817785 heartbeat IPC: 1.42348 cumulative IPC: 1.43152 (Simulation time: 0 hr 2 min 13 sec) 
Heartbeat CPU  0 instructions:   58000003 cycles:   40520110 heartbeat IPC: 1.42385 cumulative IPC: 1.43139 (Simulation time: 0 hr 2 min 15 sec) 
Heartbeat CPU  0 instructions:   59000000 cycles:   41222298 heartbeat IPC: 1.42412 cumulative IPC: 1.43126 (Simulation time: 0 hr 2 min 18 sec) 
Heartbeat CPU  0 instructions:   60000000 cycles:   41924790 heartbeat IPC: 1.42350 cumulative IPC: 1.43113 (Simulation time: 0 hr 2 min 20 sec) 
Heartbeat CPU  0 instructions:   61000000 cycles:   42627029 heartbeat IPC: 1.42402 cumulative IPC: 1.43102 (Simulation time: 0 hr 2 min 22 sec) 
Heartbeat CPU  0 instructions:   62000002 cycles:   43329251 heartbeat IPC: 1.42405 cumulative IPC: 1.43090 (Simulation time: 0 hr 2 min 25 sec) 
Heartbeat CPU  0 instructions:   63000000 cycles:   43976888 heartbeat IPC: 1.54407 cumulative IPC: 1.43257 (Simulation time: 0 hr 2 min 27 sec) 
Heartbeat CPU  0 instructions:   64000000 cycles:   44628313 heartbeat IPC: 1.53510 cumulative IPC: 1.43407 (Simulation time: 0 hr 2 min 29 sec) 
Heartbeat CPU  0 instructions:   65000000 cycles:   45330465 heartbeat IPC: 1.42419 cumulative IPC: 1.43391 (Simulation time: 0 hr 2 min 32 sec) 
Heartbeat CPU  0 instructions:   66000001 cycles:   46032560 heartbeat IPC: 1.42431 cumulative IPC: 1.43377 (Simulation time: 0 hr 2 min 34 sec) 
Heartbeat CPU  0 instructions:   67000002 cycles:   46734703 heartbeat IPC: 1.42421 cumulative IPC: 1.43362 (Simulation time: 0 hr 2 min 36 sec) 
Heartbeat CPU  0 instructions:   68000000 cycles:   47437145 heartbeat IPC: 1.42360 cumulative IPC: 1.43348 (Simulation time: 0 hr 2 min 39 sec) 
Heartbeat CPU  0 instructions:   69000000 cycles:   48139326 heartbeat IPC: 1.42413 cumulative IPC: 1.43334 (Simulation time: 0 hr 2 min 41 sec) 
Heartbeat CPU  0 instructions:   70000002 cycles:   48841469 heartbeat IPC: 1.42421 cumulative IPC: 1.43321 (Simulation time: 0 hr 2 min 43 sec) 
Heartbeat CPU  0 instructions:   71000003 cycles:   49544108 heartbeat IPC: 1.42321 cumulative IPC: 1.43307 (Simulation time: 0 hr 2 min 46 sec) 
Heartbeat CPU  0 instructions:   72000000 cycles:   50246206 heartbeat IPC: 1.42430 cumulative IPC: 1.43294 (Simulation time: 0 hr 2 min 48 sec) 
Heartbeat CPU  0 instructions:   73000001 cycles:   50948316 heartbeat IPC: 1.42428 cumulative IPC: 1.43282 (Simulation time: 0 hr 2 min 50 sec) 
Heartbeat CPU  0 instructions:   74000003 cycles:   51650697 heartbeat IPC: 1.42373 cumulative IPC: 1.43270 (Simulation time: 0 hr 2 min 53 sec) 
Heartbeat CPU  0 instructions:   75000002 cycles:   52353405 heartbeat IPC: 1.42306 cumulative IPC: 1.43257 (Simulation time: 0 hr 2 min 55 sec) 
Heartbeat CPU  0 instructions:   76000000 cycles:   53055654 heartbeat IPC: 1.42399 cumulative IPC: 1.43246 (Simulation time: 0 hr 2 min 57 sec) 
Heartbeat CPU  0 instructions:   77000003 cycles:   53758301 heartbeat IPC: 1.42319 cumulative IPC: 1.43234 (Simulation time: 0 hr 3 min 0 sec) 
Heartbeat CPU  0 instructions:   78000001 cycles:   54460826 heartbeat IPC: 1.42343 cumulative IPC: 1.43222 (Simulation time: 0 hr 3 min 2 sec) 
Heartbeat CPU  0 instructions:   79000001 cycles:   55162785 heartbeat IPC: 1.42458 cumulative IPC: 1.43212 (Simulation time: 0 hr 3 min 4 sec) 
Heartbeat CPU  0 instructions:   80000000 cycles:   55864832 heartbeat IPC: 1.42440 cumulative IPC: 1.43203 (Simulation time: 0 hr 3 min 7 sec) 
Heartbeat CPU  0 instructions:   81000002 cycles:   56567213 heartbeat IPC: 1.42373 cumulative IPC: 1.43192 (Simulation time: 0 hr 3 min 9 sec) 
Heartbeat CPU  0 instructions:   82000003 cycles:   57269448 heartbeat IPC: 1.42403 cumulative IPC: 1.43183 (Simulation time: 0 hr 3 min 11 sec) 
Heartbeat CPU  0 instructions:   83000001 cycles:   57971703 heartbeat IPC: 1.42398 cumulative IPC: 1.43173 (Simulation time: 0 hr 3 min 14 sec) 
Heartbeat CPU  0 instructions:   84000000 cycles:   58673976 heartbeat IPC: 1.42395 cumulative IPC: 1.43164 (Simulation time: 0 hr 3 min 16 sec) 
Heartbeat CPU  0 instructions:   85000000 cycles:   59362737 heartbeat IPC: 1.45188 cumulative IPC: 1.43187 (Simulation time: 0 hr 3 min 18 sec) 
Heartbeat CPU  0 instructions:   86000002 cycles:   59972379 heartbeat IPC: 1.64031 cumulative IPC: 1.43399 (Simulation time: 0 hr 3 min 21 sec) 
Heartbeat CPU  0 instructions:   87000002 cycles:   60674837 heartbeat IPC: 1.42357 cumulative IPC: 1.43387 (Simulation time: 0 hr 3 min 23 sec) 
Heartbeat CPU  0 instructions:   88000000 cycles:   61377487 heartbeat IPC: 1.42318 cumulative IPC: 1.43375 (Simulation time: 0 hr 3 min 26 sec) 
Heartbeat CPU  0 instructions:   89000001 cycles:   62079522 heartbeat IPC: 1.42443 cumulative IPC: 1.43365 (Simulation time: 0 hr 3 min 28 sec) 
Heartbeat CPU  0 instructions:   90000003 cycles:   62781901 heartbeat IPC: 1.42374 cumulative IPC: 1.43353 (Simulation time: 0 hr 3 min 30 sec) 
Heartbeat CPU  0 instructions:   91000003 cycles:   63484341 heartbeat IPC: 1.42361 cumulative IPC: 1.43342 (Simulation time: 0 hr 3 min 33 sec) 
Heartbeat CPU  0 instructions:   92000000 cycles:   64186575 heartbeat IPC: 1.42402 cumulative IPC: 1.43332 (Simulation time: 0 hr 3 min 35 sec) 
Heartbeat CPU  0 instructions:   93000002 cycles:   64888991 heartbeat IPC: 1.42366 cumulative IPC: 1.43322 (Simulation time: 0 hr 3 min 37 sec) 
Heartbeat CPU  0 instructions:   94000002 cycles:   65591009 heartbeat IPC: 1.42446 cumulative IPC: 1.43312 (Simulation time: 0 hr 3 min 40 sec) 
Heartbeat CPU  0 instructions:   95000003 cycles:   66293225 heartbeat IPC: 1.42406 cumulative IPC: 1.43303 (Simulation time: 0 hr 3 min 42 sec) 
Heartbeat CPU  0 instructions:   96000000 cycles:   66995564 heartbeat IPC: 1.42381 cumulative IPC: 1.43293 (Simulation time: 0 hr 3 min 44 sec) 
Heartbeat CPU  0 instructions:   97000000 cycles:   67697961 heartbeat IPC: 1.42370 cumulative IPC: 1.43283 (Simulation time: 0 hr 3 min 47 sec) 
Heartbeat CPU  0 instructions:   98000002 cycles:   68400208 heartbeat IPC: 1.42400 cumulative IPC: 1.43274 (Simulation time: 0 hr 3 min 49 sec) 
Heartbeat CPU  0 instructions:   99000003 cycles:   69102450 heartbeat IPC: 1.42401 cumulative IPC: 1.43266 (Simulation time: 0 hr 3 min 51 sec) 
Heartbeat CPU  0 instructions:  100000000 cycles:   69804809 heartbeat IPC: 1.42377 cumulative IPC: 1.43257 (Simulation time: 0 hr 3 min 54 sec) 

Warmup complete CPU  0 instructions:  100000001 cycles:   69804829 (Simulation time: 0 hr 3 min 54 sec) 

Heartbeat CPU  0 instructions:  101000000 cycles:   71758379 heartbeat IPC: 0.51188 cumulative IPC: 0.51189 (Simulation time: 0 hr 3 min 56 sec) 
Heartbeat CPU  0 instructions:  102000003 cycles:   73548424 heartbeat IPC: 0.55865 cumulative IPC: 0.53425 (Simulation time: 0 hr 3 min 59 sec) 
Heartbeat CPU  0 instructions:  103000003 cycles:   75446023 heartbeat IPC: 0.52698 cumulative IPC: 0.53180 (Simulation time: 0 hr 4 min 2 sec) 
Heartbeat CPU  0 instructions:  104000000 cycles:   77387018 heartbeat IPC: 0.51520 cumulative IPC: 0.52755 (Simulation time: 0 hr 4 min 4 sec) 
Heartbeat CPU  0 instructions:  105000002 cycles:   79255015 heartbeat IPC: 0.53533 cumulative IPC: 0.52909 (Simulation time: 0 hr 4 min 7 sec) 
Heartbeat CPU  0 instructions:  106000000 cycles:   81076357 heartbeat IPC: 0.54904 cumulative IPC: 0.53231 (Simulation time: 0 hr 4 min 10 sec) 
Heartbeat CPU  0 instructions:  107000003 cycles:   83014029 heartbeat IPC: 0.51608 cumulative IPC: 0.52993 (Simulation time: 0 hr 4 min 13 sec) 
Heartbeat CPU  0 instructions:  108000000 cycles:   93823078 heartbeat IPC: 0.09251 cumulative IPC: 0.33308 (Simulation time: 0 hr 4 min 16 sec) 
Heartbeat CPU  0 instructions:  109000003 cycles:  100655743 heartbeat IPC: 0.14636 cumulative IPC: 0.29173 (Simulation time: 0 hr 4 min 19 sec) 
Heartbeat CPU  0 instructions:  110000001 cycles:  102592283 heartbeat IPC: 0.51638 cumulative IPC: 0.30499 (Simulation time: 0 hr 4 min 22 sec) 
Heartbeat CPU  0 instructions:  111000000 cycles:  104534315 heartbeat IPC: 0.51492 cumulative IPC: 0.31673 (Simulation time: 0 hr 4 min 25 sec) 
Heartbeat CPU  0 instructions:  112000000 cycles:  106331871 heartbeat IPC: 0.55631 cumulative IPC: 0.32852 (Simulation time: 0 hr 4 min 27 sec) 
Heartbeat CPU  0 instructions:  113000000 cycles:  108229742 heartbeat IPC: 0.52691 cumulative IPC: 0.33832 (Simulation time: 0 hr 4 min 30 sec) 
Heartbeat CPU  0 instructions:  114000000 cycles:  110186678 heartbeat IPC: 0.51100 cumulative IPC: 0.34669 (Simulation time: 0 hr 4 min 33 sec) 
Heartbeat CPU  0 instructions:  115000001 cycles:  112050506 heartbeat IPC: 0.53653 cumulative IPC: 0.35507 (Simulation time: 0 hr 4 min 36 sec) 
Heartbeat CPU  0 instructions:  116000000 cycles:  113876343 heartbeat IPC: 0.54769 cumulative IPC: 0.36305 (Simulation time: 0 hr 4 min 38 sec) 
Heartbeat CPU  0 instructions:  117000003 cycles:  115823562 heartbeat IPC: 0.51355 cumulative IPC: 0.36941 (Simulation time: 0 hr 4 min 41 sec) 
Heartbeat CPU  0 instructions:  118000002 cycles:  117752414 heartbeat IPC: 0.51844 cumulative IPC: 0.37541 (Simulation time: 0 hr 4 min 44 sec) 
Heartbeat CPU  0 instructions:  119000002 cycles:  119524892 heartbeat IPC: 0.56418 cumulative IPC: 0.38214 (Simulation time: 0 hr 4 min 46 sec) 
Heartbeat CPU  0 instructions:  120000000 cycles:  121458627 heartbeat IPC: 0.51713 cumulative IPC: 0.38719 (Simulation time: 0 hr 4 min 49 sec) 
Heartbeat CPU  0 instructions:  121000003 cycles:  123400141 heartbeat IPC: 0.51506 cumulative IPC: 0.39183 (Simulation time: 0 hr 4 min 52 sec) 
Heartbeat CPU  0 instructions:  122000000 cycles:  125205797 heartbeat IPC: 0.55381 cumulative IPC: 0.39710 (Simulation time: 0 hr 4 min 55 sec) 
Heartbeat CPU  0 instructions:  123000002 cycles:  127087370 heartbeat IPC: 0.53147 cumulative IPC: 0.40152 (Simulation time: 0 hr 4 min 57 sec) 
Heartbeat CPU  0 instructions:  124000000 cycles:  129032315 heartbeat IPC: 0.51415 cumulative IPC: 0.40522 (Simulation time: 0 hr 5 min 0 sec) 
Heartbeat CPU  0 instructions:  125000000 cycles:  130915791 heartbeat IPC: 0.53093 cumulative IPC: 0.40909 (Simulation time: 0 hr 5 min 3 sec) 
Heartbeat CPU  0 instructions:  126000002 cycles:  132737218 heartbeat IPC: 0.54902 cumulative IPC: 0.41314 (Simulation time: 0 hr 5 min 6 sec) 
Heartbeat CPU  0 instructions:  127000002 cycles:  134799606 heartbeat IPC: 0.48487 cumulative IPC: 0.41542 (Simulation time: 0 hr 5 min 8 sec) 
Heartbeat CPU  0 instructions:  128000000 cycles:  136732731 heartbeat IPC: 0.51730 cumulative IPC: 0.41836 (Simulation time: 0 hr 5 min 11 sec) 
Heartbeat CPU  0 instructions:  129000001 cycles:  138500330 heartbeat IPC: 0.56574 cumulative IPC: 0.42215 (Simulation time: 0 hr 5 min 14 sec) 
Heartbeat CPU  0 instructions:  130000000 cycles:  144061599 heartbeat IPC: 0.17981 cumulative IPC: 0.40400 (Simulation time: 0 hr 5 min 17 sec) 
Heartbeat CPU  0 instructions:  131000003 cycles:  156258421 heartbeat IPC: 0.08199 cumulative IPC: 0.35857 (Simulation time: 0 hr 5 min 20 sec) 
Heartbeat CPU  0 instructions:  132000000 cycles:  158072806 heartbeat IPC: 0.55115 cumulative IPC: 0.36253 (Simulation time: 0 hr 5 min 23 sec) 
Heartbeat CPU  0 instructions:  133000000 cycles:  159954529 heartbeat IPC: 0.53143 cumulative IPC: 0.36606 (Simulation time: 0 hr 5 min 26 sec) 
Heartbeat CPU  0 instructions:  134000000 cycles:  161901038 heartbeat IPC: 0.51374 cumulative IPC: 0.36918 (Simulation time: 0 hr 5 min 28 sec) 
Heartbeat CPU  0 instructions:  135000000 cycles:  163784205 heartbeat IPC: 0.53102 cumulative IPC: 0.37242 (Simulation time: 0 hr 5 min 31 sec) 
Heartbeat CPU  0 instructions:  136000000 cycles:  165593289 heartbeat IPC: 0.55277 cumulative IPC: 0.37583 (Simulation time: 0 hr 5 min 34 sec) 
Heartbeat CPU  0 instructions:  137000002 cycles:  167541633 heartbeat IPC: 0.51326 cumulative IPC: 0.37857 (Simulation time: 0 hr 5 min 37 sec) 
Heartbeat CPU  0 instructions:  138000000 cycles:  169478865 heartbeat IPC: 0.51620 cumulative IPC: 0.38124 (Simulation time: 0 hr 5 min 39 sec) 
Heartbeat CPU  0 instructions:  139000001 cycles:  171248486 heartbeat IPC: 0.56509 cumulative IPC: 0.38445 (Simulation time: 0 hr 5 min 42 sec) 
Heartbeat CPU  0 instructions:  140000000 cycles:  173185053 heartbeat IPC: 0.51638 cumulative IPC: 0.38692 (Simulation time: 0 hr 5 min 45 sec) 
Heartbeat CPU  0 instructions:  141000000 cycles:  175133560 heartbeat IPC: 0.51321 cumulative IPC: 0.38926 (Simulation time: 0 hr 5 min 48 sec) 
Heartbeat CPU  0 instructions:  142000001 cycles:  176954493 heartbeat IPC: 0.54917 cumulative IPC: 0.39198 (Simulation time: 0 hr 5 min 50 sec) 
Heartbeat CPU  0 instructions:  143000001 cycles:  178821143 heartbeat IPC: 0.53572 cumulative IPC: 0.39444 (Simulation time: 0 hr 5 min 53 sec) 
Heartbeat CPU  0 instructions:  144000000 cycles:  180773346 heartbeat IPC: 0.51224 cumulative IPC: 0.39651 (Simulation time: 0 hr 5 min 56 sec) 
Heartbeat CPU  0 instructions:  145000000 cycles:  182671832 heartbeat IPC: 0.52674 cumulative IPC: 0.39870 (Simulation time: 0 hr 5 min 58 sec) 
Heartbeat CPU  0 instructions:  146000002 cycles:  184464859 heartbeat IPC: 0.55772 cumulative IPC: 0.40119 (Simulation time: 0 hr 6 min 1 sec) 
Heartbeat CPU  0 instructions:  147000003 cycles:  186410050 heartbeat IPC: 0.51409 cumulative IPC: 0.40307 (Simulation time: 0 hr 6 min 4 sec) 
Heartbeat CPU  0 instructions:  148000000 cycles:  188346088 heartbeat IPC: 0.51652 cumulative IPC: 0.40492 (Simulation time: 0 hr 6 min 7 sec) 
Heartbeat CPU  0 instructions:  149000002 cycles:  190123373 heartbeat IPC: 0.56266 cumulative IPC: 0.40725 (Simulation time: 0 hr 6 min 9 sec) 
Heartbeat CPU  0 instructions:  150000003 cycles:  192045652 heartbeat IPC: 0.52022 cumulative IPC: 0.40903 (Simulation time: 0 hr 6 min 12 sec) 
Heartbeat CPU  0 instructions:  151000003 cycles:  193987642 heartbeat IPC: 0.51494 cumulative IPC: 0.41068 (Simulation time: 0 hr 6 min 15 sec) 
Heartbeat CPU  0 instructions:  152000000 cycles:  195842311 heartbeat IPC: 0.53918 cumulative IPC: 0.41258 (Simulation time: 0 hr 6 min 17 sec) 
Heartbeat CPU  0 instructions:  153000003 cycles:  208746709 heartbeat IPC: 0.07749 cumulative IPC: 0.38145 (Simulation time: 0 hr 6 min 21 sec) 
Heartbeat CPU  0 instructions:  154000000 cycles:  213753639 heartbeat IPC: 0.19972 cumulative IPC: 0.37513 (Simulation time: 0 hr 6 min 24 sec) 
Heartbeat CPU  0 instructions:  155000000 cycles:  215653518 heartbeat IPC: 0.52635 cumulative IPC: 0.37710 (Simulation time: 0 hr 6 min 27 sec) 
Heartbeat CPU  0 instructions:  156000000 cycles:  217446979 heartbeat IPC: 0.55758 cumulative IPC: 0.37930 (Simulation time: 0 hr 6 min 30 sec) 
Heartbeat CPU  0 instructions:  157000001 cycles:  219390546 heartbeat IPC: 0.51452 cumulative IPC: 0.38105 (Simulation time: 0 hr 6 min 32 sec) 
Heartbeat CPU  0 instructions:  158000001 cycles:  221332575 heartbeat IPC: 0.51493 cumulative IPC: 0.38277 (Simulation time: 0 hr 6 min 35 sec) 
Heartbeat CPU  0 instructions:  159000000 cycles:  223105170 heartbeat IPC: 0.56414 cumulative IPC: 0.38487 (Simulation time: 0 hr 6 min 38 sec) 
Heartbeat CPU  0 instructions:  160000000 cycles:  225028772 heartbeat IPC: 0.51986 cumulative IPC: 0.38654 (Simulation time: 0 hr 6 min 40 sec) 
Heartbeat CPU  0 instructions:  161000003 cycles:  226977631 heartbeat IPC: 0.51312 cumulative IPC: 0.38811 (Simulation time: 0 hr 6 min 43 sec) 
Heartbeat CPU  0 instructions:  162000000 cycles:  228815949 heartbeat IPC: 0.54397 cumulative IPC: 0.38991 (Simulation time: 0 hr 6 min 46 sec) 
Heartbeat CPU  0 instructions:  163000003 cycles:  230662991 heartbeat IPC: 0.54141 cumulative IPC: 0.39165 (Simulation time: 0 hr 6 min 49 sec) 
Heartbeat CPU  0 instructions:  164000000 cycles:  232608572 heartbeat IPC: 0.51398 cumulative IPC: 0.39311 (Simulation time: 0 hr 6 min 51 sec) 
Heartbeat CPU  0 instructions:  165000000 cycles:  234532525 heartbeat IPC: 0.51976 cumulative IPC: 0.39459 (Simulation time: 0 hr 6 min 54 sec) 
Heartbeat CPU  0 instructions:  166000001 cycles:  236304284 heartbeat IPC: 0.56441 cumulative IPC: 0.39640 (Simulation time: 0 hr 6 min 57 sec) 
Heartbeat CPU  0 instructions:  167000000 cycles:  238242803 heartbeat IPC: 0.51586 cumulative IPC: 0.39777 (Simulation time: 0 hr 7 min 0 sec) 
Heartbeat CPU  0 instructions:  168000000 cycles:  240184936 heartbeat IPC: 0.51490 cumulative IPC: 0.39911 (Simulation time: 0 hr 7 min 2 sec) 
Heartbeat CPU  0 instructions:  169000001 cycles:  241969779 heartbeat IPC: 0.56027 cumulative IPC: 0.40078 (Simulation time: 0 hr 7 min 5 sec) 
Heartbeat CPU  0 instructions:  170000002 cycles:  243877012 heartbeat IPC: 0.52432 cumulative IPC: 0.40213 (Simulation time: 0 hr 7 min 8 sec) 
Heartbeat CPU  0 instructions:  171000001 cycles:  245827177 heartbeat IPC: 0.51278 cumulative IPC: 0.40336 (Simulation time: 0 hr 7 min 10 sec) 
Heartbeat CPU  0 instructions:  172000000 cycles:  247685364 heartbeat IPC: 0.53816 cumulative IPC: 0.40477 (Simulation time: 0 hr 7 min 13 sec) 
Heartbeat CPU  0 instructions:  173000000 cycles:  249517096 heartbeat IPC: 0.54593 cumulative IPC: 0.40620 (Simulation time: 0 hr 7 min 16 sec) 
Heartbeat CPU  0 instructions:  174000003 cycles:  251465170 heartbeat IPC: 0.51333 cumulative IPC: 0.40735 (Simulation time: 0 hr 7 min 19 sec) 
Heartbeat CPU  0 instructions:  175000000 cycles:  258702727 heartbeat IPC: 0.13817 cumulative IPC: 0.39704 (Simulation time: 0 hr 7 min 22 sec) 
Heartbeat CPU  0 instructions:  176000000 cycles:  269074888 heartbeat IPC: 0.09641 cumulative IPC: 0.38139 (Simulation time: 0 hr 7 min 25 sec) 
Heartbeat CPU  0 instructions:  177000001 cycles:  271088862 heartbeat IPC: 0.49653 cumulative IPC: 0.38254 (Simulation time: 0 hr 7 min 28 sec) 
Heartbeat CPU  0 instructions:  178000003 cycles:  273184175 heartbeat IPC: 0.47726 cumulative IPC: 0.38352 (Simulation time: 0 hr 7 min 31 sec) 
Heartbeat CPU  0 instructions:  179000002 cycles:  275138946 heartbeat IPC: 0.51157 cumulative IPC: 0.38474 (Simulation time: 0 hr 7 min 33 sec) 
Heartbeat CPU  0 instructions:  180000000 cycles:  277071303 heartbeat IPC: 0.51750 cumulative IPC: 0.38598 (Simulation time: 0 hr 7 min 36 sec) 
Heartbeat CPU  0 instructions:  181000003 cycles:  279032055 heartbeat IPC: 0.51001 cumulative IPC: 0.38714 (Simulation time: 0 hr 7 min 39 sec) 
Heartbeat CPU  0 instructions:  182000003 cycles:  280908202 heartbeat IPC: 0.53301 cumulative IPC: 0.38844 (Simulation time: 0 hr 7 min 42 sec) 
Heartbeat CPU  0 instructions:  183000000 cycles:  282770176 heartbeat IPC: 0.53706 cumulative IPC: 0.38973 (Simulation time: 0 hr 7 min 44 sec) 
Heartbeat CPU  0 instructions:  184000000 cycles:  284732066 heartbeat IPC: 0.50971 cumulative IPC: 0.39083 (Simulation time: 0 hr 7 min 47 sec) 
Heartbeat CPU  0 instructions:  185000002 cycles:  286680682 heartbeat IPC: 0.51319 cumulative IPC: 0.39193 (Simulation time: 0 hr 7 min 50 sec) 
Heartbeat CPU  0 instructions:  186000001 cycles:  288488409 heartbeat IPC: 0.55318 cumulative IPC: 0.39326 (Simulation time: 0 hr 7 min 52 sec) 
Heartbeat CPU  0 instructions:  187000000 cycles:  290434341 heartbeat IPC: 0.51389 cumulative IPC: 0.39433 (Simulation time: 0 hr 7 min 55 sec) 
Heartbeat CPU  0 instructions:  188000000 cycles:  292392286 heartbeat IPC: 0.51074 cumulative IPC: 0.39535 (Simulation time: 0 hr 7 min 58 sec) 
Heartbeat CPU  0 instructions:  189000000 cycles:  294213135 heartbeat IPC: 0.54919 cumulative IPC: 0.39660 (Simulation time: 0 hr 8 min 1 sec) 
Heartbeat CPU  0 instructions:  190000000 cycles:  296129598 heartbeat IPC: 0.52179 cumulative IPC: 0.39766 (Simulation time: 0 hr 8 min 3 sec) 
Heartbeat CPU  0 instructions:  191000000 cycles:  298092740 heartbeat IPC: 0.50939 cumulative IPC: 0.39862 (Simulation time: 0 hr 8 min 6 sec) 
Heartbeat CPU  0 instructions:  192000000 cycles:  299982987 heartbeat IPC: 0.52903 cumulative IPC: 0.39969 (Simulation time: 0 hr 8 min 9 sec) 
Heartbeat CPU  0 instructions:  193000001 cycles:  301829439 heartbeat IPC: 0.54158 cumulative IPC: 0.40082 (Simulation time: 0 hr 8 min 12 sec) 
Heartbeat CPU  0 instructions:  194000000 cycles:  303790595 heartbeat IPC: 0.50990 cumulative IPC: 0.40173 (Simulation time: 0 hr 8 min 14 sec) 
Heartbeat CPU  0 instructions:  195000002 cycles:  305741245 heartbeat IPC: 0.51265 cumulative IPC: 0.40265 (Simulation time: 0 hr 8 min 17 sec) 
Heartbeat CPU  0 instructions:  196000000 cycles:  307545163 heartbeat IPC: 0.55435 cumulative IPC: 0.40380 (Simulation time: 0 hr 8 min 20 sec) 
Heartbeat CPU  0 instructions:  197000000 cycles:  309602140 heartbeat IPC: 0.48615 cumulative IPC: 0.40451 (Simulation time: 0 hr 8 min 22 sec) 
Heartbeat CPU  0 instructions:  198000003 cycles:  324003518 heartbeat IPC: 0.06944 cumulative IPC: 0.38553 (Simulation time: 0 hr 8 min 26 sec) 
Heartbeat CPU  0 instructions:  199000001 cycles:  327174277 heartbeat IPC: 0.31538 cumulative IPC: 0.38466 (Simulation time: 0 hr 8 min 29 sec) 
Heartbeat CPU  0 instructions:  200000000 cycles:  329097233 heartbeat IPC: 0.52003 cumulative IPC: 0.38566 (Simulation time: 0 hr 8 min 32 sec) 
Heartbeat CPU  0 instructions:  201000002 cycles:  331058004 heartbeat IPC: 0.51000 cumulative IPC: 0.38660 (Simulation time: 0 hr 8 min 34 sec) 
Heartbeat CPU  0 instructions:  202000003 cycles:  332952994 heartbeat IPC: 0.52771 cumulative IPC: 0.38761 (Simulation time: 0 hr 8 min 37 sec) 
Heartbeat CPU  0 instructions:  203000002 cycles:  334794552 heartbeat IPC: 0.54302 cumulative IPC: 0.38869 (Simulation time: 0 hr 8 min 40 sec) 
Heartbeat CPU  0 instructions:  204000000 cycles:  336758425 heartbeat IPC: 0.50920 cumulative IPC: 0.38958 (Simulation time: 0 hr 8 min 43 sec) 
Heartbeat CPU  0 instructions:  205000002 cycles:  338704608 heartbeat IPC: 0.51383 cumulative IPC: 0.39048 (Simulation time: 0 hr 8 min 45 sec) 
Heartbeat CPU  0 instructions:  206000000 cycles:  340510652 heartbeat IPC: 0.55370 cumulative IPC: 0.39157 (Simulation time: 0 hr 8 min 48 sec) 
Heartbeat CPU  0 instructions:  207000002 cycles:  342455587 heartbeat IPC: 0.51416 cumulative IPC: 0.39244 (Simulation time: 0 hr 8 min 51 sec) 
Heartbeat CPU  0 instructions:  208000000 cycles:  344414033 heartbeat IPC: 0.51061 cumulative IPC: 0.39329 (Simulation time: 0 hr 8 min 54 sec) 
Heartbeat CPU  0 instructions:  209000002 cycles:  346251632 heartbeat IPC: 0.54419 cumulative IPC: 0.39429 (Simulation time: 0 hr 8 min 56 sec) 
Heartbeat CPU  0 instructions:  210000000 cycles:  348155152 heartbeat IPC: 0.52534 cumulative IPC: 0.39519 (Simulation time: 0 hr 8 min 59 sec) 
Heartbeat CPU  0 instructions:  211000000 cycles:  350116423 heartbeat IPC: 0.50987 cumulative IPC: 0.39599 (Simulation time: 0 hr 9 min 2 sec) 
Heartbeat CPU  0 instructions:  212000000 cycles:  352029437 heartbeat IPC: 0.52274 cumulative IPC: 0.39685 (Simulation time: 0 hr 9 min 4 sec) 
Heartbeat CPU  0 instructions:  213000003 cycles:  353853671 heartbeat IPC: 0.54818 cumulative IPC: 0.39782 (Simulation time: 0 hr 9 min 7 sec) 
Heartbeat CPU  0 instructions:  214000003 cycles:  355811830 heartbeat IPC: 0.51068 cumulative IPC: 0.39859 (Simulation time: 0 hr 9 min 10 sec) 
Heartbeat CPU  0 instructions:  215000003 cycles:  357763744 heartbeat IPC: 0.51232 cumulative IPC: 0.39936 (Simulation time: 0 hr 9 min 13 sec) 
Heartbeat CPU  0 instructions:  216000000 cycles:  359576198 heartbeat IPC: 0.55174 cumulative IPC: 0.40032 (Simulation time: 0 hr 9 min 15 sec) 
Heartbeat CPU  0 instructions:  217000002 cycles:  361512312 heartbeat IPC: 0.51650 cumulative IPC: 0.40109 (Simulation time: 0 hr 9 min 18 sec) 
Heartbeat CPU  0 instructions:  218000001 cycles:  363476745 heartbeat IPC: 0.50905 cumulative IPC: 0.40181 (Simulation time: 0 hr 9 min 21 sec) 
Heartbeat CPU  0 instructions:  219000002 cycles:  365327037 heartbeat IPC: 0.54046 cumulative IPC: 0.40268 (Simulation time: 0 hr 9 min 24 sec) 
Heartbeat CPU  0 instructions:  220000000 cycles:  374342466 heartbeat IPC: 0.11092 cumulative IPC: 0.39404 (Simulation time: 0 hr 9 min 27 sec) 
Heartbeat CPU  0 instructions:  221000000 cycles:  383150916 heartbeat IPC: 0.11353 cumulative IPC: 0.38615 (Simulation time: 0 hr 9 min 30 sec) 
Heartbeat CPU  0 instructions:  222000000 cycles:  385066244 heartbeat IPC: 0.52210 cumulative IPC: 0.38698 (Simulation time: 0 hr 9 min 33 sec) 
Heartbeat CPU  0 instructions:  223000001 cycles:  386895750 heartbeat IPC: 0.54660 cumulative IPC: 0.38790 (Simulation time: 0 hr 9 min 36 sec) 
Heartbeat CPU  0 instructions:  224000000 cycles:  388851997 heartbeat IPC: 0.51118 cumulative IPC: 0.38866 (Simulation time: 0 hr 9 min 38 sec) 
Heartbeat CPU  0 instructions:  225000002 cycles:  390810381 heartbeat IPC: 0.51063 cumulative IPC: 0.38940 (Simulation time: 0 hr 9 min 41 sec) 
Heartbeat CPU  0 instructions:  226000002 cycles:  392612339 heartbeat IPC: 0.55495 cumulative IPC: 0.39033 (Simulation time: 0 hr 9 min 44 sec) 
Heartbeat CPU  0 instructions:  227000003 cycles:  394550318 heartbeat IPC: 0.51600 cumulative IPC: 0.39108 (Simulation time: 0 hr 9 min 47 sec) 
Heartbeat CPU  0 instructions:  228000000 cycles:  396510794 heartbeat IPC: 0.51008 cumulative IPC: 0.39179 (Simulation time: 0 hr 9 min 49 sec) 
Heartbeat CPU  0 instructions:  229000003 cycles:  398502313 heartbeat IPC: 0.50213 cumulative IPC: 0.39246 (Simulation time: 0 hr 9 min 52 sec) 
Heartbeat CPU  0 instructions:  230000001 cycles:  400381517 heartbeat IPC: 0.53214 cumulative IPC: 0.39325 (Simulation time: 0 hr 9 min 55 sec) 
Heartbeat CPU  0 instructions:  231000003 cycles:  402342682 heartbeat IPC: 0.50990 cumulative IPC: 0.39394 (Simulation time: 0 hr 9 min 57 sec) 
Heartbeat CPU  0 instructions:  232000000 cycles:  404267999 heartbeat IPC: 0.51939 cumulative IPC: 0.39466 (Simulation time: 0 hr 10 min 0 sec) 
Heartbeat CPU  0 instructions:  233000002 cycles:  406088260 heartbeat IPC: 0.54937 cumulative IPC: 0.39550 (Simulation time: 0 hr 10 min 3 sec) 
Heartbeat CPU  0 instructions:  234000001 cycles:  408042244 heartbeat IPC: 0.51177 cumulative IPC: 0.39617 (Simulation time: 0 hr 10 min 6 sec) 
Heartbeat CPU  0 instructions:  235000003 cycles:  409994819 heartbeat IPC: 0.51215 cumulative IPC: 0.39684 (Simulation time: 0 hr 10 min 8 sec) 
Heartbeat CPU  0 instructions:  236000000 cycles:  411806130 heartbeat IPC: 0.55208 cumulative IPC: 0.39766 (Simulation time: 0 hr 10 min 11 sec) 
Heartbeat CPU  0 instructions:  237000002 cycles:  413736342 heartbeat IPC: 0.51808 cumulative IPC: 0.39834 (Simulation time: 0 hr 10 min 14 sec) 
Heartbeat CPU  0 instructions:  238000002 cycles:  415697962 heartbeat IPC: 0.50978 cumulative IPC: 0.39897 (Simulation time: 0 hr 10 min 17 sec) 
Heartbeat CPU  0 instructions:  239000001 cycles:  417569514 heartbeat IPC: 0.53432 cumulative IPC: 0.39970 (Simulation time: 0 hr 10 min 19 sec) 
Heartbeat CPU  0 instructions:  240000000 cycles:  419433464 heartbeat IPC: 0.53649 cumulative IPC: 0.40042 (Simulation time: 0 hr 10 min 22 sec) 
Heartbeat CPU  0 instructions:  241000003 cycles:  421397059 heartbeat IPC: 0.50927 cumulative IPC: 0.40103 (Simulation time: 0 hr 10 min 25 sec) 
Heartbeat CPU  0 instructions:  242000002 cycles:  425143667 heartbeat IPC: 0.26691 cumulative IPC: 0.39962 (Simulation time: 0 hr 10 min 28 sec) 
Heartbeat CPU  0 instructions:  243000003 cycles:  439361387 heartbeat IPC: 0.07033 cumulative IPC: 0.38695 (Simulation time: 0 hr 10 min 31 sec) 
Heartbeat CPU  0 instructions:  244000000 cycles:  441319795 heartbeat IPC: 0.51062 cumulative IPC: 0.38760 (Simulation time: 0 hr 10 min 34 sec) 
Heartbeat CPU  0 instructions:  245000000 cycles:  443277791 heartbeat IPC: 0.51073 cumulative IPC: 0.38825 (Simulation time: 0 hr 10 min 37 sec) 
Heartbeat CPU  0 instructions:  246000000 cycles:  445092718 heartbeat IPC: 0.55099 cumulative IPC: 0.38903 (Simulation time: 0 hr 10 min 40 sec) 
Heartbeat CPU  0 instructions:  247000000 cycles:  447021678 heartbeat IPC: 0.51841 cumulative IPC: 0.38970 (Simulation time: 0 hr 10 min 42 sec) 
Heartbeat CPU  0 instructions:  248000000 cycles:  448980204 heartbeat IPC: 0.51059 cumulative IPC: 0.39032 (Simulation time: 0 hr 10 min 45 sec) 
Heartbeat CPU  0 instructions:  249000001 cycles:  450856417 heartbeat IPC: 0.53299 cumulative IPC: 0.39102 (Simulation time: 0 hr 10 min 48 sec) 
Heartbeat CPU  0 instructions:  250000003 cycles:  452722914 heartbeat IPC: 0.53576 cumulative IPC: 0.39173 (Simulation time: 0 hr 10 min 51 sec) 
Heartbeat CPU  0 instructions:  251000002 cycles:  454682967 heartbeat IPC: 0.51019 cumulative IPC: 0.39233 (Simulation time: 0 hr 10 min 53 sec) 
Heartbeat CPU  0 instructions:  252000000 cycles:  456628473 heartbeat IPC: 0.51400 cumulative IPC: 0.39294 (Simulation time: 0 hr 10 min 56 sec) 
Heartbeat CPU  0 instructions:  253000000 cycles:  458434306 heartbeat IPC: 0.55376 cumulative IPC: 0.39369 (Simulation time: 0 hr 10 min 59 sec) 
Heartbeat CPU  0 instructions:  254000002 cycles:  460383935 heartbeat IPC: 0.51292 cumulative IPC: 0.39429 (Simulation time: 0 hr 11 min 1 sec) 
Heartbeat CPU  0 instructions:  255000000 cycles:  462348536 heartbeat IPC: 0.50901 cumulative IPC: 0.39486 (Simulation time: 0 hr 11 min 4 sec) 
Heartbeat CPU  0 instructions:  256000000 cycles:  464160661 heartbeat IPC: 0.55184 cumulative IPC: 0.39558 (Simulation time: 0 hr 11 min 7 sec) 
Heartbeat CPU  0 instructions:  257000000 cycles:  466081311 heartbeat IPC: 0.52066 cumulative IPC: 0.39619 (Simulation time: 0 hr 11 min 10 sec) 
Heartbeat CPU  0 instructions:  258000003 cycles:  468043229 heartbeat IPC: 0.50971 cumulative IPC: 0.39675 (Simulation time: 0 hr 11 min 12 sec) 
Heartbeat CPU  0 instructions:  259000000 cycles:  469932968 heartbeat IPC: 0.52917 cumulative IPC: 0.39737 (Simulation time: 0 hr 11 min 15 sec) 
Heartbeat CPU  0 instructions:  260000000 cycles:  471783911 heartbeat IPC: 0.54027 cumulative IPC: 0.39803 (Simulation time: 0 hr 11 min 18 sec) 
Heartbeat CPU  0 instructions:  261000000 cycles:  473743199 heartbeat IPC: 0.51039 cumulative IPC: 0.39858 (Simulation time: 0 hr 11 min 21 sec) 
Heartbeat CPU  0 instructions:  262000002 cycles:  475689971 heartbeat IPC: 0.51367 cumulative IPC: 0.39913 (Simulation time: 0 hr 11 min 23 sec) 
Heartbeat CPU  0 instructions:  263000001 cycles:  477497458 heartbeat IPC: 0.55325 cumulative IPC: 0.39981 (Simulation time: 0 hr 11 min 26 sec) 
Heartbeat CPU  0 instructions:  264000000 cycles:  479441036 heartbeat IPC: 0.51451 cumulative IPC: 0.40036 (Simulation time: 0 hr 11 min 29 sec) 
Heartbeat CPU  0 instructions:  265000002 cycles:  490303938 heartbeat IPC: 0.09206 cumulative IPC: 0.39239 (Simulation time: 0 hr 11 min 32 sec) 
Heartbeat CPU  0 instructions:  266000001 cycles:  497190620 heartbeat IPC: 0.14521 cumulative IPC: 0.38841 (Simulation time: 0 hr 11 min 35 sec) 
Heartbeat CPU  0 instructions:  267000002 cycles:  499115956 heartbeat IPC: 0.51939 cumulative IPC: 0.38900 (Simulation time: 0 hr 11 min 38 sec) 
Heartbeat CPU  0 instructions:  268000000 cycles:  501077136 heartbeat IPC: 0.50990 cumulative IPC: 0.38955 (Simulation time: 0 hr 11 min 41 sec) 
Heartbeat CPU  0 instructions:  269000000 cycles:  502971065 heartbeat IPC: 0.52800 cumulative IPC: 0.39015 (Simulation time: 0 hr 11 min 44 sec) 
Heartbeat CPU  0 instructions:  270000003 cycles:  504818383 heartbeat IPC: 0.54133 cumulative IPC: 0.39079 (Simulation time: 0 hr 11 min 46 sec) 
Heartbeat CPU  0 instructions:  271000002 cycles:  506775429 heartbeat IPC: 0.51097 cumulative IPC: 0.39133 (Simulation time: 0 hr 11 min 49 sec) 
Heartbeat CPU  0 instructions:  272000000 cycles:  508724013 heartbeat IPC: 0.51319 cumulative IPC: 0.39187 (Simulation time: 0 hr 11 min 52 sec) 
Heartbeat CPU  0 instructions:  273000002 cycles:  510533200 heartbeat IPC: 0.55274 cumulative IPC: 0.39253 (Simulation time: 0 hr 11 min 54 sec) 
Heartbeat CPU  0 instructions:  274000000 cycles:  512476363 heartbeat IPC: 0.51462 cumulative IPC: 0.39307 (Simulation time: 0 hr 11 min 57 sec) 
Heartbeat CPU  0 instructions:  275000000 cycles:  514435265 heartbeat IPC: 0.51049 cumulative IPC: 0.39359 (Simulation time: 0 hr 12 min 0 sec) 
Heartbeat CPU  0 instructions:  276000000 cycles:  516265131 heartbeat IPC: 0.54649 cumulative IPC: 0.39421 (Simulation time: 0 hr 12 min 3 sec) 
Heartbeat CPU  0 instructions:  277000001 cycles:  518169996 heartbeat IPC: 0.52497 cumulative IPC: 0.39477 (Simulation time: 0 hr 12 min 5 sec) 
Heartbeat CPU  0 instructions:  278000000 cycles:  520130710 heartbeat IPC: 0.51002 cumulative IPC: 0.39527 (Simulation time: 0 hr 12 min 8 sec) 
Heartbeat CPU  0 instructions:  279000003 cycles:  522155756 heartbeat IPC: 0.49382 cumulative IPC: 0.39571 (Simulation time: 0 hr 12 min 11 sec) 
Heartbeat CPU  0 instructions:  280000000 cycles:  524100380 heartbeat IPC: 0.51424 cumulative IPC: 0.39622 (Simulation time: 0 hr 12 min 13 sec) 
Heartbeat CPU  0 instructions:  281000002 cycles:  526172392 heartbeat IPC: 0.48262 cumulative IPC: 0.39661 (Simulation time: 0 hr 12 min 16 sec) 
Heartbeat CPU  0 instructions:  282000002 cycles:  528127689 heartbeat IPC: 0.51143 cumulative IPC: 0.39710 (Simulation time: 0 hr 12 min 19 sec) 
Heartbeat CPU  0 instructions:  283000000 cycles:  529928923 heartbeat IPC: 0.55517 cumulative IPC: 0.39772 (Simulation time: 0 hr 12 min 22 sec) 
Heartbeat CPU  0 instructions:  284000000 cycles:  531866455 heartbeat IPC: 0.51612 cumulative IPC: 0.39822 (Simulation time: 0 hr 12 min 24 sec) 
Heartbeat CPU  0 instructions:  285000001 cycles:  533830264 heartbeat IPC: 0.50921 cumulative IPC: 0.39869 (Simulation time: 0 hr 12 min 27 sec) 
Heartbeat CPU  0 instructions:  286000003 cycles:  535677159 heartbeat IPC: 0.54145 cumulative IPC: 0.39925 (Simulation time: 0 hr 12 min 30 sec) 
Heartbeat CPU  0 instructions:  287000002 cycles:  541271359 heartbeat IPC: 0.17876 cumulative IPC: 0.39663 (Simulation time: 0 hr 12 min 33 sec) 
Heartbeat CPU  0 instructions:  288000000 cycles:  553432155 heartbeat IPC: 0.08223 cumulative IPC: 0.38873 (Simulation time: 0 hr 12 min 36 sec) 
Heartbeat CPU  0 instructions:  289000003 cycles:  555344098 heartbeat IPC: 0.52303 cumulative IPC: 0.38926 (Simulation time: 0 hr 12 min 39 sec) 
Heartbeat CPU  0 instructions:  290000003 cycles:  557178171 heartbeat IPC: 0.54523 cumulative IPC: 0.38984 (Simulation time: 0 hr 12 min 42 sec) 
Heartbeat CPU  0 instructions:  291000002 cycles:  559135647 heartbeat IPC: 0.51086 cumulative IPC: 0.39033 (Simulation time: 0 hr 12 min 45 sec) 
Heartbeat CPU  0 instructions:  292000000 cycles:  561082780 heartbeat IPC: 0.51357 cumulative IPC: 0.39082 (Simulation time: 0 hr 12 min 47 sec) 
Heartbeat CPU  0 instructions:  293000001 cycles:  562903360 heartbeat IPC: 0.54928 cumulative IPC: 0.39140 (Simulation time: 0 hr 12 min 50 sec) 
Heartbeat CPU  0 instructions:  294000000 cycles:  564844850 heartbeat IPC: 0.51507 cumulative IPC: 0.39189 (Simulation time: 0 hr 12 min 53 sec) 
Heartbeat CPU  0 instructions:  295000002 cycles:  566807681 heartbeat IPC: 0.50947 cumulative IPC: 0.39235 (Simulation time: 0 hr 12 min 55 sec) 
Heartbeat CPU  0 instructions:  296000000 cycles:  568654958 heartbeat IPC: 0.54134 cumulative IPC: 0.39290 (Simulation time: 0 hr 12 min 58 sec) 
Heartbeat CPU  0 instructions:  297000001 cycles:  570546337 heartbeat IPC: 0.52872 cumulative IPC: 0.39342 (Simulation time: 0 hr 13 min 1 sec) 
Heartbeat CPU  0 instructions:  298000003 cycles:  572505502 heartbeat IPC: 0.51042 cumulative IPC: 0.39387 (Simulation time: 0 hr 13 min 4 sec) 
Heartbeat CPU  0 instructions:  299000000 cycles:  574427674 heartbeat IPC: 0.52024 cumulative IPC: 0.39435 (Simulation time: 0 hr 13 min 6 sec) 
Heartbeat CPU  0 instructions:  300000000 cycles:  576247654 heartbeat IPC: 0.54946 cumulative IPC: 0.39491 (Simulation time: 0 hr 13 min 9 sec) 
Heartbeat CPU  0 instructions:  301000003 cycles:  578198184 heartbeat IPC: 0.51268 cumulative IPC: 0.39536 (Simulation time: 0 hr 13 min 12 sec) 
Heartbeat CPU  0 instructions:  302000000 cycles:  580153266 heartbeat IPC: 0.51149 cumulative IPC: 0.39581 (Simulation time: 0 hr 13 min 15 sec) 
Heartbeat CPU  0 instructions:  303000000 cycles:  581960086 heartbeat IPC: 0.55346 cumulative IPC: 0.39636 (Simulation time: 0 hr 13 min 17 sec) 
Heartbeat CPU  0 instructions:  304000000 cycles:  583889732 heartbeat IPC: 0.51823 cumulative IPC: 0.39682 (Simulation time: 0 hr 13 min 20 sec) 
Heartbeat CPU  0 instructions:  305000000 cycles:  585854441 heartbeat IPC: 0.50898 cumulative IPC: 0.39725 (Simulation time: 0 hr 13 min 23 sec) 
Heartbeat CPU  0 instructions:  306000002 cycles:  587717936 heartbeat IPC: 0.53663 cumulative IPC: 0.39775 (Simulation time: 0 hr 13 min 26 sec) 
Heartbeat CPU  0 instructions:  307000003 cycles:  589587626 heartbeat IPC: 0.53485 cumulative IPC: 0.39824 (Simulation time: 0 hr 13 min 28 sec) 
Heartbeat CPU  0 instructions:  308000000 cycles:  591551187 heartbeat IPC: 0.50928 cumulative IPC: 0.39866 (Simulation time: 0 hr 13 min 31 sec) 
Heartbeat CPU  0 instructions:  309000003 cycles:  593491465 heartbeat IPC: 0.51539 cumulative IPC: 0.39909 (Simulation time: 0 hr 13 min 34 sec) 
Heartbeat CPU  0 instructions:  310000003 cycles:  606186747 heartbeat IPC: 0.07877 cumulative IPC: 0.39151 (Simulation time: 0 hr 13 min 37 sec) 
Heartbeat CPU  0 instructions:  311000000 cycles:  611119238 heartbeat IPC: 0.20274 cumulative IPC: 0.38979 (Simulation time: 0 hr 13 min 40 sec) 
Heartbeat CPU  0 instructions:  312000000 cycles:  613076289 heartbeat IPC: 0.51097 cumulative IPC: 0.39023 (Simulation time: 0 hr 13 min 43 sec) 
Heartbeat CPU  0 instructions:  313000003 cycles:  614891874 heartbeat IPC: 0.55079 cumulative IPC: 0.39076 (Simulation time: 0 hr 13 min 46 sec) 
Heartbeat CPU  0 instructions:  314000000 cycles:  616830872 heartbeat IPC: 0.51573 cumulative IPC: 0.39121 (Simulation time: 0 hr 13 min 49 sec) 
Heartbeat CPU  0 instructions:  315000000 cycles:  618793079 heartbeat IPC: 0.50963 cumulative IPC: 0.39163 (Simulation time: 0 hr 13 min 51 sec) 
Heartbeat CPU  0 instructions:  316000000 cycles:  620658033 heartbeat IPC: 0.53621 cumulative IPC: 0.39212 (Simulation time: 0 hr 13 min 54 sec) 
Heartbeat CPU  0 instructions:  317000001 cycles:  622529817 heartbeat IPC: 0.53425 cumulative IPC: 0.39260 (Simulation time: 0 hr 13 min 57 sec) 
Heartbeat CPU  0 instructions:  318000002 cycles:  624493963 heartbeat IPC: 0.50913 cumulative IPC: 0.39301 (Simulation time: 0 hr 14 min 0 sec) 
Heartbeat CPU  0 instructions:  319000001 cycles:  626433968 heartbeat IPC: 0.51546 cumulative IPC: 0.39344 (Simulation time: 0 hr 14 min 2 sec) 
Heartbeat CPU  0 instructions:  320000000 cycles:  628243112 heartbeat IPC: 0.55275 cumulative IPC: 0.39396 (Simulation time: 0 hr 14 min 5 sec) 
Heartbeat CPU  0 instructions:  321000002 cycles:  630194179 heartbeat IPC: 0.51254 cumulative IPC: 0.39437 (Simulation time: 0 hr 14 min 8 sec) 
Heartbeat CPU  0 instructions:  322000001 cycles:  632149582 heartbeat IPC: 0.51140 cumulative IPC: 0.39478 (Simulation time: 0 hr 14 min 10 sec) 
Heartbeat CPU  0 instructions:  323000002 cycles:  633959846 heartbeat IPC: 0.55241 cumulative IPC: 0.39528 (Simulation time: 0 hr 14 min 13 sec) 
Heartbeat CPU  0 instructions:  324000000 cycles:  635884670 heartbeat IPC: 0.51953 cumulative IPC: 0.39570 (Simulation time: 0 hr 14 min 16 sec) 
Heartbeat CPU  0 instructions:  325000001 cycles:  637845403 heartbeat IPC: 0.51001 cumulative IPC: 0.39610 (Simulation time: 0 hr 14 min 19 sec) 
Heartbeat CPU  0 instructions:  326000002 cycles:  639730384 heartbeat IPC: 0.53051 cumulative IPC: 0.39654 (Simulation time: 0 hr 14 min 21 sec) 
Heartbeat CPU  0 instructions:  327000002 cycles:  641581924 heartbeat IPC: 0.54009 cumulative IPC: 0.39701 (Simulation time: 0 hr 14 min 24 sec) 
Heartbeat CPU  0 instructions:  328000000 cycles:  643545066 heartbeat IPC: 0.50939 cumulative IPC: 0.39739 (Simulation time: 0 hr 14 min 27 sec) 
Heartbeat CPU  0 instructions:  329000002 cycles:  645492385 heartbeat IPC: 0.51353 cumulative IPC: 0.39779 (Simulation time: 0 hr 14 min 30 sec) 
Heartbeat CPU  0 instructions:  330000001 cycles:  647307792 heartbeat IPC: 0.55084 cumulative IPC: 0.39827 (Simulation time: 0 hr 14 min 32 sec) 
Heartbeat CPU  0 instructions:  331000002 cycles:  649370917 heartbeat IPC: 0.48470 cumulative IPC: 0.39857 (Simulation time: 0 hr 14 min 35 sec) 
Heartbeat CPU  0 instructions:  332000000 cycles:  656726965 heartbeat IPC: 0.13594 cumulative IPC: 0.39528 (Simulation time: 0 hr 14 min 38 sec) 
Heartbeat CPU  0 instructions:  333000000 cycles:  667017054 heartbeat IPC: 0.09718 cumulative IPC: 0.39015 (Simulation time: 0 hr 14 min 42 sec) 
Heartbeat CPU  0 instructions:  334000001 cycles:  668944679 heartbeat IPC: 0.51877 cumulative IPC: 0.39056 (Simulation time: 0 hr 14 min 44 sec) 
Heartbeat CPU  0 instructions:  335000001 cycles:  670907938 heartbeat IPC: 0.50936 cumulative IPC: 0.39095 (Simulation time: 0 hr 14 min 47 sec) 
Heartbeat CPU  0 instructions:  336000000 cycles:  672791071 heartbeat IPC: 0.53103 cumulative IPC: 0.39139 (Simulation time: 0 hr 14 min 50 sec) 
Heartbeat CPU  0 instructions:  337000003 cycles:  674641594 heartbeat IPC: 0.54039 cumulative IPC: 0.39184 (Simulation time: 0 hr 14 min 53 sec) 
Heartbeat CPU  0 instructions:  338000002 cycles:  676604741 heartbeat IPC: 0.50939 cumulative IPC: 0.39222 (Simulation time: 0 hr 14 min 55 sec) 
Heartbeat CPU  0 instructions:  339000000 cycles:  678551786 heartbeat IPC: 0.51360 cumulative IPC: 0.39261 (Simulation time: 0 hr 14 min 58 sec) 
Heartbeat CPU  0 instructions:  340000000 cycles:  680353175 heartbeat IPC: 0.55513 cumulative IPC: 0.39309 (Simulation time: 0 hr 15 min 1 sec) 
Heartbeat CPU  0 instructions:  341000000 cycles:  682303219 heartbeat IPC: 0.51281 cumulative IPC: 0.39347 (Simulation time: 0 hr 15 min 3 sec) 
Heartbeat CPU  0 instructions:  342000001 cycles:  684261347 heartbeat IPC: 0.51069 cumulative IPC: 0.39384 (Simulation time: 0 hr 15 min 6 sec) 
Heartbeat CPU  0 instructions:  343000000 cycles:  686085429 heartbeat IPC: 0.54822 cumulative IPC: 0.39430 (Simulation time: 0 hr 15 min 9 sec) 
Heartbeat CPU  0 instructions:  344000000 cycles:  687999750 heartbeat IPC: 0.52238 cumulative IPC: 0.39470 (Simulation time: 0 hr 15 min 12 sec) 
Heartbeat CPU  0 instructions:  345000000 cycles:  689956264 heartbeat IPC: 0.51111 cumulative IPC: 0.39506 (Simulation time: 0 hr 15 min 14 sec) 
Heartbeat CPU  0 instructions:  346000001 cycles:  691856249 heartbeat IPC: 0.52632 cumulative IPC: 0.39547 (Simulation time: 0 hr 15 min 17 sec) 
Heartbeat CPU  0 instructions:  347000000 cycles:  693694332 heartbeat IPC: 0.54404 cumulative IPC: 0.39590 (Simulation time: 0 hr 15 min 20 sec) 
Heartbeat CPU  0 instructions:  348000000 cycles:  695649393 heartbeat IPC: 0.51149 cumulative IPC: 0.39626 (Simulation time: 0 hr 15 min 23 sec) 
Heartbeat CPU  0 instructions:  349000001 cycles:  697602315 heartbeat IPC: 0.51205 cumulative IPC: 0.39662 (Simulation time: 0 hr 15 min 25 sec) 
Heartbeat CPU  0 instructions:  350000003 cycles:  699407525 heartbeat IPC: 0.55395 cumulative IPC: 0.39708 (Simulation time: 0 hr 15 min 28 sec) 
Heartbeat CPU  0 instructions:  351000003 cycles:  701345302 heartbeat IPC: 0.51606 cumulative IPC: 0.39744 (Simulation time: 0 hr 15 min 31 sec) 
Heartbeat CPU  0 instructions:  352000000 cycles:  703306327 heartbeat IPC: 0.50994 cumulative IPC: 0.39779 (Simulation time: 0 hr 15 min 33 sec) 
Heartbeat CPU  0 instructions:  353000001 cycles:  705149048 heartbeat IPC: 0.54268 cumulative IPC: 0.39821 (Simulation time: 0 hr 15 min 36 sec) 
Heartbeat CPU  0 instructions:  354000003 cycles:  707254948 heartbeat IPC: 0.47486 cumulative IPC: 0.39846 (Simulation time: 0 hr 15 min 39 sec) 
Heartbeat CPU  0 instructions:  355000003 cycles:  721859685 heartbeat IPC: 0.06847 cumulative IPC: 0.39107 (Simulation time: 0 hr 15 min 43 sec) 
Heartbeat CPU  0 instructions:  356000000 cycles:  724991022 heartbeat IPC: 0.31935 cumulative IPC: 0.39073 (Simulation time: 0 hr 15 min 46 sec) 
Heartbeat CPU  0 instructions:  357000003 cycles:  726832253 heartbeat IPC: 0.54312 cumulative IPC: 0.39116 (Simulation time: 0 hr 15 min 48 sec) 
Heartbeat CPU  0 instructions:  358000002 cycles:  728786262 heartbeat IPC: 0.51177 cumulative IPC: 0.39151 (Simulation time: 0 hr 15 min 51 sec) 
Heartbeat CPU  0 instructions:  359000000 cycles:  730742208 heartbeat IPC: 0.51126 cumulative IPC: 0.39187 (Simulation time: 0 hr 15 min 54 sec) 
Heartbeat CPU  0 instructions:  360000000 cycles:  732544674 heartbeat IPC: 0.55480 cumulative IPC: 0.39231 (Simulation time: 0 hr 15 min 56 sec) 
Heartbeat CPU  0 instructions:  361000003 cycles:  734481508 heartbeat IPC: 0.51631 cumulative IPC: 0.39267 (Simulation time: 0 hr 15 min 59 sec) 
Heartbeat CPU  0 instructions:  362000000 cycles:  736449002 heartbeat IPC: 0.50826 cumulative IPC: 0.39301 (Simulation time: 0 hr 16 min 2 sec) 
Heartbeat CPU  0 instructions:  363000000 cycles:  738289053 heartbeat IPC: 0.54346 cumulative IPC: 0.39343 (Simulation time: 0 hr 16 min 5 sec) 
Heartbeat CPU  0 instructions:  364000000 cycles:  740178353 heartbeat IPC: 0.52930 cumulative IPC: 0.39381 (Simulation time: 0 hr 16 min 7 sec) 
Heartbeat CPU  0 instructions:  365000000 cycles:  742144004 heartbeat IPC: 0.50874 cumulative IPC: 0.39415 (Simulation time: 0 hr 16 min 10 sec) 
Heartbeat CPU  0 instructions:  366000001 cycles:  744059175 heartbeat IPC: 0.52215 cumulative IPC: 0.39451 (Simulation time: 0 hr 16 min 13 sec) 
Heartbeat CPU  0 instructions:  367000001 cycles:  745878175 heartbeat IPC: 0.54975 cumulative IPC: 0.39493 (Simulation time: 0 hr 16 min 16 sec) 
Heartbeat CPU  0 instructions:  368000000 cycles:  747835332 heartbeat IPC: 0.51094 cumulative IPC: 0.39526 (Simulation time: 0 hr 16 min 18 sec) 
Heartbeat CPU  0 instructions:  369000003 cycles:  749798977 heartbeat IPC: 0.50926 cumulative IPC: 0.39559 (Simulation time: 0 hr 16 min 21 sec) 
Heartbeat CPU  0 instructions:  370000000 cycles:  751598682 heartbeat IPC: 0.55564 cumulative IPC: 0.39601 (Simulation time: 0 hr 16 min 24 sec) 
Heartbeat CPU  0 instructions:  371000001 cycles:  753533063 heartbeat IPC: 0.51696 cumulative IPC: 0.39636 (Simulation time: 0 hr 16 min 27 sec) 
Heartbeat CPU  0 instructions:  372000000 cycles:  755496658 heartbeat IPC: 0.50927 cumulative IPC: 0.39668 (Simulation time: 0 hr 16 min 29 sec) 
Heartbeat CPU  0 instructions:  373000003 cycles:  757355102 heartbeat IPC: 0.53809 cumulative IPC: 0.39706 (Simulation time: 0 hr 16 min 32 sec) 
Heartbeat CPU  0 instructions:  374000001 cycles:  759226220 heartbeat IPC: 0.53444 cumulative IPC: 0.39743 (Simulation time: 0 hr 16 min 35 sec) 
Heartbeat CPU  0 instructions:  375000001 cycles:  761190570 heartbeat IPC: 0.50907 cumulative IPC: 0.39775 (Simulation time: 0 hr 16 min 37 sec) 
Heartbeat CPU  0 instructions:  376000000 cycles:  763126511 heartbeat IPC: 0.51654 cumulative IPC: 0.39808 (Simulation time: 0 hr 16 min 40 sec) 
Heartbeat CPU  0 instructions:  377000002 cycles:  772154198 heartbeat IPC: 0.11077 cumulative IPC: 0.39439 (Simulation time: 0 hr 16 min 43 sec) 
Heartbeat CPU  0 instructions:  378000003 cycles:  780772537 heartbeat IPC: 0.11603 cumulative IPC: 0.39102 (Simulation time: 0 hr 16 min 47 sec) 
Heartbeat CPU  0 instructions:  379000001 cycles:  782725916 heartbeat IPC: 0.51193 cumulative IPC: 0.39135 (Simulation time: 0 hr 16 min 50 sec) 
Heartbeat CPU  0 instructions:  380000000 cycles:  784531044 heartbeat IPC: 0.55398 cumulative IPC: 0.39176 (Simulation time: 0 hr 16 min 52 sec) 
Heartbeat CPU  0 instructions:  381000002 cycles:  786512558 heartbeat IPC: 0.50467 cumulative IPC: 0.39207 (Simulation time: 0 hr 16 min 55 sec) 
Heartbeat CPU  0 instructions:  382000002 cycles:  788622765 heartbeat IPC: 0.47389 cumulative IPC: 0.39231 (Simulation time: 0 hr 16 min 58 sec) 
Heartbeat CPU  0 instructions:  383000002 cycles:  790633830 heartbeat IPC: 0.49725 cumulative IPC: 0.39260 (Simulation time: 0 hr 17 min 1 sec) 
Heartbeat CPU  0 instructions:  384000000 cycles:  792507308 heartbeat IPC: 0.53377 cumulative IPC: 0.39297 (Simulation time: 0 hr 17 min 3 sec) 
Heartbeat CPU  0 instructions:  385000003 cycles:  794470463 heartbeat IPC: 0.50939 cumulative IPC: 0.39328 (Simulation time: 0 hr 17 min 6 sec) 
Heartbeat CPU  0 instructions:  386000002 cycles:  796412934 heartbeat IPC: 0.51481 cumulative IPC: 0.39361 (Simulation time: 0 hr 17 min 9 sec) 
Heartbeat CPU  0 instructions:  387000001 cycles:  798218884 heartbeat IPC: 0.55372 cumulative IPC: 0.39401 (Simulation time: 0 hr 17 min 11 sec) 
Heartbeat CPU  0 instructions:  388000000 cycles:  800170114 heartbeat IPC: 0.51250 cumulative IPC: 0.39432 (Simulation time: 0 hr 17 min 14 sec) 
Heartbeat CPU  0 instructions:  389000003 cycles:  802127116 heartbeat IPC: 0.51099 cumulative IPC: 0.39463 (Simulation time: 0 hr 17 min 17 sec) 
Heartbeat CPU  0 instructions:  390000003 cycles:  803934772 heartbeat IPC: 0.55320 cumulative IPC: 0.39503 (Simulation time: 0 hr 17 min 20 sec) 
Heartbeat CPU  0 instructions:  391000001 cycles:  805860727 heartbeat IPC: 0.51922 cumulative IPC: 0.39535 (Simulation time: 0 hr 17 min 22 sec) 
Heartbeat CPU  0 instructions:  392000000 cycles:  807823029 heartbeat IPC: 0.50961 cumulative IPC: 0.39565 (Simulation time: 0 hr 17 min 25 sec) 
Heartbeat CPU  0 instructions:  393000000 cycles:  809701980 heartbeat IPC: 0.53221 cumulative IPC: 0.39600 (Simulation time: 0 hr 17 min 28 sec) 
Heartbeat CPU  0 instructions:  394000000 cycles:  811551344 heartbeat IPC: 0.54073 cumulative IPC: 0.39636 (Simulation time: 0 hr 17 min 30 sec) 
Heartbeat CPU  0 instructions:  395000002 cycles:  813523230 heartbeat IPC: 0.50713 cumulative IPC: 0.39666 (Simulation time: 0 hr 17 min 33 sec) 
Heartbeat CPU  0 instructions:  396000000 cycles:  815465871 heartbeat IPC: 0.51476 cumulative IPC: 0.39696 (Simulation time: 0 hr 17 min 36 sec) 
Heartbeat CPU  0 instructions:  397000001 cycles:  817265089 heartbeat IPC: 0.55580 cumulative IPC: 0.39735 (Simulation time: 0 hr 17 min 39 sec) 
Heartbeat CPU  0 instructions:  398000003 cycles:  819212041 heartbeat IPC: 0.51362 cumulative IPC: 0.39765 (Simulation time: 0 hr 17 min 41 sec) 
Heartbeat CPU  0 instructions:  399000001 cycles:  823039758 heartbeat IPC: 0.26125 cumulative IPC: 0.39695 (Simulation time: 0 hr 17 min 44 sec) 
Heartbeat CPU  0 instructions:  400000000 cycles:  836890651 heartbeat IPC: 0.07220 cumulative IPC: 0.39109 (Simulation time: 0 hr 17 min 48 sec) 
Heartbeat CPU  0 instructions:  401000002 cycles:  838827386 heartbeat IPC: 0.51633 cumulative IPC: 0.39141 (Simulation time: 0 hr 17 min 51 sec) 
Heartbeat CPU  0 instructions:  402000001 cycles:  840789184 heartbeat IPC: 0.50974 cumulative IPC: 0.39171 (Simulation time: 0 hr 17 min 53 sec) 
Heartbeat CPU  0 instructions:  403000003 cycles:  842669328 heartbeat IPC: 0.53188 cumulative IPC: 0.39205 (Simulation time: 0 hr 17 min 56 sec) 
Heartbeat CPU  0 instructions:  404000000 cycles:  844525234 heartbeat IPC: 0.53882 cumulative IPC: 0.39240 (Simulation time: 0 hr 17 min 59 sec) 
Heartbeat CPU  0 instructions:  405000001 cycles:  846491033 heartbeat IPC: 0.50870 cumulative IPC: 0.39269 (Simulation time: 0 hr 18 min 2 sec) 
Heartbeat CPU  0 instructions:  406000002 cycles:  848436879 heartbeat IPC: 0.51392 cumulative IPC: 0.39300 (Simulation time: 0 hr 18 min 4 sec) 
Heartbeat CPU  0 instructions:  407000001 cycles:  850236606 heartbeat IPC: 0.55564 cumulative IPC: 0.39337 (Simulation time: 0 hr 18 min 7 sec) 
Heartbeat CPU  0 instructions:  408000000 cycles:  852197856 heartbeat IPC: 0.50988 cumulative IPC: 0.39366 (Simulation time: 0 hr 18 min 10 sec) 
Heartbeat CPU  0 instructions:  409000001 cycles:  854154981 heartbeat IPC: 0.51095 cumulative IPC: 0.39396 (Simulation time: 0 hr 18 min 13 sec) 
Heartbeat CPU  0 instructions:  410000003 cycles:  855978277 heartbeat IPC: 0.54846 cumulative IPC: 0.39432 (Simulation time: 0 hr 18 min 15 sec) 
Heartbeat CPU  0 instructions:  411000000 cycles:  857892777 heartbeat IPC: 0.52233 cumulative IPC: 0.39463 (Simulation time: 0 hr 18 min 18 sec) 
Heartbeat CPU  0 instructions:  412000000 cycles:  859850823 heartbeat IPC: 0.51071 cumulative IPC: 0.39491 (Simulation time: 0 hr 18 min 21 sec) 
Heartbeat CPU  0 instructions:  413000002 cycles:  861752082 heartbeat IPC: 0.52597 cumulative IPC: 0.39523 (Simulation time: 0 hr 18 min 23 sec) 
Heartbeat CPU  0 instructions:  414000003 cycles:  863589761 heartbeat IPC: 0.54417 cumulative IPC: 0.39557 (Simulation time: 0 hr 18 min 26 sec) 
Heartbeat CPU  0 instructions:  415000002 cycles:  865543960 heartbeat IPC: 0.51172 cumulative IPC: 0.39586 (Simulation time: 0 hr 18 min 29 sec) 
Heartbeat CPU  0 instructions:  416000000 cycles:  867498183 heartbeat IPC: 0.51171 cumulative IPC: 0.39614 (Simulation time: 0 hr 18 min 32 sec) 
Heartbeat CPU  0 instructions:  417000003 cycles:  869306125 heartbeat IPC: 0.55312 cumulative IPC: 0.39650 (Simulation time: 0 hr 18 min 34 sec) 
Heartbeat CPU  0 instructions:  418000003 cycles:  871245277 heartbeat IPC: 0.51569 cumulative IPC: 0.39679 (Simulation time: 0 hr 18 min 37 sec) 
Heartbeat CPU  0 instructions:  419000003 cycles:  873209887 heartbeat IPC: 0.50901 cumulative IPC: 0.39706 (Simulation time: 0 hr 18 min 40 sec) 
Heartbeat CPU  0 instructions:  420000000 cycles:  875057199 heartbeat IPC: 0.54133 cumulative IPC: 0.39739 (Simulation time: 0 hr 18 min 43 sec) 
Heartbeat CPU  0 instructions:  421000001 cycles:  876949698 heartbeat IPC: 0.52840 cumulative IPC: 0.39770 (Simulation time: 0 hr 18 min 45 sec) 
Heartbeat CPU  0 instructions:  422000002 cycles:  887834929 heartbeat IPC: 0.09187 cumulative IPC: 0.39363 (Simulation time: 0 hr 18 min 49 sec) 
Heartbeat CPU  0 instructions:  423000003 cycles:  894754658 heartbeat IPC: 0.14451 cumulative IPC: 0.39154 (Simulation time: 0 hr 18 min 52 sec) 
Heartbeat CPU  0 instructions:  424000000 cycles:  896587748 heartbeat IPC: 0.54553 cumulative IPC: 0.39188 (Simulation time: 0 hr 18 min 55 sec) 
Heartbeat CPU  0 instructions:  425000003 cycles:  898545550 heartbeat IPC: 0.51078 cumulative IPC: 0.39216 (Simulation time: 0 hr 18 min 57 sec) 
Heartbeat CPU  0 instructions:  426000001 cycles:  900490070 heartbeat IPC: 0.51426 cumulative IPC: 0.39245 (Simulation time: 0 hr 19 min 0 sec) 
Heartbeat CPU  0 instructions:  427000000 cycles:  902292045 heartbeat IPC: 0.55495 cumulative IPC: 0.39280 (Simulation time: 0 hr 19 min 3 sec) 
Heartbeat CPU  0 instructions:  428000000 cycles:  904225551 heartbeat IPC: 0.51720 cumulative IPC: 0.39309 (Simulation time: 0 hr 19 min 6 sec) 
Heartbeat CPU  0 instructions:  429000002 cycles:  906184711 heartbeat IPC: 0.51042 cumulative IPC: 0.39336 (Simulation time: 0 hr 19 min 8 sec) 
Heartbeat CPU  0 instructions:  430000000 cycles:  908017816 heartbeat IPC: 0.54552 cumulative IPC: 0.39369 (Simulation time: 0 hr 19 min 11 sec) 
Heartbeat CPU  0 instructions:  431000000 cycles:  909909082 heartbeat IPC: 0.52875 cumulative IPC: 0.39400 (Simulation time: 0 hr 19 min 14 sec) 
Heartbeat CPU  0 instructions:  432000000 cycles:  911858649 heartbeat IPC: 0.51293 cumulative IPC: 0.39427 (Simulation time: 0 hr 19 min 17 sec) 
Heartbeat CPU  0 instructions:  433000003 cycles:  913909435 heartbeat IPC: 0.48762 cumulative IPC: 0.39450 (Simulation time: 0 hr 19 min 19 sec) 
Heartbeat CPU  0 instructions:  434000002 cycles:  915725038 heartbeat IPC: 0.55078 cumulative IPC: 0.39484 (Simulation time: 0 hr 19 min 22 sec) 
Heartbeat CPU  0 instructions:  435000001 cycles:  917682061 heartbeat IPC: 0.51098 cumulative IPC: 0.39510 (Simulation time: 0 hr 19 min 25 sec) 
Heartbeat CPU  0 instructions:  436000000 cycles:  919632269 heartbeat IPC: 0.51277 cumulative IPC: 0.39537 (Simulation time: 0 hr 19 min 28 sec) 
Heartbeat CPU  0 instructions:  437000000 cycles:  921435200 heartbeat IPC: 0.55465 cumulative IPC: 0.39571 (Simulation time: 0 hr 19 min 30 sec) 
Heartbeat CPU  0 instructions:  438000000 cycles:  923366744 heartbeat IPC: 0.51772 cumulative IPC: 0.39599 (Simulation time: 0 hr 19 min 33 sec) 
Heartbeat CPU  0 instructions:  439000001 cycles:  925323120 heartbeat IPC: 0.51115 cumulative IPC: 0.39625 (Simulation time: 0 hr 19 min 36 sec) 
Heartbeat CPU  0 instructions:  440000000 cycles:  927179166 heartbeat IPC: 0.53878 cumulative IPC: 0.39656 (Simulation time: 0 hr 19 min 39 sec) 
Heartbeat CPU  0 instructions:  441000001 cycles:  929049593 heartbeat IPC: 0.53464 cumulative IPC: 0.39686 (Simulation time: 0 hr 19 min 41 sec) 
Heartbeat CPU  0 instructions:  442000001 cycles:  931006839 heartbeat IPC: 0.51092 cumulative IPC: 0.39712 (Simulation time: 0 hr 19 min 44 sec) 
Heartbeat CPU  0 instructions:  443000002 cycles:  932935880 heartbeat IPC: 0.51839 cumulative IPC: 0.39739 (Simulation time: 0 hr 19 min 47 sec) 
Heartbeat CPU  0 instructions:  444000000 cycles:  938474415 heartbeat IPC: 0.18055 cumulative IPC: 0.39601 (Simulation time: 0 hr 19 min 50 sec) 
Heartbeat CPU  0 instructions:  445000003 cycles:  950815060 heartbeat IPC: 0.08103 cumulative IPC: 0.39160 (Simulation time: 0 hr 19 min 53 sec) 
Heartbeat CPU  0 instructions:  446000000 cycles:  952763664 heartbeat IPC: 0.51319 cumulative IPC: 0.39186 (Simulation time: 0 hr 19 min 56 sec) 
Heartbeat CPU  0 instructions:  447000003 cycles:  954531654 heartbeat IPC: 0.56562 cumulative IPC: 0.39221 (Simulation time: 0 hr 19 min 59 sec) 
Heartbeat CPU  0 instructions:  448000000 cycles:  956445979 heartbeat IPC: 0.52238 cumulative IPC: 0.39249 (Simulation time: 0 hr 20 min 2 sec) 
Heartbeat CPU  0 instructions:  449000000 cycles:  958386060 heartbeat IPC: 0.51544 cumulative IPC: 0.39276 (Simulation time: 0 hr 20 min 4 sec) 
Heartbeat CPU  0 instructions:  450000000 cycles:  960216852 heartbeat IPC: 0.54621 cumulative IPC: 0.39308 (Simulation time: 0 hr 20 min 7 sec) 
Heartbeat CPU  0 instructions:  451000000 cycles:  962061478 heartbeat IPC: 0.54212 cumulative IPC: 0.39338 (Simulation time: 0 hr 20 min 10 sec) 
Heartbeat CPU  0 instructions:  452000000 cycles:  964003592 heartbeat IPC: 0.51490 cumulative IPC: 0.39365 (Simulation time: 0 hr 20 min 13 sec) 
Heartbeat CPU  0 instructions:  453000001 cycles:  965911801 heartbeat IPC: 0.52405 cumulative IPC: 0.39393 (Simulation time: 0 hr 20 min 15 sec) 
Heartbeat CPU  0 instructions:  454000001 cycles:  967686984 heartbeat IPC: 0.56332 cumulative IPC: 0.39426 (Simulation time: 0 hr 20 min 18 sec) 
Heartbeat CPU  0 instructions:  455000000 cycles:  969626299 heartbeat IPC: 0.51565 cumulative IPC: 0.39452 (Simulation time: 0 hr 20 min 21 sec) 
Heartbeat CPU  0 instructions:  456000000 cycles:  971558925 heartbeat IPC: 0.51743 cumulative IPC: 0.39479 (Simulation time: 0 hr 20 min 23 sec) 
Heartbeat CPU  0 instructions:  457000000 cycles:  973335488 heartbeat IPC: 0.56288 cumulative IPC: 0.39512 (Simulation time: 0 hr 20 min 26 sec) 
Heartbeat CPU  0 instructions:  458000003 cycles:  975231125 heartbeat IPC: 0.52753 cumulative IPC: 0.39539 (Simulation time: 0 hr 20 min 29 sec) 
Heartbeat CPU  0 instructions:  459000000 cycles:  977173482 heartbeat IPC: 0.51484 cumulative IPC: 0.39565 (Simulation time: 0 hr 20 min 32 sec) 
Heartbeat CPU  0 instructions:  460000000 cycles:  979022889 heartbeat IPC: 0.54071 cumulative IPC: 0.39594 (Simulation time: 0 hr 20 min 34 sec) 
Heartbeat CPU  0 instructions:  461000000 cycles:  980848651 heartbeat IPC: 0.54772 cumulative IPC: 0.39625 (Simulation time: 0 hr 20 min 37 sec) 
Heartbeat CPU  0 instructions:  462000003 cycles:  982786641 heartbeat IPC: 0.51600 cumulative IPC: 0.39650 (Simulation time: 0 hr 20 min 40 sec) 
Heartbeat CPU  0 instructions:  463000003 cycles:  984702408 heartbeat IPC: 0.52198 cumulative IPC: 0.39677 (Simulation time: 0 hr 20 min 42 sec) 
Heartbeat CPU  0 instructions:  464000000 cycles:  986465628 heartbeat IPC: 0.56714 cumulative IPC: 0.39709 (Simulation time: 0 hr 20 min 45 sec) 
Heartbeat CPU  0 instructions:  465000000 cycles:  988392743 heartbeat IPC: 0.51891 cumulative IPC: 0.39735 (Simulation time: 0 hr 20 min 48 sec) 
Heartbeat CPU  0 instructions:  466000000 cycles:  990326860 heartbeat IPC: 0.51703 cumulative IPC: 0.39760 (Simulation time: 0 hr 20 min 51 sec) 
Heartbeat CPU  0 instructions:  467000000 cycles: 1003025769 heartbeat IPC: 0.07875 cumulative IPC: 0.39326 (Simulation time: 0 hr 20 min 54 sec) 
Heartbeat CPU  0 instructions:  468000000 cycles: 1007883990 heartbeat IPC: 0.20584 cumulative IPC: 0.39229 (Simulation time: 0 hr 20 min 57 sec) 
Heartbeat CPU  0 instructions:  469000002 cycles: 1009823844 heartbeat IPC: 0.51550 cumulative IPC: 0.39255 (Simulation time: 0 hr 21 min 0 sec) 
Heartbeat CPU  0 instructions:  470000000 cycles: 1011681726 heartbeat IPC: 0.53825 cumulative IPC: 0.39283 (Simulation time: 0 hr 21 min 3 sec) 
Heartbeat CPU  0 instructions:  471000002 cycles: 1013506107 heartbeat IPC: 0.54813 cumulative IPC: 0.39313 (Simulation time: 0 hr 21 min 6 sec) 
Heartbeat CPU  0 instructions:  472000000 cycles: 1015449587 heartbeat IPC: 0.51454 cumulative IPC: 0.39338 (Simulation time: 0 hr 21 min 8 sec) 
Heartbeat CPU  0 instructions:  473000003 cycles: 1017370238 heartbeat IPC: 0.52066 cumulative IPC: 0.39364 (Simulation time: 0 hr 21 min 11 sec) 
Heartbeat CPU  0 instructions:  474000002 cycles: 1019138438 heartbeat IPC: 0.56555 cumulative IPC: 0.39396 (Simulation time: 0 hr 21 min 14 sec) 
Heartbeat CPU  0 instructions:  475000003 cycles: 1021066701 heartbeat IPC: 0.51860 cumulative IPC: 0.39421 (Simulation time: 0 hr 21 min 16 sec) 
Heartbeat CPU  0 instructions:  476000000 cycles: 1023008602 heartbeat IPC: 0.51496 cumulative IPC: 0.39446 (Simulation time: 0 hr 21 min 19 sec) 
Heartbeat CPU  0 instructions:  477000003 cycles: 1024803172 heartbeat IPC: 0.55724 cumulative IPC: 0.39477 (Simulation time: 0 hr 21 min 22 sec) 
Heartbeat CPU  0 instructions:  478000003 cycles: 1026686984 heartbeat IPC: 0.53084 cumulative IPC: 0.39503 (Simulation time: 0 hr 21 min 25 sec) 
Heartbeat CPU  0 instructions:  479000000 cycles: 1028628541 heartbeat IPC: 0.51505 cumulative IPC: 0.39528 (Simulation time: 0 hr 21 min 27 sec) 
Heartbeat CPU  0 instructions:  480000000 cycles: 1030494989 heartbeat IPC: 0.53578 cumulative IPC: 0.39555 (Simulation time: 0 hr 21 min 30 sec) 
Heartbeat CPU  0 instructions:  481000000 cycles: 1032297752 heartbeat IPC: 0.55470 cumulative IPC: 0.39585 (Simulation time: 0 hr 21 min 33 sec) 
Heartbeat CPU  0 instructions:  482000000 cycles: 1034238599 heartbeat IPC: 0.51524 cumulative IPC: 0.39609 (Simulation time: 0 hr 21 min 36 sec) 
Heartbeat CPU  0 instructions:  483000001 cycles: 1036263738 heartbeat IPC: 0.49379 cumulative IPC: 0.39629 (Simulation time: 0 hr 21 min 38 sec) 
Heartbeat CPU  0 instructions:  484000000 cycles: 1038157177 heartbeat IPC: 0.52814 cumulative IPC: 0.39655 (Simulation time: 0 hr 21 min 41 sec) 
Heartbeat CPU  0 instructions:  485000001 cycles: 1040196221 heartbeat IPC: 0.49043 cumulative IPC: 0.39675 (Simulation time: 0 hr 21 min 44 sec) 
Heartbeat CPU  0 instructions:  486000001 cycles: 1042141030 heartbeat IPC: 0.51419 cumulative IPC: 0.39698 (Simulation time: 0 hr 21 min 47 sec) 
Heartbeat CPU  0 instructions:  487000000 cycles: 1043955057 heartbeat IPC: 0.55126 cumulative IPC: 0.39727 (Simulation time: 0 hr 21 min 49 sec) 
Heartbeat CPU  0 instructions:  488000000 cycles: 1045814559 heartbeat IPC: 0.53778 cumulative IPC: 0.39754 (Simulation time: 0 hr 21 min 52 sec) 
Heartbeat CPU  0 instructions:  489000001 cycles: 1053222700 heartbeat IPC: 0.13499 cumulative IPC: 0.39556 (Simulation time: 0 hr 21 min 55 sec) 
Heartbeat CPU  0 instructions:  490000003 cycles: 1063450663 heartbeat IPC: 0.09777 cumulative IPC: 0.39249 (Simulation time: 0 hr 21 min 59 sec) 
Heartbeat CPU  0 instructions:  491000001 cycles: 1065261346 heartbeat IPC: 0.55228 cumulative IPC: 0.39278 (Simulation time: 0 hr 22 min 1 sec) 
Heartbeat CPU  0 instructions:  492000000 cycles: 1067209917 heartbeat IPC: 0.51320 cumulative IPC: 0.39302 (Simulation time: 0 hr 22 min 4 sec) 
Heartbeat CPU  0 instructions:  493000000 cycles: 1069142094 heartbeat IPC: 0.51755 cumulative IPC: 0.39326 (Simulation time: 0 hr 22 min 7 sec) 
Heartbeat CPU  0 instructions:  494000002 cycles: 1070912783 heartbeat IPC: 0.56475 cumulative IPC: 0.39356 (Simulation time: 0 hr 22 min 10 sec) 
Heartbeat CPU  0 instructions:  495000000 cycles: 1072843718 heartbeat IPC: 0.51788 cumulative IPC: 0.39380 (Simulation time: 0 hr 22 min 12 sec) 
Heartbeat CPU  0 instructions:  496000000 cycles: 1074788734 heartbeat IPC: 0.51413 cumulative IPC: 0.39404 (Simulation time: 0 hr 22 min 15 sec) 
Heartbeat CPU  0 instructions:  497000001 cycles: 1076620390 heartbeat IPC: 0.54595 cumulative IPC: 0.39431 (Simulation time: 0 hr 22 min 18 sec) 
Heartbeat CPU  0 instructions:  498000001 cycles: 1078481175 heartbeat IPC: 0.53741 cumulative IPC: 0.39458 (Simulation time: 0 hr 22 min 20 sec) 
Heartbeat CPU  0 instructions:  499000001 cycles: 1080425047 heartbeat IPC: 0.51444 cumulative IPC: 0.39481 (Simulation time: 0 hr 22 min 23 sec) 
Heartbeat CPU  0 instructions:  500000000 cycles: 1082319805 heartbeat IPC: 0.52777 cumulative IPC: 0.39506 (Simulation time: 0 hr 22 min 26 sec) 
Heartbeat CPU  0 instructions:  501000002 cycles: 1084112755 heartbeat IPC: 0.55774 cumulative IPC: 0.39534 (Simulation time: 0 hr 22 min 29 sec) 
Heartbeat CPU  0 instructions:  502000002 cycles: 1086054509 heartbeat IPC: 0.51500 cumulative IPC: 0.39557 (Simulation time: 0 hr 22 min 31 sec) 
Heartbeat CPU  0 instructions:  503000002 cycles: 1087989208 heartbeat IPC: 0.51688 cumulative IPC: 0.39580 (Simulation time: 0 hr 22 min 34 sec) 
Heartbeat CPU  0 instructions:  504000000 cycles: 1089760442 heartbeat IPC: 0.56458 cumulative IPC: 0.39610 (Simulation time: 0 hr 22 min 37 sec) 
Heartbeat CPU  0 instructions:  505000002 cycles: 1091683072 heartbeat IPC: 0.52012 cumulative IPC: 0.39633 (Simulation time: 0 hr 22 min 40 sec) 
Heartbeat CPU  0 instructions:  506000002 cycles: 1093628870 heartbeat IPC: 0.51393 cumulative IPC: 0.39655 (Simulation time: 0 hr 22 min 42 sec) 
Heartbeat CPU  0 instructions:  507000001 cycles: 1095461491 heartbeat IPC: 0.54567 cumulative IPC: 0.39682 (Simulation time: 0 hr 22 min 45 sec) 
Heartbeat CPU  0 instructions:  508000000 cycles: 1097314583 heartbeat IPC: 0.53964 cumulative IPC: 0.39708 (Simulation time: 0 hr 22 min 48 sec) 
Heartbeat CPU  0 instructions:  509000000 cycles: 1099270997 heartbeat IPC: 0.51114 cumulative IPC: 0.39729 (Simulation time: 0 hr 22 min 51 sec) 
Heartbeat CPU  0 instructions:  510000003 cycles: 1101180063 heartbeat IPC: 0.52382 cumulative IPC: 0.39753 (Simulation time: 0 hr 22 min 54 sec) 
Heartbeat CPU  0 instructions:  511000001 cycles: 1103271399 heartbeat IPC: 0.47816 cumulative IPC: 0.39769 (Simulation time: 0 hr 22 min 57 sec) 
Heartbeat CPU  0 instructions:  512000000 cycles: 1117617336 heartbeat IPC: 0.06971 cumulative IPC: 0.39320 (Simulation time: 0 hr 23 min 1 sec) 
Heartbeat CPU  0 instructions:  513000000 cycles: 1120692819 heartbeat IPC: 0.32515 cumulative IPC: 0.39300 (Simulation time: 0 hr 23 min 4 sec) 
Heartbeat CPU  0 instructions:  514000001 cycles: 1122500783 heartbeat IPC: 0.55311 cumulative IPC: 0.39328 (Simulation time: 0 hr 23 min 7 sec) 
Heartbeat CPU  0 instructions:  515000002 cycles: 1124437152 heartbeat IPC: 0.51643 cumulative IPC: 0.39350 (Simulation time: 0 hr 23 min 10 sec) 
Heartbeat CPU  0 instructions:  516000000 cycles: 1126402151 heartbeat IPC: 0.50891 cumulative IPC: 0.39372 (Simulation time: 0 hr 23 min 13 sec) 
Heartbeat CPU  0 instructions:  517000002 cycles: 1128252878 heartbeat IPC: 0.54033 cumulative IPC: 0.39397 (Simulation time: 0 hr 23 min 16 sec) 
Heartbeat CPU  0 instructions:  518000000 cycles: 1130140715 heartbeat IPC: 0.52971 cumulative IPC: 0.39421 (Simulation time: 0 hr 23 min 19 sec) 
Heartbeat CPU  0 instructions:  519000000 cycles: 1132104973 heartbeat IPC: 0.50910 cumulative IPC: 0.39443 (Simulation time: 0 hr 23 min 22 sec) 
Heartbeat CPU  0 instructions:  520000000 cycles: 1134027864 heartbeat IPC: 0.52005 cumulative IPC: 0.39465 (Simulation time: 0 hr 23 min 25 sec) 
Heartbeat CPU  0 instructions:  521000003 cycles: 1135845559 heartbeat IPC: 0.55015 cumulative IPC: 0.39492 (Simulation time: 0 hr 23 min 28 sec) 
Heartbeat CPU  0 instructions:  522000001 cycles: 1137809769 heartbeat IPC: 0.50911 cumulative IPC: 0.39513 (Simulation time: 0 hr 23 min 31 sec) 
Heartbeat CPU  0 instructions:  523000001 cycles: 1139774445 heartbeat IPC: 0.50899 cumulative IPC: 0.39534 (Simulation time: 0 hr 23 min 34 sec) 
Heartbeat CPU  0 instructions:  524000000 cycles: 1141579239 heartbeat IPC: 0.55408 cumulative IPC: 0.39561 (Simulation time: 0 hr 23 min 37 sec) 
Heartbeat CPU  0 instructions:  525000000 cycles: 1143510942 heartbeat IPC: 0.51768 cumulative IPC: 0.39583 (Simulation time: 0 hr 23 min 40 sec) 
Heartbeat CPU  0 instructions:  526000002 cycles: 1145475033 heartbeat IPC: 0.50914 cumulative IPC: 0.39603 (Simulation time: 0 hr 23 min 43 sec) 
Heartbeat CPU  0 instructions:  527000002 cycles: 1147340315 heartbeat IPC: 0.53611 cumulative IPC: 0.39627 (Simulation time: 0 hr 23 min 45 sec) 
Heartbeat CPU  0 instructions:  528000000 cycles: 1149204774 heartbeat IPC: 0.53635 cumulative IPC: 0.39652 (Simulation time: 0 hr 23 min 48 sec) 
[...]
Heartbeat CPU  0 instructions:  552000000 cycles: 1208898880 heartbeat IPC: 0.51304 cumulative IPC: 0.39681 (Simulation time: 0 hr 25 min 3 sec) 
Heartbeat CPU  0 instructions:  553000002 cycles: 1210861216 heartbeat IPC: 0.50960 cumulative IPC: 0.39700 (Simulation time: 0 hr 25 min 6 sec) 
Heartbeat CPU  0 instructions:  554000002 cycles: 1212690334 heartbeat IPC: 0.54671 cumulative IPC: 0.39724 (Simulation time: 0 hr 25 min 9 sec) 
Heartbeat CPU  0 instructions:  555000003 cycles: 1214587816 heartbeat IPC: 0.52701 cumulative IPC: 0.39746 (Simulation time: 0 hr 25 min 12 sec) 
Heartbeat CPU  0 instructions:  556000000 cycles: 1218504095 heartbeat IPC: 0.25534 cumulative IPC: 0.39697 (Simulation time: 0 hr 25 min 15 sec) 
Heartbeat CPU  0 instructions:  557000002 cycles: 1232471729 heartbeat IPC: 0.07159 cumulative IPC: 0.39306 (Simulation time: 0 hr 25 min 19 sec) 
Heartbeat CPU  0 instructions:  558000003 cycles: 1234322783 heartbeat IPC: 0.54023 cumulative IPC: 0.39330 (Simulation time: 0 hr 25 min 22 sec) 
Heartbeat CPU  0 instructions:  559000000 cycles: 1236286102 heartbeat IPC: 0.50934 cumulative IPC: 0.39349 (Simulation time: 0 hr 25 min 25 sec) 
Heartbeat CPU  0 instructions:  560000000 cycles: 1238233365 heartbeat IPC: 0.51354 cumulative IPC: 0.39369 (Simulation time: 0 hr 25 min 28 sec) 
Heartbeat CPU  0 instructions:  561000002 cycles: 1240038987 heartbeat IPC: 0.55383 cumulative IPC: 0.39394 (Simulation time: 0 hr 25 min 31 sec) 
Heartbeat CPU  0 instructions:  562000002 cycles: 1241985390 heartbeat IPC: 0.51377 cumulative IPC: 0.39414 (Simulation time: 0 hr 25 min 34 sec) 
Heartbeat CPU  0 instructions:  563000001 cycles: 1243945445 heartbeat IPC: 0.51019 cumulative IPC: 0.39433 (Simulation time: 0 hr 25 min 38 sec) 
Heartbeat CPU  0 instructions:  564000000 cycles: 1245771658 heartbeat IPC: 0.54758 cumulative IPC: 0.39457 (Simulation time: 0 hr 25 min 42 sec) 
Heartbeat CPU  0 instructions:  565000003 cycles: 1247672654 heartbeat IPC: 0.52604 cumulative IPC: 0.39478 (Simulation time: 0 hr 25 min 45 sec) 
Heartbeat CPU  0 instructions:  566000000 cycles: 1249635943 heartbeat IPC: 0.50935 cumulative IPC: 0.39497 (Simulation time: 0 hr 25 min 49 sec) 
Heartbeat CPU  0 instructions:  567000003 cycles: 1251539510 heartbeat IPC: 0.52533 cumulative IPC: 0.39518 (Simulation time: 0 hr 25 min 53 sec) 
Heartbeat CPU  0 instructions:  568000000 cycles: 1253368394 heartbeat IPC: 0.54678 cumulative IPC: 0.39542 (Simulation time: 0 hr 25 min 56 sec) 
Heartbeat CPU  0 instructions:  569000000 cycles: 1255327825 heartbeat IPC: 0.51035 cumulative IPC: 0.39561 (Simulation time: 0 hr 25 min 59 sec) 
Heartbeat CPU  0 instructions:  570000002 cycles: 1257280881 heartbeat IPC: 0.51202 cumulative IPC: 0.39580 (Simulation time: 0 hr 26 min 2 sec) 
Heartbeat CPU  0 instructions:  571000000 cycles: 1259085740 heartbeat IPC: 0.55406 cumulative IPC: 0.39604 (Simulation time: 0 hr 26 min 5 sec) 
Heartbeat CPU  0 instructions:  572000000 cycles: 1261021600 heartbeat IPC: 0.51657 cumulative IPC: 0.39623 (Simulation time: 0 hr 26 min 7 sec) 
Heartbeat CPU  0 instructions:  573000002 cycles: 1262990855 heartbeat IPC: 0.50781 cumulative IPC: 0.39642 (Simulation time: 0 hr 26 min 10 sec) 
Heartbeat CPU  0 instructions:  574000001 cycles: 1264831955 heartbeat IPC: 0.54315 cumulative IPC: 0.39664 (Simulation time: 0 hr 26 min 13 sec) 
Heartbeat CPU  0 instructions:  575000003 cycles: 1266717514 heartbeat IPC: 0.53035 cumulative IPC: 0.39685 (Simulation time: 0 hr 26 min 16 sec) 
Heartbeat CPU  0 instructions:  576000000 cycles: 1268675116 heartbeat IPC: 0.51083 cumulative IPC: 0.39704 (Simulation time: 0 hr 26 min 18 sec) 
Heartbeat CPU  0 instructions:  577000002 cycles: 1270596710 heartbeat IPC: 0.52040 cumulative IPC: 0.39724 (Simulation time: 0 hr 26 min 21 sec) 
Heartbeat CPU  0 instructions:  578000002 cycles: 1272412749 heartbeat IPC: 0.55065 cumulative IPC: 0.39747 (Simulation time: 0 hr 26 min 24 sec) 
Heartbeat CPU  0 instructions:  579000003 cycles: 1283383995 heartbeat IPC: 0.09115 cumulative IPC: 0.39470 (Simulation time: 0 hr 26 min 27 sec) 
Heartbeat CPU  0 instructions:  580000000 cycles: 1290217061 heartbeat IPC: 0.14635 cumulative IPC: 0.39331 (Simulation time: 0 hr 26 min 31 sec) 
Heartbeat CPU  0 instructions:  581000003 cycles: 1291987910 heartbeat IPC: 0.56470 cumulative IPC: 0.39356 (Simulation time: 0 hr 26 min 33 sec) 
Heartbeat CPU  0 instructions:  582000001 cycles: 1293903784 heartbeat IPC: 0.52195 cumulative IPC: 0.39376 (Simulation time: 0 hr 26 min 36 sec) 
Heartbeat CPU  0 instructions:  583000002 cycles: 1295853170 heartbeat IPC: 0.51298 cumulative IPC: 0.39395 (Simulation time: 0 hr 26 min 39 sec) 
Heartbeat CPU  0 instructions:  584000000 cycles: 1297684487 heartbeat IPC: 0.54605 cumulative IPC: 0.39418 (Simulation time: 0 hr 26 min 42 sec) 
Heartbeat CPU  0 instructions:  585000003 cycles: 1299562133 heartbeat IPC: 0.53258 cumulative IPC: 0.39439 (Simulation time: 0 hr 26 min 44 sec) 
Heartbeat CPU  0 instructions:  586000003 cycles: 1301658375 heartbeat IPC: 0.47704 cumulative IPC: 0.39453 (Simulation time: 0 hr 26 min 47 sec) 
Heartbeat CPU  0 instructions:  587000001 cycles: 1303729927 heartbeat IPC: 0.48273 cumulative IPC: 0.39468 (Simulation time: 0 hr 26 min 50 sec) 
Heartbeat CPU  0 instructions:  588000000 cycles: 1305516699 heartbeat IPC: 0.55967 cumulative IPC: 0.39491 (Simulation time: 0 hr 26 min 52 sec) 
Heartbeat CPU  0 instructions:  589000000 cycles: 1307455217 heartbeat IPC: 0.51586 cumulative IPC: 0.39510 (Simulation time: 0 hr 26 min 55 sec) 
Heartbeat CPU  0 instructions:  590000001 cycles: 1309393623 heartbeat IPC: 0.51589 cumulative IPC: 0.39529 (Simulation time: 0 hr 26 min 58 sec) 
Heartbeat CPU  0 instructions:  591000000 cycles: 1311166774 heartbeat IPC: 0.56397 cumulative IPC: 0.39553 (Simulation time: 0 hr 27 min 1 sec) 
Heartbeat CPU  0 instructions:  592000000 cycles: 1313077153 heartbeat IPC: 0.52346 cumulative IPC: 0.39573 (Simulation time: 0 hr 27 min 3 sec) 
Heartbeat CPU  0 instructions:  593000002 cycles: 1315023991 heartbeat IPC: 0.51365 cumulative IPC: 0.39591 (Simulation time: 0 hr 27 min 6 sec) 
Heartbeat CPU  0 instructions:  594000002 cycles: 1316871335 heartbeat IPC: 0.54132 cumulative IPC: 0.39613 (Simulation time: 0 hr 27 min 9 sec) 
Heartbeat CPU  0 instructions:  595000003 cycles: 1318709009 heartbeat IPC: 0.54417 cumulative IPC: 0.39635 (Simulation time: 0 hr 27 min 11 sec) 
Heartbeat CPU  0 instructions:  596000000 cycles: 1320652909 heartbeat IPC: 0.51443 cumulative IPC: 0.39653 (Simulation time: 0 hr 27 min 14 sec) 
Heartbeat CPU  0 instructions:  597000003 cycles: 1322578095 heartbeat IPC: 0.51943 cumulative IPC: 0.39672 (Simulation time: 0 hr 27 min 17 sec) 
Heartbeat CPU  0 instructions:  598000000 cycles: 1324340318 heartbeat IPC: 0.56746 cumulative IPC: 0.39696 (Simulation time: 0 hr 27 min 20 sec) 
Heartbeat CPU  0 instructions:  599000000 cycles: 1326284059 heartbeat IPC: 0.51447 cumulative IPC: 0.39714 (Simulation time: 0 hr 27 min 22 sec) 
Heartbeat CPU  0 instructions:  600000000 cycles: 1328224853 heartbeat IPC: 0.51525 cumulative IPC: 0.39732 (Simulation time: 0 hr 27 min 25 sec) 
Finished CPU 0 instructions: 500000000 cycles: 1258420045 cumulative IPC: 0.39732 (Simulation time: 0 hr 27 min 25 sec) 

ChampSim completed all CPUs

[ROI Statistics]
Core_0_instructions 500000000
Core_0_cycles 1258420045
Core_0_IPC 0.39732

Core_0_branch_prediction_accuracy 99.17161
Core_0_branch_MPKI 0.01066
Core_0_average_ROB_occupancy_at_mispredict 253.69169

Core_0_L1D_total_access 254318148
Core_0_L1D_total_hit 250328203
Core_0_L1D_total_miss 3989945
Core_0_L1D_loads 171417436
Core_0_L1D_load_hit 168180029
Core_0_L1D_load_miss 3237407
Core_0_L1D_RFOs 82900712
Core_0_L1D_RFO_hit 82148174
Core_0_L1D_RFO_miss 752538
Core_0_L1D_prefetches 0
Core_0_L1D_prefetch_hit 0
Core_0_L1D_prefetch_miss 0
Core_0_L1D_writebacks 0
Core_0_L1D_writeback_hit 0
Core_0_L1D_writeback_miss 0
Core_0_L1D_prefetch_requested 0
Core_0_L1D_prefetch_dropped 0
Core_0_L1D_prefetch_issued 0
Core_0_L1D_prefetch_filled 0
Core_0_L1D_prefetch_useful 0
Core_0_L1D_prefetch_useless 0
Core_0_L1D_prefetch_late 0
Core_0_L1D_average_miss_latency 108.22629

Core_0_L1D_rq_access 255854014
Core_0_L1D_rq_forward 0
Core_0_L1D_rq_merged 84010101
Core_0_L1D_rq_to_cache 171449833
Core_0_L1D_rq_full 0

Core_0_L1D_wq_access 84479085
Core_0_L1D_wq_forward 394080
Core_0_L1D_wq_merged 1200595
Core_0_L1D_wq_to_cache 83278490
Core_0_L1D_wq_full 2

Core_0_L1D_pq_access 0
Core_0_L1D_pq_forward 0
Core_0_L1D_pq_merged 0
Core_0_L1D_pq_to_cache 0
Core_0_L1D_pq_full 0

Core_0_L1D_acc_epochs 668998
Core_0_L1D_acc_level_0 668998
Core_0_L1D_acc_level_1 0
Core_0_L1D_acc_level_2 0
Core_0_L1D_acc_level_3 0
Core_0_L1D_acc_level_4 0
Core_0_L1D_acc_level_5 0
Core_0_L1D_acc_level_6 0
Core_0_L1D_acc_level_7 0
Core_0_L1D_acc_level_8 0
Core_0_L1D_acc_level_9 0

Core_0_L1I_total_access 133613514
Core_0_L1I_total_hit 133613514
Core_0_L1I_total_miss 0
Core_0_L1I_loads 133613514
Core_0_L1I_load_hit 133613514
Core_0_L1I_load_miss 0
Core_0_L1I_RFOs 0
Core_0_L1I_RFO_hit 0
Core_0_L1I_RFO_miss 0
Core_0_L1I_prefetches 0
Core_0_L1I_prefetch_hit 0
Core_0_L1I_prefetch_miss 0
Core_0_L1I_writebacks 0
Core_0_L1I_writeback_hit 0
Core_0_L1I_writeback_miss 0
Core_0_L1I_prefetch_requested 0
Core_0_L1I_prefetch_dropped 0
Core_0_L1I_prefetch_issued 0
Core_0_L1I_prefetch_filled 0
Core_0_L1I_prefetch_useful 0
Core_0_L1I_prefetch_useless 0
Core_0_L1I_prefetch_late 0
Core_0_L1I_average_miss_latency -nan

Core_0_L1I_rq_access 500000000
Core_0_L1I_rq_forward 0
Core_0_L1I_rq_merged 366386486
Core_0_L1I_rq_to_cache 133613514
Core_0_L1I_rq_full 0

Core_0_L1I_wq_access 0
Core_0_L1I_wq_forward 0
Core_0_L1I_wq_merged 0
Core_0_L1I_wq_to_cache 0
Core_0_L1I_wq_full 0

Core_0_L1I_pq_access 0
Core_0_L1I_pq_forward 0
Core_0_L1I_pq_merged 0
Core_0_L1I_pq_to_cache 0
Core_0_L1I_pq_full 0

Core_0_L1I_acc_epochs 668998
Core_0_L1I_acc_level_0 668998
Core_0_L1I_acc_level_1 0
Core_0_L1I_acc_level_2 0
Core_0_L1I_acc_level_3 0
Core_0_L1I_acc_level_4 0
Core_0_L1I_acc_level_5 0
Core_0_L1I_acc_level_6 0
Core_0_L1I_acc_level_7 0
Core_0_L1I_acc_level_8 0
Core_0_L1I_acc_level_9 0

Core_0_L2C_total_access 9965976
Core_0_L2C_total_hit 7382094
Core_0_L2C_total_miss 2583882
Core_0_L2C_loads 3237407
Core_0_L2C_load_hit 2463047
Core_0_L2C_load_miss 774360
Core_0_L2C_RFOs 752538
Core_0_L2C_RFO_hit 87
Core_0_L2C_RFO_miss 752451
Core_0_L2C_prefetches 5189712
Core_0_L2C_prefetch_hit 4133431
Core_0_L2C_prefetch_miss 1056281
Core_0_L2C_writebacks 786319
Core_0_L2C_writeback_hit 785529
Core_0_L2C_writeback_miss 790
Core_0_L2C_prefetch_requested 16831056
Core_0_L2C_prefetch_dropped 1461345
Core_0_L2C_prefetch_issued 15369711
Core_0_L2C_prefetch_filled 1238314
Core_0_L2C_prefetch_useful 1237219
Core_0_L2C_prefetch_useless 1077
Core_0_L2C_prefetch_late 25177
Core_0_L2C_average_miss_latency 132.69880

Core_0_L2C_rq_access 3989945
Core_0_L2C_rq_forward 0
Core_0_L2C_rq_merged 0
Core_0_L2C_rq_to_cache 3989945
Core_0_L2C_rq_full 0

Core_0_L2C_wq_access 786319
Core_0_L2C_wq_forward 0
Core_0_L2C_wq_merged 0
Core_0_L2C_wq_to_cache 786319
Core_0_L2C_wq_full 0

Core_0_L2C_pq_access 15369711
Core_0_L2C_pq_forward 0
Core_0_L2C_pq_merged 494860
Core_0_L2C_pq_to_cache 14874851
Core_0_L2C_pq_full 0

Core_0_L2C_acc_epochs 668998
Core_0_L2C_acc_level_0 189412
Core_0_L2C_acc_level_1 83038
Core_0_L2C_acc_level_2 74206
Core_0_L2C_acc_level_3 55398
Core_0_L2C_acc_level_4 32859
Core_0_L2C_acc_level_5 60281
Core_0_L2C_acc_level_6 32709
Core_0_L2C_acc_level_7 26740
Core_0_L2C_acc_level_8 19545
Core_0_L2C_acc_level_9 94810

Core_0_LLC_total_access 10571245
Core_0_LLC_total_hit 7306326
Core_0_LLC_total_miss 3264919
Core_0_LLC_loads 749194
Core_0_LLC_load_hit 670171
Core_0_LLC_load_miss 79023
Core_0_LLC_RFOs 752451
Core_0_LLC_RFO_hit 17182
Core_0_LLC_RFO_miss 735269
Core_0_LLC_prefetches 8316608
Core_0_LLC_prefetch_hit 6561158
Core_0_LLC_prefetch_miss 1755450
Core_0_LLC_writebacks 752992
Core_0_LLC_writeback_hit 57815
Core_0_LLC_writeback_miss 695177
Core_0_LLC_prefetch_requested 0
Core_0_LLC_prefetch_dropped 0
Core_0_LLC_prefetch_issued 0
Core_0_LLC_prefetch_filled 2078106
Core_0_LLC_prefetch_useful 822609
Core_0_LLC_prefetch_useless 1238773
Core_0_LLC_prefetch_late 1469
Core_0_LLC_average_miss_latency 169.09143

Core_0_LLC_rq_access 1501645
Core_0_LLC_rq_forward 0
Core_0_LLC_rq_merged 0
Core_0_LLC_rq_to_cache 1501645
Core_0_LLC_rq_full 0

Core_0_LLC_wq_access 752992
Core_0_LLC_wq_forward 0
Core_0_LLC_wq_merged 0
Core_0_LLC_wq_to_cache 752992
Core_0_LLC_wq_full 0

Core_0_LLC_pq_access 9855682
Core_0_LLC_pq_forward 0
Core_0_LLC_pq_merged 16476
Core_0_LLC_pq_to_cache 9839206
Core_0_LLC_pq_full 0

Core_0_LLC_acc_epochs 1297095
Core_0_LLC_acc_level_0 752560
Core_0_LLC_acc_level_1 192062
Core_0_LLC_acc_level_2 137536
Core_0_LLC_acc_level_3 58943
Core_0_LLC_acc_level_4 21455
Core_0_LLC_acc_level_5 78139
Core_0_LLC_acc_level_6 17606
Core_0_LLC_acc_level_7 11053
Core_0_LLC_acc_level_8 4859
Core_0_LLC_acc_level_9 22882

Core_0_major_page_fault 0
Core_0_minor_page_fault 23870

spp.pref.total 16831056
spp.pref.at_L2 2109440
spp.pref.at_LLC 14721616

spp.depth.max 10
spp.depth.min 0
spp.depth.avg 5

spp.breadth.max 2
spp.breadth.min 0
spp.breadth.avg 0

delta_1 9456629
delta_15 2855083
delta_16 2807956
delta_-30 2005117
delta_-15 975619
delta_-14 911645
delta_2 56623
delta_-1 30830
delta_-5 21022
delta_31 14852
delta_30 10292
delta_-2 10155
delta_-3 8743
delta_4 6950
delta_-7 6891
delta_-22 4974
delta_26 4286
delta_-26 4249
delta_8 3975
delta_27 3784
delta_-19 3566
delta_-6 2296
delta_18 2257
delta_-23 2244
delta_48 2120
delta_-4 2018
delta_7 1413
delta_20 1225
delta_-44 666
delta_24 540
delta_-46 412
delta_-56 368
delta_52 283
delta_51 237
delta_11 235
delta_25 229
delta_6 172
delta_5 150
delta_29 139
delta_-11 127
delta_21 116
delta_13 115
delta_-50 93
delta_-27 75
delta_-24 68
delta_17 64
delta_-12 42
delta_55 40
delta_-49 37
delta_-35 35
delta_3 32
delta_-38 32
delta_33 24
delta_14 22
delta_-32 21
delta_-55 13
delta_19 13
delta_-10 12
delta_36 11
delta_-47 9
delta_53 7
delta_39 6
delta_54 6
delta_56 5
delta_10 5
delta_40 3
delta_-17 3
delta_-57 2
delta_23 2
delta_-18 1

depth_1_delta_1 1722318
depth_1_delta_16 596257
depth_1_delta_15 571726
depth_1_delta_-30 383786
depth_1_delta_-15 230627
depth_1_delta_-14 209047
depth_1_delta_2 12418
depth_1_delta_-1 10111
depth_1_delta_30 10030
depth_1_delta_31 9993
depth_1_delta_-2 6160
depth_1_delta_-5 4597
depth_1_delta_8 2858
depth_1_delta_-3 2523
depth_1_delta_4 2407
depth_1_delta_-22 2356
depth_1_delta_48 2120
depth_1_delta_-7 1907
depth_1_delta_26 1583
depth_1_delta_27 1512
depth_1_delta_-26 1401
depth_1_delta_-6 1175
depth_1_delta_-4 1036
depth_1_delta_-19 1034
depth_1_delta_18 764
depth_1_delta_7 573
depth_1_delta_-23 470
depth_1_delta_20 426
depth_1_delta_24 365
depth_1_delta_-44 318
depth_1_delta_52 282
depth_1_delta_-46 226
depth_1_delta_-56 221
depth_1_delta_11 215
depth_1_delta_51 199
depth_1_delta_25 164
depth_1_delta_29 139
depth_1_delta_6 128
depth_1_delta_5 108
depth_1_delta_21 98
depth_1_delta_-50 92
depth_1_delta_13 69
depth_1_delta_-24 64
depth_1_delta_17 62
depth_1_delta_-27 57
depth_1_delta_-11 56
depth_1_delta_55 39
depth_1_delta_-49 37
depth_1_delta_-12 36
depth_1_delta_3 32
depth_1_delta_-35 29
depth_1_delta_-38 27
depth_1_delta_33 23
depth_1_delta_14 21
depth_1_delta_-32 19
depth_1_delta_19 13
depth_1_delta_-55 12
depth_1_delta_-10 12
depth_1_delta_36 11
depth_1_delta_-47 9
depth_1_delta_53 7
depth_1_delta_39 6
depth_1_delta_56 5
depth_1_delta_10 5
depth_1_delta_54 5
depth_1_delta_40 3
depth_1_delta_-17 3
depth_1_delta_-57 2
depth_1_delta_23 2
depth_1_delta_-18 1
depth_2_delta_1 1678069
depth_2_delta_15 578589
depth_2_delta_16 559650
depth_2_delta_-30 394003
depth_2_delta_-15 221771
depth_2_delta_-14 195373
depth_2_delta_2 11372
depth_2_delta_-1 8664
depth_2_delta_-5 4648
depth_2_delta_31 3994
depth_2_delta_-2 3182
depth_2_delta_-3 2620
depth_2_delta_-22 2054
depth_2_delta_4 1520
depth_2_delta_-7 1515
depth_2_delta_26 1377
depth_2_delta_-26 1325
depth_2_delta_27 1247
depth_2_delta_-19 1026
depth_2_delta_8 933
depth_2_delta_-6 843
depth_2_delta_18 724
depth_2_delta_-4 501
depth_2_delta_-23 473
depth_2_delta_7 337
depth_2_delta_20 288
depth_2_delta_30 255
depth_2_delta_-44 238
depth_2_delta_-46 182
depth_2_delta_-56 143
depth_2_delta_24 108
depth_2_delta_25 63
depth_2_delta_13 46
depth_2_delta_51 38
depth_2_delta_5 37
depth_2_delta_-11 31
depth_2_delta_6 28
depth_2_delta_-27 18
depth_2_delta_11 17
depth_2_delta_21 15
depth_2_delta_-38 5
depth_2_delta_-35 5
depth_2_delta_-12 5
depth_2_delta_-24 4
depth_2_delta_17 2
depth_2_delta_-32 2
depth_2_delta_14 1
depth_2_delta_-50 1
depth_2_delta_-55 1
depth_2_delta_52 1
depth_2_delta_33 1
depth_2_delta_54 1
depth_2_delta_55 1
depth_3_delta_1 1631126
depth_3_delta_15 561045
depth_3_delta_16 547544
depth_3_delta_-30 389322
depth_3_delta_-15 180099
depth_3_delta_-14 176502
depth_3_delta_2 10134
depth_3_delta_-1 4541
depth_3_delta_-5 4376
depth_3_delta_-7 2533
depth_3_delta_-3 2437
depth_3_delta_4 1290
depth_3_delta_26 1149
depth_3_delta_-26 1042
depth_3_delta_31 865
depth_3_delta_27 817
depth_3_delta_-19 801
depth_3_delta_-2 671
depth_3_delta_-22 554
depth_3_delta_18 491
depth_3_delta_-23 470
depth_3_delta_20 296
depth_3_delta_7 274
depth_3_delta_-6 247
depth_3_delta_-4 241
depth_3_delta_-44 110
depth_3_delta_8 108
depth_3_delta_24 67
depth_3_delta_6 16
depth_3_delta_-11 15
depth_3_delta_30 7
depth_3_delta_5 5
depth_3_delta_-46 4
depth_3_delta_-56 4
depth_3_delta_21 3
depth_3_delta_11 3
depth_3_delta_25 1
depth_3_delta_-12 1
depth_3_delta_-35 1
depth_4_delta_1 1577122
depth_4_delta_16 510459
depth_4_delta_15 508715
depth_4_delta_-30 364499
depth_4_delta_-15 167082
depth_4_delta_-14 162482
depth_4_delta_2 9142
depth_4_delta_-1 3059
depth_4_delta_-5 2947
depth_4_delta_-3 1139
depth_4_delta_4 1086
depth_4_delta_-7 929
depth_4_delta_-19 483
depth_4_delta_-23 456
depth_4_delta_-26 440
depth_4_delta_18 271
depth_4_delta_20 198
depth_4_delta_7 197
depth_4_delta_-4 185
depth_4_delta_27 184
depth_4_delta_26 168
depth_4_delta_-2 139
depth_4_delta_8 76
depth_4_delta_-6 31
depth_4_delta_-11 12
depth_4_delta_-22 10
depth_4_delta_25 1
depth_5_delta_1 1376418
depth_5_delta_15 431245
depth_5_delta_16 403060
depth_5_delta_-30 309230
depth_5_delta_-15 124498
depth_5_delta_-14 114901
depth_5_delta_2 8425
depth_5_delta_-1 2835
depth_5_delta_-5 2810
depth_5_delta_4 594
depth_5_delta_-23 319
depth_5_delta_-19 222
depth_5_delta_-4 55
depth_5_delta_-26 41
depth_5_delta_7 31
depth_5_delta_-3 24
depth_5_delta_27 20
depth_5_delta_20 17
depth_5_delta_26 9
depth_5_delta_-11 9
depth_5_delta_18 7
depth_5_delta_-7 7
depth_5_delta_-2 3
depth_6_delta_1 955823
depth_6_delta_15 185526
depth_6_delta_16 173192
depth_6_delta_-30 150033
depth_6_delta_-14 48793
depth_6_delta_-15 46765
depth_6_delta_2 4738
depth_6_delta_-5 1522
depth_6_delta_-1 1517
depth_6_delta_-23 55
depth_6_delta_4 53
depth_6_delta_27 4
depth_6_delta_-11 3
depth_6_delta_7 1
depth_7_delta_1 415127
depth_7_delta_15 18006
depth_7_delta_16 17582
depth_7_delta_-30 14054
depth_7_delta_-15 4759
depth_7_delta_-14 4510
depth_7_delta_2 390
depth_7_delta_-5 122
depth_7_delta_-1 103
depth_7_delta_-11 1
depth_7_delta_-23 1
depth_8_delta_1 87445
depth_8_delta_15 227
depth_8_delta_16 209
depth_8_delta_-30 188
depth_8_delta_-14 35
depth_8_delta_-15 18
depth_8_delta_2 4
depth_9_delta_1 13148
depth_9_delta_15 4
depth_9_delta_16 3
depth_9_delta_-30 2
depth_9_delta_-14 2
depth_10_delta_1 33

Channel_0_RQ_row_buffer_hit 623449
Channel_0_RQ_row_buffer_miss 1946293
Channel_0_WQ_row_buffer_hit 88436
Channel_0_WQ_row_buffer_miss 664398
Channel_0_WQ_full 0
Channel_0_dbus_congested 802397

avg_congested_cycle 4

DRAM_bw_pochs 5188379
DRAM_bw_level_0 5124751
DRAM_bw_level_1 58132
DRAM_bw_level_2 5415
DRAM_bw_level_3 81
