*************************************************
   ChampSim Multicore Out-of-Order Simulator
   Last compiled: Dec 11 2024 17:59:53
*************************************************
parsing config file: /home/functionmain/桌面/Pythia/config/bingo.ini

trace_0 /home/functionmain/桌面/Pythia/traces/437.leslie3d-265B.champsimtrace.xz
adding L2C_PREFETCHER: Bingo
Initialize SHIP state
warmup_instructions 100000000
simulation_instructions 500000000
champsim_seed 223
measure_ipc 0
measure_ipc_epoch 1000
measure_dram_bw 1
measure_dram_bw_epoch 256
measure_cache_acc 1
measure_cache_acc_epoch 1024
l1d_perfect 0
l2c_perfect 0
llc_perfect 0
l1d_semi_perfect 0
l2c_semi_perfect 0
llc_semi_perfect 0
semi_perfect_cache_page_buffer_size 64

num_cpus 1
cpu_freq 4000
dram_io_freq 1200
page_size 4096
block_size 64
max_read_per_cycle 8
max_fill_per_cycle 1
dram_channels 1
log2_dram_channels 0
dram_ranks 1
dram_banks 8
dram_rows 65536
dram_columns 128
dram_row_size 8
dram_size 4096
dram_pages 1048576

fetch_width 6
decode_width 6
exec_width 4
lq_width 2
sq_width 2
retire_width 4
scheduler_size 128
branch_mispredict_penalty 20
rob_size 256
lq_size 72
sq_size 56
num_instr_destinations_sparc 4
num_instr_destinations 2
num_instr_sources 4

itlb_set 16
itlb_way 8
itlb_rq_size 16
itlb_wq_size 16
itlb_pq_size 0
itlb_mshr_size 8
itlb_latency 1

dtlb_set 16
dtlb_way 4
dtlb_rq_size 16
dtlb_wq_size 16
dtlb_pq_size 0
dtlb_mshr_size 8
dtlb_latency 1

stlb_set 128
stlb_way 12
stlb_rq_size 32
stlb_wq_size 32
stlb_pq_size 0
stlb_mshr_size 16
stlb_latency 8

l1i_size 32
l1i_set 64
l1i_way 8
l1i_rq_size 64
l1i_wq_size 64
l1i_pq_size 8
l1i_mshr_size 8
l1i_latency 1

l1d_size 32
l1d_set 64
l1d_way 8
l1d_rq_size 64
l1d_wq_size 64
l1d_pq_size 8
l1d_mshr_size 16
l1d_latency 4

l2c_size 256
l2c_set 512
l2c_way 8
l2c_rq_size 32
l2c_wq_size 32
l2c_pq_size 32
l2c_mshr_size 32
l2c_latency 10

llc_size 2048
llc_set 2048
llc_way 16
llc_rq_size 32
llc_wq_size 32
llc_pq_size 32
llc_mshr_size 64
llc_latency 20

dram_channel_width 8
dram_wq_size 64
dram_rq_size 64
tRP 15
tRCD 15
tCAS 12.5
dram_dbus_turn_around_time 30
dram_write_high_wm 56
dram_write_low_wm 48
min_dram_writes_per_switch 16
dram_mtps 1200
dram_dbus_return_time 26

bingo_region_size 2048
bingo_pattern_len 32
bingo_pc_width 16
bingo_min_addr_width 5
bingo_max_addr_width 16
bingo_ft_size 64
bingo_at_size 128
bingo_pht_size 4096
bingo_pht_ways 16
bingo_pf_streamer_size 128
bingo_debug_level 0
bingo_l1d_thresh 1.01
bingo_l2c_thresh 0.8
bingo_llc_thresh 0.05
bingo_pc_address_fill_level L2


Heartbeat CPU  0 instructions:    1000003 cycles:     500957 heartbeat IPC: 1.99619 cumulative IPC: 1.99619 (Simulation time: 0 hr 0 min 2 sec) 
Heartbeat CPU  0 instructions:    2000001 cycles:    1000298 heartbeat IPC: 2.00264 cumulative IPC: 1.99941 (Simulation time: 0 hr 0 min 4 sec) 
Heartbeat CPU  0 instructions:    3000001 cycles:    1500104 heartbeat IPC: 2.00078 cumulative IPC: 1.99986 (Simulation time: 0 hr 0 min 5 sec) 
Heartbeat CPU  0 instructions:    4000000 cycles:    1999955 heartbeat IPC: 2.00059 cumulative IPC: 2.00005 (Simulation time: 0 hr 0 min 7 sec) 
Heartbeat CPU  0 instructions:    5000003 cycles:    2498926 heartbeat IPC: 2.00413 cumulative IPC: 2.00086 (Simulation time: 0 hr 0 min 9 sec) 
Heartbeat CPU  0 instructions:    6000001 cycles:    2999090 heartbeat IPC: 1.99934 cumulative IPC: 2.00061 (Simulation time: 0 hr 0 min 11 sec) 
Heartbeat CPU  0 instructions:    7000002 cycles:    3497066 heartbeat IPC: 2.00813 cumulative IPC: 2.00168 (Simulation time: 0 hr 0 min 12 sec) 
Heartbeat CPU  0 instructions:    8000000 cycles:    3997302 heartbeat IPC: 1.99905 cumulative IPC: 2.00135 (Simulation time: 0 hr 0 min 14 sec) 
Heartbeat CPU  0 instructions:    9000003 cycles:    4495120 heartbeat IPC: 2.00877 cumulative IPC: 2.00217 (Simulation time: 0 hr 0 min 16 sec) 
Heartbeat CPU  0 instructions:   10000001 cycles:    4995150 heartbeat IPC: 1.99988 cumulative IPC: 2.00194 (Simulation time: 0 hr 0 min 17 sec) 
Heartbeat CPU  0 instructions:   11000002 cycles:    5492426 heartbeat IPC: 2.01096 cumulative IPC: 2.00276 (Simulation time: 0 hr 0 min 19 sec) 
Heartbeat CPU  0 instructions:   12000000 cycles:    5993364 heartbeat IPC: 1.99625 cumulative IPC: 2.00221 (Simulation time: 0 hr 0 min 21 sec) 
Heartbeat CPU  0 instructions:   13000002 cycles:    6490693 heartbeat IPC: 2.01075 cumulative IPC: 2.00287 (Simulation time: 0 hr 0 min 23 sec) 
Heartbeat CPU  0 instructions:   14000002 cycles:    6991364 heartbeat IPC: 1.99732 cumulative IPC: 2.00247 (Simulation time: 0 hr 0 min 24 sec) 
Heartbeat CPU  0 instructions:   15000000 cycles:    7488909 heartbeat IPC: 2.00986 cumulative IPC: 2.00296 (Simulation time: 0 hr 0 min 26 sec) 
Heartbeat CPU  0 instructions:   16000000 cycles:    7988639 heartbeat IPC: 2.00108 cumulative IPC: 2.00284 (Simulation time: 0 hr 0 min 28 sec) 
Heartbeat CPU  0 instructions:   17000003 cycles:    8487260 heartbeat IPC: 2.00554 cumulative IPC: 2.00300 (Simulation time: 0 hr 0 min 30 sec) 
Heartbeat CPU  0 instructions:   18000003 cycles:    8986866 heartbeat IPC: 2.00158 cumulative IPC: 2.00292 (Simulation time: 0 hr 0 min 31 sec) 
Heartbeat CPU  0 instructions:   19000003 cycles:    9486399 heartbeat IPC: 2.00187 cumulative IPC: 2.00287 (Simulation time: 0 hr 0 min 33 sec) 
Heartbeat CPU  0 instructions:   20000000 cycles:    9985332 heartbeat IPC: 2.00427 cumulative IPC: 2.00294 (Simulation time: 0 hr 0 min 35 sec) 
Heartbeat CPU  0 instructions:   21000000 cycles:   10485713 heartbeat IPC: 1.99848 cumulative IPC: 2.00273 (Simulation time: 0 hr 0 min 36 sec) 
Heartbeat CPU  0 instructions:   22000003 cycles:   10983854 heartbeat IPC: 2.00747 cumulative IPC: 2.00294 (Simulation time: 0 hr 0 min 38 sec) 
Heartbeat CPU  0 instructions:   23000003 cycles:   11484581 heartbeat IPC: 1.99710 cumulative IPC: 2.00269 (Simulation time: 0 hr 0 min 40 sec) 
Heartbeat CPU  0 instructions:   24000000 cycles:   11982844 heartbeat IPC: 2.00697 cumulative IPC: 2.00286 (Simulation time: 0 hr 0 min 42 sec) 
Heartbeat CPU  0 instructions:   25000002 cycles:   12483898 heartbeat IPC: 1.99580 cumulative IPC: 2.00258 (Simulation time: 0 hr 0 min 43 sec) 
Heartbeat CPU  0 instructions:   26000000 cycles:   12982014 heartbeat IPC: 2.00756 cumulative IPC: 2.00277 (Simulation time: 0 hr 0 min 45 sec) 
Heartbeat CPU  0 instructions:   27000000 cycles:   13483701 heartbeat IPC: 1.99327 cumulative IPC: 2.00242 (Simulation time: 0 hr 0 min 47 sec) 
Heartbeat CPU  0 instructions:   28000000 cycles:   13981001 heartbeat IPC: 2.01086 cumulative IPC: 2.00272 (Simulation time: 0 hr 0 min 49 sec) 
Heartbeat CPU  0 instructions:   29000000 cycles:   14481734 heartbeat IPC: 1.99707 cumulative IPC: 2.00252 (Simulation time: 0 hr 0 min 50 sec) 
Heartbeat CPU  0 instructions:   30000000 cycles:   14979456 heartbeat IPC: 2.00915 cumulative IPC: 2.00274 (Simulation time: 0 hr 0 min 52 sec) 
Heartbeat CPU  0 instructions:   31000002 cycles:   15479180 heartbeat IPC: 2.00111 cumulative IPC: 2.00269 (Simulation time: 0 hr 0 min 54 sec) 
Heartbeat CPU  0 instructions:   32000000 cycles:   15977548 heartbeat IPC: 2.00655 cumulative IPC: 2.00281 (Simulation time: 0 hr 0 min 55 sec) 
Heartbeat CPU  0 instructions:   33000000 cycles:   16476560 heartbeat IPC: 2.00396 cumulative IPC: 2.00285 (Simulation time: 0 hr 0 min 57 sec) 
Heartbeat CPU  0 instructions:   34000002 cycles:   16975683 heartbeat IPC: 2.00352 cumulative IPC: 2.00287 (Simulation time: 0 hr 0 min 59 sec) 
Heartbeat CPU  0 instructions:   35000002 cycles:   17473999 heartbeat IPC: 2.00676 cumulative IPC: 2.00298 (Simulation time: 0 hr 1 min 1 sec) 
Heartbeat CPU  0 instructions:   36000000 cycles:   17973746 heartbeat IPC: 2.00101 cumulative IPC: 2.00292 (Simulation time: 0 hr 1 min 2 sec) 
Heartbeat CPU  0 instructions:   37000000 cycles:   18471362 heartbeat IPC: 2.00958 cumulative IPC: 2.00310 (Simulation time: 0 hr 1 min 4 sec) 
Heartbeat CPU  0 instructions:   38000000 cycles:   18971904 heartbeat IPC: 1.99783 cumulative IPC: 2.00296 (Simulation time: 0 hr 1 min 6 sec) 
Heartbeat CPU  0 instructions:   39000000 cycles:   19470147 heartbeat IPC: 2.00705 cumulative IPC: 2.00307 (Simulation time: 0 hr 1 min 8 sec) 
Heartbeat CPU  0 instructions:   40000000 cycles:   19971025 heartbeat IPC: 1.99649 cumulative IPC: 2.00290 (Simulation time: 0 hr 1 min 9 sec) 
Heartbeat CPU  0 instructions:   41000000 cycles:   20469029 heartbeat IPC: 2.00802 cumulative IPC: 2.00303 (Simulation time: 0 hr 1 min 11 sec) 
Heartbeat CPU  0 instructions:   42000000 cycles:   20970662 heartbeat IPC: 1.99349 cumulative IPC: 2.00280 (Simulation time: 0 hr 1 min 13 sec) 
Heartbeat CPU  0 instructions:   43000003 cycles:   21468241 heartbeat IPC: 2.00974 cumulative IPC: 2.00296 (Simulation time: 0 hr 1 min 15 sec) 
Heartbeat CPU  0 instructions:   44000000 cycles:   21969333 heartbeat IPC: 1.99564 cumulative IPC: 2.00279 (Simulation time: 0 hr 1 min 16 sec) 
Heartbeat CPU  0 instructions:   45000003 cycles:   22467582 heartbeat IPC: 2.00703 cumulative IPC: 2.00289 (Simulation time: 0 hr 1 min 18 sec) 
Heartbeat CPU  0 instructions:   46000003 cycles:   22967674 heartbeat IPC: 1.99963 cumulative IPC: 2.00282 (Simulation time: 0 hr 1 min 20 sec) 
Heartbeat CPU  0 instructions:   47000001 cycles:   23466708 heartbeat IPC: 2.00387 cumulative IPC: 2.00284 (Simulation time: 0 hr 1 min 21 sec) 
Heartbeat CPU  0 instructions:   48000000 cycles:   23966387 heartbeat IPC: 2.00128 cumulative IPC: 2.00280 (Simulation time: 0 hr 1 min 23 sec) 
Heartbeat CPU  0 instructions:   49000000 cycles:   24465775 heartbeat IPC: 2.00245 cumulative IPC: 2.00280 (Simulation time: 0 hr 1 min 25 sec) 
Heartbeat CPU  0 instructions:   50000000 cycles:   24964205 heartbeat IPC: 2.00630 cumulative IPC: 2.00287 (Simulation time: 0 hr 1 min 27 sec) 
Heartbeat CPU  0 instructions:   51000003 cycles:   25463965 heartbeat IPC: 2.00097 cumulative IPC: 2.00283 (Simulation time: 0 hr 1 min 28 sec) 
Heartbeat CPU  0 instructions:   52000000 cycles:   25961489 heartbeat IPC: 2.00995 cumulative IPC: 2.00297 (Simulation time: 0 hr 1 min 30 sec) 
Heartbeat CPU  0 instructions:   53000001 cycles:   26461872 heartbeat IPC: 1.99847 cumulative IPC: 2.00288 (Simulation time: 0 hr 1 min 32 sec) 
Heartbeat CPU  0 instructions:   54000002 cycles:   26959763 heartbeat IPC: 2.00847 cumulative IPC: 2.00299 (Simulation time: 0 hr 1 min 34 sec) 
Heartbeat CPU  0 instructions:   55000001 cycles:   27460372 heartbeat IPC: 1.99756 cumulative IPC: 2.00289 (Simulation time: 0 hr 1 min 35 sec) 
Heartbeat CPU  0 instructions:   56000000 cycles:   27957900 heartbeat IPC: 2.00994 cumulative IPC: 2.00301 (Simulation time: 0 hr 1 min 37 sec) 
Heartbeat CPU  0 instructions:   57000002 cycles:   28458933 heartbeat IPC: 1.99588 cumulative IPC: 2.00289 (Simulation time: 0 hr 1 min 39 sec) 
Heartbeat CPU  0 instructions:   58000001 cycles:   28955821 heartbeat IPC: 2.01252 cumulative IPC: 2.00305 (Simulation time: 0 hr 1 min 40 sec) 
Heartbeat CPU  0 instructions:   59000003 cycles:   29456606 heartbeat IPC: 1.99687 cumulative IPC: 2.00295 (Simulation time: 0 hr 1 min 42 sec) 
Heartbeat CPU  0 instructions:   60000000 cycles:   29954801 heartbeat IPC: 2.00724 cumulative IPC: 2.00302 (Simulation time: 0 hr 1 min 44 sec) 
Heartbeat CPU  0 instructions:   61000003 cycles:   30455132 heartbeat IPC: 1.99868 cumulative IPC: 2.00295 (Simulation time: 0 hr 1 min 46 sec) 
Heartbeat CPU  0 instructions:   62000001 cycles:   30954181 heartbeat IPC: 2.00381 cumulative IPC: 2.00296 (Simulation time: 0 hr 1 min 47 sec) 
Heartbeat CPU  0 instructions:   63000003 cycles:   31453766 heartbeat IPC: 2.00167 cumulative IPC: 2.00294 (Simulation time: 0 hr 1 min 49 sec) 
Heartbeat CPU  0 instructions:   64000000 cycles:   31953412 heartbeat IPC: 2.00141 cumulative IPC: 2.00292 (Simulation time: 0 hr 1 min 51 sec) 
Heartbeat CPU  0 instructions:   65000001 cycles:   32452275 heartbeat IPC: 2.00456 cumulative IPC: 2.00294 (Simulation time: 0 hr 1 min 53 sec) 
Heartbeat CPU  0 instructions:   66000000 cycles:   32952710 heartbeat IPC: 1.99826 cumulative IPC: 2.00287 (Simulation time: 0 hr 1 min 54 sec) 
Heartbeat CPU  0 instructions:   67000003 cycles:   33451029 heartbeat IPC: 2.00675 cumulative IPC: 2.00293 (Simulation time: 0 hr 1 min 56 sec) 
Heartbeat CPU  0 instructions:   68000000 cycles:   33952134 heartbeat IPC: 1.99558 cumulative IPC: 2.00282 (Simulation time: 0 hr 1 min 58 sec) 
Heartbeat CPU  0 instructions:   69000002 cycles:   34450849 heartbeat IPC: 2.00516 cumulative IPC: 2.00285 (Simulation time: 0 hr 1 min 59 sec) 
Heartbeat CPU  0 instructions:   70000003 cycles:   34951378 heartbeat IPC: 1.99789 cumulative IPC: 2.00278 (Simulation time: 0 hr 2 min 1 sec) 
Heartbeat CPU  0 instructions:   71000001 cycles:   35449023 heartbeat IPC: 2.00946 cumulative IPC: 2.00288 (Simulation time: 0 hr 2 min 3 sec) 
Heartbeat CPU  0 instructions:   72000000 cycles:   35950055 heartbeat IPC: 1.99588 cumulative IPC: 2.00278 (Simulation time: 0 hr 2 min 5 sec) 
Heartbeat CPU  0 instructions:   73000001 cycles:   36447078 heartbeat IPC: 2.01198 cumulative IPC: 2.00290 (Simulation time: 0 hr 2 min 6 sec) 
Heartbeat CPU  0 instructions:   74000002 cycles:   36947351 heartbeat IPC: 1.99891 cumulative IPC: 2.00285 (Simulation time: 0 hr 2 min 8 sec) 
Heartbeat CPU  0 instructions:   75000000 cycles:   37445018 heartbeat IPC: 2.00937 cumulative IPC: 2.00294 (Simulation time: 0 hr 2 min 10 sec) 
Heartbeat CPU  0 instructions:   76000000 cycles:   37944593 heartbeat IPC: 2.00170 cumulative IPC: 2.00292 (Simulation time: 0 hr 2 min 11 sec) 
Heartbeat CPU  0 instructions:   77000003 cycles:   38443043 heartbeat IPC: 2.00623 cumulative IPC: 2.00296 (Simulation time: 0 hr 2 min 13 sec) 
Heartbeat CPU  0 instructions:   78000000 cycles:   38941874 heartbeat IPC: 2.00468 cumulative IPC: 2.00299 (Simulation time: 0 hr 2 min 15 sec) 
Heartbeat CPU  0 instructions:   79000002 cycles:   39441002 heartbeat IPC: 2.00350 cumulative IPC: 2.00299 (Simulation time: 0 hr 2 min 17 sec) 
Heartbeat CPU  0 instructions:   80000000 cycles:   39939736 heartbeat IPC: 2.00507 cumulative IPC: 2.00302 (Simulation time: 0 hr 2 min 18 sec) 
Heartbeat CPU  0 instructions:   81000002 cycles:   40440068 heartbeat IPC: 1.99868 cumulative IPC: 2.00296 (Simulation time: 0 hr 2 min 20 sec) 
Heartbeat CPU  0 instructions:   82000002 cycles:   40938175 heartbeat IPC: 2.00760 cumulative IPC: 2.00302 (Simulation time: 0 hr 2 min 22 sec) 
Heartbeat CPU  0 instructions:   83000000 cycles:   41439211 heartbeat IPC: 1.99586 cumulative IPC: 2.00293 (Simulation time: 0 hr 2 min 24 sec) 
Heartbeat CPU  0 instructions:   84000000 cycles:   41937808 heartbeat IPC: 2.00563 cumulative IPC: 2.00297 (Simulation time: 0 hr 2 min 25 sec) 
Heartbeat CPU  0 instructions:   85000000 cycles:   42439087 heartbeat IPC: 1.99490 cumulative IPC: 2.00287 (Simulation time: 0 hr 2 min 27 sec) 
Heartbeat CPU  0 instructions:   86000003 cycles:   42936960 heartbeat IPC: 2.00855 cumulative IPC: 2.00294 (Simulation time: 0 hr 2 min 29 sec) 
Heartbeat CPU  0 instructions:   87000000 cycles:   43438354 heartbeat IPC: 1.99443 cumulative IPC: 2.00284 (Simulation time: 0 hr 2 min 31 sec) 
Heartbeat CPU  0 instructions:   88000000 cycles:   43935700 heartbeat IPC: 2.01067 cumulative IPC: 2.00293 (Simulation time: 0 hr 2 min 32 sec) 
Heartbeat CPU  0 instructions:   89000003 cycles:   44436647 heartbeat IPC: 1.99623 cumulative IPC: 2.00285 (Simulation time: 0 hr 2 min 34 sec) 
Heartbeat CPU  0 instructions:   90000000 cycles:   44934759 heartbeat IPC: 2.00757 cumulative IPC: 2.00290 (Simulation time: 0 hr 2 min 36 sec) 
Heartbeat CPU  0 instructions:   91000000 cycles:   45434313 heartbeat IPC: 2.00179 cumulative IPC: 2.00289 (Simulation time: 0 hr 2 min 37 sec) 
Heartbeat CPU  0 instructions:   92000000 cycles:   45932869 heartbeat IPC: 2.00579 cumulative IPC: 2.00292 (Simulation time: 0 hr 2 min 39 sec) 
Heartbeat CPU  0 instructions:   93000000 cycles:   46431939 heartbeat IPC: 2.00373 cumulative IPC: 2.00293 (Simulation time: 0 hr 2 min 41 sec) 
Heartbeat CPU  0 instructions:   94000000 cycles:   46931068 heartbeat IPC: 2.00349 cumulative IPC: 2.00294 (Simulation time: 0 hr 2 min 43 sec) 
Heartbeat CPU  0 instructions:   95000000 cycles:   47429222 heartbeat IPC: 2.00741 cumulative IPC: 2.00298 (Simulation time: 0 hr 2 min 44 sec) 
Heartbeat CPU  0 instructions:   96000000 cycles:   47929143 heartbeat IPC: 2.00032 cumulative IPC: 2.00296 (Simulation time: 0 hr 2 min 46 sec) 
Heartbeat CPU  0 instructions:   97000000 cycles:   48427146 heartbeat IPC: 2.00802 cumulative IPC: 2.00301 (Simulation time: 0 hr 2 min 48 sec) 
Heartbeat CPU  0 instructions:   98000001 cycles:   48927811 heartbeat IPC: 1.99735 cumulative IPC: 2.00295 (Simulation time: 0 hr 2 min 49 sec) 
Heartbeat CPU  0 instructions:   99000001 cycles:   49425583 heartbeat IPC: 2.00895 cumulative IPC: 2.00301 (Simulation time: 0 hr 2 min 51 sec) 
Heartbeat CPU  0 instructions:  100000000 cycles:   49925971 heartbeat IPC: 1.99845 cumulative IPC: 2.00297 (Simulation time: 0 hr 2 min 53 sec) 

Warmup complete CPU  0 instructions:  100000001 cycles:   49925972 (Simulation time: 0 hr 2 min 53 sec) 

Heartbeat CPU  0 instructions:  101000003 cycles:   50837640 heartbeat IPC: 1.09689 cumulative IPC: 1.09689 (Simulation time: 0 hr 2 min 55 sec) 
Heartbeat CPU  0 instructions:  102000001 cycles:   51721855 heartbeat IPC: 1.13094 cumulative IPC: 1.11366 (Simulation time: 0 hr 2 min 57 sec) 
Heartbeat CPU  0 instructions:  103000002 cycles:   52592930 heartbeat IPC: 1.14801 cumulative IPC: 1.12488 (Simulation time: 0 hr 2 min 59 sec) 
Heartbeat CPU  0 instructions:  104000000 cycles:   53475926 heartbeat IPC: 1.13251 cumulative IPC: 1.12677 (Simulation time: 0 hr 3 min 1 sec) 
Heartbeat CPU  0 instructions:  105000002 cycles:   54358400 heartbeat IPC: 1.13318 cumulative IPC: 1.12805 (Simulation time: 0 hr 3 min 3 sec) 
Heartbeat CPU  0 instructions:  106000003 cycles:   55237234 heartbeat IPC: 1.13787 cumulative IPC: 1.12968 (Simulation time: 0 hr 3 min 5 sec) 
Heartbeat CPU  0 instructions:  107000000 cycles:   56118432 heartbeat IPC: 1.13482 cumulative IPC: 1.13041 (Simulation time: 0 hr 3 min 7 sec) 
Heartbeat CPU  0 instructions:  108000000 cycles:   56992398 heartbeat IPC: 1.14421 cumulative IPC: 1.13211 (Simulation time: 0 hr 3 min 10 sec) 
Heartbeat CPU  0 instructions:  109000000 cycles:   57870578 heartbeat IPC: 1.13872 cumulative IPC: 1.13284 (Simulation time: 0 hr 3 min 12 sec) 
Heartbeat CPU  0 instructions:  110000001 cycles:   58755685 heartbeat IPC: 1.12981 cumulative IPC: 1.13254 (Simulation time: 0 hr 3 min 14 sec) 
Heartbeat CPU  0 instructions:  111000001 cycles:   59657973 heartbeat IPC: 1.10829 cumulative IPC: 1.13029 (Simulation time: 0 hr 3 min 16 sec) 
Heartbeat CPU  0 instructions:  112000000 cycles:   60541713 heartbeat IPC: 1.13155 cumulative IPC: 1.13040 (Simulation time: 0 hr 3 min 18 sec) 
Heartbeat CPU  0 instructions:  113000003 cycles:   61415925 heartbeat IPC: 1.14389 cumulative IPC: 1.13142 (Simulation time: 0 hr 3 min 20 sec) 
Heartbeat CPU  0 instructions:  114000001 cycles:   62292447 heartbeat IPC: 1.14087 cumulative IPC: 1.13209 (Simulation time: 0 hr 3 min 22 sec) 
Heartbeat CPU  0 instructions:  115000003 cycles:   63173433 heartbeat IPC: 1.13509 cumulative IPC: 1.13229 (Simulation time: 0 hr 3 min 24 sec) 
Heartbeat CPU  0 instructions:  116000000 cycles:   64050436 heartbeat IPC: 1.14024 cumulative IPC: 1.13279 (Simulation time: 0 hr 3 min 26 sec) 
Heartbeat CPU  0 instructions:  117000000 cycles:   64931802 heartbeat IPC: 1.13460 cumulative IPC: 1.13289 (Simulation time: 0 hr 3 min 28 sec) 
Heartbeat CPU  0 instructions:  118000003 cycles:   65808051 heartbeat IPC: 1.14123 cumulative IPC: 1.13335 (Simulation time: 0 hr 3 min 30 sec) 
Heartbeat CPU  0 instructions:  119000000 cycles:   66675419 heartbeat IPC: 1.15291 cumulative IPC: 1.13437 (Simulation time: 0 hr 3 min 32 sec) 
Heartbeat CPU  0 instructions:  120000000 cycles:   67559198 heartbeat IPC: 1.13150 cumulative IPC: 1.13422 (Simulation time: 0 hr 3 min 34 sec) 
Heartbeat CPU  0 instructions:  121000000 cycles:   68442283 heartbeat IPC: 1.13239 cumulative IPC: 1.13414 (Simulation time: 0 hr 3 min 36 sec) 
Heartbeat CPU  0 instructions:  122000000 cycles:   69330941 heartbeat IPC: 1.12529 cumulative IPC: 1.13373 (Simulation time: 0 hr 3 min 38 sec) 
Heartbeat CPU  0 instructions:  123000001 cycles:   70216013 heartbeat IPC: 1.12985 cumulative IPC: 1.13356 (Simulation time: 0 hr 3 min 41 sec) 
Heartbeat CPU  0 instructions:  124000000 cycles:   71086033 heartbeat IPC: 1.14940 cumulative IPC: 1.13421 (Simulation time: 0 hr 3 min 43 sec) 
Heartbeat CPU  0 instructions:  125000001 cycles:   71963706 heartbeat IPC: 1.13938 cumulative IPC: 1.13442 (Simulation time: 0 hr 3 min 45 sec) 
Heartbeat CPU  0 instructions:  126000002 cycles:   72848351 heartbeat IPC: 1.13040 cumulative IPC: 1.13426 (Simulation time: 0 hr 3 min 47 sec) 
Heartbeat CPU  0 instructions:  127000000 cycles:   73732869 heartbeat IPC: 1.13056 cumulative IPC: 1.13413 (Simulation time: 0 hr 3 min 49 sec) 
Heartbeat CPU  0 instructions:  128000000 cycles:   74606603 heartbeat IPC: 1.14451 cumulative IPC: 1.13449 (Simulation time: 0 hr 3 min 51 sec) 
Heartbeat CPU  0 instructions:  129000003 cycles:   75485258 heartbeat IPC: 1.13811 cumulative IPC: 1.13462 (Simulation time: 0 hr 3 min 53 sec) 
Heartbeat CPU  0 instructions:  130000000 cycles:   76351941 heartbeat IPC: 1.15382 cumulative IPC: 1.13525 (Simulation time: 0 hr 3 min 55 sec) 
Heartbeat CPU  0 instructions:  131000003 cycles:   77236853 heartbeat IPC: 1.13006 cumulative IPC: 1.13508 (Simulation time: 0 hr 3 min 57 sec) 
Heartbeat CPU  0 instructions:  132000000 cycles:   78321067 heartbeat IPC: 0.92232 cumulative IPC: 1.12696 (Simulation time: 0 hr 3 min 59 sec) 
Heartbeat CPU  0 instructions:  133000001 cycles:   79869155 heartbeat IPC: 0.64596 cumulative IPC: 1.10209 (Simulation time: 0 hr 4 min 1 sec) 
Heartbeat CPU  0 instructions:  134000003 cycles:   81097729 heartbeat IPC: 0.81395 cumulative IPC: 1.09073 (Simulation time: 0 hr 4 min 4 sec) 
Heartbeat CPU  0 instructions:  135000000 cycles:   82061949 heartbeat IPC: 1.03710 cumulative IPC: 1.08912 (Simulation time: 0 hr 4 min 6 sec) 
Heartbeat CPU  0 instructions:  136000000 cycles:   83047965 heartbeat IPC: 1.01418 cumulative IPC: 1.08689 (Simulation time: 0 hr 4 min 8 sec) 
Heartbeat CPU  0 instructions:  137000001 cycles:   84018488 heartbeat IPC: 1.03037 cumulative IPC: 1.08528 (Simulation time: 0 hr 4 min 10 sec) 
Heartbeat CPU  0 instructions:  138000003 cycles:   85003112 heartbeat IPC: 1.01562 cumulative IPC: 1.08333 (Simulation time: 0 hr 4 min 12 sec) 
Heartbeat CPU  0 instructions:  139000000 cycles:   85966645 heartbeat IPC: 1.03784 cumulative IPC: 1.08211 (Simulation time: 0 hr 4 min 14 sec) 
Heartbeat CPU  0 instructions:  140000000 cycles:   86953928 heartbeat IPC: 1.01288 cumulative IPC: 1.08026 (Simulation time: 0 hr 4 min 17 sec) 
Heartbeat CPU  0 instructions:  141000001 cycles:   87923196 heartbeat IPC: 1.03171 cumulative IPC: 1.07903 (Simulation time: 0 hr 4 min 19 sec) 
Heartbeat CPU  0 instructions:  142000003 cycles:   88893296 heartbeat IPC: 1.03082 cumulative IPC: 1.07783 (Simulation time: 0 hr 4 min 21 sec) 
Heartbeat CPU  0 instructions:  143000000 cycles:   89875651 heartbeat IPC: 1.01796 cumulative IPC: 1.07635 (Simulation time: 0 hr 4 min 23 sec) 
Heartbeat CPU  0 instructions:  144000000 cycles:   90836244 heartbeat IPC: 1.04102 cumulative IPC: 1.07552 (Simulation time: 0 hr 4 min 25 sec) 
Heartbeat CPU  0 instructions:  145000001 cycles:   91798079 heartbeat IPC: 1.03968 cumulative IPC: 1.07470 (Simulation time: 0 hr 4 min 27 sec) 
Heartbeat CPU  0 instructions:  146000002 cycles:   92755518 heartbeat IPC: 1.04445 cumulative IPC: 1.07402 (Simulation time: 0 hr 4 min 30 sec) 
Heartbeat CPU  0 instructions:  147000002 cycles:   93727138 heartbeat IPC: 1.02921 cumulative IPC: 1.07303 (Simulation time: 0 hr 4 min 32 sec) 
Heartbeat CPU  0 instructions:  148000000 cycles:   94697382 heartbeat IPC: 1.03067 cumulative IPC: 1.07211 (Simulation time: 0 hr 4 min 34 sec) 
Heartbeat CPU  0 instructions:  149000001 cycles:   95680797 heartbeat IPC: 1.01687 cumulative IPC: 1.07093 (Simulation time: 0 hr 4 min 36 sec) 
Heartbeat CPU  0 instructions:  150000002 cycles:   96649935 heartbeat IPC: 1.03185 cumulative IPC: 1.07011 (Simulation time: 0 hr 4 min 38 sec) 
Heartbeat CPU  0 instructions:  151000002 cycles:   97623857 heartbeat IPC: 1.02678 cumulative IPC: 1.06923 (Simulation time: 0 hr 4 min 40 sec) 
Heartbeat CPU  0 instructions:  152000000 cycles:   98593360 heartbeat IPC: 1.03145 cumulative IPC: 1.06848 (Simulation time: 0 hr 4 min 42 sec) 
Heartbeat CPU  0 instructions:  153000002 cycles:   99560425 heartbeat IPC: 1.03406 cumulative IPC: 1.06781 (Simulation time: 0 hr 4 min 44 sec) 
Heartbeat CPU  0 instructions:  154000002 cycles:  100533774 heartbeat IPC: 1.02738 cumulative IPC: 1.06703 (Simulation time: 0 hr 4 min 47 sec) 
Heartbeat CPU  0 instructions:  155000001 cycles:  101494260 heartbeat IPC: 1.04114 cumulative IPC: 1.06655 (Simulation time: 0 hr 4 min 49 sec) 
Heartbeat CPU  0 instructions:  156000000 cycles:  102456845 heartbeat IPC: 1.03887 cumulative IPC: 1.06604 (Simulation time: 0 hr 4 min 51 sec) 
Heartbeat CPU  0 instructions:  157000002 cycles:  103407837 heartbeat IPC: 1.05154 cumulative IPC: 1.06578 (Simulation time: 0 hr 4 min 53 sec) 
Heartbeat CPU  0 instructions:  158000000 cycles:  104366017 heartbeat IPC: 1.04364 cumulative IPC: 1.06539 (Simulation time: 0 hr 4 min 55 sec) 
Heartbeat CPU  0 instructions:  159000003 cycles:  105320052 heartbeat IPC: 1.04818 cumulative IPC: 1.06510 (Simulation time: 0 hr 4 min 57 sec) 
Heartbeat CPU  0 instructions:  160000000 cycles:  106279607 heartbeat IPC: 1.04215 cumulative IPC: 1.06471 (Simulation time: 0 hr 4 min 59 sec) 
Heartbeat CPU  0 instructions:  161000000 cycles:  107240559 heartbeat IPC: 1.04063 cumulative IPC: 1.06430 (Simulation time: 0 hr 5 min 2 sec) 
Heartbeat CPU  0 instructions:  162000001 cycles:  108199319 heartbeat IPC: 1.04301 cumulative IPC: 1.06395 (Simulation time: 0 hr 5 min 4 sec) 
Heartbeat CPU  0 instructions:  163000001 cycles:  109159665 heartbeat IPC: 1.04129 cumulative IPC: 1.06358 (Simulation time: 0 hr 5 min 6 sec) 
Heartbeat CPU  0 instructions:  164000000 cycles:  110118827 heartbeat IPC: 1.04258 cumulative IPC: 1.06325 (Simulation time: 0 hr 5 min 8 sec) 
Heartbeat CPU  0 instructions:  165000000 cycles:  111079964 heartbeat IPC: 1.04043 cumulative IPC: 1.06289 (Simulation time: 0 hr 5 min 10 sec) 
Heartbeat CPU  0 instructions:  166000001 cycles:  112038683 heartbeat IPC: 1.04306 cumulative IPC: 1.06258 (Simulation time: 0 hr 5 min 12 sec) 
Heartbeat CPU  0 instructions:  167000003 cycles:  112999569 heartbeat IPC: 1.04071 cumulative IPC: 1.06225 (Simulation time: 0 hr 5 min 14 sec) 
Heartbeat CPU  0 instructions:  168000000 cycles:  113957645 heartbeat IPC: 1.04376 cumulative IPC: 1.06197 (Simulation time: 0 hr 5 min 17 sec) 
Heartbeat CPU  0 instructions:  169000001 cycles:  114911728 heartbeat IPC: 1.04813 cumulative IPC: 1.06177 (Simulation time: 0 hr 5 min 19 sec) 
Heartbeat CPU  0 instructions:  170000001 cycles:  115864752 heartbeat IPC: 1.04929 cumulative IPC: 1.06159 (Simulation time: 0 hr 5 min 21 sec) 
Heartbeat CPU  0 instructions:  171000001 cycles:  116818268 heartbeat IPC: 1.04875 cumulative IPC: 1.06141 (Simulation time: 0 hr 5 min 23 sec) 
Heartbeat CPU  0 instructions:  172000000 cycles:  117772255 heartbeat IPC: 1.04823 cumulative IPC: 1.06122 (Simulation time: 0 hr 5 min 25 sec) 
Heartbeat CPU  0 instructions:  173000000 cycles:  118730384 heartbeat IPC: 1.04370 cumulative IPC: 1.06098 (Simulation time: 0 hr 5 min 27 sec) 
Heartbeat CPU  0 instructions:  174000001 cycles:  119689227 heartbeat IPC: 1.04292 cumulative IPC: 1.06073 (Simulation time: 0 hr 5 min 29 sec) 
Heartbeat CPU  0 instructions:  175000002 cycles:  120646726 heartbeat IPC: 1.04439 cumulative IPC: 1.06051 (Simulation time: 0 hr 5 min 32 sec) 
Heartbeat CPU  0 instructions:  176000000 cycles:  121605015 heartbeat IPC: 1.04352 cumulative IPC: 1.06028 (Simulation time: 0 hr 5 min 34 sec) 
Heartbeat CPU  0 instructions:  177000001 cycles:  122561962 heartbeat IPC: 1.04499 cumulative IPC: 1.06008 (Simulation time: 0 hr 5 min 36 sec) 
Heartbeat CPU  0 instructions:  178000001 cycles:  123520492 heartbeat IPC: 1.04326 cumulative IPC: 1.05986 (Simulation time: 0 hr 5 min 38 sec) 
Heartbeat CPU  0 instructions:  179000002 cycles:  124477256 heartbeat IPC: 1.04519 cumulative IPC: 1.05967 (Simulation time: 0 hr 5 min 40 sec) 
Heartbeat CPU  0 instructions:  180000000 cycles:  125437012 heartbeat IPC: 1.04193 cumulative IPC: 1.05945 (Simulation time: 0 hr 5 min 42 sec) 
Heartbeat CPU  0 instructions:  181000000 cycles:  126391011 heartbeat IPC: 1.04822 cumulative IPC: 1.05931 (Simulation time: 0 hr 5 min 44 sec) 
Heartbeat CPU  0 instructions:  182000002 cycles:  127339594 heartbeat IPC: 1.05421 cumulative IPC: 1.05925 (Simulation time: 0 hr 5 min 47 sec) 
Heartbeat CPU  0 instructions:  183000002 cycles:  128290482 heartbeat IPC: 1.05165 cumulative IPC: 1.05915 (Simulation time: 0 hr 5 min 49 sec) 
Heartbeat CPU  0 instructions:  184000000 cycles:  129242650 heartbeat IPC: 1.05023 cumulative IPC: 1.05905 (Simulation time: 0 hr 5 min 51 sec) 
Heartbeat CPU  0 instructions:  185000003 cycles:  130202024 heartbeat IPC: 1.04235 cumulative IPC: 1.05885 (Simulation time: 0 hr 5 min 53 sec) 
Heartbeat CPU  0 instructions:  186000000 cycles:  131158863 heartbeat IPC: 1.04510 cumulative IPC: 1.05868 (Simulation time: 0 hr 5 min 55 sec) 
Heartbeat CPU  0 instructions:  187000000 cycles:  132117555 heartbeat IPC: 1.04309 cumulative IPC: 1.05850 (Simulation time: 0 hr 5 min 57 sec) 
Heartbeat CPU  0 instructions:  188000000 cycles:  133074757 heartbeat IPC: 1.04471 cumulative IPC: 1.05834 (Simulation time: 0 hr 5 min 59 sec) 
Heartbeat CPU  0 instructions:  189000003 cycles:  134033579 heartbeat IPC: 1.04295 cumulative IPC: 1.05817 (Simulation time: 0 hr 6 min 2 sec) 
Heartbeat CPU  0 instructions:  190000000 cycles:  134991387 heartbeat IPC: 1.04405 cumulative IPC: 1.05801 (Simulation time: 0 hr 6 min 4 sec) 
Heartbeat CPU  0 instructions:  191000000 cycles:  135950654 heartbeat IPC: 1.04246 cumulative IPC: 1.05784 (Simulation time: 0 hr 6 min 6 sec) 
Heartbeat CPU  0 instructions:  192000000 cycles:  136909151 heartbeat IPC: 1.04330 cumulative IPC: 1.05768 (Simulation time: 0 hr 6 min 8 sec) 
Heartbeat CPU  0 instructions:  193000000 cycles:  137867036 heartbeat IPC: 1.04397 cumulative IPC: 1.05753 (Simulation time: 0 hr 6 min 10 sec) 
Heartbeat CPU  0 instructions:  194000000 cycles:  138818510 heartbeat IPC: 1.05100 cumulative IPC: 1.05746 (Simulation time: 0 hr 6 min 12 sec) 
Heartbeat CPU  0 instructions:  195000003 cycles:  140609027 heartbeat IPC: 0.55850 cumulative IPC: 1.04760 (Simulation time: 0 hr 6 min 15 sec) 
Heartbeat CPU  0 instructions:  196000000 cycles:  141586401 heartbeat IPC: 1.02315 cumulative IPC: 1.04734 (Simulation time: 0 hr 6 min 17 sec) 
Heartbeat CPU  0 instructions:  197000000 cycles:  142543516 heartbeat IPC: 1.04481 cumulative IPC: 1.04732 (Simulation time: 0 hr 6 min 19 sec) 
Heartbeat CPU  0 instructions:  198000000 cycles:  143471859 heartbeat IPC: 1.07719 cumulative IPC: 1.04761 (Simulation time: 0 hr 6 min 21 sec) 
Heartbeat CPU  0 instructions:  199000000 cycles:  144407725 heartbeat IPC: 1.06853 cumulative IPC: 1.04782 (Simulation time: 0 hr 6 min 23 sec) 
Heartbeat CPU  0 instructions:  200000000 cycles:  145357042 heartbeat IPC: 1.05339 cumulative IPC: 1.04788 (Simulation time: 0 hr 6 min 25 sec) 
Heartbeat CPU  0 instructions:  201000002 cycles:  146286554 heartbeat IPC: 1.07584 cumulative IPC: 1.04815 (Simulation time: 0 hr 6 min 27 sec) 
Heartbeat CPU  0 instructions:  202000002 cycles:  147214646 heartbeat IPC: 1.07748 cumulative IPC: 1.04843 (Simulation time: 0 hr 6 min 29 sec) 
Heartbeat CPU  0 instructions:  203000003 cycles:  148144070 heartbeat IPC: 1.07594 cumulative IPC: 1.04869 (Simulation time: 0 hr 6 min 31 sec) 
Heartbeat CPU  0 instructions:  204000000 cycles:  149776479 heartbeat IPC: 0.61259 cumulative IPC: 1.04156 (Simulation time: 0 hr 6 min 33 sec) 
Heartbeat CPU  0 instructions:  205000001 cycles:  150699889 heartbeat IPC: 1.08294 cumulative IPC: 1.04194 (Simulation time: 0 hr 6 min 35 sec) 
Heartbeat CPU  0 instructions:  206000003 cycles:  151586009 heartbeat IPC: 1.12852 cumulative IPC: 1.04269 (Simulation time: 0 hr 6 min 37 sec) 
Heartbeat CPU  0 instructions:  207000003 cycles:  152496291 heartbeat IPC: 1.09856 cumulative IPC: 1.04319 (Simulation time: 0 hr 6 min 39 sec) 
Heartbeat CPU  0 instructions:  208000000 cycles:  153396327 heartbeat IPC: 1.11106 cumulative IPC: 1.04378 (Simulation time: 0 hr 6 min 41 sec) 
Heartbeat CPU  0 instructions:  209000000 cycles:  154294973 heartbeat IPC: 1.11279 cumulative IPC: 1.04437 (Simulation time: 0 hr 6 min 43 sec) 
Heartbeat CPU  0 instructions:  210000003 cycles:  155190528 heartbeat IPC: 1.11663 cumulative IPC: 1.04499 (Simulation time: 0 hr 6 min 45 sec) 
Heartbeat CPU  0 instructions:  211000002 cycles:  156081547 heartbeat IPC: 1.12231 cumulative IPC: 1.04564 (Simulation time: 0 hr 6 min 47 sec) 
Heartbeat CPU  0 instructions:  212000000 cycles:  156997208 heartbeat IPC: 1.09211 cumulative IPC: 1.04603 (Simulation time: 0 hr 6 min 49 sec) 
Heartbeat CPU  0 instructions:  213000001 cycles:  158617375 heartbeat IPC: 0.61722 cumulative IPC: 1.03964 (Simulation time: 0 hr 6 min 52 sec) 
Heartbeat CPU  0 instructions:  214000001 cycles:  159604172 heartbeat IPC: 1.01338 cumulative IPC: 1.03940 (Simulation time: 0 hr 6 min 54 sec) 
Heartbeat CPU  0 instructions:  215000002 cycles:  160585134 heartbeat IPC: 1.01941 cumulative IPC: 1.03923 (Simulation time: 0 hr 6 min 56 sec) 
Heartbeat CPU  0 instructions:  216000000 cycles:  161590308 heartbeat IPC: 0.99485 cumulative IPC: 1.03883 (Simulation time: 0 hr 6 min 58 sec) 
Heartbeat CPU  0 instructions:  217000003 cycles:  162596948 heartbeat IPC: 0.99341 cumulative IPC: 1.03842 (Simulation time: 0 hr 7 min 0 sec) 
Heartbeat CPU  0 instructions:  218000003 cycles:  163598029 heartbeat IPC: 0.99892 cumulative IPC: 1.03807 (Simulation time: 0 hr 7 min 2 sec) 
Heartbeat CPU  0 instructions:  219000003 cycles:  164583071 heartbeat IPC: 1.01519 cumulative IPC: 1.03788 (Simulation time: 0 hr 7 min 4 sec) 
Heartbeat CPU  0 instructions:  220000000 cycles:  165570773 heartbeat IPC: 1.01245 cumulative IPC: 1.03766 (Simulation time: 0 hr 7 min 6 sec) 
Heartbeat CPU  0 instructions:  221000003 cycles:  166906270 heartbeat IPC: 0.74879 cumulative IPC: 1.03436 (Simulation time: 0 hr 7 min 8 sec) 
Heartbeat CPU  0 instructions:  222000002 cycles:  168375215 heartbeat IPC: 0.68076 cumulative IPC: 1.02998 (Simulation time: 0 hr 7 min 11 sec) 
Heartbeat CPU  0 instructions:  223000002 cycles:  169577894 heartbeat IPC: 0.83148 cumulative IPC: 1.02798 (Simulation time: 0 hr 7 min 13 sec) 
Heartbeat CPU  0 instructions:  224000000 cycles:  170793204 heartbeat IPC: 0.82283 cumulative IPC: 1.02592 (Simulation time: 0 hr 7 min 15 sec) 
Heartbeat CPU  0 instructions:  225000000 cycles:  172019286 heartbeat IPC: 0.81561 cumulative IPC: 1.02381 (Simulation time: 0 hr 7 min 18 sec) 
Heartbeat CPU  0 instructions:  226000003 cycles:  173220948 heartbeat IPC: 0.83218 cumulative IPC: 1.02194 (Simulation time: 0 hr 7 min 20 sec) 
Heartbeat CPU  0 instructions:  227000001 cycles:  174433082 heartbeat IPC: 0.82499 cumulative IPC: 1.02002 (Simulation time: 0 hr 7 min 23 sec) 
Heartbeat CPU  0 instructions:  228000000 cycles:  175638788 heartbeat IPC: 0.82939 cumulative IPC: 1.01819 (Simulation time: 0 hr 7 min 25 sec) 
Heartbeat CPU  0 instructions:  229000000 cycles:  176837918 heartbeat IPC: 0.83394 cumulative IPC: 1.01645 (Simulation time: 0 hr 7 min 28 sec) 
Heartbeat CPU  0 instructions:  230000000 cycles:  178069399 heartbeat IPC: 0.81203 cumulative IPC: 1.01449 (Simulation time: 0 hr 7 min 30 sec) 
Heartbeat CPU  0 instructions:  231000000 cycles:  179283703 heartbeat IPC: 0.82352 cumulative IPC: 1.01270 (Simulation time: 0 hr 7 min 33 sec) 
Heartbeat CPU  0 instructions:  232000000 cycles:  180506620 heartbeat IPC: 0.81772 cumulative IPC: 1.01087 (Simulation time: 0 hr 7 min 35 sec) 
Heartbeat CPU  0 instructions:  233000000 cycles:  181720319 heartbeat IPC: 0.82393 cumulative IPC: 1.00915 (Simulation time: 0 hr 7 min 37 sec) 
Heartbeat CPU  0 instructions:  234000000 cycles:  182963638 heartbeat IPC: 0.80430 cumulative IPC: 1.00723 (Simulation time: 0 hr 7 min 40 sec) 
Heartbeat CPU  0 instructions:  235000003 cycles:  184177581 heartbeat IPC: 0.82376 cumulative IPC: 1.00557 (Simulation time: 0 hr 7 min 42 sec) 
Heartbeat CPU  0 instructions:  236000000 cycles:  185390264 heartbeat IPC: 0.82462 cumulative IPC: 1.00395 (Simulation time: 0 hr 7 min 45 sec) 
Heartbeat CPU  0 instructions:  237000000 cycles:  186613349 heartbeat IPC: 0.81760 cumulative IPC: 1.00229 (Simulation time: 0 hr 7 min 47 sec) 
Heartbeat CPU  0 instructions:  238000002 cycles:  187841926 heartbeat IPC: 0.81395 cumulative IPC: 1.00061 (Simulation time: 0 hr 7 min 49 sec) 
Heartbeat CPU  0 instructions:  239000000 cycles:  189053677 heartbeat IPC: 0.82525 cumulative IPC: 0.99908 (Simulation time: 0 hr 7 min 52 sec) 
Heartbeat CPU  0 instructions:  240000000 cycles:  190274929 heartbeat IPC: 0.81883 cumulative IPC: 0.99751 (Simulation time: 0 hr 7 min 54 sec) 
Heartbeat CPU  0 instructions:  241000002 cycles:  191486665 heartbeat IPC: 0.82526 cumulative IPC: 0.99604 (Simulation time: 0 hr 7 min 57 sec) 
Heartbeat CPU  0 instructions:  242000002 cycles:  192715588 heartbeat IPC: 0.81372 cumulative IPC: 0.99447 (Simulation time: 0 hr 7 min 59 sec) 
Heartbeat CPU  0 instructions:  243000001 cycles:  193926497 heartbeat IPC: 0.82583 cumulative IPC: 0.99305 (Simulation time: 0 hr 8 min 2 sec) 
Heartbeat CPU  0 instructions:  244000000 cycles:  195141799 heartbeat IPC: 0.82284 cumulative IPC: 0.99163 (Simulation time: 0 hr 8 min 4 sec) 
Heartbeat CPU  0 instructions:  245000002 cycles:  196356391 heartbeat IPC: 0.82332 cumulative IPC: 0.99023 (Simulation time: 0 hr 8 min 6 sec) 
Heartbeat CPU  0 instructions:  246000003 cycles:  197593436 heartbeat IPC: 0.80838 cumulative IPC: 0.98871 (Simulation time: 0 hr 8 min 9 sec) 
Heartbeat CPU  0 instructions:  247000002 cycles:  198804300 heartbeat IPC: 0.82586 cumulative IPC: 0.98738 (Simulation time: 0 hr 8 min 11 sec) 
Heartbeat CPU  0 instructions:  248000000 cycles:  200017551 heartbeat IPC: 0.82423 cumulative IPC: 0.98606 (Simulation time: 0 hr 8 min 14 sec) 
Heartbeat CPU  0 instructions:  249000000 cycles:  201233560 heartbeat IPC: 0.82236 cumulative IPC: 0.98475 (Simulation time: 0 hr 8 min 16 sec) 
Heartbeat CPU  0 instructions:  250000000 cycles:  202468155 heartbeat IPC: 0.80998 cumulative IPC: 0.98333 (Simulation time: 0 hr 8 min 19 sec) 
Heartbeat CPU  0 instructions:  251000002 cycles:  203680351 heartbeat IPC: 0.82495 cumulative IPC: 0.98209 (Simulation time: 0 hr 8 min 21 sec) 
Heartbeat CPU  0 instructions:  252000000 cycles:  204900665 heartbeat IPC: 0.81946 cumulative IPC: 0.98081 (Simulation time: 0 hr 8 min 23 sec) 
Heartbeat CPU  0 instructions:  253000001 cycles:  206116108 heartbeat IPC: 0.82275 cumulative IPC: 0.97958 (Simulation time: 0 hr 8 min 26 sec) 
Heartbeat CPU  0 instructions:  254000002 cycles:  207336174 heartbeat IPC: 0.81963 cumulative IPC: 0.97834 (Simulation time: 0 hr 8 min 28 sec) 
Heartbeat CPU  0 instructions:  255000003 cycles:  208565549 heartbeat IPC: 0.81342 cumulative IPC: 0.97706 (Simulation time: 0 hr 8 min 31 sec) 
Heartbeat CPU  0 instructions:  256000000 cycles:  209768215 heartbeat IPC: 0.83148 cumulative IPC: 0.97596 (Simulation time: 0 hr 8 min 33 sec) 
Heartbeat CPU  0 instructions:  257000001 cycles:  210981582 heartbeat IPC: 0.82415 cumulative IPC: 0.97482 (Simulation time: 0 hr 8 min 36 sec) 
Heartbeat CPU  0 instructions:  258000001 cycles:  212192074 heartbeat IPC: 0.82611 cumulative IPC: 0.97371 (Simulation time: 0 hr 8 min 38 sec) 
Heartbeat CPU  0 instructions:  259000000 cycles:  213684937 heartbeat IPC: 0.66985 cumulative IPC: 0.97094 (Simulation time: 0 hr 8 min 40 sec) 
Heartbeat CPU  0 instructions:  260000000 cycles:  214634864 heartbeat IPC: 1.05271 cumulative IPC: 0.97141 (Simulation time: 0 hr 8 min 43 sec) 
Heartbeat CPU  0 instructions:  261000000 cycles:  215557934 heartbeat IPC: 1.08334 cumulative IPC: 0.97203 (Simulation time: 0 hr 8 min 45 sec) 
Heartbeat CPU  0 instructions:  262000000 cycles:  216482052 heartbeat IPC: 1.08211 cumulative IPC: 0.97265 (Simulation time: 0 hr 8 min 47 sec) 
Heartbeat CPU  0 instructions:  263000001 cycles:  217408190 heartbeat IPC: 1.07975 cumulative IPC: 0.97324 (Simulation time: 0 hr 8 min 49 sec) 
Heartbeat CPU  0 instructions:  264000000 cycles:  218328810 heartbeat IPC: 1.08622 cumulative IPC: 0.97386 (Simulation time: 0 hr 8 min 51 sec) 
Heartbeat CPU  0 instructions:  265000001 cycles:  219248923 heartbeat IPC: 1.08682 cumulative IPC: 0.97447 (Simulation time: 0 hr 8 min 53 sec) 
Heartbeat CPU  0 instructions:  266000001 cycles:  220170860 heartbeat IPC: 1.08467 cumulative IPC: 0.97507 (Simulation time: 0 hr 8 min 55 sec) 
Heartbeat CPU  0 instructions:  267000002 cycles:  221112747 heartbeat IPC: 1.06170 cumulative IPC: 0.97554 (Simulation time: 0 hr 8 min 57 sec) 
Heartbeat CPU  0 instructions:  268000000 cycles:  222152435 heartbeat IPC: 0.96183 cumulative IPC: 0.97546 (Simulation time: 0 hr 8 min 59 sec) 
Heartbeat CPU  0 instructions:  269000001 cycles:  223058364 heartbeat IPC: 1.10384 cumulative IPC: 0.97613 (Simulation time: 0 hr 9 min 1 sec) 
Heartbeat CPU  0 instructions:  270000000 cycles:  223979881 heartbeat IPC: 1.08517 cumulative IPC: 0.97671 (Simulation time: 0 hr 9 min 4 sec) 
Heartbeat CPU  0 instructions:  271000002 cycles:  224903166 heartbeat IPC: 1.08309 cumulative IPC: 0.97727 (Simulation time: 0 hr 9 min 6 sec) 
Heartbeat CPU  0 instructions:  272000000 cycles:  225817355 heartbeat IPC: 1.09386 cumulative IPC: 0.97788 (Simulation time: 0 hr 9 min 8 sec) 
Heartbeat CPU  0 instructions:  273000003 cycles:  226718912 heartbeat IPC: 1.10920 cumulative IPC: 0.97855 (Simulation time: 0 hr 9 min 10 sec) 
Heartbeat CPU  0 instructions:  274000002 cycles:  227614573 heartbeat IPC: 1.11649 cumulative IPC: 0.97924 (Simulation time: 0 hr 9 min 12 sec) 
Heartbeat CPU  0 instructions:  275000000 cycles:  228519088 heartbeat IPC: 1.10556 cumulative IPC: 0.97988 (Simulation time: 0 hr 9 min 14 sec) 
Heartbeat CPU  0 instructions:  276000000 cycles:  229424842 heartbeat IPC: 1.10405 cumulative IPC: 0.98051 (Simulation time: 0 hr 9 min 16 sec) 
Heartbeat CPU  0 instructions:  277000001 cycles:  230325423 heartbeat IPC: 1.11040 cumulative IPC: 0.98116 (Simulation time: 0 hr 9 min 18 sec) 
Heartbeat CPU  0 instructions:  278000001 cycles:  231166652 heartbeat IPC: 1.18874 cumulative IPC: 0.98212 (Simulation time: 0 hr 9 min 20 sec) 
Heartbeat CPU  0 instructions:  279000003 cycles:  231972721 heartbeat IPC: 1.24059 cumulative IPC: 0.98326 (Simulation time: 0 hr 9 min 22 sec) 
Heartbeat CPU  0 instructions:  280000000 cycles:  232920833 heartbeat IPC: 1.05472 cumulative IPC: 0.98363 (Simulation time: 0 hr 9 min 24 sec) 
Heartbeat CPU  0 instructions:  281000000 cycles:  233823176 heartbeat IPC: 1.10823 cumulative IPC: 0.98425 (Simulation time: 0 hr 9 min 27 sec) 
Heartbeat CPU  0 instructions:  282000002 cycles:  234720863 heartbeat IPC: 1.11398 cumulative IPC: 0.98488 (Simulation time: 0 hr 9 min 29 sec) 
Heartbeat CPU  0 instructions:  283000003 cycles:  235614867 heartbeat IPC: 1.11856 cumulative IPC: 0.98552 (Simulation time: 0 hr 9 min 31 sec) 
Heartbeat CPU  0 instructions:  284000000 cycles:  236505847 heartbeat IPC: 1.12236 cumulative IPC: 0.98617 (Simulation time: 0 hr 9 min 33 sec) 
Heartbeat CPU  0 instructions:  285000001 cycles:  237412628 heartbeat IPC: 1.10280 cumulative IPC: 0.98674 (Simulation time: 0 hr 9 min 35 sec) 
Heartbeat CPU  0 instructions:  286000001 cycles:  238319281 heartbeat IPC: 1.10296 cumulative IPC: 0.98730 (Simulation time: 0 hr 9 min 37 sec) 
Heartbeat CPU  0 instructions:  287000003 cycles:  239228719 heartbeat IPC: 1.09958 cumulative IPC: 0.98784 (Simulation time: 0 hr 9 min 39 sec) 
Heartbeat CPU  0 instructions:  288000000 cycles:  240126998 heartbeat IPC: 1.11324 cumulative IPC: 0.98843 (Simulation time: 0 hr 9 min 41 sec) 
Heartbeat CPU  0 instructions:  289000000 cycles:  240938284 heartbeat IPC: 1.23261 cumulative IPC: 0.98946 (Simulation time: 0 hr 9 min 43 sec) 
Heartbeat CPU  0 instructions:  290000003 cycles:  241840918 heartbeat IPC: 1.10787 cumulative IPC: 0.99002 (Simulation time: 0 hr 9 min 45 sec) 
Heartbeat CPU  0 instructions:  291000002 cycles:  242738585 heartbeat IPC: 1.11400 cumulative IPC: 0.99060 (Simulation time: 0 hr 9 min 47 sec) 
Heartbeat CPU  0 instructions:  292000000 cycles:  243638953 heartbeat IPC: 1.11065 cumulative IPC: 0.99116 (Simulation time: 0 hr 9 min 49 sec) 
Heartbeat CPU  0 instructions:  293000003 cycles:  244541609 heartbeat IPC: 1.10785 cumulative IPC: 0.99170 (Simulation time: 0 hr 9 min 52 sec) 
Heartbeat CPU  0 instructions:  294000000 cycles:  245437054 heartbeat IPC: 1.11676 cumulative IPC: 0.99227 (Simulation time: 0 hr 9 min 54 sec) 
Heartbeat CPU  0 instructions:  295000000 cycles:  246338144 heartbeat IPC: 1.10977 cumulative IPC: 0.99281 (Simulation time: 0 hr 9 min 56 sec) 
Heartbeat CPU  0 instructions:  296000000 cycles:  247245373 heartbeat IPC: 1.10226 cumulative IPC: 0.99331 (Simulation time: 0 hr 9 min 58 sec) 
Heartbeat CPU  0 instructions:  297000000 cycles:  248160958 heartbeat IPC: 1.09220 cumulative IPC: 0.99377 (Simulation time: 0 hr 10 min 0 sec) 
Heartbeat CPU  0 instructions:  298000000 cycles:  249069770 heartbeat IPC: 1.10034 cumulative IPC: 0.99426 (Simulation time: 0 hr 10 min 2 sec) 
Heartbeat CPU  0 instructions:  299000002 cycles:  249899975 heartbeat IPC: 1.20452 cumulative IPC: 0.99513 (Simulation time: 0 hr 10 min 4 sec) 
Heartbeat CPU  0 instructions:  300000000 cycles:  250711432 heartbeat IPC: 1.23235 cumulative IPC: 0.99609 (Simulation time: 0 hr 10 min 6 sec) 
Heartbeat CPU  0 instructions:  301000003 cycles:  251667058 heartbeat IPC: 1.04644 cumulative IPC: 0.99633 (Simulation time: 0 hr 10 min 8 sec) 
Heartbeat CPU  0 instructions:  302000002 cycles:  252570706 heartbeat IPC: 1.10662 cumulative IPC: 0.99682 (Simulation time: 0 hr 10 min 10 sec) 
Heartbeat CPU  0 instructions:  303000000 cycles:  253467686 heartbeat IPC: 1.11485 cumulative IPC: 0.99734 (Simulation time: 0 hr 10 min 12 sec) 
Heartbeat CPU  0 instructions:  304000000 cycles:  254374606 heartbeat IPC: 1.10263 cumulative IPC: 0.99781 (Simulation time: 0 hr 10 min 14 sec) 
Heartbeat CPU  0 instructions:  305000001 cycles:  255276712 heartbeat IPC: 1.10852 cumulative IPC: 0.99829 (Simulation time: 0 hr 10 min 17 sec) 
Heartbeat CPU  0 instructions:  306000000 cycles:  256185177 heartbeat IPC: 1.10076 cumulative IPC: 0.99874 (Simulation time: 0 hr 10 min 19 sec) 
Heartbeat CPU  0 instructions:  307000003 cycles:  257094333 heartbeat IPC: 1.09992 cumulative IPC: 0.99919 (Simulation time: 0 hr 10 min 21 sec) 
Heartbeat CPU  0 instructions:  308000000 cycles:  257999410 heartbeat IPC: 1.10488 cumulative IPC: 0.99965 (Simulation time: 0 hr 10 min 23 sec) 
Heartbeat CPU  0 instructions:  309000000 cycles:  258877033 heartbeat IPC: 1.13944 cumulative IPC: 1.00023 (Simulation time: 0 hr 10 min 25 sec) 
Heartbeat CPU  0 instructions:  310000001 cycles:  259687984 heartbeat IPC: 1.23312 cumulative IPC: 1.00113 (Simulation time: 0 hr 10 min 27 sec) 
Heartbeat CPU  0 instructions:  311000000 cycles:  260625507 heartbeat IPC: 1.06664 cumulative IPC: 1.00143 (Simulation time: 0 hr 10 min 29 sec) 
Heartbeat CPU  0 instructions:  312000000 cycles:  261532906 heartbeat IPC: 1.10205 cumulative IPC: 1.00186 (Simulation time: 0 hr 10 min 31 sec) 
Heartbeat CPU  0 instructions:  313000000 cycles:  262440757 heartbeat IPC: 1.10150 cumulative IPC: 1.00228 (Simulation time: 0 hr 10 min 33 sec) 
Heartbeat CPU  0 instructions:  314000003 cycles:  263350150 heartbeat IPC: 1.09964 cumulative IPC: 1.00270 (Simulation time: 0 hr 10 min 35 sec) 
Heartbeat CPU  0 instructions:  315000000 cycles:  264257980 heartbeat IPC: 1.10152 cumulative IPC: 1.00312 (Simulation time: 0 hr 10 min 37 sec) 
Heartbeat CPU  0 instructions:  316000000 cycles:  265163221 heartbeat IPC: 1.10468 cumulative IPC: 1.00354 (Simulation time: 0 hr 10 min 39 sec) 
Heartbeat CPU  0 instructions:  317000000 cycles:  266074347 heartbeat IPC: 1.09754 cumulative IPC: 1.00394 (Simulation time: 0 hr 10 min 42 sec) 
Heartbeat CPU  0 instructions:  318000003 cycles:  266980343 heartbeat IPC: 1.10376 cumulative IPC: 1.00436 (Simulation time: 0 hr 10 min 44 sec) 
Heartbeat CPU  0 instructions:  319000000 cycles:  267887275 heartbeat IPC: 1.10262 cumulative IPC: 1.00477 (Simulation time: 0 hr 10 min 46 sec) 
Heartbeat CPU  0 instructions:  320000000 cycles:  268706037 heartbeat IPC: 1.22136 cumulative IPC: 1.00558 (Simulation time: 0 hr 10 min 48 sec) 
Heartbeat CPU  0 instructions:  321000003 cycles:  269561462 heartbeat IPC: 1.16901 cumulative IPC: 1.00621 (Simulation time: 0 hr 10 min 50 sec) 
Heartbeat CPU  0 instructions:  322000002 cycles:  270494694 heartbeat IPC: 1.07154 cumulative IPC: 1.00649 (Simulation time: 0 hr 10 min 52 sec) 
Heartbeat CPU  0 instructions:  323000000 cycles:  271403481 heartbeat IPC: 1.10037 cumulative IPC: 1.00687 (Simulation time: 0 hr 10 min 54 sec) 
Heartbeat CPU  0 instructions:  324000000 cycles:  272311022 heartbeat IPC: 1.10188 cumulative IPC: 1.00726 (Simulation time: 0 hr 10 min 56 sec) 
Heartbeat CPU  0 instructions:  325000000 cycles:  273219059 heartbeat IPC: 1.10128 cumulative IPC: 1.00764 (Simulation time: 0 hr 10 min 58 sec) 
Heartbeat CPU  0 instructions:  326000002 cycles:  274128699 heartbeat IPC: 1.09934 cumulative IPC: 1.00802 (Simulation time: 0 hr 11 min 0 sec) 
Heartbeat CPU  0 instructions:  327000000 cycles:  275030905 heartbeat IPC: 1.10839 cumulative IPC: 1.00842 (Simulation time: 0 hr 11 min 2 sec) 
Heartbeat CPU  0 instructions:  328000000 cycles:  275935661 heartbeat IPC: 1.10527 cumulative IPC: 1.00881 (Simulation time: 0 hr 11 min 5 sec) 
Heartbeat CPU  0 instructions:  329000003 cycles:  276849735 heartbeat IPC: 1.09401 cumulative IPC: 1.00915 (Simulation time: 0 hr 11 min 7 sec) 
Heartbeat CPU  0 instructions:  330000000 cycles:  277713192 heartbeat IPC: 1.15813 cumulative IPC: 1.00971 (Simulation time: 0 hr 11 min 9 sec) 
Heartbeat CPU  0 instructions:  331000002 cycles:  278522430 heartbeat IPC: 1.23573 cumulative IPC: 1.01051 (Simulation time: 0 hr 11 min 11 sec) 
Heartbeat CPU  0 instructions:  332000000 cycles:  279468507 heartbeat IPC: 1.05699 cumulative IPC: 1.01071 (Simulation time: 0 hr 11 min 13 sec) 
Heartbeat CPU  0 instructions:  333000002 cycles:  280380256 heartbeat IPC: 1.09680 cumulative IPC: 1.01105 (Simulation time: 0 hr 11 min 15 sec) 
Heartbeat CPU  0 instructions:  334000001 cycles:  281285975 heartbeat IPC: 1.10409 cumulative IPC: 1.01141 (Simulation time: 0 hr 11 min 17 sec) 
Heartbeat CPU  0 instructions:  335000003 cycles:  282197083 heartbeat IPC: 1.09757 cumulative IPC: 1.01175 (Simulation time: 0 hr 11 min 19 sec) 
Heartbeat CPU  0 instructions:  336000000 cycles:  283098134 heartbeat IPC: 1.10981 cumulative IPC: 1.01213 (Simulation time: 0 hr 11 min 21 sec) 
Heartbeat CPU  0 instructions:  337000001 cycles:  283996760 heartbeat IPC: 1.11281 cumulative IPC: 1.01251 (Simulation time: 0 hr 11 min 23 sec) 
Heartbeat CPU  0 instructions:  338000000 cycles:  284908917 heartbeat IPC: 1.09630 cumulative IPC: 1.01284 (Simulation time: 0 hr 11 min 25 sec) 
Heartbeat CPU  0 instructions:  339000000 cycles:  285819463 heartbeat IPC: 1.09824 cumulative IPC: 1.01317 (Simulation time: 0 hr 11 min 28 sec) 
Heartbeat CPU  0 instructions:  340000000 cycles:  286727569 heartbeat IPC: 1.10119 cumulative IPC: 1.01351 (Simulation time: 0 hr 11 min 30 sec) 
Heartbeat CPU  0 instructions:  341000003 cycles:  287534230 heartbeat IPC: 1.23968 cumulative IPC: 1.01427 (Simulation time: 0 hr 11 min 32 sec) 
Heartbeat CPU  0 instructions:  342000001 cycles:  288418711 heartbeat IPC: 1.13060 cumulative IPC: 1.01471 (Simulation time: 0 hr 11 min 34 sec) 
Heartbeat CPU  0 instructions:  343000002 cycles:  289343709 heartbeat IPC: 1.08108 cumulative IPC: 1.01496 (Simulation time: 0 hr 11 min 36 sec) 
Heartbeat CPU  0 instructions:  344000000 cycles:  290254840 heartbeat IPC: 1.09753 cumulative IPC: 1.01528 (Simulation time: 0 hr 11 min 38 sec) 
Heartbeat CPU  0 instructions:  345000003 cycles:  291165028 heartbeat IPC: 1.09868 cumulative IPC: 1.01559 (Simulation time: 0 hr 11 min 40 sec) 
Heartbeat CPU  0 instructions:  346000000 cycles:  292060409 heartbeat IPC: 1.11684 cumulative IPC: 1.01596 (Simulation time: 0 hr 11 min 42 sec) 
Heartbeat CPU  0 instructions:  347000000 cycles:  292963023 heartbeat IPC: 1.10789 cumulative IPC: 1.01631 (Simulation time: 0 hr 11 min 44 sec) 
Heartbeat CPU  0 instructions:  348000000 cycles:  293875558 heartbeat IPC: 1.09585 cumulative IPC: 1.01660 (Simulation time: 0 hr 11 min 46 sec) 
Heartbeat CPU  0 instructions:  349000001 cycles:  294786372 heartbeat IPC: 1.09792 cumulative IPC: 1.01691 (Simulation time: 0 hr 11 min 48 sec) 
Heartbeat CPU  0 instructions:  350000002 cycles:  295697109 heartbeat IPC: 1.09801 cumulative IPC: 1.01721 (Simulation time: 0 hr 11 min 50 sec) 
Heartbeat CPU  0 instructions:  351000001 cycles:  296545174 heartbeat IPC: 1.17915 cumulative IPC: 1.01776 (Simulation time: 0 hr 11 min 52 sec) 
Heartbeat CPU  0 instructions:  352000000 cycles:  297355666 heartbeat IPC: 1.23382 cumulative IPC: 1.01847 (Simulation time: 0 hr 11 min 54 sec) 
Heartbeat CPU  0 instructions:  353000002 cycles:  298307898 heartbeat IPC: 1.05017 cumulative IPC: 1.01859 (Simulation time: 0 hr 11 min 56 sec) 
Heartbeat CPU  0 instructions:  354000002 cycles:  299211399 heartbeat IPC: 1.10681 cumulative IPC: 1.01891 (Simulation time: 0 hr 11 min 59 sec) 
Heartbeat CPU  0 instructions:  355000003 cycles:  300111321 heartbeat IPC: 1.11121 cumulative IPC: 1.01924 (Simulation time: 0 hr 12 min 1 sec) 
Heartbeat CPU  0 instructions:  356000000 cycles:  301012854 heartbeat IPC: 1.10922 cumulative IPC: 1.01957 (Simulation time: 0 hr 12 min 3 sec) 
Heartbeat CPU  0 instructions:  357000002 cycles:  301915821 heartbeat IPC: 1.10746 cumulative IPC: 1.01988 (Simulation time: 0 hr 12 min 5 sec) 
Heartbeat CPU  0 instructions:  358000003 cycles:  302823203 heartbeat IPC: 1.10207 cumulative IPC: 1.02018 (Simulation time: 0 hr 12 min 7 sec) 
Heartbeat CPU  0 instructions:  359000001 cycles:  303731790 heartbeat IPC: 1.10061 cumulative IPC: 1.02047 (Simulation time: 0 hr 12 min 9 sec) 
Heartbeat CPU  0 instructions:  360000000 cycles:  304648895 heartbeat IPC: 1.09039 cumulative IPC: 1.02072 (Simulation time: 0 hr 12 min 11 sec) 
Heartbeat CPU  0 instructions:  361000003 cycles:  305540658 heartbeat IPC: 1.12138 cumulative IPC: 1.02107 (Simulation time: 0 hr 12 min 13 sec) 
Heartbeat CPU  0 instructions:  362000000 cycles:  306343972 heartbeat IPC: 1.24484 cumulative IPC: 1.02177 (Simulation time: 0 hr 12 min 15 sec) 
Heartbeat CPU  0 instructions:  363000000 cycles:  307252198 heartbeat IPC: 1.10105 cumulative IPC: 1.02205 (Simulation time: 0 hr 12 min 17 sec) 
Heartbeat CPU  0 instructions:  364000000 cycles:  308166031 heartbeat IPC: 1.09429 cumulative IPC: 1.02230 (Simulation time: 0 hr 12 min 19 sec) 
Heartbeat CPU  0 instructions:  365000000 cycles:  309060612 heartbeat IPC: 1.11784 cumulative IPC: 1.02263 (Simulation time: 0 hr 12 min 22 sec) 
Heartbeat CPU  0 instructions:  366000001 cycles:  309965238 heartbeat IPC: 1.10543 cumulative IPC: 1.02292 (Simulation time: 0 hr 12 min 24 sec) 
Heartbeat CPU  0 instructions:  367000002 cycles:  310870502 heartbeat IPC: 1.10465 cumulative IPC: 1.02321 (Simulation time: 0 hr 12 min 26 sec) 
Heartbeat CPU  0 instructions:  368000000 cycles:  311778042 heartbeat IPC: 1.10188 cumulative IPC: 1.02348 (Simulation time: 0 hr 12 min 28 sec) 
Heartbeat CPU  0 instructions:  369000001 cycles:  312686751 heartbeat IPC: 1.10046 cumulative IPC: 1.02374 (Simulation time: 0 hr 12 min 30 sec) 
Heartbeat CPU  0 instructions:  370000002 cycles:  313602737 heartbeat IPC: 1.09172 cumulative IPC: 1.02398 (Simulation time: 0 hr 12 min 32 sec) 
Heartbeat CPU  0 instructions:  371000000 cycles:  314506086 heartbeat IPC: 1.10699 cumulative IPC: 1.02426 (Simulation time: 0 hr 12 min 34 sec) 
Heartbeat CPU  0 instructions:  372000000 cycles:  315343014 heartbeat IPC: 1.19485 cumulative IPC: 1.02480 (Simulation time: 0 hr 12 min 36 sec) 
Heartbeat CPU  0 instructions:  373000003 cycles:  316155344 heartbeat IPC: 1.23103 cumulative IPC: 1.02543 (Simulation time: 0 hr 12 min 38 sec) 
Heartbeat CPU  0 instructions:  374000003 cycles:  317128932 heartbeat IPC: 1.02713 cumulative IPC: 1.02544 (Simulation time: 0 hr 12 min 40 sec) 
Heartbeat CPU  0 instructions:  375000001 cycles:  318029121 heartbeat IPC: 1.11088 cumulative IPC: 1.02572 (Simulation time: 0 hr 12 min 42 sec) 
Heartbeat CPU  0 instructions:  376000000 cycles:  318930300 heartbeat IPC: 1.10966 cumulative IPC: 1.02601 (Simulation time: 0 hr 12 min 44 sec) 
Heartbeat CPU  0 instructions:  377000001 cycles:  319838647 heartbeat IPC: 1.10090 cumulative IPC: 1.02626 (Simulation time: 0 hr 12 min 47 sec) 
Heartbeat CPU  0 instructions:  378000002 cycles:  320750899 heartbeat IPC: 1.09619 cumulative IPC: 1.02649 (Simulation time: 0 hr 12 min 49 sec) 
Heartbeat CPU  0 instructions:  379000001 cycles:  321661624 heartbeat IPC: 1.09803 cumulative IPC: 1.02673 (Simulation time: 0 hr 12 min 51 sec) 
Heartbeat CPU  0 instructions:  380000000 cycles:  322573643 heartbeat IPC: 1.09647 cumulative IPC: 1.02697 (Simulation time: 0 hr 12 min 53 sec) 
Heartbeat CPU  0 instructions:  381000000 cycles:  323475131 heartbeat IPC: 1.10928 cumulative IPC: 1.02724 (Simulation time: 0 hr 12 min 55 sec) 
Heartbeat CPU  0 instructions:  382000003 cycles:  324364849 heartbeat IPC: 1.12396 cumulative IPC: 1.02755 (Simulation time: 0 hr 12 min 57 sec) 
Heartbeat CPU  0 instructions:  383000001 cycles:  325169217 heartbeat IPC: 1.24321 cumulative IPC: 1.02818 (Simulation time: 0 hr 12 min 59 sec) 
Heartbeat CPU  0 instructions:  384000000 cycles:  326088706 heartbeat IPC: 1.08756 cumulative IPC: 1.02838 (Simulation time: 0 hr 13 min 1 sec) 
Heartbeat CPU  0 instructions:  385000000 cycles:  327008026 heartbeat IPC: 1.08776 cumulative IPC: 1.02858 (Simulation time: 0 hr 13 min 3 sec) 
Heartbeat CPU  0 instructions:  386000001 cycles:  327897578 heartbeat IPC: 1.12416 cumulative IPC: 1.02888 (Simulation time: 0 hr 13 min 5 sec) 
Heartbeat CPU  0 instructions:  387000000 cycles:  328807759 heartbeat IPC: 1.09868 cumulative IPC: 1.02911 (Simulation time: 0 hr 13 min 7 sec) 
Heartbeat CPU  0 instructions:  388000000 cycles:  329717993 heartbeat IPC: 1.09862 cumulative IPC: 1.02934 (Simulation time: 0 hr 13 min 9 sec) 
Heartbeat CPU  0 instructions:  389000001 cycles:  330627614 heartbeat IPC: 1.09936 cumulative IPC: 1.02956 (Simulation time: 0 hr 13 min 12 sec) 
Heartbeat CPU  0 instructions:  390000000 cycles:  331529132 heartbeat IPC: 1.10924 cumulative IPC: 1.02982 (Simulation time: 0 hr 13 min 14 sec) 
Heartbeat CPU  0 instructions:  391000003 cycles:  332438054 heartbeat IPC: 1.10021 cumulative IPC: 1.03004 (Simulation time: 0 hr 13 min 16 sec) 
Heartbeat CPU  0 instructions:  392000000 cycles:  333345836 heartbeat IPC: 1.10158 cumulative IPC: 1.03027 (Simulation time: 0 hr 13 min 18 sec) 
Heartbeat CPU  0 instructions:  393000002 cycles:  334188117 heartbeat IPC: 1.18725 cumulative IPC: 1.03074 (Simulation time: 0 hr 13 min 20 sec) 
Heartbeat CPU  0 instructions:  394000000 cycles:  334995374 heartbeat IPC: 1.23876 cumulative IPC: 1.03133 (Simulation time: 0 hr 13 min 22 sec) 
Heartbeat CPU  0 instructions:  395000002 cycles:  335972693 heartbeat IPC: 1.02321 cumulative IPC: 1.03130 (Simulation time: 0 hr 13 min 24 sec) 
Heartbeat CPU  0 instructions:  396000000 cycles:  336875268 heartbeat IPC: 1.10794 cumulative IPC: 1.03154 (Simulation time: 0 hr 13 min 26 sec) 
Heartbeat CPU  0 instructions:  397000003 cycles:  337777861 heartbeat IPC: 1.10792 cumulative IPC: 1.03178 (Simulation time: 0 hr 13 min 28 sec) 
Heartbeat CPU  0 instructions:  398000001 cycles:  338681462 heartbeat IPC: 1.10668 cumulative IPC: 1.03201 (Simulation time: 0 hr 13 min 30 sec) 
Heartbeat CPU  0 instructions:  399000000 cycles:  339591105 heartbeat IPC: 1.09933 cumulative IPC: 1.03223 (Simulation time: 0 hr 13 min 32 sec) 
Heartbeat CPU  0 instructions:  400000000 cycles:  340501226 heartbeat IPC: 1.09876 cumulative IPC: 1.03243 (Simulation time: 0 hr 13 min 35 sec) 
Heartbeat CPU  0 instructions:  401000002 cycles:  341403313 heartbeat IPC: 1.10854 cumulative IPC: 1.03267 (Simulation time: 0 hr 13 min 37 sec) 
Heartbeat CPU  0 instructions:  402000000 cycles:  342312688 heartbeat IPC: 1.09965 cumulative IPC: 1.03288 (Simulation time: 0 hr 13 min 39 sec) 
Heartbeat CPU  0 instructions:  403000000 cycles:  343195129 heartbeat IPC: 1.13322 cumulative IPC: 1.03318 (Simulation time: 0 hr 13 min 41 sec) 
Heartbeat CPU  0 instructions:  404000000 cycles:  344000512 heartbeat IPC: 1.24165 cumulative IPC: 1.03375 (Simulation time: 0 hr 13 min 43 sec) 
Heartbeat CPU  0 instructions:  405000003 cycles:  345660975 heartbeat IPC: 0.60224 cumulative IPC: 1.03133 (Simulation time: 0 hr 13 min 45 sec) 
Heartbeat CPU  0 instructions:  406000003 cycles:  346761973 heartbeat IPC: 0.90827 cumulative IPC: 1.03087 (Simulation time: 0 hr 13 min 47 sec) 
Heartbeat CPU  0 instructions:  407000000 cycles:  347855165 heartbeat IPC: 0.91475 cumulative IPC: 1.03045 (Simulation time: 0 hr 13 min 49 sec) 
Heartbeat CPU  0 instructions:  408000000 cycles:  348882010 heartbeat IPC: 0.97386 cumulative IPC: 1.03025 (Simulation time: 0 hr 13 min 52 sec) 
Heartbeat CPU  0 instructions:  409000003 cycles:  349903333 heartbeat IPC: 0.97913 cumulative IPC: 1.03008 (Simulation time: 0 hr 13 min 54 sec) 
Heartbeat CPU  0 instructions:  410000000 cycles:  350905541 heartbeat IPC: 0.99779 cumulative IPC: 1.02997 (Simulation time: 0 hr 13 min 56 sec) 
Heartbeat CPU  0 instructions:  411000000 cycles:  351900079 heartbeat IPC: 1.00549 cumulative IPC: 1.02989 (Simulation time: 0 hr 13 min 58 sec) 
Heartbeat CPU  0 instructions:  412000000 cycles:  352892758 heartbeat IPC: 1.00738 cumulative IPC: 1.02982 (Simulation time: 0 hr 14 min 0 sec) 
Heartbeat CPU  0 instructions:  413000003 cycles:  353896906 heartbeat IPC: 0.99587 cumulative IPC: 1.02970 (Simulation time: 0 hr 14 min 3 sec) 
Heartbeat CPU  0 instructions:  414000000 cycles:  354890123 heartbeat IPC: 1.00683 cumulative IPC: 1.02963 (Simulation time: 0 hr 14 min 5 sec) 
Heartbeat CPU  0 instructions:  415000003 cycles:  355886989 heartbeat IPC: 1.00315 cumulative IPC: 1.02954 (Simulation time: 0 hr 14 min 7 sec) 
Heartbeat CPU  0 instructions:  416000000 cycles:  356931239 heartbeat IPC: 0.95762 cumulative IPC: 1.02930 (Simulation time: 0 hr 14 min 9 sec) 
Heartbeat CPU  0 instructions:  417000001 cycles:  357927471 heartbeat IPC: 1.00378 cumulative IPC: 1.02922 (Simulation time: 0 hr 14 min 11 sec) 
Heartbeat CPU  0 instructions:  418000003 cycles:  358922496 heartbeat IPC: 1.00500 cumulative IPC: 1.02914 (Simulation time: 0 hr 14 min 14 sec) 
Heartbeat CPU  0 instructions:  419000002 cycles:  359916862 heartbeat IPC: 1.00566 cumulative IPC: 1.02906 (Simulation time: 0 hr 14 min 16 sec) 
Heartbeat CPU  0 instructions:  420000000 cycles:  360909235 heartbeat IPC: 1.00768 cumulative IPC: 1.02899 (Simulation time: 0 hr 14 min 18 sec) 
Heartbeat CPU  0 instructions:  421000003 cycles:  361904044 heartbeat IPC: 1.00522 cumulative IPC: 1.02892 (Simulation time: 0 hr 14 min 20 sec) 
Heartbeat CPU  0 instructions:  422000003 cycles:  362895716 heartbeat IPC: 1.00840 cumulative IPC: 1.02885 (Simulation time: 0 hr 14 min 22 sec) 
Heartbeat CPU  0 instructions:  423000002 cycles:  363896433 heartbeat IPC: 0.99928 cumulative IPC: 1.02876 (Simulation time: 0 hr 14 min 24 sec) 
Heartbeat CPU  0 instructions:  424000000 cycles:  364885650 heartbeat IPC: 1.01090 cumulative IPC: 1.02870 (Simulation time: 0 hr 14 min 27 sec) 
Heartbeat CPU  0 instructions:  425000003 cycles:  365884434 heartbeat IPC: 1.00122 cumulative IPC: 1.02862 (Simulation time: 0 hr 14 min 29 sec) 
Heartbeat CPU  0 instructions:  426000001 cycles:  366932879 heartbeat IPC: 0.95379 cumulative IPC: 1.02837 (Simulation time: 0 hr 14 min 31 sec) 
Heartbeat CPU  0 instructions:  427000003 cycles:  367943301 heartbeat IPC: 0.98969 cumulative IPC: 1.02825 (Simulation time: 0 hr 14 min 33 sec) 
Heartbeat CPU  0 instructions:  428000000 cycles:  368946161 heartbeat IPC: 0.99715 cumulative IPC: 1.02815 (Simulation time: 0 hr 14 min 35 sec) 
Heartbeat CPU  0 instructions:  429000000 cycles:  369948573 heartbeat IPC: 0.99759 cumulative IPC: 1.02805 (Simulation time: 0 hr 14 min 37 sec) 
Heartbeat CPU  0 instructions:  430000003 cycles:  370940891 heartbeat IPC: 1.00774 cumulative IPC: 1.02799 (Simulation time: 0 hr 14 min 40 sec) 
Heartbeat CPU  0 instructions:  431000002 cycles:  371933708 heartbeat IPC: 1.00723 cumulative IPC: 1.02793 (Simulation time: 0 hr 14 min 42 sec) 
Heartbeat CPU  0 instructions:  432000000 cycles:  372930758 heartbeat IPC: 1.00296 cumulative IPC: 1.02785 (Simulation time: 0 hr 14 min 44 sec) 
Heartbeat CPU  0 instructions:  433000001 cycles:  373925764 heartbeat IPC: 1.00502 cumulative IPC: 1.02778 (Simulation time: 0 hr 14 min 46 sec) 
Heartbeat CPU  0 instructions:  434000001 cycles:  374923944 heartbeat IPC: 1.00182 cumulative IPC: 1.02770 (Simulation time: 0 hr 14 min 48 sec) 
Heartbeat CPU  0 instructions:  435000002 cycles:  375916091 heartbeat IPC: 1.00792 cumulative IPC: 1.02764 (Simulation time: 0 hr 14 min 50 sec) 
Heartbeat CPU  0 instructions:  436000000 cycles:  376931951 heartbeat IPC: 0.98439 cumulative IPC: 1.02750 (Simulation time: 0 hr 14 min 53 sec) 
Heartbeat CPU  0 instructions:  437000001 cycles:  377970137 heartbeat IPC: 0.96322 cumulative IPC: 1.02730 (Simulation time: 0 hr 14 min 55 sec) 
Heartbeat CPU  0 instructions:  438000002 cycles:  378966944 heartbeat IPC: 1.00320 cumulative IPC: 1.02723 (Simulation time: 0 hr 14 min 57 sec) 
Heartbeat CPU  0 instructions:  439000003 cycles:  379959384 heartbeat IPC: 1.00762 cumulative IPC: 1.02717 (Simulation time: 0 hr 14 min 59 sec) 
Heartbeat CPU  0 instructions:  440000000 cycles:  380951127 heartbeat IPC: 1.00832 cumulative IPC: 1.02711 (Simulation time: 0 hr 15 min 1 sec) 
Heartbeat CPU  0 instructions:  441000000 cycles:  381943901 heartbeat IPC: 1.00728 cumulative IPC: 1.02705 (Simulation time: 0 hr 15 min 3 sec) 
Heartbeat CPU  0 instructions:  442000003 cycles:  382948420 heartbeat IPC: 0.99550 cumulative IPC: 1.02696 (Simulation time: 0 hr 15 min 6 sec) 
Heartbeat CPU  0 instructions:  443000003 cycles:  383944318 heartbeat IPC: 1.00412 cumulative IPC: 1.02689 (Simulation time: 0 hr 15 min 8 sec) 
Heartbeat CPU  0 instructions:  444000000 cycles:  384936526 heartbeat IPC: 1.00785 cumulative IPC: 1.02683 (Simulation time: 0 hr 15 min 10 sec) 
Heartbeat CPU  0 instructions:  445000000 cycles:  385928471 heartbeat IPC: 1.00812 cumulative IPC: 1.02678 (Simulation time: 0 hr 15 min 12 sec) 
Heartbeat CPU  0 instructions:  446000001 cycles:  386920025 heartbeat IPC: 1.00852 cumulative IPC: 1.02672 (Simulation time: 0 hr 15 min 14 sec) 
Heartbeat CPU  0 instructions:  447000000 cycles:  387966162 heartbeat IPC: 0.95590 cumulative IPC: 1.02651 (Simulation time: 0 hr 15 min 17 sec) 
Heartbeat CPU  0 instructions:  448000000 cycles:  388970260 heartbeat IPC: 0.99592 cumulative IPC: 1.02641 (Simulation time: 0 hr 15 min 19 sec) 
Heartbeat CPU  0 instructions:  449000002 cycles:  389961027 heartbeat IPC: 1.00932 cumulative IPC: 1.02636 (Simulation time: 0 hr 15 min 21 sec) 
Heartbeat CPU  0 instructions:  450000000 cycles:  390951627 heartbeat IPC: 1.00949 cumulative IPC: 1.02632 (Simulation time: 0 hr 15 min 23 sec) 
Heartbeat CPU  0 instructions:  451000003 cycles:  391943000 heartbeat IPC: 1.00871 cumulative IPC: 1.02626 (Simulation time: 0 hr 15 min 25 sec) 
Heartbeat CPU  0 instructions:  452000000 cycles:  392938138 heartbeat IPC: 1.00488 cumulative IPC: 1.02620 (Simulation time: 0 hr 15 min 27 sec) 
Heartbeat CPU  0 instructions:  453000002 cycles:  393932022 heartbeat IPC: 1.00616 cumulative IPC: 1.02614 (Simulation time: 0 hr 15 min 30 sec) 
Heartbeat CPU  0 instructions:  454000003 cycles:  394925507 heartbeat IPC: 1.00656 cumulative IPC: 1.02609 (Simulation time: 0 hr 15 min 32 sec) 
Heartbeat CPU  0 instructions:  455000001 cycles:  395913726 heartbeat IPC: 1.01192 cumulative IPC: 1.02605 (Simulation time: 0 hr 15 min 34 sec) 
Heartbeat CPU  0 instructions:  456000000 cycles:  396910072 heartbeat IPC: 1.00367 cumulative IPC: 1.02598 (Simulation time: 0 hr 15 min 36 sec) 
Heartbeat CPU  0 instructions:  457000002 cycles:  398217305 heartbeat IPC: 0.76498 cumulative IPC: 1.02500 (Simulation time: 0 hr 15 min 38 sec) 
Heartbeat CPU  0 instructions:  458000002 cycles:  399668681 heartbeat IPC: 0.68900 cumulative IPC: 1.02361 (Simulation time: 0 hr 15 min 41 sec) 
Heartbeat CPU  0 instructions:  459000002 cycles:  400593455 heartbeat IPC: 1.08135 cumulative IPC: 1.02376 (Simulation time: 0 hr 15 min 43 sec) 
Heartbeat CPU  0 instructions:  460000000 cycles:  401506366 heartbeat IPC: 1.09539 cumulative IPC: 1.02395 (Simulation time: 0 hr 15 min 45 sec) 
Heartbeat CPU  0 instructions:  461000002 cycles:  402414940 heartbeat IPC: 1.10063 cumulative IPC: 1.02415 (Simulation time: 0 hr 15 min 47 sec) 
Heartbeat CPU  0 instructions:  462000002 cycles:  403318108 heartbeat IPC: 1.10721 cumulative IPC: 1.02436 (Simulation time: 0 hr 15 min 49 sec) 
Heartbeat CPU  0 instructions:  463000002 cycles:  404225934 heartbeat IPC: 1.10153 cumulative IPC: 1.02456 (Simulation time: 0 hr 15 min 51 sec) 
Heartbeat CPU  0 instructions:  464000000 cycles:  405130536 heartbeat IPC: 1.10546 cumulative IPC: 1.02476 (Simulation time: 0 hr 15 min 53 sec) 
Heartbeat CPU  0 instructions:  465000000 cycles:  406825147 heartbeat IPC: 0.59011 cumulative IPC: 1.02270 (Simulation time: 0 hr 15 min 55 sec) 
Heartbeat CPU  0 instructions:  466000001 cycles:  407690403 heartbeat IPC: 1.15573 cumulative IPC: 1.02302 (Simulation time: 0 hr 15 min 57 sec) 
Heartbeat CPU  0 instructions:  467000000 cycles:  408559103 heartbeat IPC: 1.15114 cumulative IPC: 1.02333 (Simulation time: 0 hr 15 min 59 sec) 
Heartbeat CPU  0 instructions:  468000000 cycles:  409431215 heartbeat IPC: 1.14664 cumulative IPC: 1.02363 (Simulation time: 0 hr 16 min 1 sec) 
Heartbeat CPU  0 instructions:  469000003 cycles:  410311069 heartbeat IPC: 1.13656 cumulative IPC: 1.02390 (Simulation time: 0 hr 16 min 3 sec) 
Heartbeat CPU  0 instructions:  470000001 cycles:  411179338 heartbeat IPC: 1.15171 cumulative IPC: 1.02421 (Simulation time: 0 hr 16 min 5 sec) 
Heartbeat CPU  0 instructions:  471000003 cycles:  412052407 heartbeat IPC: 1.14539 cumulative IPC: 1.02450 (Simulation time: 0 hr 16 min 7 sec) 
Heartbeat CPU  0 instructions:  472000000 cycles:  413490970 heartbeat IPC: 0.69514 cumulative IPC: 1.02320 (Simulation time: 0 hr 16 min 9 sec) 
Heartbeat CPU  0 instructions:  473000000 cycles:  414581074 heartbeat IPC: 0.91734 cumulative IPC: 1.02288 (Simulation time: 0 hr 16 min 11 sec) 
Heartbeat CPU  0 instructions:  474000000 cycles:  415549076 heartbeat IPC: 1.03306 cumulative IPC: 1.02291 (Simulation time: 0 hr 16 min 13 sec) 
Heartbeat CPU  0 instructions:  475000002 cycles:  416557361 heartbeat IPC: 0.99179 cumulative IPC: 1.02283 (Simulation time: 0 hr 16 min 15 sec) 
Heartbeat CPU  0 instructions:  476000000 cycles:  417559466 heartbeat IPC: 0.99790 cumulative IPC: 1.02276 (Simulation time: 0 hr 16 min 17 sec) 
Heartbeat CPU  0 instructions:  477000002 cycles:  418576032 heartbeat IPC: 0.98371 cumulative IPC: 1.02265 (Simulation time: 0 hr 16 min 20 sec) 
Heartbeat CPU  0 instructions:  478000002 cycles:  419551525 heartbeat IPC: 1.02512 cumulative IPC: 1.02266 (Simulation time: 0 hr 16 min 22 sec) 
Heartbeat CPU  0 instructions:  479000002 cycles:  420640168 heartbeat IPC: 0.91857 cumulative IPC: 1.02235 (Simulation time: 0 hr 16 min 24 sec) 
Heartbeat CPU  0 instructions:  480000000 cycles:  422234239 heartbeat IPC: 0.62732 cumulative IPC: 1.02066 (Simulation time: 0 hr 16 min 26 sec) 
Heartbeat CPU  0 instructions:  481000002 cycles:  423434711 heartbeat IPC: 0.83301 cumulative IPC: 1.02006 (Simulation time: 0 hr 16 min 29 sec) 
Heartbeat CPU  0 instructions:  482000003 cycles:  424642647 heartbeat IPC: 0.82786 cumulative IPC: 1.01944 (Simulation time: 0 hr 16 min 31 sec) 
Heartbeat CPU  0 instructions:  483000000 cycles:  425846420 heartbeat IPC: 0.83072 cumulative IPC: 1.01883 (Simulation time: 0 hr 16 min 34 sec) 
Heartbeat CPU  0 instructions:  484000000 cycles:  427050298 heartbeat IPC: 0.83065 cumulative IPC: 1.01823 (Simulation time: 0 hr 16 min 36 sec) 
Heartbeat CPU  0 instructions:  485000003 cycles:  428250430 heartbeat IPC: 0.83324 cumulative IPC: 1.01765 (Simulation time: 0 hr 16 min 38 sec) 
Heartbeat CPU  0 instructions:  486000003 cycles:  429470713 heartbeat IPC: 0.81948 cumulative IPC: 1.01701 (Simulation time: 0 hr 16 min 41 sec) 
Heartbeat CPU  0 instructions:  487000000 cycles:  430686934 heartbeat IPC: 0.82222 cumulative IPC: 1.01639 (Simulation time: 0 hr 16 min 43 sec) 
Heartbeat CPU  0 instructions:  488000000 cycles:  431907228 heartbeat IPC: 0.81947 cumulative IPC: 1.01576 (Simulation time: 0 hr 16 min 46 sec) 
Heartbeat CPU  0 instructions:  489000000 cycles:  433120189 heartbeat IPC: 0.82443 cumulative IPC: 1.01515 (Simulation time: 0 hr 16 min 48 sec) 
Heartbeat CPU  0 instructions:  490000000 cycles:  434368435 heartbeat IPC: 0.80112 cumulative IPC: 1.01446 (Simulation time: 0 hr 16 min 51 sec) 
Heartbeat CPU  0 instructions:  491000001 cycles:  435581934 heartbeat IPC: 0.82406 cumulative IPC: 1.01386 (Simulation time: 0 hr 16 min 53 sec) 
Heartbeat CPU  0 instructions:  492000000 cycles:  436800758 heartbeat IPC: 0.82046 cumulative IPC: 1.01325 (Simulation time: 0 hr 16 min 55 sec) 
Heartbeat CPU  0 instructions:  493000001 cycles:  438016412 heartbeat IPC: 0.82260 cumulative IPC: 1.01265 (Simulation time: 0 hr 16 min 58 sec) 
Heartbeat CPU  0 instructions:  494000000 cycles:  439249444 heartbeat IPC: 0.81101 cumulative IPC: 1.01201 (Simulation time: 0 hr 17 min 0 sec) 
Heartbeat CPU  0 instructions:  495000001 cycles:  440460726 heartbeat IPC: 0.82557 cumulative IPC: 1.01143 (Simulation time: 0 hr 17 min 3 sec) 
Heartbeat CPU  0 instructions:  496000000 cycles:  441681906 heartbeat IPC: 0.81888 cumulative IPC: 1.01083 (Simulation time: 0 hr 17 min 5 sec) 
Heartbeat CPU  0 instructions:  497000001 cycles:  442897807 heartbeat IPC: 0.82244 cumulative IPC: 1.01025 (Simulation time: 0 hr 17 min 8 sec) 
Heartbeat CPU  0 instructions:  498000001 cycles:  444129271 heartbeat IPC: 0.81204 cumulative IPC: 1.00963 (Simulation time: 0 hr 17 min 10 sec) 
Heartbeat CPU  0 instructions:  499000002 cycles:  445345393 heartbeat IPC: 0.82229 cumulative IPC: 1.00906 (Simulation time: 0 hr 17 min 12 sec) 
Heartbeat CPU  0 instructions:  500000000 cycles:  446562273 heartbeat IPC: 0.82177 cumulative IPC: 1.00848 (Simulation time: 0 hr 17 min 15 sec) 
Heartbeat CPU  0 instructions:  501000002 cycles:  447778686 heartbeat IPC: 0.82209 cumulative IPC: 1.00791 (Simulation time: 0 hr 17 min 17 sec) 
Heartbeat CPU  0 instructions:  502000003 cycles:  448995543 heartbeat IPC: 0.82179 cumulative IPC: 1.00734 (Simulation time: 0 hr 17 min 20 sec) 
Heartbeat CPU  0 instructions:  503000000 cycles:  450228386 heartbeat IPC: 0.81113 cumulative IPC: 1.00674 (Simulation time: 0 hr 17 min 22 sec) 
Heartbeat CPU  0 instructions:  504000000 cycles:  451440065 heartbeat IPC: 0.82530 cumulative IPC: 1.00619 (Simulation time: 0 hr 17 min 25 sec) 
Heartbeat CPU  0 instructions:  505000001 cycles:  452667824 heartbeat IPC: 0.81449 cumulative IPC: 1.00561 (Simulation time: 0 hr 17 min 27 sec) 
Heartbeat CPU  0 instructions:  506000000 cycles:  453879960 heartbeat IPC: 0.82499 cumulative IPC: 1.00506 (Simulation time: 0 hr 17 min 29 sec) 
Heartbeat CPU  0 instructions:  507000003 cycles:  455115766 heartbeat IPC: 0.80919 cumulative IPC: 1.00447 (Simulation time: 0 hr 17 min 32 sec) 
Heartbeat CPU  0 instructions:  508000000 cycles:  456332603 heartbeat IPC: 0.82180 cumulative IPC: 1.00392 (Simulation time: 0 hr 17 min 34 sec) 
Heartbeat CPU  0 instructions:  509000003 cycles:  457549957 heartbeat IPC: 0.82146 cumulative IPC: 1.00338 (Simulation time: 0 hr 17 min 37 sec) 
Heartbeat CPU  0 instructions:  510000000 cycles:  458765238 heartbeat IPC: 0.82285 cumulative IPC: 1.00284 (Simulation time: 0 hr 17 min 39 sec) 
Heartbeat CPU  0 instructions:  511000002 cycles:  460151566 heartbeat IPC: 0.72133 cumulative IPC: 1.00189 (Simulation time: 0 hr 17 min 41 sec) 
Heartbeat CPU  0 instructions:  512000000 cycles:  461529549 heartbeat IPC: 0.72570 cumulative IPC: 1.00096 (Simulation time: 0 hr 17 min 44 sec) 
Heartbeat CPU  0 instructions:  513000000 cycles:  462787771 heartbeat IPC: 0.79477 cumulative IPC: 1.00033 (Simulation time: 0 hr 17 min 46 sec) 
Heartbeat CPU  0 instructions:  514000003 cycles:  463736874 heartbeat IPC: 1.05363 cumulative IPC: 1.00046 (Simulation time: 0 hr 17 min 48 sec) 
Heartbeat CPU  0 instructions:  515000002 cycles:  464666607 heartbeat IPC: 1.07558 cumulative IPC: 1.00063 (Simulation time: 0 hr 17 min 50 sec) 
Heartbeat CPU  0 instructions:  516000000 cycles:  465607875 heartbeat IPC: 1.06239 cumulative IPC: 1.00077 (Simulation time: 0 hr 17 min 52 sec) 
Heartbeat CPU  0 instructions:  517000001 cycles:  466559359 heartbeat IPC: 1.05099 cumulative IPC: 1.00088 (Simulation time: 0 hr 17 min 54 sec) 
Heartbeat CPU  0 instructions:  518000003 cycles:  467439627 heartbeat IPC: 1.13602 cumulative IPC: 1.00116 (Simulation time: 0 hr 17 min 56 sec) 
Heartbeat CPU  0 instructions:  519000001 cycles:  468371014 heartbeat IPC: 1.07367 cumulative IPC: 1.00133 (Simulation time: 0 hr 17 min 58 sec) 
Heartbeat CPU  0 instructions:  520000000 cycles:  469284279 heartbeat IPC: 1.09497 cumulative IPC: 1.00153 (Simulation time: 0 hr 18 min 1 sec) 
Heartbeat CPU  0 instructions:  521000002 cycles:  470181055 heartbeat IPC: 1.11511 cumulative IPC: 1.00177 (Simulation time: 0 hr 18 min 3 sec) 
Heartbeat CPU  0 instructions:  522000002 cycles:  471116294 heartbeat IPC: 1.06925 cumulative IPC: 1.00192 (Simulation time: 0 hr 18 min 5 sec) 
Heartbeat CPU  0 instructions:  523000000 cycles:  471989602 heartbeat IPC: 1.14507 cumulative IPC: 1.00222 (Simulation time: 0 hr 18 min 7 sec) 
Heartbeat CPU  0 instructions:  524000000 cycles:  472902567 heartbeat IPC: 1.09533 cumulative IPC: 1.00242 (Simulation time: 0 hr 18 min 9 sec) 
Heartbeat CPU  0 instructions:  525000003 cycles:  473830243 heartbeat IPC: 1.07797 cumulative IPC: 1.00258 (Simulation time: 0 hr 18 min 11 sec) 
Heartbeat CPU  0 instructions:  526000000 cycles:  474723785 heartbeat IPC: 1.11914 cumulative IPC: 1.00283 (Simulation time: 0 hr 18 min 13 sec) 
Heartbeat CPU  0 instructions:  527000003 cycles:  475640091 heartbeat IPC: 1.09134 cumulative IPC: 1.00302 (Simulation time: 0 hr 18 min 15 sec) 
Heartbeat CPU  0 instructions:  528000000 cycles:  476542835 heartbeat IPC: 1.10773 cumulative IPC: 1.00324 (Simulation time: 0 hr 18 min 17 sec) 
Heartbeat CPU  0 instructions:  529000003 cycles:  477450861 heartbeat IPC: 1.10129 cumulative IPC: 1.00345 (Simulation time: 0 hr 18 min 19 sec) 
Heartbeat CPU  0 instructions:  530000001 cycles:  478380189 heartbeat IPC: 1.07604 cumulative IPC: 1.00361 (Simulation time: 0 hr 18 min 21 sec) 
Heartbeat CPU  0 instructions:  531000000 cycles:  479280008 heartbeat IPC: 1.11133 cumulative IPC: 1.00383 (Simulation time: 0 hr 18 min 23 sec) 
Heartbeat CPU  0 instructions:  532000000 cycles:  480187060 heartbeat IPC: 1.10247 cumulative IPC: 1.00404 (Simulation time: 0 hr 18 min 25 sec) 
Heartbeat CPU  0 instructions:  533000001 cycles:  481101698 heartbeat IPC: 1.09333 cumulative IPC: 1.00423 (Simulation time: 0 hr 18 min 28 sec) 
Heartbeat CPU  0 instructions:  534000002 cycles:  481985859 heartbeat IPC: 1.13102 cumulative IPC: 1.00449 (Simulation time: 0 hr 18 min 30 sec) 
Heartbeat CPU  0 instructions:  535000000 cycles:  482900456 heartbeat IPC: 1.09338 cumulative IPC: 1.00468 (Simulation time: 0 hr 18 min 32 sec) 
Heartbeat CPU  0 instructions:  536000000 cycles:  483801503 heartbeat IPC: 1.10982 cumulative IPC: 1.00490 (Simulation time: 0 hr 18 min 34 sec) 
Heartbeat CPU  0 instructions:  537000002 cycles:  484712304 heartbeat IPC: 1.09794 cumulative IPC: 1.00509 (Simulation time: 0 hr 18 min 36 sec) 
Heartbeat CPU  0 instructions:  538000002 cycles:  485631910 heartbeat IPC: 1.08742 cumulative IPC: 1.00527 (Simulation time: 0 hr 18 min 38 sec) 
Heartbeat CPU  0 instructions:  539000000 cycles:  486527711 heartbeat IPC: 1.11632 cumulative IPC: 1.00549 (Simulation time: 0 hr 18 min 40 sec) 
Heartbeat CPU  0 instructions:  540000000 cycles:  487436080 heartbeat IPC: 1.10087 cumulative IPC: 1.00569 (Simulation time: 0 hr 18 min 42 sec) 
Heartbeat CPU  0 instructions:  541000000 cycles:  488329363 heartbeat IPC: 1.11947 cumulative IPC: 1.00592 (Simulation time: 0 hr 18 min 44 sec) 
Heartbeat CPU  0 instructions:  542000002 cycles:  489234992 heartbeat IPC: 1.10421 cumulative IPC: 1.00613 (Simulation time: 0 hr 18 min 46 sec) 
Heartbeat CPU  0 instructions:  543000003 cycles:  490148767 heartbeat IPC: 1.09436 cumulative IPC: 1.00631 (Simulation time: 0 hr 18 min 48 sec) 
Heartbeat CPU  0 instructions:  544000000 cycles:  491057433 heartbeat IPC: 1.10051 cumulative IPC: 1.00650 (Simulation time: 0 hr 18 min 50 sec) 
Heartbeat CPU  0 instructions:  545000001 cycles:  491938647 heartbeat IPC: 1.13480 cumulative IPC: 1.00676 (Simulation time: 0 hr 18 min 52 sec) 
Heartbeat CPU  0 instructions:  546000003 cycles:  492849908 heartbeat IPC: 1.09738 cumulative IPC: 1.00694 (Simulation time: 0 hr 18 min 54 sec) 
Heartbeat CPU  0 instructions:  547000000 cycles:  493757258 heartbeat IPC: 1.10211 cumulative IPC: 1.00714 (Simulation time: 0 hr 18 min 56 sec) 
Heartbeat CPU  0 instructions:  548000000 cycles:  494668340 heartbeat IPC: 1.09760 cumulative IPC: 1.00732 (Simulation time: 0 hr 18 min 59 sec) 
Heartbeat CPU  0 instructions:  549000001 cycles:  495580846 heartbeat IPC: 1.09588 cumulative IPC: 1.00751 (Simulation time: 0 hr 19 min 1 sec) 
Heartbeat CPU  0 instructions:  550000001 cycles:  496451602 heartbeat IPC: 1.14843 cumulative IPC: 1.00778 (Simulation time: 0 hr 19 min 3 sec) 
Heartbeat CPU  0 instructions:  551000002 cycles:  497362475 heartbeat IPC: 1.09785 cumulative IPC: 1.00796 (Simulation time: 0 hr 19 min 5 sec) 
Heartbeat CPU  0 instructions:  552000000 cycles:  498267532 heartbeat IPC: 1.10490 cumulative IPC: 1.00816 (Simulation time: 0 hr 19 min 7 sec) 
Heartbeat CPU  0 instructions:  553000002 cycles:  499167538 heartbeat IPC: 1.11111 cumulative IPC: 1.00837 (Simulation time: 0 hr 19 min 9 sec) 
Heartbeat CPU  0 instructions:  554000002 cycles:  500083448 heartbeat IPC: 1.09181 cumulative IPC: 1.00854 (Simulation time: 0 hr 19 min 11 sec) 
Heartbeat CPU  0 instructions:  555000001 cycles:  500948826 heartbeat IPC: 1.15556 cumulative IPC: 1.00882 (Simulation time: 0 hr 19 min 13 sec) 
Heartbeat CPU  0 instructions:  556000000 cycles:  501859846 heartbeat IPC: 1.09767 cumulative IPC: 1.00900 (Simulation time: 0 hr 19 min 15 sec) 
Heartbeat CPU  0 instructions:  557000003 cycles:  502771379 heartbeat IPC: 1.09706 cumulative IPC: 1.00917 (Simulation time: 0 hr 19 min 17 sec) 
Heartbeat CPU  0 instructions:  558000001 cycles:  503666124 heartbeat IPC: 1.11763 cumulative IPC: 1.00939 (Simulation time: 0 hr 19 min 19 sec) 
Heartbeat CPU  0 instructions:  559000001 cycles:  504566805 heartbeat IPC: 1.11027 cumulative IPC: 1.00959 (Simulation time: 0 hr 19 min 21 sec) 
Heartbeat CPU  0 instructions:  560000000 cycles:  505444449 heartbeat IPC: 1.13941 cumulative IPC: 1.00984 (Simulation time: 0 hr 19 min 23 sec) 
Heartbeat CPU  0 instructions:  561000003 cycles:  506350482 heartbeat IPC: 1.10372 cumulative IPC: 1.01002 (Simulation time: 0 hr 19 min 25 sec) 
Heartbeat CPU  0 instructions:  562000001 cycles:  507259815 heartbeat IPC: 1.09970 cumulative IPC: 1.01020 (Simulation time: 0 hr 19 min 28 sec) 
Heartbeat CPU  0 instructions:  563000003 cycles:  508159225 heartbeat IPC: 1.11184 cumulative IPC: 1.01040 (Simulation time: 0 hr 19 min 30 sec) 
Heartbeat CPU  0 instructions:  564000000 cycles:  509066238 heartbeat IPC: 1.10252 cumulative IPC: 1.01058 (Simulation time: 0 hr 19 min 32 sec) 
Heartbeat CPU  0 instructions:  565000002 cycles:  509951704 heartbeat IPC: 1.12935 cumulative IPC: 1.01081 (Simulation time: 0 hr 19 min 34 sec) 
Heartbeat CPU  0 instructions:  566000002 cycles:  510851971 heartbeat IPC: 1.11078 cumulative IPC: 1.01101 (Simulation time: 0 hr 19 min 36 sec) 
Heartbeat CPU  0 instructions:  567000000 cycles:  511759866 heartbeat IPC: 1.10145 cumulative IPC: 1.01119 (Simulation time: 0 hr 19 min 38 sec) 
Heartbeat CPU  0 instructions:  568000000 cycles:  512642581 heartbeat IPC: 1.13287 cumulative IPC: 1.01142 (Simulation time: 0 hr 19 min 40 sec) 
Heartbeat CPU  0 instructions:  569000002 cycles:  513562095 heartbeat IPC: 1.08753 cumulative IPC: 1.01157 (Simulation time: 0 hr 19 min 42 sec) 
Heartbeat CPU  0 instructions:  570000001 cycles:  514448876 heartbeat IPC: 1.12767 cumulative IPC: 1.01179 (Simulation time: 0 hr 19 min 44 sec) 
Heartbeat CPU  0 instructions:  571000000 cycles:  515352785 heartbeat IPC: 1.10631 cumulative IPC: 1.01197 (Simulation time: 0 hr 19 min 46 sec) 
Heartbeat CPU  0 instructions:  572000000 cycles:  516266138 heartbeat IPC: 1.09487 cumulative IPC: 1.01214 (Simulation time: 0 hr 19 min 48 sec) 
Heartbeat CPU  0 instructions:  573000002 cycles:  517138918 heartbeat IPC: 1.14577 cumulative IPC: 1.01239 (Simulation time: 0 hr 19 min 50 sec) 
Heartbeat CPU  0 instructions:  574000002 cycles:  518060331 heartbeat IPC: 1.08529 cumulative IPC: 1.01253 (Simulation time: 0 hr 19 min 52 sec) 
Heartbeat CPU  0 instructions:  575000000 cycles:  518956953 heartbeat IPC: 1.11529 cumulative IPC: 1.01273 (Simulation time: 0 hr 19 min 55 sec) 
Heartbeat CPU  0 instructions:  576000000 cycles:  519848203 heartbeat IPC: 1.12202 cumulative IPC: 1.01293 (Simulation time: 0 hr 19 min 57 sec) 
Heartbeat CPU  0 instructions:  577000002 cycles:  520756338 heartbeat IPC: 1.10116 cumulative IPC: 1.01310 (Simulation time: 0 hr 19 min 59 sec) 
Heartbeat CPU  0 instructions:  578000002 cycles:  521646742 heartbeat IPC: 1.12309 cumulative IPC: 1.01331 (Simulation time: 0 hr 20 min 1 sec) 
Heartbeat CPU  0 instructions:  579000003 cycles:  522570805 heartbeat IPC: 1.08218 cumulative IPC: 1.01345 (Simulation time: 0 hr 20 min 3 sec) 
Heartbeat CPU  0 instructions:  580000000 cycles:  523475097 heartbeat IPC: 1.10583 cumulative IPC: 1.01362 (Simulation time: 0 hr 20 min 5 sec) 
Heartbeat CPU  0 instructions:  581000002 cycles:  524362135 heartbeat IPC: 1.12735 cumulative IPC: 1.01384 (Simulation time: 0 hr 20 min 7 sec) 
Heartbeat CPU  0 instructions:  582000003 cycles:  525275435 heartbeat IPC: 1.09493 cumulative IPC: 1.01399 (Simulation time: 0 hr 20 min 9 sec) 
Heartbeat CPU  0 instructions:  583000002 cycles:  526176625 heartbeat IPC: 1.10964 cumulative IPC: 1.01417 (Simulation time: 0 hr 20 min 11 sec) 
Heartbeat CPU  0 instructions:  584000000 cycles:  527097697 heartbeat IPC: 1.08569 cumulative IPC: 1.01431 (Simulation time: 0 hr 20 min 13 sec) 
Heartbeat CPU  0 instructions:  585000003 cycles:  528017820 heartbeat IPC: 1.08681 cumulative IPC: 1.01445 (Simulation time: 0 hr 20 min 15 sec) 
Heartbeat CPU  0 instructions:  586000000 cycles:  528886387 heartbeat IPC: 1.15132 cumulative IPC: 1.01470 (Simulation time: 0 hr 20 min 17 sec) 
Heartbeat CPU  0 instructions:  587000002 cycles:  529810815 heartbeat IPC: 1.08175 cumulative IPC: 1.01483 (Simulation time: 0 hr 20 min 19 sec) 
Heartbeat CPU  0 instructions:  588000000 cycles:  530716346 heartbeat IPC: 1.10432 cumulative IPC: 1.01500 (Simulation time: 0 hr 20 min 21 sec) 
Heartbeat CPU  0 instructions:  589000003 cycles:  531631197 heartbeat IPC: 1.09308 cumulative IPC: 1.01514 (Simulation time: 0 hr 20 min 23 sec) 
Heartbeat CPU  0 instructions:  590000001 cycles:  532569948 heartbeat IPC: 1.06524 cumulative IPC: 1.01524 (Simulation time: 0 hr 20 min 26 sec) 
Heartbeat CPU  0 instructions:  591000003 cycles:  533428310 heartbeat IPC: 1.16501 cumulative IPC: 1.01551 (Simulation time: 0 hr 20 min 28 sec) 
Heartbeat CPU  0 instructions:  592000000 cycles:  534353657 heartbeat IPC: 1.08067 cumulative IPC: 1.01563 (Simulation time: 0 hr 20 min 30 sec) 
Heartbeat CPU  0 instructions:  593000002 cycles:  535271737 heartbeat IPC: 1.08923 cumulative IPC: 1.01577 (Simulation time: 0 hr 20 min 32 sec) 
Heartbeat CPU  0 instructions:  594000003 cycles:  536185379 heartbeat IPC: 1.09452 cumulative IPC: 1.01592 (Simulation time: 0 hr 20 min 34 sec) 
Heartbeat CPU  0 instructions:  595000001 cycles:  537122602 heartbeat IPC: 1.06698 cumulative IPC: 1.01602 (Simulation time: 0 hr 20 min 36 sec) 
Heartbeat CPU  0 instructions:  596000000 cycles:  537992788 heartbeat IPC: 1.14918 cumulative IPC: 1.01625 (Simulation time: 0 hr 20 min 38 sec) 
Heartbeat CPU  0 instructions:  597000000 cycles:  538909198 heartbeat IPC: 1.09121 cumulative IPC: 1.01639 (Simulation time: 0 hr 20 min 40 sec) 
Heartbeat CPU  0 instructions:  598000001 cycles:  539827884 heartbeat IPC: 1.08851 cumulative IPC: 1.01653 (Simulation time: 0 hr 20 min 42 sec) 
Heartbeat CPU  0 instructions:  599000003 cycles:  540719886 heartbeat IPC: 1.12108 cumulative IPC: 1.01672 (Simulation time: 0 hr 20 min 44 sec) 
Heartbeat CPU  0 instructions:  600000000 cycles:  541660742 heartbeat IPC: 1.06286 cumulative IPC: 1.01681 (Simulation time: 0 hr 20 min 46 sec) 
Finished CPU 0 instructions: 500000002 cycles: 491734778 cumulative IPC: 1.01681 (Simulation time: 0 hr 20 min 46 sec) 

ChampSim completed all CPUs

[ROI Statistics]
Core_0_instructions 500000002
Core_0_cycles 491734778
Core_0_IPC 1.01681

Core_0_branch_prediction_accuracy 99.14890
Core_0_branch_MPKI 0.20164
Core_0_average_ROB_occupancy_at_mispredict 245.10689

Core_0_L1D_total_access 147578821
Core_0_L1D_total_hit 141949417
Core_0_L1D_total_miss 5629404
Core_0_L1D_loads 135498448
Core_0_L1D_load_hit 131199448
Core_0_L1D_load_miss 4299000
Core_0_L1D_RFOs 12080373
Core_0_L1D_RFO_hit 10749969
Core_0_L1D_RFO_miss 1330404
Core_0_L1D_prefetches 0
Core_0_L1D_prefetch_hit 0
Core_0_L1D_prefetch_miss 0
Core_0_L1D_writebacks 0
Core_0_L1D_writeback_hit 0
Core_0_L1D_writeback_miss 0
Core_0_L1D_prefetch_requested 0
Core_0_L1D_prefetch_dropped 0
Core_0_L1D_prefetch_issued 0
Core_0_L1D_prefetch_filled 0
Core_0_L1D_prefetch_useful 0
Core_0_L1D_prefetch_useless 0
Core_0_L1D_prefetch_late 0
Core_0_L1D_average_miss_latency 64.51531

Core_0_L1D_rq_access 199064881
Core_0_L1D_rq_forward 0
Core_0_L1D_rq_merged 62539534
Core_0_L1D_rq_to_cache 136525347
Core_0_L1D_rq_full 0

Core_0_L1D_wq_access 15945109
Core_0_L1D_wq_forward 0
Core_0_L1D_wq_merged 0
Core_0_L1D_wq_to_cache 15945109
Core_0_L1D_wq_full 808899

Core_0_L1D_pq_access 0
Core_0_L1D_pq_forward 0
Core_0_L1D_pq_merged 0
Core_0_L1D_pq_to_cache 0
Core_0_L1D_pq_full 0

Core_0_L1D_acc_epochs 524638
Core_0_L1D_acc_level_0 524638
Core_0_L1D_acc_level_1 0
Core_0_L1D_acc_level_2 0
Core_0_L1D_acc_level_3 0
Core_0_L1D_acc_level_4 0
Core_0_L1D_acc_level_5 0
Core_0_L1D_acc_level_6 0
Core_0_L1D_acc_level_7 0
Core_0_L1D_acc_level_8 0
Core_0_L1D_acc_level_9 0

Core_0_L1I_total_access 121355043
Core_0_L1I_total_hit 121354717
Core_0_L1I_total_miss 326
Core_0_L1I_loads 121355043
Core_0_L1I_load_hit 121354717
Core_0_L1I_load_miss 326
Core_0_L1I_RFOs 0
Core_0_L1I_RFO_hit 0
Core_0_L1I_RFO_miss 0
Core_0_L1I_prefetches 0
Core_0_L1I_prefetch_hit 0
Core_0_L1I_prefetch_miss 0
Core_0_L1I_writebacks 0
Core_0_L1I_writeback_hit 0
Core_0_L1I_writeback_miss 0
Core_0_L1I_prefetch_requested 0
Core_0_L1I_prefetch_dropped 0
Core_0_L1I_prefetch_issued 0
Core_0_L1I_prefetch_filled 0
Core_0_L1I_prefetch_useful 0
Core_0_L1I_prefetch_useless 0
Core_0_L1I_prefetch_late 0
Core_0_L1I_average_miss_latency 309.16564

Core_0_L1I_rq_access 500000003
Core_0_L1I_rq_forward 0
Core_0_L1I_rq_merged 378643902
Core_0_L1I_rq_to_cache 121356101
Core_0_L1I_rq_full 0

Core_0_L1I_wq_access 0
Core_0_L1I_wq_forward 0
Core_0_L1I_wq_merged 0
Core_0_L1I_wq_to_cache 0
Core_0_L1I_wq_full 0

Core_0_L1I_pq_access 0
Core_0_L1I_pq_forward 0
Core_0_L1I_pq_merged 0
Core_0_L1I_pq_to_cache 0
Core_0_L1I_pq_full 0

Core_0_L1I_acc_epochs 524638
Core_0_L1I_acc_level_0 524638
Core_0_L1I_acc_level_1 0
Core_0_L1I_acc_level_2 0
Core_0_L1I_acc_level_3 0
Core_0_L1I_acc_level_4 0
Core_0_L1I_acc_level_5 0
Core_0_L1I_acc_level_6 0
Core_0_L1I_acc_level_7 0
Core_0_L1I_acc_level_8 0
Core_0_L1I_acc_level_9 0

Core_0_L2C_total_access 10365703
Core_0_L2C_total_hit 6321610
Core_0_L2C_total_miss 4044093
Core_0_L2C_loads 4299272
Core_0_L2C_load_hit 3973636
Core_0_L2C_load_miss 325636
Core_0_L2C_RFOs 1330205
Core_0_L2C_RFO_hit 522106
Core_0_L2C_RFO_miss 808099
Core_0_L2C_prefetches 2995997
Core_0_L2C_prefetch_hit 86774
Core_0_L2C_prefetch_miss 2909223
Core_0_L2C_writebacks 1740229
Core_0_L2C_writeback_hit 1739094
Core_0_L2C_writeback_miss 1135
Core_0_L2C_prefetch_requested 3575421
Core_0_L2C_prefetch_dropped 0
Core_0_L2C_prefetch_issued 3575421
Core_0_L2C_prefetch_filled 3359415
Core_0_L2C_prefetch_useful 3326733
Core_0_L2C_prefetch_useless 32598
Core_0_L2C_prefetch_late 6744
Core_0_L2C_average_miss_latency 401.39014

Core_0_L2C_rq_access 5629730
Core_0_L2C_rq_forward 0
Core_0_L2C_rq_merged 0
Core_0_L2C_rq_to_cache 5629477
Core_0_L2C_rq_full 0

Core_0_L2C_wq_access 1740229
Core_0_L2C_wq_forward 258
Core_0_L2C_wq_merged 0
Core_0_L2C_wq_to_cache 1740229
Core_0_L2C_wq_full 0

Core_0_L2C_pq_access 3575421
Core_0_L2C_pq_forward 0
Core_0_L2C_pq_merged 0
Core_0_L2C_pq_to_cache 3575416
Core_0_L2C_pq_full 0

Core_0_L2C_acc_epochs 524638
Core_0_L2C_acc_level_0 325317
Core_0_L2C_acc_level_1 55635
Core_0_L2C_acc_level_2 33038
Core_0_L2C_acc_level_3 18797
Core_0_L2C_acc_level_4 13446
Core_0_L2C_acc_level_5 16098
Core_0_L2C_acc_level_6 8007
Core_0_L2C_acc_level_7 6412
Core_0_L2C_acc_level_8 5330
Core_0_L2C_acc_level_9 42558

Core_0_LLC_total_access 5248567
Core_0_LLC_total_hit 1373120
Core_0_LLC_total_miss 3875447
Core_0_LLC_loads 318893
Core_0_LLC_load_hit 126091
Core_0_LLC_load_miss 192802
Core_0_LLC_RFOs 808098
Core_0_LLC_RFO_hit 125932
Core_0_LLC_RFO_miss 682166
Core_0_LLC_prefetches 3028124
Core_0_LLC_prefetch_hit 677929
Core_0_LLC_prefetch_miss 2350195
Core_0_LLC_writebacks 1093452
Core_0_LLC_writeback_hit 443168
Core_0_LLC_writeback_miss 650284
Core_0_LLC_prefetch_requested 0
Core_0_LLC_prefetch_dropped 0
Core_0_LLC_prefetch_issued 0
Core_0_LLC_prefetch_filled 2775099
Core_0_LLC_prefetch_useful 83335
Core_0_LLC_prefetch_useless 2670548
Core_0_LLC_prefetch_late 1
Core_0_LLC_average_miss_latency 397.92983

Core_0_LLC_rq_access 1126992
Core_0_LLC_rq_forward 0
Core_0_LLC_rq_merged 0
Core_0_LLC_rq_to_cache 1126991
Core_0_LLC_rq_full 0

Core_0_LLC_wq_access 1093452
Core_0_LLC_wq_forward 3
Core_0_LLC_wq_merged 0
Core_0_LLC_wq_to_cache 1093452
Core_0_LLC_wq_full 0

Core_0_LLC_pq_access 3479289
Core_0_LLC_pq_forward 0
Core_0_LLC_pq_merged 0
Core_0_LLC_pq_to_cache 3479287
Core_0_LLC_pq_full 0

Core_0_LLC_acc_epochs 528966
Core_0_LLC_acc_level_0 518407
Core_0_LLC_acc_level_1 4954
Core_0_LLC_acc_level_2 2050
Core_0_LLC_acc_level_3 1009
Core_0_LLC_acc_level_4 446
Core_0_LLC_acc_level_5 730
Core_0_LLC_acc_level_6 260
Core_0_LLC_acc_level_7 243
Core_0_LLC_acc_level_8 108
Core_0_LLC_acc_level_9 759

Core_0_major_page_fault 0
Core_0_minor_page_fault 14851

[Bingo] PHT Access: 142489
[Bingo] PHT Hit PC+Addr: 5578
[Bingo] PHT Hit PC+Offs: 130791
[Bingo] PHT Miss: 6120
[Bingo] Prefetch PC+Addr: 0
[Bingo] Prefetch PC+Offs: 0
[Bingo] Useful PC+Addr: 0
[Bingo] Useful PC+Offs: 0
[Bingo] Useless PC+Addr: 0
[Bingo] Useless PC+Offs: 0
[Bingo] L1 Prefetch per Region: 0.00000
[Bingo] L2 Prefetch per Region: 26.55315
[Bingo] L3 Prefetch per Region: 0.91966
[Bingo] No Prefetch per Region: 4.52719
[Bingo] Number of Voters Mean: 13.94786
[Bingo] Number of Voters SD: 4.02783

Channel_0_RQ_row_buffer_hit 1907254
Channel_0_RQ_row_buffer_miss 1317908
Channel_0_WQ_row_buffer_hit 371535
Channel_0_WQ_row_buffer_miss 540032
Channel_0_WQ_full 4472
Channel_0_dbus_congested 3208040

avg_congested_cycle 23

DRAM_bw_pochs 2115863
DRAM_bw_level_0 1687742
DRAM_bw_level_1 141304
DRAM_bw_level_2 40063
DRAM_bw_level_3 246754
