*************************************************
   ChampSim Multicore Out-of-Order Simulator
   Last compiled: Dec 11 2024 17:59:53
*************************************************
parsing config file: /home/functionmain/桌面/Pythia/config/nopref.ini

trace_0 /home/functionmain/桌面/Pythia/traces/437.leslie3d-265B.champsimtrace.xz
adding L2C_PREFETCHER: NONE
Initialize SHIP state
warmup_instructions 100000000
simulation_instructions 500000000
champsim_seed 223
measure_ipc 0
measure_ipc_epoch 1000
measure_dram_bw 1
measure_dram_bw_epoch 256
measure_cache_acc 1
measure_cache_acc_epoch 1024
l1d_perfect 0
l2c_perfect 0
llc_perfect 0
l1d_semi_perfect 0
l2c_semi_perfect 0
llc_semi_perfect 0
semi_perfect_cache_page_buffer_size 64

num_cpus 1
cpu_freq 4000
dram_io_freq 300
page_size 4096
block_size 64
max_read_per_cycle 8
max_fill_per_cycle 1
dram_channels 1
log2_dram_channels 0
dram_ranks 1
dram_banks 8
dram_rows 65536
dram_columns 128
dram_row_size 8
dram_size 4096
dram_pages 1048576

fetch_width 6
decode_width 6
exec_width 4
lq_width 2
sq_width 2
retire_width 4
scheduler_size 128
branch_mispredict_penalty 20
rob_size 256
lq_size 72
sq_size 56
num_instr_destinations_sparc 4
num_instr_destinations 2
num_instr_sources 4

itlb_set 16
itlb_way 8
itlb_rq_size 16
itlb_wq_size 16
itlb_pq_size 0
itlb_mshr_size 8
itlb_latency 1

dtlb_set 16
dtlb_way 4
dtlb_rq_size 16
dtlb_wq_size 16
dtlb_pq_size 0
dtlb_mshr_size 8
dtlb_latency 1

stlb_set 128
stlb_way 12
stlb_rq_size 32
stlb_wq_size 32
stlb_pq_size 0
stlb_mshr_size 16
stlb_latency 8

l1i_size 32
l1i_set 64
l1i_way 8
l1i_rq_size 64
l1i_wq_size 64
l1i_pq_size 8
l1i_mshr_size 8
l1i_latency 1

l1d_size 32
l1d_set 64
l1d_way 8
l1d_rq_size 64
l1d_wq_size 64
l1d_pq_size 8
l1d_mshr_size 16
l1d_latency 4

l2c_size 256
l2c_set 512
l2c_way 8
l2c_rq_size 32
l2c_wq_size 32
l2c_pq_size 32
l2c_mshr_size 32
l2c_latency 10

llc_size 2048
llc_set 2048
llc_way 16
llc_rq_size 32
llc_wq_size 32
llc_pq_size 32
llc_mshr_size 64
llc_latency 20

dram_channel_width 8
dram_wq_size 64
dram_rq_size 64
tRP 15
tRCD 15
tCAS 12.5
dram_dbus_turn_around_time 30
dram_write_high_wm 56
dram_write_low_wm 48
min_dram_writes_per_switch 16
dram_mtps 300
dram_dbus_return_time 106


Heartbeat CPU  0 instructions:    1000003 cycles:     501010 heartbeat IPC: 1.99597 cumulative IPC: 1.99597 (Simulation time: 0 hr 0 min 2 sec) 
Heartbeat CPU  0 instructions:    2000001 cycles:    1000547 heartbeat IPC: 2.00185 cumulative IPC: 1.99891 (Simulation time: 0 hr 0 min 4 sec) 
Heartbeat CPU  0 instructions:    3000001 cycles:    1500594 heartbeat IPC: 1.99981 cumulative IPC: 1.99921 (Simulation time: 0 hr 0 min 5 sec) 
Heartbeat CPU  0 instructions:    4000000 cycles:    2000536 heartbeat IPC: 2.00023 cumulative IPC: 1.99946 (Simulation time: 0 hr 0 min 7 sec) 
Heartbeat CPU  0 instructions:    5000003 cycles:    2499749 heartbeat IPC: 2.00316 cumulative IPC: 2.00020 (Simulation time: 0 hr 0 min 9 sec) 
Heartbeat CPU  0 instructions:    6000001 cycles:    3000056 heartbeat IPC: 1.99877 cumulative IPC: 1.99996 (Simulation time: 0 hr 0 min 10 sec) 
Heartbeat CPU  0 instructions:    7000002 cycles:    3498241 heartbeat IPC: 2.00729 cumulative IPC: 2.00101 (Simulation time: 0 hr 0 min 12 sec) 
Heartbeat CPU  0 instructions:    8000000 cycles:    3998689 heartbeat IPC: 1.99821 cumulative IPC: 2.00066 (Simulation time: 0 hr 0 min 14 sec) 
Heartbeat CPU  0 instructions:    9000003 cycles:    4496737 heartbeat IPC: 2.00784 cumulative IPC: 2.00145 (Simulation time: 0 hr 0 min 16 sec) 
Heartbeat CPU  0 instructions:   10000001 cycles:    4996816 heartbeat IPC: 1.99968 cumulative IPC: 2.00127 (Simulation time: 0 hr 0 min 17 sec) 
Heartbeat CPU  0 instructions:   11000002 cycles:    5494284 heartbeat IPC: 2.01018 cumulative IPC: 2.00208 (Simulation time: 0 hr 0 min 19 sec) 
Heartbeat CPU  0 instructions:   12000000 cycles:    5995365 heartbeat IPC: 1.99568 cumulative IPC: 2.00155 (Simulation time: 0 hr 0 min 21 sec) 
Heartbeat CPU  0 instructions:   13000002 cycles:    6492684 heartbeat IPC: 2.01079 cumulative IPC: 2.00225 (Simulation time: 0 hr 0 min 22 sec) 
Heartbeat CPU  0 instructions:   14000002 cycles:    6993388 heartbeat IPC: 1.99719 cumulative IPC: 2.00189 (Simulation time: 0 hr 0 min 24 sec) 
Heartbeat CPU  0 instructions:   15000000 cycles:    7490914 heartbeat IPC: 2.00994 cumulative IPC: 2.00243 (Simulation time: 0 hr 0 min 26 sec) 
Heartbeat CPU  0 instructions:   16000000 cycles:    7990652 heartbeat IPC: 2.00105 cumulative IPC: 2.00234 (Simulation time: 0 hr 0 min 28 sec) 
Heartbeat CPU  0 instructions:   17000003 cycles:    8489266 heartbeat IPC: 2.00557 cumulative IPC: 2.00253 (Simulation time: 0 hr 0 min 29 sec) 
Heartbeat CPU  0 instructions:   18000003 cycles:    8989090 heartbeat IPC: 2.00070 cumulative IPC: 2.00243 (Simulation time: 0 hr 0 min 31 sec) 
Heartbeat CPU  0 instructions:   19000003 cycles:    9488762 heartbeat IPC: 2.00131 cumulative IPC: 2.00237 (Simulation time: 0 hr 0 min 33 sec) 
Heartbeat CPU  0 instructions:   20000000 cycles:    9987872 heartbeat IPC: 2.00356 cumulative IPC: 2.00243 (Simulation time: 0 hr 0 min 35 sec) 
Heartbeat CPU  0 instructions:   21000000 cycles:   10488371 heartbeat IPC: 1.99801 cumulative IPC: 2.00222 (Simulation time: 0 hr 0 min 36 sec) 
Heartbeat CPU  0 instructions:   22000003 cycles:   10986749 heartbeat IPC: 2.00652 cumulative IPC: 2.00241 (Simulation time: 0 hr 0 min 38 sec) 
Heartbeat CPU  0 instructions:   23000003 cycles:   11487658 heartbeat IPC: 1.99637 cumulative IPC: 2.00215 (Simulation time: 0 hr 0 min 40 sec) 
Heartbeat CPU  0 instructions:   24000000 cycles:   11985961 heartbeat IPC: 2.00681 cumulative IPC: 2.00234 (Simulation time: 0 hr 0 min 41 sec) 
Heartbeat CPU  0 instructions:   25000002 cycles:   12487078 heartbeat IPC: 1.99555 cumulative IPC: 2.00207 (Simulation time: 0 hr 0 min 43 sec) 
Heartbeat CPU  0 instructions:   26000000 cycles:   12985269 heartbeat IPC: 2.00726 cumulative IPC: 2.00227 (Simulation time: 0 hr 0 min 45 sec) 
Heartbeat CPU  0 instructions:   27000000 cycles:   13487116 heartbeat IPC: 1.99264 cumulative IPC: 2.00191 (Simulation time: 0 hr 0 min 47 sec) 
Heartbeat CPU  0 instructions:   28000000 cycles:   13984601 heartbeat IPC: 2.01011 cumulative IPC: 2.00220 (Simulation time: 0 hr 0 min 48 sec) 
Heartbeat CPU  0 instructions:   29000000 cycles:   14485433 heartbeat IPC: 1.99668 cumulative IPC: 2.00201 (Simulation time: 0 hr 0 min 50 sec) 
Heartbeat CPU  0 instructions:   30000000 cycles:   14983357 heartbeat IPC: 2.00834 cumulative IPC: 2.00222 (Simulation time: 0 hr 0 min 52 sec) 
Heartbeat CPU  0 instructions:   31000002 cycles:   15483175 heartbeat IPC: 2.00073 cumulative IPC: 2.00217 (Simulation time: 0 hr 0 min 54 sec) 
Heartbeat CPU  0 instructions:   32000000 cycles:   15981735 heartbeat IPC: 2.00577 cumulative IPC: 2.00229 (Simulation time: 0 hr 0 min 55 sec) 
Heartbeat CPU  0 instructions:   33000000 cycles:   16480878 heartbeat IPC: 2.00343 cumulative IPC: 2.00232 (Simulation time: 0 hr 0 min 57 sec) 
Heartbeat CPU  0 instructions:   34000002 cycles:   16980066 heartbeat IPC: 2.00326 cumulative IPC: 2.00235 (Simulation time: 0 hr 0 min 59 sec) 
Heartbeat CPU  0 instructions:   35000002 cycles:   17478497 heartbeat IPC: 2.00630 cumulative IPC: 2.00246 (Simulation time: 0 hr 1 min 0 sec) 
Heartbeat CPU  0 instructions:   36000000 cycles:   17978233 heartbeat IPC: 2.00105 cumulative IPC: 2.00242 (Simulation time: 0 hr 1 min 2 sec) 
Heartbeat CPU  0 instructions:   37000000 cycles:   18475994 heartbeat IPC: 2.00900 cumulative IPC: 2.00260 (Simulation time: 0 hr 1 min 4 sec) 
Heartbeat CPU  0 instructions:   38000000 cycles:   18976716 heartbeat IPC: 1.99712 cumulative IPC: 2.00245 (Simulation time: 0 hr 1 min 6 sec) 
Heartbeat CPU  0 instructions:   39000000 cycles:   19475098 heartbeat IPC: 2.00649 cumulative IPC: 2.00256 (Simulation time: 0 hr 1 min 7 sec) 
Heartbeat CPU  0 instructions:   40000000 cycles:   19976112 heartbeat IPC: 1.99595 cumulative IPC: 2.00239 (Simulation time: 0 hr 1 min 9 sec) 
Heartbeat CPU  0 instructions:   41000000 cycles:   20474285 heartbeat IPC: 2.00733 cumulative IPC: 2.00251 (Simulation time: 0 hr 1 min 11 sec) 
Heartbeat CPU  0 instructions:   42000000 cycles:   20976098 heartbeat IPC: 1.99277 cumulative IPC: 2.00228 (Simulation time: 0 hr 1 min 13 sec) 
Heartbeat CPU  0 instructions:   43000003 cycles:   21473923 heartbeat IPC: 2.00874 cumulative IPC: 2.00243 (Simulation time: 0 hr 1 min 14 sec) 
Heartbeat CPU  0 instructions:   44000000 cycles:   21975258 heartbeat IPC: 1.99467 cumulative IPC: 2.00225 (Simulation time: 0 hr 1 min 16 sec) 
Heartbeat CPU  0 instructions:   45000003 cycles:   22473574 heartbeat IPC: 2.00676 cumulative IPC: 2.00235 (Simulation time: 0 hr 1 min 18 sec) 
Heartbeat CPU  0 instructions:   46000003 cycles:   22973767 heartbeat IPC: 1.99923 cumulative IPC: 2.00228 (Simulation time: 0 hr 1 min 19 sec) 
Heartbeat CPU  0 instructions:   47000001 cycles:   23472943 heartbeat IPC: 2.00330 cumulative IPC: 2.00231 (Simulation time: 0 hr 1 min 21 sec) 
Heartbeat CPU  0 instructions:   48000000 cycles:   23972794 heartbeat IPC: 2.00059 cumulative IPC: 2.00227 (Simulation time: 0 hr 1 min 23 sec) 
Heartbeat CPU  0 instructions:   49000000 cycles:   24472281 heartbeat IPC: 2.00205 cumulative IPC: 2.00227 (Simulation time: 0 hr 1 min 25 sec) 
Heartbeat CPU  0 instructions:   50000000 cycles:   24970838 heartbeat IPC: 2.00579 cumulative IPC: 2.00234 (Simulation time: 0 hr 1 min 26 sec) 
Heartbeat CPU  0 instructions:   51000003 cycles:   25470669 heartbeat IPC: 2.00068 cumulative IPC: 2.00230 (Simulation time: 0 hr 1 min 28 sec) 
Heartbeat CPU  0 instructions:   52000000 cycles:   25968444 heartbeat IPC: 2.00893 cumulative IPC: 2.00243 (Simulation time: 0 hr 1 min 30 sec) 
Heartbeat CPU  0 instructions:   53000001 cycles:   26468942 heartbeat IPC: 1.99801 cumulative IPC: 2.00235 (Simulation time: 0 hr 1 min 31 sec) 
Heartbeat CPU  0 instructions:   54000002 cycles:   26966903 heartbeat IPC: 2.00819 cumulative IPC: 2.00245 (Simulation time: 0 hr 1 min 33 sec) 
Heartbeat CPU  0 instructions:   55000001 cycles:   27467739 heartbeat IPC: 1.99666 cumulative IPC: 2.00235 (Simulation time: 0 hr 1 min 35 sec) 
Heartbeat CPU  0 instructions:   56000000 cycles:   27965352 heartbeat IPC: 2.00959 cumulative IPC: 2.00248 (Simulation time: 0 hr 1 min 37 sec) 
Heartbeat CPU  0 instructions:   57000002 cycles:   28466520 heartbeat IPC: 1.99534 cumulative IPC: 2.00235 (Simulation time: 0 hr 1 min 38 sec) 
Heartbeat CPU  0 instructions:   58000001 cycles:   28963529 heartbeat IPC: 2.01203 cumulative IPC: 2.00252 (Simulation time: 0 hr 1 min 40 sec) 
Heartbeat CPU  0 instructions:   59000003 cycles:   29464461 heartbeat IPC: 1.99628 cumulative IPC: 2.00241 (Simulation time: 0 hr 1 min 42 sec) 
Heartbeat CPU  0 instructions:   60000000 cycles:   29962844 heartbeat IPC: 2.00648 cumulative IPC: 2.00248 (Simulation time: 0 hr 1 min 44 sec) 
Heartbeat CPU  0 instructions:   61000003 cycles:   30463370 heartbeat IPC: 1.99790 cumulative IPC: 2.00240 (Simulation time: 0 hr 1 min 45 sec) 
Heartbeat CPU  0 instructions:   62000001 cycles:   30962630 heartbeat IPC: 2.00296 cumulative IPC: 2.00241 (Simulation time: 0 hr 1 min 47 sec) 
Heartbeat CPU  0 instructions:   63000003 cycles:   31462396 heartbeat IPC: 2.00094 cumulative IPC: 2.00239 (Simulation time: 0 hr 1 min 49 sec) 
Heartbeat CPU  0 instructions:   64000000 cycles:   31962286 heartbeat IPC: 2.00043 cumulative IPC: 2.00236 (Simulation time: 0 hr 1 min 50 sec) 
Heartbeat CPU  0 instructions:   65000001 cycles:   32461246 heartbeat IPC: 2.00417 cumulative IPC: 2.00239 (Simulation time: 0 hr 1 min 52 sec) 
Heartbeat CPU  0 instructions:   66000000 cycles:   32961888 heartbeat IPC: 1.99743 cumulative IPC: 2.00231 (Simulation time: 0 hr 1 min 54 sec) 
Heartbeat CPU  0 instructions:   67000003 cycles:   33460361 heartbeat IPC: 2.00613 cumulative IPC: 2.00237 (Simulation time: 0 hr 1 min 56 sec) 
Heartbeat CPU  0 instructions:   68000000 cycles:   33961653 heartbeat IPC: 1.99484 cumulative IPC: 2.00226 (Simulation time: 0 hr 1 min 57 sec) 
Heartbeat CPU  0 instructions:   69000002 cycles:   34460575 heartbeat IPC: 2.00433 cumulative IPC: 2.00229 (Simulation time: 0 hr 1 min 59 sec) 
Heartbeat CPU  0 instructions:   70000003 cycles:   34961281 heartbeat IPC: 1.99718 cumulative IPC: 2.00222 (Simulation time: 0 hr 2 min 1 sec) 
Heartbeat CPU  0 instructions:   71000001 cycles:   35459093 heartbeat IPC: 2.00879 cumulative IPC: 2.00231 (Simulation time: 0 hr 2 min 2 sec) 
Heartbeat CPU  0 instructions:   72000000 cycles:   35960271 heartbeat IPC: 1.99530 cumulative IPC: 2.00221 (Simulation time: 0 hr 2 min 4 sec) 
Heartbeat CPU  0 instructions:   73000001 cycles:   36457441 heartbeat IPC: 2.01139 cumulative IPC: 2.00233 (Simulation time: 0 hr 2 min 6 sec) 
Heartbeat CPU  0 instructions:   74000002 cycles:   36957898 heartbeat IPC: 1.99818 cumulative IPC: 2.00228 (Simulation time: 0 hr 2 min 8 sec) 
Heartbeat CPU  0 instructions:   75000000 cycles:   37455759 heartbeat IPC: 2.00859 cumulative IPC: 2.00236 (Simulation time: 0 hr 2 min 9 sec) 
Heartbeat CPU  0 instructions:   76000000 cycles:   37955503 heartbeat IPC: 2.00102 cumulative IPC: 2.00234 (Simulation time: 0 hr 2 min 11 sec) 
Heartbeat CPU  0 instructions:   77000003 cycles:   38454118 heartbeat IPC: 2.00556 cumulative IPC: 2.00239 (Simulation time: 0 hr 2 min 13 sec) 
Heartbeat CPU  0 instructions:   78000000 cycles:   38953193 heartbeat IPC: 2.00370 cumulative IPC: 2.00240 (Simulation time: 0 hr 2 min 15 sec) 
Heartbeat CPU  0 instructions:   79000002 cycles:   39452465 heartbeat IPC: 2.00292 cumulative IPC: 2.00241 (Simulation time: 0 hr 2 min 16 sec) 
Heartbeat CPU  0 instructions:   80000000 cycles:   39951355 heartbeat IPC: 2.00445 cumulative IPC: 2.00244 (Simulation time: 0 hr 2 min 18 sec) 
Heartbeat CPU  0 instructions:   81000002 cycles:   40451812 heartbeat IPC: 1.99818 cumulative IPC: 2.00238 (Simulation time: 0 hr 2 min 20 sec) 
Heartbeat CPU  0 instructions:   82000002 cycles:   40950081 heartbeat IPC: 2.00695 cumulative IPC: 2.00244 (Simulation time: 0 hr 2 min 21 sec) 
Heartbeat CPU  0 instructions:   83000000 cycles:   41451329 heartbeat IPC: 1.99502 cumulative IPC: 2.00235 (Simulation time: 0 hr 2 min 23 sec) 
Heartbeat CPU  0 instructions:   84000000 cycles:   41950113 heartbeat IPC: 2.00488 cumulative IPC: 2.00238 (Simulation time: 0 hr 2 min 25 sec) 
Heartbeat CPU  0 instructions:   85000000 cycles:   42451550 heartbeat IPC: 1.99427 cumulative IPC: 2.00228 (Simulation time: 0 hr 2 min 27 sec) 
Heartbeat CPU  0 instructions:   86000003 cycles:   42949594 heartbeat IPC: 2.00786 cumulative IPC: 2.00235 (Simulation time: 0 hr 2 min 28 sec) 
Heartbeat CPU  0 instructions:   87000000 cycles:   43451231 heartbeat IPC: 1.99347 cumulative IPC: 2.00224 (Simulation time: 0 hr 2 min 30 sec) 
Heartbeat CPU  0 instructions:   88000000 cycles:   43948735 heartbeat IPC: 2.01003 cumulative IPC: 2.00233 (Simulation time: 0 hr 2 min 32 sec) 
Heartbeat CPU  0 instructions:   89000003 cycles:   44449833 heartbeat IPC: 1.99562 cumulative IPC: 2.00226 (Simulation time: 0 hr 2 min 34 sec) 
Heartbeat CPU  0 instructions:   90000000 cycles:   44948129 heartbeat IPC: 2.00683 cumulative IPC: 2.00231 (Simulation time: 0 hr 2 min 35 sec) 
Heartbeat CPU  0 instructions:   91000000 cycles:   45447921 heartbeat IPC: 2.00083 cumulative IPC: 2.00229 (Simulation time: 0 hr 2 min 37 sec) 
Heartbeat CPU  0 instructions:   92000000 cycles:   45946590 heartbeat IPC: 2.00534 cumulative IPC: 2.00232 (Simulation time: 0 hr 2 min 39 sec) 
Heartbeat CPU  0 instructions:   93000000 cycles:   46445872 heartbeat IPC: 2.00288 cumulative IPC: 2.00233 (Simulation time: 0 hr 2 min 40 sec) 
Heartbeat CPU  0 instructions:   94000000 cycles:   46945184 heartbeat IPC: 2.00276 cumulative IPC: 2.00234 (Simulation time: 0 hr 2 min 42 sec) 
Heartbeat CPU  0 instructions:   95000000 cycles:   47443451 heartbeat IPC: 2.00696 cumulative IPC: 2.00238 (Simulation time: 0 hr 2 min 44 sec) 
Heartbeat CPU  0 instructions:   96000000 cycles:   47943466 heartbeat IPC: 1.99994 cumulative IPC: 2.00236 (Simulation time: 0 hr 2 min 46 sec) 
Heartbeat CPU  0 instructions:   97000000 cycles:   48441573 heartbeat IPC: 2.00760 cumulative IPC: 2.00241 (Simulation time: 0 hr 2 min 47 sec) 
Heartbeat CPU  0 instructions:   98000001 cycles:   48942460 heartbeat IPC: 1.99646 cumulative IPC: 2.00235 (Simulation time: 0 hr 2 min 49 sec) 
Heartbeat CPU  0 instructions:   99000002 cycles:   49440336 heartbeat IPC: 2.00853 cumulative IPC: 2.00241 (Simulation time: 0 hr 2 min 51 sec) 
Heartbeat CPU  0 instructions:  100000000 cycles:   49940891 heartbeat IPC: 1.99778 cumulative IPC: 2.00237 (Simulation time: 0 hr 2 min 52 sec) 

Warmup complete CPU  0 instructions:  100000001 cycles:   49940892 (Simulation time: 0 hr 2 min 52 sec) 

Heartbeat CPU  0 instructions:  101000003 cycles:   51344714 heartbeat IPC: 0.71234 cumulative IPC: 0.71234 (Simulation time: 0 hr 2 min 55 sec) 
Heartbeat CPU  0 instructions:  102000001 cycles:   52728299 heartbeat IPC: 0.72276 cumulative IPC: 0.71751 (Simulation time: 0 hr 2 min 57 sec) 
Heartbeat CPU  0 instructions:  103000002 cycles:   54107883 heartbeat IPC: 0.72486 cumulative IPC: 0.71994 (Simulation time: 0 hr 2 min 59 sec) 
Heartbeat CPU  0 instructions:  104000000 cycles:   55507121 heartbeat IPC: 0.71467 cumulative IPC: 0.71862 (Simulation time: 0 hr 3 min 2 sec) 
Heartbeat CPU  0 instructions:  105000000 cycles:   56902699 heartbeat IPC: 0.71655 cumulative IPC: 0.71820 (Simulation time: 0 hr 3 min 4 sec) 
Heartbeat CPU  0 instructions:  106000003 cycles:   58306868 heartbeat IPC: 0.71217 cumulative IPC: 0.71719 (Simulation time: 0 hr 3 min 6 sec) 
Heartbeat CPU  0 instructions:  107000000 cycles:   59687469 heartbeat IPC: 0.72432 cumulative IPC: 0.71820 (Simulation time: 0 hr 3 min 8 sec) 
Heartbeat CPU  0 instructions:  108000000 cycles:   61100300 heartbeat IPC: 0.70780 cumulative IPC: 0.71688 (Simulation time: 0 hr 3 min 11 sec) 
Heartbeat CPU  0 instructions:  109000000 cycles:   62481441 heartbeat IPC: 0.72404 cumulative IPC: 0.71767 (Simulation time: 0 hr 3 min 13 sec) 
Heartbeat CPU  0 instructions:  110000001 cycles:   63876875 heartbeat IPC: 0.71662 cumulative IPC: 0.71757 (Simulation time: 0 hr 3 min 15 sec) 
Heartbeat CPU  0 instructions:  111000001 cycles:   65274215 heartbeat IPC: 0.71565 cumulative IPC: 0.71739 (Simulation time: 0 hr 3 min 17 sec) 
Heartbeat CPU  0 instructions:  112000000 cycles:   66667046 heartbeat IPC: 0.71796 cumulative IPC: 0.71744 (Simulation time: 0 hr 3 min 20 sec) 
Heartbeat CPU  0 instructions:  113000003 cycles:   68028853 heartbeat IPC: 0.73432 cumulative IPC: 0.71871 (Simulation time: 0 hr 3 min 22 sec) 
Heartbeat CPU  0 instructions:  114000001 cycles:   69436292 heartbeat IPC: 0.71051 cumulative IPC: 0.71812 (Simulation time: 0 hr 3 min 24 sec) 
Heartbeat CPU  0 instructions:  115000003 cycles:   70829874 heartbeat IPC: 0.71758 cumulative IPC: 0.71808 (Simulation time: 0 hr 3 min 26 sec) 
Heartbeat CPU  0 instructions:  116000000 cycles:   72218305 heartbeat IPC: 0.72024 cumulative IPC: 0.71822 (Simulation time: 0 hr 3 min 29 sec) 
Heartbeat CPU  0 instructions:  117000000 cycles:   73607328 heartbeat IPC: 0.71993 cumulative IPC: 0.71832 (Simulation time: 0 hr 3 min 31 sec) 
Heartbeat CPU  0 instructions:  118000000 cycles:   74989080 heartbeat IPC: 0.72372 cumulative IPC: 0.71861 (Simulation time: 0 hr 3 min 33 sec) 
Heartbeat CPU  0 instructions:  119000000 cycles:   76375568 heartbeat IPC: 0.72125 cumulative IPC: 0.71875 (Simulation time: 0 hr 3 min 36 sec) 
Heartbeat CPU  0 instructions:  120000000 cycles:   77751245 heartbeat IPC: 0.72691 cumulative IPC: 0.71916 (Simulation time: 0 hr 3 min 38 sec) 
Heartbeat CPU  0 instructions:  121000000 cycles:   79158627 heartbeat IPC: 0.71054 cumulative IPC: 0.71874 (Simulation time: 0 hr 3 min 40 sec) 
Heartbeat CPU  0 instructions:  122000000 cycles:   80565786 heartbeat IPC: 0.71065 cumulative IPC: 0.71837 (Simulation time: 0 hr 3 min 42 sec) 
Heartbeat CPU  0 instructions:  123000001 cycles:   81982933 heartbeat IPC: 0.70564 cumulative IPC: 0.71781 (Simulation time: 0 hr 3 min 45 sec) 
Heartbeat CPU  0 instructions:  124000000 cycles:   83348009 heartbeat IPC: 0.73256 cumulative IPC: 0.71841 (Simulation time: 0 hr 3 min 47 sec) 
Heartbeat CPU  0 instructions:  125000001 cycles:   84757852 heartbeat IPC: 0.70930 cumulative IPC: 0.71804 (Simulation time: 0 hr 3 min 49 sec) 
Heartbeat CPU  0 instructions:  126000002 cycles:   86146261 heartbeat IPC: 0.72025 cumulative IPC: 0.71813 (Simulation time: 0 hr 3 min 51 sec) 
Heartbeat CPU  0 instructions:  127000000 cycles:   87549387 heartbeat IPC: 0.71269 cumulative IPC: 0.71792 (Simulation time: 0 hr 3 min 54 sec) 
Heartbeat CPU  0 instructions:  128000000 cycles:   88929431 heartbeat IPC: 0.72461 cumulative IPC: 0.71816 (Simulation time: 0 hr 3 min 56 sec) 
Heartbeat CPU  0 instructions:  129000003 cycles:   90321656 heartbeat IPC: 0.71828 cumulative IPC: 0.71816 (Simulation time: 0 hr 3 min 58 sec) 
Heartbeat CPU  0 instructions:  130000000 cycles:   91703653 heartbeat IPC: 0.72359 cumulative IPC: 0.71834 (Simulation time: 0 hr 4 min 0 sec) 
Heartbeat CPU  0 instructions:  131000001 cycles:   93112870 heartbeat IPC: 0.70961 cumulative IPC: 0.71806 (Simulation time: 0 hr 4 min 3 sec) 
Heartbeat CPU  0 instructions:  132000000 cycles:   95327802 heartbeat IPC: 0.45148 cumulative IPC: 0.70505 (Simulation time: 0 hr 4 min 5 sec) 
Heartbeat CPU  0 instructions:  133000001 cycles:   98192068 heartbeat IPC: 0.34913 cumulative IPC: 0.68392 (Simulation time: 0 hr 4 min 8 sec) 
Heartbeat CPU  0 instructions:  134000003 cycles:   99712011 heartbeat IPC: 0.65792 cumulative IPC: 0.68313 (Simulation time: 0 hr 4 min 11 sec) 
Heartbeat CPU  0 instructions:  135000000 cycles:  101273194 heartbeat IPC: 0.64054 cumulative IPC: 0.68183 (Simulation time: 0 hr 4 min 13 sec) 
Heartbeat CPU  0 instructions:  136000000 cycles:  102926760 heartbeat IPC: 0.60475 cumulative IPC: 0.67943 (Simulation time: 0 hr 4 min 16 sec) 
Heartbeat CPU  0 instructions:  137000001 cycles:  104565881 heartbeat IPC: 0.61008 cumulative IPC: 0.67735 (Simulation time: 0 hr 4 min 18 sec) 
Heartbeat CPU  0 instructions:  138000003 cycles:  106148557 heartbeat IPC: 0.63184 cumulative IPC: 0.67606 (Simulation time: 0 hr 4 min 21 sec) 
Heartbeat CPU  0 instructions:  139000000 cycles:  107721244 heartbeat IPC: 0.63585 cumulative IPC: 0.67497 (Simulation time: 0 hr 4 min 23 sec) 
Heartbeat CPU  0 instructions:  140000000 cycles:  109302758 heartbeat IPC: 0.63231 cumulative IPC: 0.67383 (Simulation time: 0 hr 4 min 25 sec) 
Heartbeat CPU  0 instructions:  141000001 cycles:  110874184 heartbeat IPC: 0.63637 cumulative IPC: 0.67287 (Simulation time: 0 hr 4 min 28 sec) 
Heartbeat CPU  0 instructions:  142000003 cycles:  112444932 heartbeat IPC: 0.63664 cumulative IPC: 0.67196 (Simulation time: 0 hr 4 min 30 sec) 
Heartbeat CPU  0 instructions:  143000000 cycles:  114018279 heartbeat IPC: 0.63559 cumulative IPC: 0.67106 (Simulation time: 0 hr 4 min 32 sec) 
Heartbeat CPU  0 instructions:  144000000 cycles:  115439939 heartbeat IPC: 0.70340 cumulative IPC: 0.67177 (Simulation time: 0 hr 4 min 35 sec) 
Heartbeat CPU  0 instructions:  145000001 cycles:  116742949 heartbeat IPC: 0.76745 cumulative IPC: 0.67363 (Simulation time: 0 hr 4 min 37 sec) 
Heartbeat CPU  0 instructions:  146000002 cycles:  118064033 heartbeat IPC: 0.75695 cumulative IPC: 0.67525 (Simulation time: 0 hr 4 min 39 sec) 
Heartbeat CPU  0 instructions:  147000002 cycles:  119386571 heartbeat IPC: 0.75612 cumulative IPC: 0.67679 (Simulation time: 0 hr 4 min 41 sec) 
Heartbeat CPU  0 instructions:  148000000 cycles:  120934916 heartbeat IPC: 0.64585 cumulative IPC: 0.67611 (Simulation time: 0 hr 4 min 44 sec) 
Heartbeat CPU  0 instructions:  149000001 cycles:  122510203 heartbeat IPC: 0.63481 cumulative IPC: 0.67522 (Simulation time: 0 hr 4 min 46 sec) 
Heartbeat CPU  0 instructions:  150000002 cycles:  124086888 heartbeat IPC: 0.63424 cumulative IPC: 0.67435 (Simulation time: 0 hr 4 min 48 sec) 
Heartbeat CPU  0 instructions:  151000002 cycles:  125673023 heartbeat IPC: 0.63046 cumulative IPC: 0.67343 (Simulation time: 0 hr 4 min 51 sec) 
Heartbeat CPU  0 instructions:  152000000 cycles:  127255576 heartbeat IPC: 0.63189 cumulative IPC: 0.67258 (Simulation time: 0 hr 4 min 53 sec) 
Heartbeat CPU  0 instructions:  153000000 cycles:  128835223 heartbeat IPC: 0.63305 cumulative IPC: 0.67178 (Simulation time: 0 hr 4 min 56 sec) 
Heartbeat CPU  0 instructions:  154000002 cycles:  130432996 heartbeat IPC: 0.62587 cumulative IPC: 0.67087 (Simulation time: 0 hr 4 min 58 sec) 
Heartbeat CPU  0 instructions:  155000001 cycles:  132017222 heartbeat IPC: 0.63122 cumulative IPC: 0.67011 (Simulation time: 0 hr 5 min 0 sec) 
Heartbeat CPU  0 instructions:  156000000 cycles:  133577170 heartbeat IPC: 0.64105 cumulative IPC: 0.66957 (Simulation time: 0 hr 5 min 3 sec) 
Heartbeat CPU  0 instructions:  157000002 cycles:  134970750 heartbeat IPC: 0.71758 cumulative IPC: 0.67035 (Simulation time: 0 hr 5 min 5 sec) 
Heartbeat CPU  0 instructions:  158000000 cycles:  136422276 heartbeat IPC: 0.68893 cumulative IPC: 0.67066 (Simulation time: 0 hr 5 min 7 sec) 
Heartbeat CPU  0 instructions:  159000003 cycles:  137858370 heartbeat IPC: 0.69634 cumulative IPC: 0.67108 (Simulation time: 0 hr 5 min 10 sec) 
Heartbeat CPU  0 instructions:  160000000 cycles:  139388784 heartbeat IPC: 0.65342 cumulative IPC: 0.67078 (Simulation time: 0 hr 5 min 12 sec) 
Heartbeat CPU  0 instructions:  161000000 cycles:  140981116 heartbeat IPC: 0.62801 cumulative IPC: 0.67003 (Simulation time: 0 hr 5 min 15 sec) 
Heartbeat CPU  0 instructions:  162000001 cycles:  142562937 heartbeat IPC: 0.63218 cumulative IPC: 0.66939 (Simulation time: 0 hr 5 min 17 sec) 
Heartbeat CPU  0 instructions:  163000001 cycles:  144148888 heartbeat IPC: 0.63054 cumulative IPC: 0.66873 (Simulation time: 0 hr 5 min 19 sec) 
Heartbeat CPU  0 instructions:  164000000 cycles:  145734116 heartbeat IPC: 0.63082 cumulative IPC: 0.66811 (Simulation time: 0 hr 5 min 22 sec) 
Heartbeat CPU  0 instructions:  165000000 cycles:  147323333 heartbeat IPC: 0.62924 cumulative IPC: 0.66747 (Simulation time: 0 hr 5 min 24 sec) 
Heartbeat CPU  0 instructions:  166000001 cycles:  148906747 heartbeat IPC: 0.63155 cumulative IPC: 0.66690 (Simulation time: 0 hr 5 min 27 sec) 
Heartbeat CPU  0 instructions:  167000003 cycles:  150498521 heartbeat IPC: 0.62823 cumulative IPC: 0.66628 (Simulation time: 0 hr 5 min 29 sec) 
Heartbeat CPU  0 instructions:  168000000 cycles:  152087165 heartbeat IPC: 0.62947 cumulative IPC: 0.66571 (Simulation time: 0 hr 5 min 31 sec) 
Heartbeat CPU  0 instructions:  169000001 cycles:  153563724 heartbeat IPC: 0.67725 cumulative IPC: 0.66588 (Simulation time: 0 hr 5 min 34 sec) 
Heartbeat CPU  0 instructions:  170000001 cycles:  154975961 heartbeat IPC: 0.70810 cumulative IPC: 0.66644 (Simulation time: 0 hr 5 min 36 sec) 
Heartbeat CPU  0 instructions:  171000001 cycles:  156425355 heartbeat IPC: 0.68994 cumulative IPC: 0.66676 (Simulation time: 0 hr 5 min 38 sec) 
Heartbeat CPU  0 instructions:  172000000 cycles:  157885957 heartbeat IPC: 0.68465 cumulative IPC: 0.66701 (Simulation time: 0 hr 5 min 41 sec) 
Heartbeat CPU  0 instructions:  173000000 cycles:  159485679 heartbeat IPC: 0.62511 cumulative IPC: 0.66639 (Simulation time: 0 hr 5 min 43 sec) 
Heartbeat CPU  0 instructions:  174000003 cycles:  161078310 heartbeat IPC: 0.62789 cumulative IPC: 0.66584 (Simulation time: 0 hr 5 min 46 sec) 
Heartbeat CPU  0 instructions:  175000002 cycles:  162665654 heartbeat IPC: 0.62998 cumulative IPC: 0.66534 (Simulation time: 0 hr 5 min 48 sec) 
Heartbeat CPU  0 instructions:  176000000 cycles:  164252618 heartbeat IPC: 0.63013 cumulative IPC: 0.66485 (Simulation time: 0 hr 5 min 50 sec) 
Heartbeat CPU  0 instructions:  177000001 cycles:  165834945 heartbeat IPC: 0.63198 cumulative IPC: 0.66440 (Simulation time: 0 hr 5 min 53 sec) 
Heartbeat CPU  0 instructions:  178000003 cycles:  167422717 heartbeat IPC: 0.62981 cumulative IPC: 0.66393 (Simulation time: 0 hr 5 min 55 sec) 
Heartbeat CPU  0 instructions:  179000002 cycles:  169007792 heartbeat IPC: 0.63088 cumulative IPC: 0.66349 (Simulation time: 0 hr 5 min 58 sec) 
Heartbeat CPU  0 instructions:  180000000 cycles:  170602940 heartbeat IPC: 0.62690 cumulative IPC: 0.66301 (Simulation time: 0 hr 6 min 0 sec) 
Heartbeat CPU  0 instructions:  181000000 cycles:  172134293 heartbeat IPC: 0.65302 cumulative IPC: 0.66288 (Simulation time: 0 hr 6 min 2 sec) 
Heartbeat CPU  0 instructions:  182000002 cycles:  173545291 heartbeat IPC: 0.70872 cumulative IPC: 0.66341 (Simulation time: 0 hr 6 min 5 sec) 
Heartbeat CPU  0 instructions:  183000002 cycles:  174962215 heartbeat IPC: 0.70575 cumulative IPC: 0.66389 (Simulation time: 0 hr 6 min 7 sec) 
Heartbeat CPU  0 instructions:  184000000 cycles:  176390651 heartbeat IPC: 0.70006 cumulative IPC: 0.66430 (Simulation time: 0 hr 6 min 9 sec) 
Heartbeat CPU  0 instructions:  185000003 cycles:  177933000 heartbeat IPC: 0.64836 cumulative IPC: 0.66410 (Simulation time: 0 hr 6 min 12 sec) 
Heartbeat CPU  0 instructions:  186000000 cycles:  179522066 heartbeat IPC: 0.62930 cumulative IPC: 0.66368 (Simulation time: 0 hr 6 min 14 sec) 
Heartbeat CPU  0 instructions:  187000000 cycles:  181124271 heartbeat IPC: 0.62414 cumulative IPC: 0.66319 (Simulation time: 0 hr 6 min 17 sec) 
Heartbeat CPU  0 instructions:  188000000 cycles:  182709394 heartbeat IPC: 0.63087 cumulative IPC: 0.66281 (Simulation time: 0 hr 6 min 19 sec) 
Heartbeat CPU  0 instructions:  189000003 cycles:  184305297 heartbeat IPC: 0.62661 cumulative IPC: 0.66238 (Simulation time: 0 hr 6 min 21 sec) 
Heartbeat CPU  0 instructions:  190000000 cycles:  185891301 heartbeat IPC: 0.63051 cumulative IPC: 0.66201 (Simulation time: 0 hr 6 min 24 sec) 
Heartbeat CPU  0 instructions:  191000000 cycles:  187485862 heartbeat IPC: 0.62713 cumulative IPC: 0.66160 (Simulation time: 0 hr 6 min 26 sec) 
Heartbeat CPU  0 instructions:  192000000 cycles:  189076499 heartbeat IPC: 0.62868 cumulative IPC: 0.66123 (Simulation time: 0 hr 6 min 29 sec) 
Heartbeat CPU  0 instructions:  193000000 cycles:  190663440 heartbeat IPC: 0.63014 cumulative IPC: 0.66087 (Simulation time: 0 hr 6 min 31 sec) 
Heartbeat CPU  0 instructions:  194000000 cycles:  192079942 heartbeat IPC: 0.70596 cumulative IPC: 0.66132 (Simulation time: 0 hr 6 min 33 sec) 
Heartbeat CPU  0 instructions:  195000003 cycles:  194546879 heartbeat IPC: 0.40536 cumulative IPC: 0.65696 (Simulation time: 0 hr 6 min 36 sec) 
Heartbeat CPU  0 instructions:  196000000 cycles:  197593611 heartbeat IPC: 0.32822 cumulative IPC: 0.65017 (Simulation time: 0 hr 6 min 39 sec) 
Heartbeat CPU  0 instructions:  197000000 cycles:  200532975 heartbeat IPC: 0.34021 cumulative IPC: 0.64412 (Simulation time: 0 hr 6 min 42 sec) 
Heartbeat CPU  0 instructions:  198000000 cycles:  203197381 heartbeat IPC: 0.37532 cumulative IPC: 0.63945 (Simulation time: 0 hr 6 min 44 sec) 
Heartbeat CPU  0 instructions:  199000001 cycles:  205898054 heartbeat IPC: 0.37028 cumulative IPC: 0.63479 (Simulation time: 0 hr 6 min 47 sec) 
Heartbeat CPU  0 instructions:  200000000 cycles:  208588742 heartbeat IPC: 0.37165 cumulative IPC: 0.63033 (Simulation time: 0 hr 6 min 50 sec) 
Heartbeat CPU  0 instructions:  201000002 cycles:  211249741 heartbeat IPC: 0.37580 cumulative IPC: 0.62613 (Simulation time: 0 hr 6 min 52 sec) 
Heartbeat CPU  0 instructions:  202000002 cycles:  213888414 heartbeat IPC: 0.37898 cumulative IPC: 0.62215 (Simulation time: 0 hr 6 min 55 sec) 
Heartbeat CPU  0 instructions:  203000003 cycles:  216522213 heartbeat IPC: 0.37968 cumulative IPC: 0.61832 (Simulation time: 0 hr 6 min 58 sec) 
Heartbeat CPU  0 instructions:  204000000 cycles:  219361433 heartbeat IPC: 0.35221 cumulative IPC: 0.61386 (Simulation time: 0 hr 7 min 1 sec) 
Heartbeat CPU  0 instructions:  205000001 cycles:  222480547 heartbeat IPC: 0.32060 cumulative IPC: 0.60856 (Simulation time: 0 hr 7 min 3 sec) 
Heartbeat CPU  0 instructions:  206000003 cycles:  225191077 heartbeat IPC: 0.36893 cumulative IPC: 0.60485 (Simulation time: 0 hr 7 min 6 sec) 
Heartbeat CPU  0 instructions:  207000001 cycles:  227828151 heartbeat IPC: 0.37921 cumulative IPC: 0.60150 (Simulation time: 0 hr 7 min 9 sec) 
Heartbeat CPU  0 instructions:  208000000 cycles:  230429562 heartbeat IPC: 0.38441 cumulative IPC: 0.59838 (Simulation time: 0 hr 7 min 11 sec) 
Heartbeat CPU  0 instructions:  209000000 cycles:  232987476 heartbeat IPC: 0.39094 cumulative IPC: 0.59548 (Simulation time: 0 hr 7 min 14 sec) 
Heartbeat CPU  0 instructions:  210000003 cycles:  235549430 heartbeat IPC: 0.39033 cumulative IPC: 0.59265 (Simulation time: 0 hr 7 min 17 sec) 
Heartbeat CPU  0 instructions:  211000002 cycles:  238073395 heartbeat IPC: 0.39620 cumulative IPC: 0.59001 (Simulation time: 0 hr 7 min 19 sec) 
Heartbeat CPU  0 instructions:  212000000 cycles:  240606024 heartbeat IPC: 0.39485 cumulative IPC: 0.58742 (Simulation time: 0 hr 7 min 22 sec) 
Heartbeat CPU  0 instructions:  213000001 cycles:  243504959 heartbeat IPC: 0.34495 cumulative IPC: 0.58379 (Simulation time: 0 hr 7 min 25 sec) 
Heartbeat CPU  0 instructions:  214000001 cycles:  246538225 heartbeat IPC: 0.32968 cumulative IPC: 0.57987 (Simulation time: 0 hr 7 min 27 sec) 
Heartbeat CPU  0 instructions:  215000002 cycles:  249206056 heartbeat IPC: 0.37484 cumulative IPC: 0.57712 (Simulation time: 0 hr 7 min 30 sec) 
Heartbeat CPU  0 instructions:  216000000 cycles:  251873154 heartbeat IPC: 0.37494 cumulative IPC: 0.57445 (Simulation time: 0 hr 7 min 33 sec) 
Heartbeat CPU  0 instructions:  217000003 cycles:  254521318 heartbeat IPC: 0.37762 cumulative IPC: 0.57190 (Simulation time: 0 hr 7 min 35 sec) 
Heartbeat CPU  0 instructions:  218000003 cycles:  257155570 heartbeat IPC: 0.37961 cumulative IPC: 0.56946 (Simulation time: 0 hr 7 min 38 sec) 
Heartbeat CPU  0 instructions:  219000003 cycles:  259780589 heartbeat IPC: 0.38095 cumulative IPC: 0.56710 (Simulation time: 0 hr 7 min 41 sec) 
Heartbeat CPU  0 instructions:  220000000 cycles:  262396678 heartbeat IPC: 0.38225 cumulative IPC: 0.56482 (Simulation time: 0 hr 7 min 43 sec) 
Heartbeat CPU  0 instructions:  221000003 cycles:  264900911 heartbeat IPC: 0.39933 cumulative IPC: 0.56290 (Simulation time: 0 hr 7 min 46 sec) 
Heartbeat CPU  0 instructions:  222000002 cycles:  267314632 heartbeat IPC: 0.41430 cumulative IPC: 0.56125 (Simulation time: 0 hr 7 min 49 sec) 
Heartbeat CPU  0 instructions:  223000002 cycles:  269903748 heartbeat IPC: 0.38623 cumulative IPC: 0.55919 (Simulation time: 0 hr 7 min 52 sec) 
Heartbeat CPU  0 instructions:  224000000 cycles:  272353794 heartbeat IPC: 0.40815 cumulative IPC: 0.55752 (Simulation time: 0 hr 7 min 55 sec) 
Heartbeat CPU  0 instructions:  225000000 cycles:  274457722 heartbeat IPC: 0.47530 cumulative IPC: 0.55675 (Simulation time: 0 hr 7 min 58 sec) 
Heartbeat CPU  0 instructions:  226000003 cycles:  276538043 heartbeat IPC: 0.48070 cumulative IPC: 0.55605 (Simulation time: 0 hr 8 min 1 sec) 
Heartbeat CPU  0 instructions:  227000001 cycles:  278596568 heartbeat IPC: 0.48578 cumulative IPC: 0.55542 (Simulation time: 0 hr 8 min 4 sec) 
Heartbeat CPU  0 instructions:  228000000 cycles:  280671664 heartbeat IPC: 0.48190 cumulative IPC: 0.55476 (Simulation time: 0 hr 8 min 6 sec) 
Heartbeat CPU  0 instructions:  229000000 cycles:  282673773 heartbeat IPC: 0.49947 cumulative IPC: 0.55428 (Simulation time: 0 hr 8 min 9 sec) 
Heartbeat CPU  0 instructions:  230000000 cycles:  284690167 heartbeat IPC: 0.49593 cumulative IPC: 0.55378 (Simulation time: 0 hr 8 min 12 sec) 
Heartbeat CPU  0 instructions:  231000000 cycles:  286755973 heartbeat IPC: 0.48407 cumulative IPC: 0.55317 (Simulation time: 0 hr 8 min 14 sec) 
Heartbeat CPU  0 instructions:  232000000 cycles:  288812125 heartbeat IPC: 0.48635 cumulative IPC: 0.55260 (Simulation time: 0 hr 8 min 17 sec) 
Heartbeat CPU  0 instructions:  233000000 cycles:  290857578 heartbeat IPC: 0.48889 cumulative IPC: 0.55206 (Simulation time: 0 hr 8 min 20 sec) 
Heartbeat CPU  0 instructions:  234000000 cycles:  292930358 heartbeat IPC: 0.48244 cumulative IPC: 0.55146 (Simulation time: 0 hr 8 min 23 sec) 
Heartbeat CPU  0 instructions:  235000003 cycles:  294976893 heartbeat IPC: 0.48863 cumulative IPC: 0.55094 (Simulation time: 0 hr 8 min 25 sec) 
Heartbeat CPU  0 instructions:  236000000 cycles:  297043651 heartbeat IPC: 0.48385 cumulative IPC: 0.55038 (Simulation time: 0 hr 8 min 28 sec) 
Heartbeat CPU  0 instructions:  237000000 cycles:  299105421 heartbeat IPC: 0.48502 cumulative IPC: 0.54984 (Simulation time: 0 hr 8 min 31 sec) 
Heartbeat CPU  0 instructions:  238000002 cycles:  301161924 heartbeat IPC: 0.48626 cumulative IPC: 0.54932 (Simulation time: 0 hr 8 min 34 sec) 
Heartbeat CPU  0 instructions:  239000000 cycles:  303233440 heartbeat IPC: 0.48274 cumulative IPC: 0.54877 (Simulation time: 0 hr 8 min 36 sec) 
Heartbeat CPU  0 instructions:  240000000 cycles:  305302156 heartbeat IPC: 0.48339 cumulative IPC: 0.54824 (Simulation time: 0 hr 8 min 39 sec) 
Heartbeat CPU  0 instructions:  241000002 cycles:  307377801 heartbeat IPC: 0.48178 cumulative IPC: 0.54771 (Simulation time: 0 hr 8 min 42 sec) 
Heartbeat CPU  0 instructions:  242000002 cycles:  309457416 heartbeat IPC: 0.48086 cumulative IPC: 0.54717 (Simulation time: 0 hr 8 min 45 sec) 
Heartbeat CPU  0 instructions:  243000001 cycles:  311539108 heartbeat IPC: 0.48038 cumulative IPC: 0.54664 (Simulation time: 0 hr 8 min 47 sec) 
Heartbeat CPU  0 instructions:  244000000 cycles:  313661873 heartbeat IPC: 0.47108 cumulative IPC: 0.54603 (Simulation time: 0 hr 8 min 50 sec) 
Heartbeat CPU  0 instructions:  245000002 cycles:  315728556 heartbeat IPC: 0.48387 cumulative IPC: 0.54555 (Simulation time: 0 hr 8 min 53 sec) 
Heartbeat CPU  0 instructions:  246000003 cycles:  317813137 heartbeat IPC: 0.47971 cumulative IPC: 0.54504 (Simulation time: 0 hr 8 min 56 sec) 
Heartbeat CPU  0 instructions:  247000002 cycles:  319934594 heartbeat IPC: 0.47137 cumulative IPC: 0.54446 (Simulation time: 0 hr 8 min 59 sec) 
Heartbeat CPU  0 instructions:  248000000 cycles:  322063117 heartbeat IPC: 0.46981 cumulative IPC: 0.54387 (Simulation time: 0 hr 9 min 1 sec) 
Heartbeat CPU  0 instructions:  249000000 cycles:  324177194 heartbeat IPC: 0.47302 cumulative IPC: 0.54333 (Simulation time: 0 hr 9 min 4 sec) 
Heartbeat CPU  0 instructions:  250000000 cycles:  326268852 heartbeat IPC: 0.47809 cumulative IPC: 0.54283 (Simulation time: 0 hr 9 min 7 sec) 
Heartbeat CPU  0 instructions:  251000002 cycles:  328391174 heartbeat IPC: 0.47118 cumulative IPC: 0.54229 (Simulation time: 0 hr 9 min 10 sec) 
Heartbeat CPU  0 instructions:  252000000 cycles:  330516060 heartbeat IPC: 0.47061 cumulative IPC: 0.54174 (Simulation time: 0 hr 9 min 13 sec) 
Heartbeat CPU  0 instructions:  253000001 cycles:  332635473 heartbeat IPC: 0.47183 cumulative IPC: 0.54122 (Simulation time: 0 hr 9 min 15 sec) 
Heartbeat CPU  0 instructions:  254000002 cycles:  334716932 heartbeat IPC: 0.48043 cumulative IPC: 0.54078 (Simulation time: 0 hr 9 min 18 sec) 
Heartbeat CPU  0 instructions:  255000001 cycles:  336848979 heartbeat IPC: 0.46903 cumulative IPC: 0.54024 (Simulation time: 0 hr 9 min 21 sec) 
Heartbeat CPU  0 instructions:  256000000 cycles:  338964032 heartbeat IPC: 0.47280 cumulative IPC: 0.53975 (Simulation time: 0 hr 9 min 24 sec) 
Heartbeat CPU  0 instructions:  257000001 cycles:  341089744 heartbeat IPC: 0.47043 cumulative IPC: 0.53924 (Simulation time: 0 hr 9 min 27 sec) 
Heartbeat CPU  0 instructions:  258000001 cycles:  343235656 heartbeat IPC: 0.46600 cumulative IPC: 0.53871 (Simulation time: 0 hr 9 min 29 sec) 
Heartbeat CPU  0 instructions:  259000000 cycles:  345309244 heartbeat IPC: 0.48226 cumulative IPC: 0.53831 (Simulation time: 0 hr 9 min 32 sec) 
Heartbeat CPU  0 instructions:  260000000 cycles:  347304254 heartbeat IPC: 0.50125 cumulative IPC: 0.53806 (Simulation time: 0 hr 9 min 35 sec) 
Heartbeat CPU  0 instructions:  261000000 cycles:  349306741 heartbeat IPC: 0.49938 cumulative IPC: 0.53780 (Simulation time: 0 hr 9 min 37 sec) 
Heartbeat CPU  0 instructions:  262000000 cycles:  351302300 heartbeat IPC: 0.50111 cumulative IPC: 0.53756 (Simulation time: 0 hr 9 min 40 sec) 
Heartbeat CPU  0 instructions:  263000001 cycles:  353154558 heartbeat IPC: 0.53988 cumulative IPC: 0.53757 (Simulation time: 0 hr 9 min 43 sec) 
Heartbeat CPU  0 instructions:  264000000 cycles:  354855827 heartbeat IPC: 0.58780 cumulative IPC: 0.53785 (Simulation time: 0 hr 9 min 45 sec) 
Heartbeat CPU  0 instructions:  265000001 cycles:  356539713 heartbeat IPC: 0.59387 cumulative IPC: 0.53816 (Simulation time: 0 hr 9 min 47 sec) 
Heartbeat CPU  0 instructions:  266000001 cycles:  358229304 heartbeat IPC: 0.59186 cumulative IPC: 0.53846 (Simulation time: 0 hr 9 min 50 sec) 
Heartbeat CPU  0 instructions:  267000002 cycles:  359901315 heartbeat IPC: 0.59808 cumulative IPC: 0.53878 (Simulation time: 0 hr 9 min 52 sec) 
Heartbeat CPU  0 instructions:  268000000 cycles:  361333440 heartbeat IPC: 0.69826 cumulative IPC: 0.53951 (Simulation time: 0 hr 9 min 54 sec) 
Heartbeat CPU  0 instructions:  269000001 cycles:  362967083 heartbeat IPC: 0.61213 cumulative IPC: 0.53989 (Simulation time: 0 hr 9 min 56 sec) 
Heartbeat CPU  0 instructions:  270000000 cycles:  364534110 heartbeat IPC: 0.63815 cumulative IPC: 0.54038 (Simulation time: 0 hr 9 min 59 sec) 
Heartbeat CPU  0 instructions:  271000002 cycles:  366068629 heartbeat IPC: 0.65167 cumulative IPC: 0.54092 (Simulation time: 0 hr 10 min 1 sec) 
Heartbeat CPU  0 instructions:  272000000 cycles:  367495783 heartbeat IPC: 0.70069 cumulative IPC: 0.54164 (Simulation time: 0 hr 10 min 3 sec) 
Heartbeat CPU  0 instructions:  273000003 cycles:  368743655 heartbeat IPC: 0.80137 cumulative IPC: 0.54266 (Simulation time: 0 hr 10 min 6 sec) 
Heartbeat CPU  0 instructions:  274000002 cycles:  370054939 heartbeat IPC: 0.76261 cumulative IPC: 0.54356 (Simulation time: 0 hr 10 min 8 sec) 
Heartbeat CPU  0 instructions:  275000000 cycles:  371501921 heartbeat IPC: 0.69109 cumulative IPC: 0.54422 (Simulation time: 0 hr 10 min 10 sec) 
Heartbeat CPU  0 instructions:  276000000 cycles:  372961939 heartbeat IPC: 0.68492 cumulative IPC: 0.54486 (Simulation time: 0 hr 10 min 12 sec) 
Heartbeat CPU  0 instructions:  277000001 cycles:  374402533 heartbeat IPC: 0.69416 cumulative IPC: 0.54552 (Simulation time: 0 hr 10 min 15 sec) 
Heartbeat CPU  0 instructions:  278000001 cycles:  375756152 heartbeat IPC: 0.73876 cumulative IPC: 0.54632 (Simulation time: 0 hr 10 min 17 sec) 
Heartbeat CPU  0 instructions:  279000003 cycles:  377249410 heartbeat IPC: 0.66968 cumulative IPC: 0.54688 (Simulation time: 0 hr 10 min 19 sec) 
Heartbeat CPU  0 instructions:  280000000 cycles:  378896851 heartbeat IPC: 0.60700 cumulative IPC: 0.54719 (Simulation time: 0 hr 10 min 22 sec) 
Heartbeat CPU  0 instructions:  281000000 cycles:  380345681 heartbeat IPC: 0.69021 cumulative IPC: 0.54781 (Simulation time: 0 hr 10 min 24 sec) 
Heartbeat CPU  0 instructions:  282000002 cycles:  381743446 heartbeat IPC: 0.71543 cumulative IPC: 0.54852 (Simulation time: 0 hr 10 min 26 sec) 
Heartbeat CPU  0 instructions:  283000003 cycles:  383072717 heartbeat IPC: 0.75229 cumulative IPC: 0.54933 (Simulation time: 0 hr 10 min 28 sec) 
Heartbeat CPU  0 instructions:  284000000 cycles:  384409072 heartbeat IPC: 0.74830 cumulative IPC: 0.55013 (Simulation time: 0 hr 10 min 31 sec) 
Heartbeat CPU  0 instructions:  285000001 cycles:  385869244 heartbeat IPC: 0.68485 cumulative IPC: 0.55071 (Simulation time: 0 hr 10 min 33 sec) 
Heartbeat CPU  0 instructions:  286000001 cycles:  387376212 heartbeat IPC: 0.66358 cumulative IPC: 0.55122 (Simulation time: 0 hr 10 min 35 sec) 
Heartbeat CPU  0 instructions:  287000003 cycles:  388885587 heartbeat IPC: 0.66253 cumulative IPC: 0.55171 (Simulation time: 0 hr 10 min 38 sec) 
Heartbeat CPU  0 instructions:  288000000 cycles:  390372793 heartbeat IPC: 0.67240 cumulative IPC: 0.55224 (Simulation time: 0 hr 10 min 40 sec) 
Heartbeat CPU  0 instructions:  289000000 cycles:  391940942 heartbeat IPC: 0.63769 cumulative IPC: 0.55263 (Simulation time: 0 hr 10 min 42 sec) 
Heartbeat CPU  0 instructions:  290000003 cycles:  393777393 heartbeat IPC: 0.54453 cumulative IPC: 0.55259 (Simulation time: 0 hr 10 min 45 sec) 
Heartbeat CPU  0 instructions:  291000002 cycles:  395339951 heartbeat IPC: 0.63998 cumulative IPC: 0.55298 (Simulation time: 0 hr 10 min 47 sec) 
Heartbeat CPU  0 instructions:  292000000 cycles:  396847065 heartbeat IPC: 0.66352 cumulative IPC: 0.55346 (Simulation time: 0 hr 10 min 49 sec) 
Heartbeat CPU  0 instructions:  293000003 cycles:  398277115 heartbeat IPC: 0.69928 cumulative IPC: 0.55406 (Simulation time: 0 hr 10 min 51 sec) 
Heartbeat CPU  0 instructions:  294000000 cycles:  399659172 heartbeat IPC: 0.72356 cumulative IPC: 0.55473 (Simulation time: 0 hr 10 min 54 sec) 
Heartbeat CPU  0 instructions:  295000000 cycles:  401115255 heartbeat IPC: 0.68677 cumulative IPC: 0.55528 (Simulation time: 0 hr 10 min 56 sec) 
Heartbeat CPU  0 instructions:  296000000 cycles:  402634163 heartbeat IPC: 0.65837 cumulative IPC: 0.55572 (Simulation time: 0 hr 10 min 58 sec) 
Heartbeat CPU  0 instructions:  297000000 cycles:  404148693 heartbeat IPC: 0.66027 cumulative IPC: 0.55617 (Simulation time: 0 hr 11 min 1 sec) 
Heartbeat CPU  0 instructions:  298000000 cycles:  405672690 heartbeat IPC: 0.65617 cumulative IPC: 0.55660 (Simulation time: 0 hr 11 min 3 sec) 
Heartbeat CPU  0 instructions:  299000002 cycles:  407122584 heartbeat IPC: 0.68971 cumulative IPC: 0.55714 (Simulation time: 0 hr 11 min 5 sec) 
Heartbeat CPU  0 instructions:  300000000 cycles:  408974756 heartbeat IPC: 0.53991 cumulative IPC: 0.55705 (Simulation time: 0 hr 11 min 8 sec) 
Heartbeat CPU  0 instructions:  301000003 cycles:  410678536 heartbeat IPC: 0.58693 cumulative IPC: 0.55719 (Simulation time: 0 hr 11 min 10 sec) 
Heartbeat CPU  0 instructions:  302000002 cycles:  412189588 heartbeat IPC: 0.66179 cumulative IPC: 0.55763 (Simulation time: 0 hr 11 min 13 sec) 
Heartbeat CPU  0 instructions:  303000000 cycles:  413656672 heartbeat IPC: 0.68162 cumulative IPC: 0.55813 (Simulation time: 0 hr 11 min 15 sec) 
Heartbeat CPU  0 instructions:  304000000 cycles:  415098274 heartbeat IPC: 0.69367 cumulative IPC: 0.55866 (Simulation time: 0 hr 11 min 17 sec) 
Heartbeat CPU  0 instructions:  305000000 cycles:  416557362 heartbeat IPC: 0.68536 cumulative IPC: 0.55917 (Simulation time: 0 hr 11 min 19 sec) 
Heartbeat CPU  0 instructions:  306000000 cycles:  418032637 heartbeat IPC: 0.67784 cumulative IPC: 0.55964 (Simulation time: 0 hr 11 min 22 sec) 
Heartbeat CPU  0 instructions:  307000003 cycles:  419511368 heartbeat IPC: 0.67626 cumulative IPC: 0.56011 (Simulation time: 0 hr 11 min 24 sec) 
Heartbeat CPU  0 instructions:  308000000 cycles:  420993649 heartbeat IPC: 0.67463 cumulative IPC: 0.56057 (Simulation time: 0 hr 11 min 26 sec) 
Heartbeat CPU  0 instructions:  309000003 cycles:  422427241 heartbeat IPC: 0.69755 cumulative IPC: 0.56109 (Simulation time: 0 hr 11 min 29 sec) 
Heartbeat CPU  0 instructions:  310000001 cycles:  424118508 heartbeat IPC: 0.59127 cumulative IPC: 0.56123 (Simulation time: 0 hr 11 min 31 sec) 
Heartbeat CPU  0 instructions:  311000000 cycles:  425919810 heartbeat IPC: 0.55515 cumulative IPC: 0.56120 (Simulation time: 0 hr 11 min 33 sec) 
Heartbeat CPU  0 instructions:  312000000 cycles:  427459464 heartbeat IPC: 0.64950 cumulative IPC: 0.56156 (Simulation time: 0 hr 11 min 36 sec) 
Heartbeat CPU  0 instructions:  313000000 cycles:  428944870 heartbeat IPC: 0.67322 cumulative IPC: 0.56200 (Simulation time: 0 hr 11 min 38 sec) 
Heartbeat CPU  0 instructions:  314000003 cycles:  430443275 heartbeat IPC: 0.66738 cumulative IPC: 0.56241 (Simulation time: 0 hr 11 min 40 sec) 
Heartbeat CPU  0 instructions:  315000000 cycles:  431942547 heartbeat IPC: 0.66699 cumulative IPC: 0.56282 (Simulation time: 0 hr 11 min 43 sec) 
Heartbeat CPU  0 instructions:  316000000 cycles:  433459263 heartbeat IPC: 0.65932 cumulative IPC: 0.56321 (Simulation time: 0 hr 11 min 45 sec) 
Heartbeat CPU  0 instructions:  317000000 cycles:  434965519 heartbeat IPC: 0.66390 cumulative IPC: 0.56360 (Simulation time: 0 hr 11 min 47 sec) 
Heartbeat CPU  0 instructions:  318000003 cycles:  436478716 heartbeat IPC: 0.66085 cumulative IPC: 0.56398 (Simulation time: 0 hr 11 min 50 sec) 
Heartbeat CPU  0 instructions:  319000000 cycles:  437993849 heartbeat IPC: 0.66001 cumulative IPC: 0.56436 (Simulation time: 0 hr 11 min 52 sec) 
Heartbeat CPU  0 instructions:  320000000 cycles:  439491606 heartbeat IPC: 0.66767 cumulative IPC: 0.56475 (Simulation time: 0 hr 11 min 54 sec) 
Heartbeat CPU  0 instructions:  321000003 cycles:  441310808 heartbeat IPC: 0.54969 cumulative IPC: 0.56468 (Simulation time: 0 hr 11 min 57 sec) 
Heartbeat CPU  0 instructions:  322000002 cycles:  442963560 heartbeat IPC: 0.60505 cumulative IPC: 0.56485 (Simulation time: 0 hr 11 min 59 sec) 
Heartbeat CPU  0 instructions:  323000002 cycles:  444477968 heartbeat IPC: 0.66032 cumulative IPC: 0.56522 (Simulation time: 0 hr 12 min 1 sec) 
Heartbeat CPU  0 instructions:  324000000 cycles:  445988202 heartbeat IPC: 0.66215 cumulative IPC: 0.56559 (Simulation time: 0 hr 12 min 4 sec) 
Heartbeat CPU  0 instructions:  325000000 cycles:  447493083 heartbeat IPC: 0.66450 cumulative IPC: 0.56596 (Simulation time: 0 hr 12 min 6 sec) 
Heartbeat CPU  0 instructions:  326000002 cycles:  449010336 heartbeat IPC: 0.65909 cumulative IPC: 0.56632 (Simulation time: 0 hr 12 min 8 sec) 
Heartbeat CPU  0 instructions:  327000000 cycles:  450509810 heartbeat IPC: 0.66690 cumulative IPC: 0.56669 (Simulation time: 0 hr 12 min 11 sec) 
Heartbeat CPU  0 instructions:  328000000 cycles:  452007476 heartbeat IPC: 0.66771 cumulative IPC: 0.56707 (Simulation time: 0 hr 12 min 13 sec) 
Heartbeat CPU  0 instructions:  329000003 cycles:  453512607 heartbeat IPC: 0.66440 cumulative IPC: 0.56743 (Simulation time: 0 hr 12 min 15 sec) 
Heartbeat CPU  0 instructions:  330000000 cycles:  454950639 heartbeat IPC: 0.69539 cumulative IPC: 0.56789 (Simulation time: 0 hr 12 min 17 sec) 
Heartbeat CPU  0 instructions:  331000002 cycles:  456703227 heartbeat IPC: 0.57059 cumulative IPC: 0.56790 (Simulation time: 0 hr 12 min 20 sec) 
Heartbeat CPU  0 instructions:  332000000 cycles:  458451459 heartbeat IPC: 0.57201 cumulative IPC: 0.56792 (Simulation time: 0 hr 12 min 22 sec) 
Heartbeat CPU  0 instructions:  333000002 cycles:  459997619 heartbeat IPC: 0.64676 cumulative IPC: 0.56821 (Simulation time: 0 hr 12 min 25 sec) 
Heartbeat CPU  0 instructions:  334000001 cycles:  461511029 heartbeat IPC: 0.66076 cumulative IPC: 0.56855 (Simulation time: 0 hr 12 min 27 sec) 
Heartbeat CPU  0 instructions:  335000003 cycles:  463035985 heartbeat IPC: 0.65576 cumulative IPC: 0.56888 (Simulation time: 0 hr 12 min 29 sec) 
Heartbeat CPU  0 instructions:  336000000 cycles:  464547451 heartbeat IPC: 0.66161 cumulative IPC: 0.56921 (Simulation time: 0 hr 12 min 32 sec) 
Heartbeat CPU  0 instructions:  337000001 cycles:  466039136 heartbeat IPC: 0.67038 cumulative IPC: 0.56958 (Simulation time: 0 hr 12 min 34 sec) 
Heartbeat CPU  0 instructions:  338000000 cycles:  467541723 heartbeat IPC: 0.66552 cumulative IPC: 0.56992 (Simulation time: 0 hr 12 min 36 sec) 
Heartbeat CPU  0 instructions:  339000000 cycles:  469069536 heartbeat IPC: 0.65453 cumulative IPC: 0.57023 (Simulation time: 0 hr 12 min 39 sec) 
Heartbeat CPU  0 instructions:  340000000 cycles:  470580409 heartbeat IPC: 0.66187 cumulative IPC: 0.57056 (Simulation time: 0 hr 12 min 41 sec) 
Heartbeat CPU  0 instructions:  341000003 cycles:  472090251 heartbeat IPC: 0.66232 cumulative IPC: 0.57089 (Simulation time: 0 hr 12 min 43 sec) 
Heartbeat CPU  0 instructions:  342000001 cycles:  473913168 heartbeat IPC: 0.54857 cumulative IPC: 0.57079 (Simulation time: 0 hr 12 min 46 sec) 
Heartbeat CPU  0 instructions:  343000002 cycles:  475497450 heartbeat IPC: 0.63120 cumulative IPC: 0.57102 (Simulation time: 0 hr 12 min 48 sec) 
Heartbeat CPU  0 instructions:  344000000 cycles:  477024573 heartbeat IPC: 0.65482 cumulative IPC: 0.57132 (Simulation time: 0 hr 12 min 50 sec) 
Heartbeat CPU  0 instructions:  345000003 cycles:  478531397 heartbeat IPC: 0.66365 cumulative IPC: 0.57164 (Simulation time: 0 hr 12 min 53 sec) 
Heartbeat CPU  0 instructions:  346000000 cycles:  480031337 heartbeat IPC: 0.66669 cumulative IPC: 0.57197 (Simulation time: 0 hr 12 min 55 sec) 
Heartbeat CPU  0 instructions:  347000000 cycles:  481545946 heartbeat IPC: 0.66024 cumulative IPC: 0.57228 (Simulation time: 0 hr 12 min 57 sec) 
Heartbeat CPU  0 instructions:  348000000 cycles:  483041032 heartbeat IPC: 0.66886 cumulative IPC: 0.57262 (Simulation time: 0 hr 12 min 59 sec) 
Heartbeat CPU  0 instructions:  349000001 cycles:  484556009 heartbeat IPC: 0.66008 cumulative IPC: 0.57292 (Simulation time: 0 hr 13 min 2 sec) 
Heartbeat CPU  0 instructions:  350000002 cycles:  486066642 heartbeat IPC: 0.66197 cumulative IPC: 0.57323 (Simulation time: 0 hr 13 min 4 sec) 
Heartbeat CPU  0 instructions:  351000001 cycles:  487478022 heartbeat IPC: 0.70853 cumulative IPC: 0.57367 (Simulation time: 0 hr 13 min 6 sec) 
Heartbeat CPU  0 instructions:  352000000 cycles:  489241409 heartbeat IPC: 0.56709 cumulative IPC: 0.57364 (Simulation time: 0 hr 13 min 9 sec) 
Heartbeat CPU  0 instructions:  353000002 cycles:  490972702 heartbeat IPC: 0.57760 cumulative IPC: 0.57365 (Simulation time: 0 hr 13 min 11 sec) 
Heartbeat CPU  0 instructions:  354000002 cycles:  492482007 heartbeat IPC: 0.66256 cumulative IPC: 0.57396 (Simulation time: 0 hr 13 min 14 sec) 
Heartbeat CPU  0 instructions:  355000003 cycles:  493972830 heartbeat IPC: 0.67077 cumulative IPC: 0.57428 (Simulation time: 0 hr 13 min 16 sec) 
Heartbeat CPU  0 instructions:  356000000 cycles:  495485154 heartbeat IPC: 0.66123 cumulative IPC: 0.57458 (Simulation time: 0 hr 13 min 18 sec) 
Heartbeat CPU  0 instructions:  357000002 cycles:  496992909 heartbeat IPC: 0.66324 cumulative IPC: 0.57488 (Simulation time: 0 hr 13 min 20 sec) 
Heartbeat CPU  0 instructions:  358000003 cycles:  498503572 heartbeat IPC: 0.66196 cumulative IPC: 0.57517 (Simulation time: 0 hr 13 min 23 sec) 
Heartbeat CPU  0 instructions:  359000001 cycles:  499993678 heartbeat IPC: 0.67109 cumulative IPC: 0.57549 (Simulation time: 0 hr 13 min 25 sec) 
Heartbeat CPU  0 instructions:  360000000 cycles:  501501431 heartbeat IPC: 0.66324 cumulative IPC: 0.57578 (Simulation time: 0 hr 13 min 27 sec) 
Heartbeat CPU  0 instructions:  361000003 cycles:  502990411 heartbeat IPC: 0.67160 cumulative IPC: 0.57610 (Simulation time: 0 hr 13 min 30 sec) 
Heartbeat CPU  0 instructions:  362000000 cycles:  504548235 heartbeat IPC: 0.64192 cumulative IPC: 0.57632 (Simulation time: 0 hr 13 min 32 sec) 
Heartbeat CPU  0 instructions:  363000000 cycles:  506335949 heartbeat IPC: 0.55937 cumulative IPC: 0.57626 (Simulation time: 0 hr 13 min 34 sec) 
Heartbeat CPU  0 instructions:  364000000 cycles:  507912108 heartbeat IPC: 0.63445 cumulative IPC: 0.57646 (Simulation time: 0 hr 13 min 37 sec) 
Heartbeat CPU  0 instructions:  365000000 cycles:  509415421 heartbeat IPC: 0.66520 cumulative IPC: 0.57675 (Simulation time: 0 hr 13 min 39 sec) 
Heartbeat CPU  0 instructions:  366000001 cycles:  510932237 heartbeat IPC: 0.65928 cumulative IPC: 0.57702 (Simulation time: 0 hr 13 min 41 sec) 
Heartbeat CPU  0 instructions:  367000002 cycles:  512434675 heartbeat IPC: 0.66559 cumulative IPC: 0.57731 (Simulation time: 0 hr 13 min 44 sec) 
Heartbeat CPU  0 instructions:  368000000 cycles:  513957622 heartbeat IPC: 0.65662 cumulative IPC: 0.57757 (Simulation time: 0 hr 13 min 46 sec) 
Heartbeat CPU  0 instructions:  369000001 cycles:  515467974 heartbeat IPC: 0.66210 cumulative IPC: 0.57784 (Simulation time: 0 hr 13 min 48 sec) 
Heartbeat CPU  0 instructions:  370000002 cycles:  516975268 heartbeat IPC: 0.66344 cumulative IPC: 0.57812 (Simulation time: 0 hr 13 min 51 sec) 
Heartbeat CPU  0 instructions:  371000000 cycles:  518493529 heartbeat IPC: 0.65865 cumulative IPC: 0.57838 (Simulation time: 0 hr 13 min 53 sec) 
Heartbeat CPU  0 instructions:  372000000 cycles:  519932174 heartbeat IPC: 0.69510 cumulative IPC: 0.57873 (Simulation time: 0 hr 13 min 55 sec) 
Heartbeat CPU  0 instructions:  373000003 cycles:  521709569 heartbeat IPC: 0.56262 cumulative IPC: 0.57867 (Simulation time: 0 hr 13 min 57 sec) 
Heartbeat CPU  0 instructions:  374000003 cycles:  523408931 heartbeat IPC: 0.58846 cumulative IPC: 0.57871 (Simulation time: 0 hr 14 min 0 sec) 
Heartbeat CPU  0 instructions:  375000001 cycles:  524938878 heartbeat IPC: 0.65362 cumulative IPC: 0.57895 (Simulation time: 0 hr 14 min 2 sec) 
Heartbeat CPU  0 instructions:  376000000 cycles:  526439626 heartbeat IPC: 0.66633 cumulative IPC: 0.57923 (Simulation time: 0 hr 14 min 5 sec) 
Heartbeat CPU  0 instructions:  377000001 cycles:  527956984 heartbeat IPC: 0.65904 cumulative IPC: 0.57948 (Simulation time: 0 hr 14 min 7 sec) 
Heartbeat CPU  0 instructions:  378000002 cycles:  529479611 heartbeat IPC: 0.65676 cumulative IPC: 0.57972 (Simulation time: 0 hr 14 min 9 sec) 
Heartbeat CPU  0 instructions:  379000001 cycles:  530988147 heartbeat IPC: 0.66289 cumulative IPC: 0.57998 (Simulation time: 0 hr 14 min 12 sec) 
Heartbeat CPU  0 instructions:  380000000 cycles:  532499046 heartbeat IPC: 0.66186 cumulative IPC: 0.58024 (Simulation time: 0 hr 14 min 14 sec) 
Heartbeat CPU  0 instructions:  381000000 cycles:  533994600 heartbeat IPC: 0.66865 cumulative IPC: 0.58051 (Simulation time: 0 hr 14 min 16 sec) 
Heartbeat CPU  0 instructions:  382000003 cycles:  535477295 heartbeat IPC: 0.67445 cumulative IPC: 0.58080 (Simulation time: 0 hr 14 min 18 sec) 
Heartbeat CPU  0 instructions:  383000001 cycles:  537110883 heartbeat IPC: 0.61215 cumulative IPC: 0.58091 (Simulation time: 0 hr 14 min 21 sec) 
Heartbeat CPU  0 instructions:  384000000 cycles:  538921694 heartbeat IPC: 0.55224 cumulative IPC: 0.58080 (Simulation time: 0 hr 14 min 23 sec) 
Heartbeat CPU  0 instructions:  385000000 cycles:  540489237 heartbeat IPC: 0.63794 cumulative IPC: 0.58098 (Simulation time: 0 hr 14 min 26 sec) 
Heartbeat CPU  0 instructions:  386000001 cycles:  541994059 heartbeat IPC: 0.66453 cumulative IPC: 0.58124 (Simulation time: 0 hr 14 min 28 sec) 
Heartbeat CPU  0 instructions:  387000000 cycles:  543523152 heartbeat IPC: 0.65398 cumulative IPC: 0.58146 (Simulation time: 0 hr 14 min 30 sec) 
Heartbeat CPU  0 instructions:  388000000 cycles:  545043514 heartbeat IPC: 0.65774 cumulative IPC: 0.58170 (Simulation time: 0 hr 14 min 33 sec) 
Heartbeat CPU  0 instructions:  389000001 cycles:  546546006 heartbeat IPC: 0.66556 cumulative IPC: 0.58195 (Simulation time: 0 hr 14 min 35 sec) 
Heartbeat CPU  0 instructions:  390000000 cycles:  548056548 heartbeat IPC: 0.66201 cumulative IPC: 0.58219 (Simulation time: 0 hr 14 min 37 sec) 
Heartbeat CPU  0 instructions:  391000002 cycles:  549574158 heartbeat IPC: 0.65893 cumulative IPC: 0.58243 (Simulation time: 0 hr 14 min 40 sec) 
Heartbeat CPU  0 instructions:  392000000 cycles:  551104027 heartbeat IPC: 0.65365 cumulative IPC: 0.58264 (Simulation time: 0 hr 14 min 42 sec) 
Heartbeat CPU  0 instructions:  393000002 cycles:  552586853 heartbeat IPC: 0.67439 cumulative IPC: 0.58292 (Simulation time: 0 hr 14 min 44 sec) 
Heartbeat CPU  0 instructions:  394000000 cycles:  554384021 heartbeat IPC: 0.55643 cumulative IPC: 0.58282 (Simulation time: 0 hr 14 min 46 sec) 
Heartbeat CPU  0 instructions:  395000002 cycles:  556079528 heartbeat IPC: 0.58980 cumulative IPC: 0.58284 (Simulation time: 0 hr 14 min 49 sec) 
Heartbeat CPU  0 instructions:  396000000 cycles:  557603163 heartbeat IPC: 0.65632 cumulative IPC: 0.58306 (Simulation time: 0 hr 14 min 51 sec) 
Heartbeat CPU  0 instructions:  397000003 cycles:  559102582 heartbeat IPC: 0.66693 cumulative IPC: 0.58331 (Simulation time: 0 hr 14 min 54 sec) 
Heartbeat CPU  0 instructions:  398000001 cycles:  560608204 heartbeat IPC: 0.66418 cumulative IPC: 0.58355 (Simulation time: 0 hr 14 min 56 sec) 
Heartbeat CPU  0 instructions:  399000000 cycles:  562121170 heartbeat IPC: 0.66095 cumulative IPC: 0.58378 (Simulation time: 0 hr 14 min 58 sec) 
Heartbeat CPU  0 instructions:  400000000 cycles:  563650648 heartbeat IPC: 0.65382 cumulative IPC: 0.58399 (Simulation time: 0 hr 15 min 1 sec) 
Heartbeat CPU  0 instructions:  401000002 cycles:  565160848 heartbeat IPC: 0.66217 cumulative IPC: 0.58422 (Simulation time: 0 hr 15 min 3 sec) 
Heartbeat CPU  0 instructions:  402000000 cycles:  566697952 heartbeat IPC: 0.65057 cumulative IPC: 0.58441 (Simulation time: 0 hr 15 min 5 sec) 
Heartbeat CPU  0 instructions:  403000000 cycles:  568159664 heartbeat IPC: 0.68413 cumulative IPC: 0.58470 (Simulation time: 0 hr 15 min 8 sec) 
Heartbeat CPU  0 instructions:  404000000 cycles:  569853432 heartbeat IPC: 0.59040 cumulative IPC: 0.58471 (Simulation time: 0 hr 15 min 10 sec) 
Heartbeat CPU  0 instructions:  405000003 cycles:  572273916 heartbeat IPC: 0.41314 cumulative IPC: 0.58392 (Simulation time: 0 hr 15 min 13 sec) 
Heartbeat CPU  0 instructions:  406000003 cycles:  574327698 heartbeat IPC: 0.48691 cumulative IPC: 0.58354 (Simulation time: 0 hr 15 min 15 sec) 
Heartbeat CPU  0 instructions:  407000000 cycles:  576043893 heartbeat IPC: 0.58268 cumulative IPC: 0.58354 (Simulation time: 0 hr 15 min 18 sec) 
Heartbeat CPU  0 instructions:  408000000 cycles:  577746112 heartbeat IPC: 0.58747 cumulative IPC: 0.58355 (Simulation time: 0 hr 15 min 20 sec) 
Heartbeat CPU  0 instructions:  409000003 cycles:  579451065 heartbeat IPC: 0.58653 cumulative IPC: 0.58356 (Simulation time: 0 hr 15 min 23 sec) 
Heartbeat CPU  0 instructions:  410000002 cycles:  581209803 heartbeat IPC: 0.56859 cumulative IPC: 0.58351 (Simulation time: 0 hr 15 min 25 sec) 
Heartbeat CPU  0 instructions:  411000000 cycles:  582956692 heartbeat IPC: 0.57245 cumulative IPC: 0.58347 (Simulation time: 0 hr 15 min 28 sec) 
Heartbeat CPU  0 instructions:  412000000 cycles:  584714136 heartbeat IPC: 0.56901 cumulative IPC: 0.58342 (Simulation time: 0 hr 15 min 30 sec) 
Heartbeat CPU  0 instructions:  413000001 cycles:  586444120 heartbeat IPC: 0.57804 cumulative IPC: 0.58341 (Simulation time: 0 hr 15 min 33 sec) 
Heartbeat CPU  0 instructions:  414000000 cycles:  588148760 heartbeat IPC: 0.58663 cumulative IPC: 0.58342 (Simulation time: 0 hr 15 min 36 sec) 
Heartbeat CPU  0 instructions:  415000003 cycles:  589829130 heartbeat IPC: 0.59511 cumulative IPC: 0.58345 (Simulation time: 0 hr 15 min 38 sec) 
Heartbeat CPU  0 instructions:  416000000 cycles:  592298218 heartbeat IPC: 0.40501 cumulative IPC: 0.58264 (Simulation time: 0 hr 15 min 41 sec) 
Heartbeat CPU  0 instructions:  417000001 cycles:  593965748 heartbeat IPC: 0.59969 cumulative IPC: 0.58269 (Simulation time: 0 hr 15 min 43 sec) 
Heartbeat CPU  0 instructions:  418000003 cycles:  595635642 heartbeat IPC: 0.59884 cumulative IPC: 0.58274 (Simulation time: 0 hr 15 min 46 sec) 
Heartbeat CPU  0 instructions:  419000002 cycles:  597292390 heartbeat IPC: 0.60359 cumulative IPC: 0.58281 (Simulation time: 0 hr 15 min 48 sec) 
Heartbeat CPU  0 instructions:  420000000 cycles:  598953380 heartbeat IPC: 0.60205 cumulative IPC: 0.58286 (Simulation time: 0 hr 15 min 51 sec) 
Heartbeat CPU  0 instructions:  421000003 cycles:  600616197 heartbeat IPC: 0.60139 cumulative IPC: 0.58292 (Simulation time: 0 hr 15 min 53 sec) 
Heartbeat CPU  0 instructions:  422000003 cycles:  602279707 heartbeat IPC: 0.60114 cumulative IPC: 0.58298 (Simulation time: 0 hr 15 min 56 sec) 
Heartbeat CPU  0 instructions:  423000002 cycles:  603946803 heartbeat IPC: 0.59984 cumulative IPC: 0.58303 (Simulation time: 0 hr 15 min 58 sec) 
Heartbeat CPU  0 instructions:  424000000 cycles:  605608482 heartbeat IPC: 0.60180 cumulative IPC: 0.58308 (Simulation time: 0 hr 16 min 1 sec) 
Heartbeat CPU  0 instructions:  425000003 cycles:  607278213 heartbeat IPC: 0.59890 cumulative IPC: 0.58313 (Simulation time: 0 hr 16 min 3 sec) 
Heartbeat CPU  0 instructions:  426000001 cycles:  609544977 heartbeat IPC: 0.44116 cumulative IPC: 0.58255 (Simulation time: 0 hr 16 min 6 sec) 
Heartbeat CPU  0 instructions:  427000003 cycles:  611374406 heartbeat IPC: 0.54662 cumulative IPC: 0.58244 (Simulation time: 0 hr 16 min 8 sec) 
Heartbeat CPU  0 instructions:  428000000 cycles:  613039227 heartbeat IPC: 0.60066 cumulative IPC: 0.58249 (Simulation time: 0 hr 16 min 11 sec) 
Heartbeat CPU  0 instructions:  429000000 cycles:  614711704 heartbeat IPC: 0.59792 cumulative IPC: 0.58254 (Simulation time: 0 hr 16 min 13 sec) 
Heartbeat CPU  0 instructions:  430000003 cycles:  616380613 heartbeat IPC: 0.59920 cumulative IPC: 0.58259 (Simulation time: 0 hr 16 min 16 sec) 
Heartbeat CPU  0 instructions:  431000002 cycles:  618044432 heartbeat IPC: 0.60103 cumulative IPC: 0.58264 (Simulation time: 0 hr 16 min 18 sec) 
Heartbeat CPU  0 instructions:  432000000 cycles:  619715765 heartbeat IPC: 0.59832 cumulative IPC: 0.58269 (Simulation time: 0 hr 16 min 21 sec) 
Heartbeat CPU  0 instructions:  433000001 cycles:  621386549 heartbeat IPC: 0.59852 cumulative IPC: 0.58273 (Simulation time: 0 hr 16 min 23 sec) 
Heartbeat CPU  0 instructions:  434000001 cycles:  623062577 heartbeat IPC: 0.59665 cumulative IPC: 0.58277 (Simulation time: 0 hr 16 min 26 sec) 
Heartbeat CPU  0 instructions:  435000002 cycles:  624731245 heartbeat IPC: 0.59928 cumulative IPC: 0.58282 (Simulation time: 0 hr 16 min 28 sec) 
Heartbeat CPU  0 instructions:  436000000 cycles:  626516372 heartbeat IPC: 0.56018 cumulative IPC: 0.58275 (Simulation time: 0 hr 16 min 31 sec) 
Heartbeat CPU  0 instructions:  437000001 cycles:  628836978 heartbeat IPC: 0.43092 cumulative IPC: 0.58214 (Simulation time: 0 hr 16 min 33 sec) 
Heartbeat CPU  0 instructions:  438000003 cycles:  630502345 heartbeat IPC: 0.60047 cumulative IPC: 0.58220 (Simulation time: 0 hr 16 min 36 sec) 
Heartbeat CPU  0 instructions:  439000003 cycles:  632170493 heartbeat IPC: 0.59947 cumulative IPC: 0.58224 (Simulation time: 0 hr 16 min 38 sec) 
Heartbeat CPU  0 instructions:  440000000 cycles:  633829115 heartbeat IPC: 0.60291 cumulative IPC: 0.58230 (Simulation time: 0 hr 16 min 41 sec) 
Heartbeat CPU  0 instructions:  441000000 cycles:  635500442 heartbeat IPC: 0.59833 cumulative IPC: 0.58235 (Simulation time: 0 hr 16 min 43 sec) 
Heartbeat CPU  0 instructions:  442000003 cycles:  637211460 heartbeat IPC: 0.58445 cumulative IPC: 0.58236 (Simulation time: 0 hr 16 min 46 sec) 
Heartbeat CPU  0 instructions:  443000003 cycles:  638879159 heartbeat IPC: 0.59963 cumulative IPC: 0.58240 (Simulation time: 0 hr 16 min 48 sec) 
Heartbeat CPU  0 instructions:  444000000 cycles:  640548279 heartbeat IPC: 0.59912 cumulative IPC: 0.58245 (Simulation time: 0 hr 16 min 51 sec) 
Heartbeat CPU  0 instructions:  445000000 cycles:  642211338 heartbeat IPC: 0.60130 cumulative IPC: 0.58250 (Simulation time: 0 hr 16 min 53 sec) 
Heartbeat CPU  0 instructions:  446000001 cycles:  643887941 heartbeat IPC: 0.59644 cumulative IPC: 0.58254 (Simulation time: 0 hr 16 min 56 sec) 
Heartbeat CPU  0 instructions:  447000000 cycles:  646263816 heartbeat IPC: 0.42090 cumulative IPC: 0.58190 (Simulation time: 0 hr 16 min 58 sec) 
Heartbeat CPU  0 instructions:  448000000 cycles:  647983174 heartbeat IPC: 0.58161 cumulative IPC: 0.58190 (Simulation time: 0 hr 17 min 1 sec) 
Heartbeat CPU  0 instructions:  449000002 cycles:  649648735 heartbeat IPC: 0.60040 cumulative IPC: 0.58195 (Simulation time: 0 hr 17 min 3 sec) 
Heartbeat CPU  0 instructions:  450000000 cycles:  651314185 heartbeat IPC: 0.60044 cumulative IPC: 0.58200 (Simulation time: 0 hr 17 min 6 sec) 
Heartbeat CPU  0 instructions:  451000003 cycles:  652980850 heartbeat IPC: 0.60000 cumulative IPC: 0.58205 (Simulation time: 0 hr 17 min 8 sec) 
Heartbeat CPU  0 instructions:  452000000 cycles:  654648149 heartbeat IPC: 0.59977 cumulative IPC: 0.58210 (Simulation time: 0 hr 17 min 11 sec) 
Heartbeat CPU  0 instructions:  453000002 cycles:  656308556 heartbeat IPC: 0.60226 cumulative IPC: 0.58216 (Simulation time: 0 hr 17 min 13 sec) 
Heartbeat CPU  0 instructions:  454000003 cycles:  657972265 heartbeat IPC: 0.60107 cumulative IPC: 0.58221 (Simulation time: 0 hr 17 min 16 sec) 
Heartbeat CPU  0 instructions:  455000001 cycles:  659634998 heartbeat IPC: 0.60142 cumulative IPC: 0.58226 (Simulation time: 0 hr 17 min 18 sec) 
Heartbeat CPU  0 instructions:  456000000 cycles:  661302253 heartbeat IPC: 0.59979 cumulative IPC: 0.58231 (Simulation time: 0 hr 17 min 21 sec) 
Heartbeat CPU  0 instructions:  457000002 cycles:  663215693 heartbeat IPC: 0.52262 cumulative IPC: 0.58212 (Simulation time: 0 hr 17 min 23 sec) 
Heartbeat CPU  0 instructions:  458000002 cycles:  666035605 heartbeat IPC: 0.35462 cumulative IPC: 0.58108 (Simulation time: 0 hr 17 min 26 sec) 
Heartbeat CPU  0 instructions:  459000002 cycles:  668757867 heartbeat IPC: 0.36734 cumulative IPC: 0.58014 (Simulation time: 0 hr 17 min 29 sec) 
Heartbeat CPU  0 instructions:  460000000 cycles:  671354002 heartbeat IPC: 0.38519 cumulative IPC: 0.57932 (Simulation time: 0 hr 17 min 31 sec) 
Heartbeat CPU  0 instructions:  461000002 cycles:  673947998 heartbeat IPC: 0.38551 cumulative IPC: 0.57852 (Simulation time: 0 hr 17 min 34 sec) 
Heartbeat CPU  0 instructions:  462000002 cycles:  676546815 heartbeat IPC: 0.38479 cumulative IPC: 0.57772 (Simulation time: 0 hr 17 min 37 sec) 
Heartbeat CPU  0 instructions:  463000002 cycles:  679131869 heartbeat IPC: 0.38684 cumulative IPC: 0.57693 (Simulation time: 0 hr 17 min 39 sec) 
Heartbeat CPU  0 instructions:  464000000 cycles:  681735539 heartbeat IPC: 0.38407 cumulative IPC: 0.57614 (Simulation time: 0 hr 17 min 42 sec) 
Heartbeat CPU  0 instructions:  465000000 cycles:  684470368 heartbeat IPC: 0.36565 cumulative IPC: 0.57523 (Simulation time: 0 hr 17 min 45 sec) 
Heartbeat CPU  0 instructions:  466000001 cycles:  687406978 heartbeat IPC: 0.34053 cumulative IPC: 0.57415 (Simulation time: 0 hr 17 min 48 sec) 
Heartbeat CPU  0 instructions:  467000000 cycles:  690033157 heartbeat IPC: 0.38078 cumulative IPC: 0.57335 (Simulation time: 0 hr 17 min 50 sec) 
Heartbeat CPU  0 instructions:  468000000 cycles:  692646414 heartbeat IPC: 0.38266 cumulative IPC: 0.57258 (Simulation time: 0 hr 17 min 53 sec) 
Heartbeat CPU  0 instructions:  469000003 cycles:  695220996 heartbeat IPC: 0.38841 cumulative IPC: 0.57184 (Simulation time: 0 hr 17 min 55 sec) 
Heartbeat CPU  0 instructions:  470000001 cycles:  697781823 heartbeat IPC: 0.39050 cumulative IPC: 0.57113 (Simulation time: 0 hr 17 min 58 sec) 
Heartbeat CPU  0 instructions:  471000003 cycles:  700318165 heartbeat IPC: 0.39427 cumulative IPC: 0.57044 (Simulation time: 0 hr 18 min 1 sec) 
Heartbeat CPU  0 instructions:  472000000 cycles:  702918987 heartbeat IPC: 0.38449 cumulative IPC: 0.56970 (Simulation time: 0 hr 18 min 3 sec) 
Heartbeat CPU  0 instructions:  473000000 cycles:  705822716 heartbeat IPC: 0.34438 cumulative IPC: 0.56870 (Simulation time: 0 hr 18 min 6 sec) 
Heartbeat CPU  0 instructions:  474000000 cycles:  708736256 heartbeat IPC: 0.34323 cumulative IPC: 0.56770 (Simulation time: 0 hr 18 min 9 sec) 
Heartbeat CPU  0 instructions:  475000002 cycles:  711413312 heartbeat IPC: 0.37355 cumulative IPC: 0.56692 (Simulation time: 0 hr 18 min 11 sec) 
Heartbeat CPU  0 instructions:  476000000 cycles:  714062519 heartbeat IPC: 0.37747 cumulative IPC: 0.56616 (Simulation time: 0 hr 18 min 14 sec) 
Heartbeat CPU  0 instructions:  477000002 cycles:  716677287 heartbeat IPC: 0.38244 cumulative IPC: 0.56544 (Simulation time: 0 hr 18 min 17 sec) 
Heartbeat CPU  0 instructions:  478000002 cycles:  719287466 heartbeat IPC: 0.38312 cumulative IPC: 0.56473 (Simulation time: 0 hr 18 min 19 sec) 
Heartbeat CPU  0 instructions:  479000002 cycles:  721825350 heartbeat IPC: 0.39403 cumulative IPC: 0.56409 (Simulation time: 0 hr 18 min 22 sec) 
Heartbeat CPU  0 instructions:  480000000 cycles:  724102155 heartbeat IPC: 0.43921 cumulative IPC: 0.56366 (Simulation time: 0 hr 18 min 25 sec) 
Heartbeat CPU  0 instructions:  481000002 cycles:  726450456 heartbeat IPC: 0.42584 cumulative IPC: 0.56318 (Simulation time: 0 hr 18 min 28 sec) 
Heartbeat CPU  0 instructions:  482000003 cycles:  728905839 heartbeat IPC: 0.40727 cumulative IPC: 0.56262 (Simulation time: 0 hr 18 min 31 sec) 
Heartbeat CPU  0 instructions:  483000000 cycles:  731069573 heartbeat IPC: 0.46216 cumulative IPC: 0.56230 (Simulation time: 0 hr 18 min 34 sec) 
Heartbeat CPU  0 instructions:  484000000 cycles:  733127820 heartbeat IPC: 0.48585 cumulative IPC: 0.56207 (Simulation time: 0 hr 18 min 37 sec) 
Heartbeat CPU  0 instructions:  485000003 cycles:  735139720 heartbeat IPC: 0.49704 cumulative IPC: 0.56188 (Simulation time: 0 hr 18 min 40 sec) 
Heartbeat CPU  0 instructions:  486000003 cycles:  737157216 heartbeat IPC: 0.49566 cumulative IPC: 0.56169 (Simulation time: 0 hr 18 min 42 sec) 
Heartbeat CPU  0 instructions:  487000000 cycles:  739204258 heartbeat IPC: 0.48851 cumulative IPC: 0.56147 (Simulation time: 0 hr 18 min 45 sec) 
Heartbeat CPU  0 instructions:  488000000 cycles:  741251493 heartbeat IPC: 0.48846 cumulative IPC: 0.56125 (Simulation time: 0 hr 18 min 48 sec) 
Heartbeat CPU  0 instructions:  489000000 cycles:  743288549 heartbeat IPC: 0.49090 cumulative IPC: 0.56105 (Simulation time: 0 hr 18 min 50 sec) 
Heartbeat CPU  0 instructions:  490000000 cycles:  745350675 heartbeat IPC: 0.48494 cumulative IPC: 0.56082 (Simulation time: 0 hr 18 min 53 sec) 
Heartbeat CPU  0 instructions:  491000001 cycles:  747412592 heartbeat IPC: 0.48499 cumulative IPC: 0.56060 (Simulation time: 0 hr 18 min 56 sec) 
Heartbeat CPU  0 instructions:  492000000 cycles:  749477718 heartbeat IPC: 0.48423 cumulative IPC: 0.56037 (Simulation time: 0 hr 18 min 59 sec) 
Heartbeat CPU  0 instructions:  493000001 cycles:  751549940 heartbeat IPC: 0.48257 cumulative IPC: 0.56014 (Simulation time: 0 hr 19 min 1 sec) 
Heartbeat CPU  0 instructions:  494000000 cycles:  753578729 heartbeat IPC: 0.49290 cumulative IPC: 0.55995 (Simulation time: 0 hr 19 min 4 sec) 
Heartbeat CPU  0 instructions:  495000001 cycles:  755651474 heartbeat IPC: 0.48245 cumulative IPC: 0.55972 (Simulation time: 0 hr 19 min 7 sec) 
Heartbeat CPU  0 instructions:  496000000 cycles:  757712931 heartbeat IPC: 0.48509 cumulative IPC: 0.55950 (Simulation time: 0 hr 19 min 10 sec) 
Heartbeat CPU  0 instructions:  497000001 cycles:  759777160 heartbeat IPC: 0.48444 cumulative IPC: 0.55928 (Simulation time: 0 hr 19 min 12 sec) 
Heartbeat CPU  0 instructions:  498000000 cycles:  761840488 heartbeat IPC: 0.48465 cumulative IPC: 0.55907 (Simulation time: 0 hr 19 min 15 sec) 
Heartbeat CPU  0 instructions:  499000002 cycles:  763930533 heartbeat IPC: 0.47846 cumulative IPC: 0.55883 (Simulation time: 0 hr 19 min 18 sec) 
Heartbeat CPU  0 instructions:  500000000 cycles:  766025216 heartbeat IPC: 0.47740 cumulative IPC: 0.55859 (Simulation time: 0 hr 19 min 21 sec) 
Heartbeat CPU  0 instructions:  501000002 cycles:  768106784 heartbeat IPC: 0.48041 cumulative IPC: 0.55837 (Simulation time: 0 hr 19 min 23 sec) 
Heartbeat CPU  0 instructions:  502000003 cycles:  770173431 heartbeat IPC: 0.48388 cumulative IPC: 0.55815 (Simulation time: 0 hr 19 min 26 sec) 
Heartbeat CPU  0 instructions:  503000000 cycles:  772271917 heartbeat IPC: 0.47653 cumulative IPC: 0.55792 (Simulation time: 0 hr 19 min 29 sec) 
Heartbeat CPU  0 instructions:  504000000 cycles:  774381233 heartbeat IPC: 0.47409 cumulative IPC: 0.55767 (Simulation time: 0 hr 19 min 32 sec) 
Heartbeat CPU  0 instructions:  505000001 cycles:  776503796 heartbeat IPC: 0.47113 cumulative IPC: 0.55742 (Simulation time: 0 hr 19 min 34 sec) 
Heartbeat CPU  0 instructions:  506000000 cycles:  778600885 heartbeat IPC: 0.47685 cumulative IPC: 0.55719 (Simulation time: 0 hr 19 min 37 sec) 
Heartbeat CPU  0 instructions:  507000003 cycles:  780726902 heartbeat IPC: 0.47036 cumulative IPC: 0.55693 (Simulation time: 0 hr 19 min 40 sec) 
Heartbeat CPU  0 instructions:  508000000 cycles:  782832405 heartbeat IPC: 0.47494 cumulative IPC: 0.55670 (Simulation time: 0 hr 19 min 43 sec) 
Heartbeat CPU  0 instructions:  509000002 cycles:  784964283 heartbeat IPC: 0.46907 cumulative IPC: 0.55644 (Simulation time: 0 hr 19 min 46 sec) 
Heartbeat CPU  0 instructions:  510000000 cycles:  787064365 heartbeat IPC: 0.47617 cumulative IPC: 0.55622 (Simulation time: 0 hr 19 min 48 sec) 
Heartbeat CPU  0 instructions:  511000002 cycles:  789020026 heartbeat IPC: 0.51134 cumulative IPC: 0.55610 (Simulation time: 0 hr 19 min 51 sec) 
Heartbeat CPU  0 instructions:  512000000 cycles:  790724586 heartbeat IPC: 0.58666 cumulative IPC: 0.55617 (Simulation time: 0 hr 19 min 53 sec) 
Heartbeat CPU  0 instructions:  513000000 cycles:  792272005 heartbeat IPC: 0.64624 cumulative IPC: 0.55636 (Simulation time: 0 hr 19 min 56 sec) 
Heartbeat CPU  0 instructions:  514000003 cycles:  793642007 heartbeat IPC: 0.72993 cumulative IPC: 0.55668 (Simulation time: 0 hr 19 min 58 sec) 
Heartbeat CPU  0 instructions:  515000002 cycles:  795157044 heartbeat IPC: 0.66005 cumulative IPC: 0.55689 (Simulation time: 0 hr 20 min 0 sec) 
Heartbeat CPU  0 instructions:  516000000 cycles:  796660592 heartbeat IPC: 0.66509 cumulative IPC: 0.55710 (Simulation time: 0 hr 20 min 3 sec) 
Heartbeat CPU  0 instructions:  517000001 cycles:  798146103 heartbeat IPC: 0.67317 cumulative IPC: 0.55733 (Simulation time: 0 hr 20 min 5 sec) 
Heartbeat CPU  0 instructions:  518000003 cycles:  799529002 heartbeat IPC: 0.72312 cumulative IPC: 0.55764 (Simulation time: 0 hr 20 min 7 sec) 
Heartbeat CPU  0 instructions:  519000001 cycles:  800889335 heartbeat IPC: 0.73511 cumulative IPC: 0.55796 (Simulation time: 0 hr 20 min 10 sec) 
Heartbeat CPU  0 instructions:  520000000 cycles:  802300519 heartbeat IPC: 0.70862 cumulative IPC: 0.55824 (Simulation time: 0 hr 20 min 12 sec) 
Heartbeat CPU  0 instructions:  521000002 cycles:  803676429 heartbeat IPC: 0.72679 cumulative IPC: 0.55855 (Simulation time: 0 hr 20 min 14 sec) 
Heartbeat CPU  0 instructions:  522000002 cycles:  805080602 heartbeat IPC: 0.71216 cumulative IPC: 0.55884 (Simulation time: 0 hr 20 min 16 sec) 
Heartbeat CPU  0 instructions:  523000000 cycles:  806359430 heartbeat IPC: 0.78196 cumulative IPC: 0.55921 (Simulation time: 0 hr 20 min 18 sec) 
Heartbeat CPU  0 instructions:  524000000 cycles:  807739097 heartbeat IPC: 0.72481 cumulative IPC: 0.55952 (Simulation time: 0 hr 20 min 21 sec) 
Heartbeat CPU  0 instructions:  525000003 cycles:  809124757 heartbeat IPC: 0.72168 cumulative IPC: 0.55981 (Simulation time: 0 hr 20 min 23 sec) 
Heartbeat CPU  0 instructions:  526000000 cycles:  810502093 heartbeat IPC: 0.72604 cumulative IPC: 0.56011 (Simulation time: 0 hr 20 min 25 sec) 
Heartbeat CPU  0 instructions:  527000003 cycles:  811872412 heartbeat IPC: 0.72976 cumulative IPC: 0.56042 (Simulation time: 0 hr 20 min 27 sec) 
Heartbeat CPU  0 instructions:  528000000 cycles:  813189127 heartbeat IPC: 0.75946 cumulative IPC: 0.56076 (Simulation time: 0 hr 20 min 30 sec) 
Heartbeat CPU  0 instructions:  529000003 cycles:  814564804 heartbeat IPC: 0.72692 cumulative IPC: 0.56106 (Simulation time: 0 hr 20 min 32 sec) 
Heartbeat CPU  0 instructions:  530000001 cycles:  815943160 heartbeat IPC: 0.72550 cumulative IPC: 0.56136 (Simulation time: 0 hr 20 min 34 sec) 
Heartbeat CPU  0 instructions:  531000000 cycles:  817320490 heartbeat IPC: 0.72604 cumulative IPC: 0.56165 (Simulation time: 0 hr 20 min 36 sec) 
Heartbeat CPU  0 instructions:  532000000 cycles:  818638629 heartbeat IPC: 0.75865 cumulative IPC: 0.56199 (Simulation time: 0 hr 20 min 38 sec) 
Heartbeat CPU  0 instructions:  533000001 cycles:  820012353 heartbeat IPC: 0.72795 cumulative IPC: 0.56229 (Simulation time: 0 hr 20 min 41 sec) 
Heartbeat CPU  0 instructions:  534000002 cycles:  821383879 heartbeat IPC: 0.72912 cumulative IPC: 0.56258 (Simulation time: 0 hr 20 min 43 sec) 
Heartbeat CPU  0 instructions:  535000000 cycles:  822770215 heartbeat IPC: 0.72132 cumulative IPC: 0.56287 (Simulation time: 0 hr 20 min 45 sec) 
Heartbeat CPU  0 instructions:  536000000 cycles:  824135072 heartbeat IPC: 0.73268 cumulative IPC: 0.56317 (Simulation time: 0 hr 20 min 47 sec) 
Heartbeat CPU  0 instructions:  537000002 cycles:  825477492 heartbeat IPC: 0.74492 cumulative IPC: 0.56348 (Simulation time: 0 hr 20 min 50 sec) 
Heartbeat CPU  0 instructions:  538000002 cycles:  826882111 heartbeat IPC: 0.71194 cumulative IPC: 0.56375 (Simulation time: 0 hr 20 min 52 sec) 
Heartbeat CPU  0 instructions:  539000000 cycles:  828262764 heartbeat IPC: 0.72429 cumulative IPC: 0.56403 (Simulation time: 0 hr 20 min 54 sec) 
Heartbeat CPU  0 instructions:  540000000 cycles:  829669951 heartbeat IPC: 0.71064 cumulative IPC: 0.56430 (Simulation time: 0 hr 20 min 56 sec) 
Heartbeat CPU  0 instructions:  541000000 cycles:  830985666 heartbeat IPC: 0.76004 cumulative IPC: 0.56463 (Simulation time: 0 hr 20 min 58 sec) 
Heartbeat CPU  0 instructions:  542000002 cycles:  832384730 heartbeat IPC: 0.71477 cumulative IPC: 0.56490 (Simulation time: 0 hr 21 min 1 sec) 
Heartbeat CPU  0 instructions:  543000001 cycles:  833794512 heartbeat IPC: 0.70933 cumulative IPC: 0.56516 (Simulation time: 0 hr 21 min 3 sec) 
Heartbeat CPU  0 instructions:  544000000 cycles:  835170979 heartbeat IPC: 0.72650 cumulative IPC: 0.56544 (Simulation time: 0 hr 21 min 5 sec) 
Heartbeat CPU  0 instructions:  545000001 cycles:  836552802 heartbeat IPC: 0.72368 cumulative IPC: 0.56572 (Simulation time: 0 hr 21 min 7 sec) 
Heartbeat CPU  0 instructions:  546000003 cycles:  837871317 heartbeat IPC: 0.75843 cumulative IPC: 0.56604 (Simulation time: 0 hr 21 min 10 sec) 
Heartbeat CPU  0 instructions:  547000000 cycles:  839286027 heartbeat IPC: 0.70686 cumulative IPC: 0.56629 (Simulation time: 0 hr 21 min 12 sec) 
Heartbeat CPU  0 instructions:  548000000 cycles:  840698972 heartbeat IPC: 0.70774 cumulative IPC: 0.56654 (Simulation time: 0 hr 21 min 14 sec) 
Heartbeat CPU  0 instructions:  549000001 cycles:  842079480 heartbeat IPC: 0.72437 cumulative IPC: 0.56682 (Simulation time: 0 hr 21 min 16 sec) 
Heartbeat CPU  0 instructions:  550000001 cycles:  843386781 heartbeat IPC: 0.76493 cumulative IPC: 0.56715 (Simulation time: 0 hr 21 min 18 sec) 
Heartbeat CPU  0 instructions:  551000002 cycles:  844751627 heartbeat IPC: 0.73268 cumulative IPC: 0.56743 (Simulation time: 0 hr 21 min 21 sec) 
Heartbeat CPU  0 instructions:  552000000 cycles:  846140797 heartbeat IPC: 0.71985 cumulative IPC: 0.56770 (Simulation time: 0 hr 21 min 23 sec) 
Heartbeat CPU  0 instructions:  553000002 cycles:  847549159 heartbeat IPC: 0.71005 cumulative IPC: 0.56795 (Simulation time: 0 hr 21 min 25 sec) 
Heartbeat CPU  0 instructions:  554000002 cycles:  848925846 heartbeat IPC: 0.72638 cumulative IPC: 0.56822 (Simulation time: 0 hr 21 min 27 sec) 
Heartbeat CPU  0 instructions:  555000001 cycles:  850203204 heartbeat IPC: 0.78287 cumulative IPC: 0.56856 (Simulation time: 0 hr 21 min 29 sec) 
Heartbeat CPU  0 instructions:  556000000 cycles:  851590779 heartbeat IPC: 0.72068 cumulative IPC: 0.56883 (Simulation time: 0 hr 21 min 32 sec) 
Heartbeat CPU  0 instructions:  557000003 cycles:  852977784 heartbeat IPC: 0.72098 cumulative IPC: 0.56909 (Simulation time: 0 hr 21 min 34 sec) 
Heartbeat CPU  0 instructions:  558000001 cycles:  854383497 heartbeat IPC: 0.71138 cumulative IPC: 0.56934 (Simulation time: 0 hr 21 min 36 sec) 
Heartbeat CPU  0 instructions:  559000001 cycles:  855730239 heartbeat IPC: 0.74253 cumulative IPC: 0.56963 (Simulation time: 0 hr 21 min 38 sec) 
Heartbeat CPU  0 instructions:  560000000 cycles:  857054488 heartbeat IPC: 0.75514 cumulative IPC: 0.56993 (Simulation time: 0 hr 21 min 41 sec) 
Heartbeat CPU  0 instructions:  561000003 cycles:  858447806 heartbeat IPC: 0.71771 cumulative IPC: 0.57019 (Simulation time: 0 hr 21 min 43 sec) 
Heartbeat CPU  0 instructions:  562000001 cycles:  859835855 heartbeat IPC: 0.72043 cumulative IPC: 0.57044 (Simulation time: 0 hr 21 min 45 sec) 
Heartbeat CPU  0 instructions:  563000003 cycles:  861225923 heartbeat IPC: 0.71939 cumulative IPC: 0.57070 (Simulation time: 0 hr 21 min 47 sec) 
Heartbeat CPU  0 instructions:  564000000 cycles:  862529800 heartbeat IPC: 0.76694 cumulative IPC: 0.57101 (Simulation time: 0 hr 21 min 49 sec) 
Heartbeat CPU  0 instructions:  565000002 cycles:  863902200 heartbeat IPC: 0.72865 cumulative IPC: 0.57128 (Simulation time: 0 hr 21 min 52 sec) 
Heartbeat CPU  0 instructions:  566000002 cycles:  865277761 heartbeat IPC: 0.72698 cumulative IPC: 0.57154 (Simulation time: 0 hr 21 min 54 sec) 
Heartbeat CPU  0 instructions:  567000000 cycles:  866661527 heartbeat IPC: 0.72266 cumulative IPC: 0.57180 (Simulation time: 0 hr 21 min 56 sec) 
Heartbeat CPU  0 instructions:  568000000 cycles:  868026103 heartbeat IPC: 0.73283 cumulative IPC: 0.57207 (Simulation time: 0 hr 21 min 58 sec) 
Heartbeat CPU  0 instructions:  569000002 cycles:  869372667 heartbeat IPC: 0.74263 cumulative IPC: 0.57235 (Simulation time: 0 hr 22 min 1 sec) 
Heartbeat CPU  0 instructions:  570000001 cycles:  870758631 heartbeat IPC: 0.72152 cumulative IPC: 0.57260 (Simulation time: 0 hr 22 min 3 sec) 
Heartbeat CPU  0 instructions:  571000000 cycles:  872145722 heartbeat IPC: 0.72093 cumulative IPC: 0.57285 (Simulation time: 0 hr 22 min 5 sec) 
Heartbeat CPU  0 instructions:  572000000 cycles:  873524233 heartbeat IPC: 0.72542 cumulative IPC: 0.57311 (Simulation time: 0 hr 22 min 7 sec) 
Heartbeat CPU  0 instructions:  573000002 cycles:  874825041 heartbeat IPC: 0.76875 cumulative IPC: 0.57341 (Simulation time: 0 hr 22 min 10 sec) 
Heartbeat CPU  0 instructions:  574000002 cycles:  876217961 heartbeat IPC: 0.71792 cumulative IPC: 0.57366 (Simulation time: 0 hr 22 min 12 sec) 
Heartbeat CPU  0 instructions:  575000000 cycles:  877584997 heartbeat IPC: 0.73151 cumulative IPC: 0.57392 (Simulation time: 0 hr 22 min 14 sec) 
Heartbeat CPU  0 instructions:  576000000 cycles:  878941760 heartbeat IPC: 0.73705 cumulative IPC: 0.57419 (Simulation time: 0 hr 22 min 16 sec) 
Heartbeat CPU  0 instructions:  577000002 cycles:  880294608 heartbeat IPC: 0.73918 cumulative IPC: 0.57445 (Simulation time: 0 hr 22 min 18 sec) 
Heartbeat CPU  0 instructions:  578000002 cycles:  881600981 heartbeat IPC: 0.76548 cumulative IPC: 0.57475 (Simulation time: 0 hr 22 min 21 sec) 
Heartbeat CPU  0 instructions:  579000001 cycles:  883002669 heartbeat IPC: 0.71342 cumulative IPC: 0.57499 (Simulation time: 0 hr 22 min 23 sec) 
Heartbeat CPU  0 instructions:  580000000 cycles:  884377842 heartbeat IPC: 0.72718 cumulative IPC: 0.57524 (Simulation time: 0 hr 22 min 25 sec) 
Heartbeat CPU  0 instructions:  581000002 cycles:  885746904 heartbeat IPC: 0.73043 cumulative IPC: 0.57549 (Simulation time: 0 hr 22 min 27 sec) 
Heartbeat CPU  0 instructions:  582000003 cycles:  887047618 heartbeat IPC: 0.76881 cumulative IPC: 0.57579 (Simulation time: 0 hr 22 min 30 sec) 
Heartbeat CPU  0 instructions:  583000002 cycles:  888412154 heartbeat IPC: 0.73285 cumulative IPC: 0.57605 (Simulation time: 0 hr 22 min 32 sec) 
Heartbeat CPU  0 instructions:  584000000 cycles:  889815313 heartbeat IPC: 0.71268 cumulative IPC: 0.57628 (Simulation time: 0 hr 22 min 34 sec) 
Heartbeat CPU  0 instructions:  585000003 cycles:  891201606 heartbeat IPC: 0.72135 cumulative IPC: 0.57652 (Simulation time: 0 hr 22 min 36 sec) 
Heartbeat CPU  0 instructions:  586000000 cycles:  892541546 heartbeat IPC: 0.74630 cumulative IPC: 0.57679 (Simulation time: 0 hr 22 min 38 sec) 
Heartbeat CPU  0 instructions:  587000002 cycles:  893845680 heartbeat IPC: 0.76679 cumulative IPC: 0.57708 (Simulation time: 0 hr 22 min 41 sec) 
Heartbeat CPU  0 instructions:  588000000 cycles:  895230175 heartbeat IPC: 0.72228 cumulative IPC: 0.57732 (Simulation time: 0 hr 22 min 43 sec) 
Heartbeat CPU  0 instructions:  589000002 cycles:  896628268 heartbeat IPC: 0.71526 cumulative IPC: 0.57754 (Simulation time: 0 hr 22 min 45 sec) 
Heartbeat CPU  0 instructions:  590000001 cycles:  898033582 heartbeat IPC: 0.71158 cumulative IPC: 0.57777 (Simulation time: 0 hr 22 min 47 sec) 
Heartbeat CPU  0 instructions:  591000003 cycles:  899342897 heartbeat IPC: 0.76376 cumulative IPC: 0.57805 (Simulation time: 0 hr 22 min 49 sec) 
Heartbeat CPU  0 instructions:  592000000 cycles:  900694370 heartbeat IPC: 0.73993 cumulative IPC: 0.57831 (Simulation time: 0 hr 22 min 52 sec) 
Heartbeat CPU  0 instructions:  593000002 cycles:  902077276 heartbeat IPC: 0.72312 cumulative IPC: 0.57855 (Simulation time: 0 hr 22 min 54 sec) 
Heartbeat CPU  0 instructions:  594000003 cycles:  903469902 heartbeat IPC: 0.71807 cumulative IPC: 0.57877 (Simulation time: 0 hr 22 min 56 sec) 
Heartbeat CPU  0 instructions:  595000001 cycles:  904868932 heartbeat IPC: 0.71478 cumulative IPC: 0.57900 (Simulation time: 0 hr 22 min 58 sec) 
Heartbeat CPU  0 instructions:  596000000 cycles:  906150418 heartbeat IPC: 0.78034 cumulative IPC: 0.57930 (Simulation time: 0 hr 23 min 1 sec) 
Heartbeat CPU  0 instructions:  597000000 cycles:  907536013 heartbeat IPC: 0.72171 cumulative IPC: 0.57953 (Simulation time: 0 hr 23 min 3 sec) 
Heartbeat CPU  0 instructions:  598000001 cycles:  908925940 heartbeat IPC: 0.71946 cumulative IPC: 0.57975 (Simulation time: 0 hr 23 min 5 sec) 
Heartbeat CPU  0 instructions:  599000003 cycles:  910314925 heartbeat IPC: 0.71995 cumulative IPC: 0.57998 (Simulation time: 0 hr 23 min 7 sec) 
Heartbeat CPU  0 instructions:  600000000 cycles:  911678346 heartbeat IPC: 0.73345 cumulative IPC: 0.58022 (Simulation time: 0 hr 23 min 10 sec) 
Finished CPU 0 instructions: 500000002 cycles: 861737462 cumulative IPC: 0.58022 (Simulation time: 0 hr 23 min 10 sec) 

ChampSim completed all CPUs

[ROI Statistics]
Core_0_instructions 500000002
Core_0_cycles 861737462
Core_0_IPC 0.58022

Core_0_branch_prediction_accuracy 99.14890
Core_0_branch_MPKI 0.20164
Core_0_average_ROB_occupancy_at_mispredict 245.44993

Core_0_L1D_total_access 145528995
Core_0_L1D_total_hit 139900558
Core_0_L1D_total_miss 5628437
Core_0_L1D_loads 133367894
Core_0_L1D_load_hit 129069918
Core_0_L1D_load_miss 4297976
Core_0_L1D_RFOs 12161101
Core_0_L1D_RFO_hit 10830640
Core_0_L1D_RFO_miss 1330461
Core_0_L1D_prefetches 0
Core_0_L1D_prefetch_hit 0
Core_0_L1D_prefetch_miss 0
Core_0_L1D_writebacks 0
Core_0_L1D_writeback_hit 0
Core_0_L1D_writeback_miss 0
Core_0_L1D_prefetch_requested 0
Core_0_L1D_prefetch_dropped 0
Core_0_L1D_prefetch_issued 0
Core_0_L1D_prefetch_filled 0
Core_0_L1D_prefetch_useful 0
Core_0_L1D_prefetch_useless 0
Core_0_L1D_prefetch_late 0
Core_0_L1D_average_miss_latency 169.24979

Core_0_L1D_rq_access 199056066
Core_0_L1D_rq_forward 0
Core_0_L1D_rq_merged 62793678
Core_0_L1D_rq_to_cache 136262388
Core_0_L1D_rq_full 0

Core_0_L1D_wq_access 15945109
Core_0_L1D_wq_forward 0
Core_0_L1D_wq_merged 0
Core_0_L1D_wq_to_cache 15945109
Core_0_L1D_wq_full 2785404

Core_0_L1D_pq_access 0
Core_0_L1D_pq_forward 0
Core_0_L1D_pq_merged 0
Core_0_L1D_pq_to_cache 0
Core_0_L1D_pq_full 0

Core_0_L1D_acc_epochs 885983
Core_0_L1D_acc_level_0 885983
Core_0_L1D_acc_level_1 0
Core_0_L1D_acc_level_2 0
Core_0_L1D_acc_level_3 0
Core_0_L1D_acc_level_4 0
Core_0_L1D_acc_level_5 0
Core_0_L1D_acc_level_6 0
Core_0_L1D_acc_level_7 0
Core_0_L1D_acc_level_8 0
Core_0_L1D_acc_level_9 0

Core_0_L1I_total_access 121014051
Core_0_L1I_total_hit 121013725
Core_0_L1I_total_miss 326
Core_0_L1I_loads 121014051
Core_0_L1I_load_hit 121013725
Core_0_L1I_load_miss 326
Core_0_L1I_RFOs 0
Core_0_L1I_RFO_hit 0
Core_0_L1I_RFO_miss 0
Core_0_L1I_prefetches 0
Core_0_L1I_prefetch_hit 0
Core_0_L1I_prefetch_miss 0
Core_0_L1I_writebacks 0
Core_0_L1I_writeback_hit 0
Core_0_L1I_writeback_miss 0
Core_0_L1I_prefetch_requested 0
Core_0_L1I_prefetch_dropped 0
Core_0_L1I_prefetch_issued 0
Core_0_L1I_prefetch_filled 0
Core_0_L1I_prefetch_useful 0
Core_0_L1I_prefetch_useless 0
Core_0_L1I_prefetch_late 0
Core_0_L1I_average_miss_latency 697.30675

Core_0_L1I_rq_access 500000003
Core_0_L1I_rq_forward 0
Core_0_L1I_rq_merged 378984869
Core_0_L1I_rq_to_cache 121015134
Core_0_L1I_rq_full 0

Core_0_L1I_wq_access 0
Core_0_L1I_wq_forward 0
Core_0_L1I_wq_merged 0
Core_0_L1I_wq_to_cache 0
Core_0_L1I_wq_full 0

Core_0_L1I_pq_access 0
Core_0_L1I_pq_forward 0
Core_0_L1I_pq_merged 0
Core_0_L1I_pq_to_cache 0
Core_0_L1I_pq_full 0

Core_0_L1I_acc_epochs 885983
Core_0_L1I_acc_level_0 885983
Core_0_L1I_acc_level_1 0
Core_0_L1I_acc_level_2 0
Core_0_L1I_acc_level_3 0
Core_0_L1I_acc_level_4 0
Core_0_L1I_acc_level_5 0
Core_0_L1I_acc_level_6 0
Core_0_L1I_acc_level_7 0
Core_0_L1I_acc_level_8 0
Core_0_L1I_acc_level_9 0

Core_0_L2C_total_access 7368855
Core_0_L2C_total_hit 3356626
Core_0_L2C_total_miss 4012229
Core_0_L2C_loads 4298254
Core_0_L2C_load_hit 1142392
Core_0_L2C_load_miss 3155862
Core_0_L2C_RFOs 1330292
Core_0_L2C_RFO_hit 475151
Core_0_L2C_RFO_miss 855141
Core_0_L2C_prefetches 0
Core_0_L2C_prefetch_hit 0
Core_0_L2C_prefetch_miss 0
Core_0_L2C_writebacks 1740309
Core_0_L2C_writeback_hit 1739083
Core_0_L2C_writeback_miss 1226
Core_0_L2C_prefetch_requested 0
Core_0_L2C_prefetch_dropped 0
Core_0_L2C_prefetch_issued 0
Core_0_L2C_prefetch_filled 0
Core_0_L2C_prefetch_useful 0
Core_0_L2C_prefetch_useless 0
Core_0_L2C_prefetch_late 0
Core_0_L2C_average_miss_latency 217.68946

Core_0_L2C_rq_access 5628763
Core_0_L2C_rq_forward 0
Core_0_L2C_rq_merged 0
Core_0_L2C_rq_to_cache 5628546
Core_0_L2C_rq_full 0

Core_0_L2C_wq_access 1740309
Core_0_L2C_wq_forward 217
Core_0_L2C_wq_merged 0
Core_0_L2C_wq_to_cache 1740309
Core_0_L2C_wq_full 0

Core_0_L2C_pq_access 0
Core_0_L2C_pq_forward 0
Core_0_L2C_pq_merged 0
Core_0_L2C_pq_to_cache 0
Core_0_L2C_pq_full 0

Core_0_L2C_acc_epochs 885983
Core_0_L2C_acc_level_0 885983
Core_0_L2C_acc_level_1 0
Core_0_L2C_acc_level_2 0
Core_0_L2C_acc_level_3 0
Core_0_L2C_acc_level_4 0
Core_0_L2C_acc_level_5 0
Core_0_L2C_acc_level_6 0
Core_0_L2C_acc_level_7 0
Core_0_L2C_acc_level_8 0
Core_0_L2C_acc_level_9 0

Core_0_LLC_total_access 5103662
Core_0_LLC_total_hit 1220275
Core_0_LLC_total_miss 3883387
Core_0_LLC_loads 3155862
Core_0_LLC_load_hit 649202
Core_0_LLC_load_miss 2506660
Core_0_LLC_RFOs 855141
Core_0_LLC_RFO_hit 169768
Core_0_LLC_RFO_miss 685373
Core_0_LLC_prefetches 0
Core_0_LLC_prefetch_hit 0
Core_0_LLC_prefetch_miss 0
Core_0_LLC_writebacks 1092659
Core_0_LLC_writeback_hit 401305
Core_0_LLC_writeback_miss 691354
Core_0_LLC_prefetch_requested 0
Core_0_LLC_prefetch_dropped 0
Core_0_LLC_prefetch_issued 0
Core_0_LLC_prefetch_filled 0
Core_0_LLC_prefetch_useful 0
Core_0_LLC_prefetch_useless 0
Core_0_LLC_prefetch_late 0
Core_0_LLC_average_miss_latency 193.84679

Core_0_LLC_rq_access 4011003
Core_0_LLC_rq_forward 0
Core_0_LLC_rq_merged 0
Core_0_LLC_rq_to_cache 4011003
Core_0_LLC_rq_full 0

Core_0_LLC_wq_access 1092659
Core_0_LLC_wq_forward 0
Core_0_LLC_wq_merged 0
Core_0_LLC_wq_to_cache 1092659
Core_0_LLC_wq_full 678

Core_0_LLC_pq_access 0
Core_0_LLC_pq_forward 0
Core_0_LLC_pq_merged 0
Core_0_LLC_pq_to_cache 0
Core_0_LLC_pq_full 0

Core_0_LLC_acc_epochs 890311
Core_0_LLC_acc_level_0 890311
Core_0_LLC_acc_level_1 0
Core_0_LLC_acc_level_2 0
Core_0_LLC_acc_level_3 0
Core_0_LLC_acc_level_4 0
Core_0_LLC_acc_level_5 0
Core_0_LLC_acc_level_6 0
Core_0_LLC_acc_level_7 0
Core_0_LLC_acc_level_8 0
Core_0_LLC_acc_level_9 0

Core_0_major_page_fault 0
Core_0_minor_page_fault 14851

Channel_0_RQ_row_buffer_hit 1032947
Channel_0_RQ_row_buffer_miss 2159086
Channel_0_WQ_row_buffer_hit 694053
Channel_0_WQ_row_buffer_miss 217052
Channel_0_WQ_full 6021
Channel_0_dbus_congested 2101924

avg_congested_cycle 77

DRAM_bw_pochs 3561244
DRAM_bw_level_0 838901
DRAM_bw_level_1 1330349
DRAM_bw_level_2 0
DRAM_bw_level_3 1391994
