*************************************************
   ChampSim Multicore Out-of-Order Simulator
   Last compiled: Dec 11 2024 17:59:53
*************************************************
parsing config file: /home/functionmain/桌面/Pythia/config/bingo.ini

trace_0 /home/functionmain/桌面/Pythia/traces/437.leslie3d-271B.champsimtrace.xz
adding L2C_PREFETCHER: Bingo
Initialize SHIP state
warmup_instructions 100000000
simulation_instructions 500000000
champsim_seed 220
measure_ipc 0
measure_ipc_epoch 1000
measure_dram_bw 1
measure_dram_bw_epoch 256
measure_cache_acc 1
measure_cache_acc_epoch 1024
l1d_perfect 0
l2c_perfect 0
llc_perfect 0
l1d_semi_perfect 0
l2c_semi_perfect 0
llc_semi_perfect 0
semi_perfect_cache_page_buffer_size 64

num_cpus 1
cpu_freq 4000
dram_io_freq 300
page_size 4096
block_size 64
max_read_per_cycle 8
max_fill_per_cycle 1
dram_channels 1
log2_dram_channels 0
dram_ranks 1
dram_banks 8
dram_rows 65536
dram_columns 128
dram_row_size 8
dram_size 4096
dram_pages 1048576

fetch_width 6
decode_width 6
exec_width 4
lq_width 2
sq_width 2
retire_width 4
scheduler_size 128
branch_mispredict_penalty 20
rob_size 256
lq_size 72
sq_size 56
num_instr_destinations_sparc 4
num_instr_destinations 2
num_instr_sources 4

itlb_set 16
itlb_way 8
itlb_rq_size 16
itlb_wq_size 16
itlb_pq_size 0
itlb_mshr_size 8
itlb_latency 1

dtlb_set 16
dtlb_way 4
dtlb_rq_size 16
dtlb_wq_size 16
dtlb_pq_size 0
dtlb_mshr_size 8
dtlb_latency 1

stlb_set 128
stlb_way 12
stlb_rq_size 32
stlb_wq_size 32
stlb_pq_size 0
stlb_mshr_size 16
stlb_latency 8

l1i_size 32
l1i_set 64
l1i_way 8
l1i_rq_size 64
l1i_wq_size 64
l1i_pq_size 8
l1i_mshr_size 8
l1i_latency 1

l1d_size 32
l1d_set 64
l1d_way 8
l1d_rq_size 64
l1d_wq_size 64
l1d_pq_size 8
l1d_mshr_size 16
l1d_latency 4

l2c_size 256
l2c_set 512
l2c_way 8
l2c_rq_size 32
l2c_wq_size 32
l2c_pq_size 32
l2c_mshr_size 32
l2c_latency 10

llc_size 2048
llc_set 2048
llc_way 16
llc_rq_size 32
llc_wq_size 32
llc_pq_size 32
llc_mshr_size 64
llc_latency 20

dram_channel_width 8
dram_wq_size 64
dram_rq_size 64
tRP 15
tRCD 15
tCAS 12.5
dram_dbus_turn_around_time 30
dram_write_high_wm 56
dram_write_low_wm 48
min_dram_writes_per_switch 16
dram_mtps 300
dram_dbus_return_time 106

bingo_region_size 2048
bingo_pattern_len 32
bingo_pc_width 16
bingo_min_addr_width 5
bingo_max_addr_width 16
bingo_ft_size 64
bingo_at_size 128
bingo_pht_size 4096
bingo_pht_ways 16
bingo_pf_streamer_size 128
bingo_debug_level 0
bingo_l1d_thresh 1.01
bingo_l2c_thresh 0.8
bingo_llc_thresh 0.05
bingo_pc_address_fill_level L2


Heartbeat CPU  0 instructions:    1000002 cycles:     516704 heartbeat IPC: 1.93535 cumulative IPC: 1.93535 (Simulation time: 0 hr 0 min 2 sec) 
Heartbeat CPU  0 instructions:    2000001 cycles:    1031913 heartbeat IPC: 1.94096 cumulative IPC: 1.93815 (Simulation time: 0 hr 0 min 4 sec) 
Heartbeat CPU  0 instructions:    3000003 cycles:    1547048 heartbeat IPC: 1.94124 cumulative IPC: 1.93918 (Simulation time: 0 hr 0 min 6 sec) 
Heartbeat CPU  0 instructions:    4000000 cycles:    2061797 heartbeat IPC: 1.94269 cumulative IPC: 1.94006 (Simulation time: 0 hr 0 min 8 sec) 
Heartbeat CPU  0 instructions:    5000001 cycles:    2576690 heartbeat IPC: 1.94215 cumulative IPC: 1.94047 (Simulation time: 0 hr 0 min 10 sec) 
Heartbeat CPU  0 instructions:    6000001 cycles:    3091533 heartbeat IPC: 1.94234 cumulative IPC: 1.94079 (Simulation time: 0 hr 0 min 12 sec) 
Heartbeat CPU  0 instructions:    7000003 cycles:    3606756 heartbeat IPC: 1.94091 cumulative IPC: 1.94080 (Simulation time: 0 hr 0 min 14 sec) 
Heartbeat CPU  0 instructions:    8000000 cycles:    4121819 heartbeat IPC: 1.94150 cumulative IPC: 1.94089 (Simulation time: 0 hr 0 min 16 sec) 
Heartbeat CPU  0 instructions:    9000000 cycles:    4636574 heartbeat IPC: 1.94267 cumulative IPC: 1.94109 (Simulation time: 0 hr 0 min 18 sec) 
Heartbeat CPU  0 instructions:   10000003 cycles:    5151530 heartbeat IPC: 1.94192 cumulative IPC: 1.94117 (Simulation time: 0 hr 0 min 20 sec) 
Heartbeat CPU  0 instructions:   11000000 cycles:    5666523 heartbeat IPC: 1.94177 cumulative IPC: 1.94123 (Simulation time: 0 hr 0 min 22 sec) 
Heartbeat CPU  0 instructions:   12000000 cycles:    6181190 heartbeat IPC: 1.94300 cumulative IPC: 1.94137 (Simulation time: 0 hr 0 min 24 sec) 
Heartbeat CPU  0 instructions:   13000001 cycles:    6696166 heartbeat IPC: 1.94184 cumulative IPC: 1.94141 (Simulation time: 0 hr 0 min 26 sec) 
Heartbeat CPU  0 instructions:   14000002 cycles:    7211356 heartbeat IPC: 1.94103 cumulative IPC: 1.94138 (Simulation time: 0 hr 0 min 28 sec) 
Heartbeat CPU  0 instructions:   15000000 cycles:    7726190 heartbeat IPC: 1.94237 cumulative IPC: 1.94145 (Simulation time: 0 hr 0 min 30 sec) 
Heartbeat CPU  0 instructions:   16000000 cycles:    8241183 heartbeat IPC: 1.94177 cumulative IPC: 1.94147 (Simulation time: 0 hr 0 min 32 sec) 
Heartbeat CPU  0 instructions:   17000003 cycles:    8756331 heartbeat IPC: 1.94120 cumulative IPC: 1.94145 (Simulation time: 0 hr 0 min 35 sec) 
Heartbeat CPU  0 instructions:   18000002 cycles:    9270917 heartbeat IPC: 1.94331 cumulative IPC: 1.94156 (Simulation time: 0 hr 0 min 37 sec) 
Heartbeat CPU  0 instructions:   19000003 cycles:    9785902 heartbeat IPC: 1.94181 cumulative IPC: 1.94157 (Simulation time: 0 hr 0 min 39 sec) 
Heartbeat CPU  0 instructions:   20000000 cycles:   10300919 heartbeat IPC: 1.94168 cumulative IPC: 1.94157 (Simulation time: 0 hr 0 min 41 sec) 
Heartbeat CPU  0 instructions:   21000001 cycles:   10815827 heartbeat IPC: 1.94210 cumulative IPC: 1.94160 (Simulation time: 0 hr 0 min 43 sec) 
Heartbeat CPU  0 instructions:   22000000 cycles:   11330802 heartbeat IPC: 1.94184 cumulative IPC: 1.94161 (Simulation time: 0 hr 0 min 45 sec) 
Heartbeat CPU  0 instructions:   23000003 cycles:   11845919 heartbeat IPC: 1.94131 cumulative IPC: 1.94160 (Simulation time: 0 hr 0 min 47 sec) 
Heartbeat CPU  0 instructions:   24000000 cycles:   12360701 heartbeat IPC: 1.94256 cumulative IPC: 1.94164 (Simulation time: 0 hr 0 min 49 sec) 
Heartbeat CPU  0 instructions:   25000000 cycles:   12875479 heartbeat IPC: 1.94258 cumulative IPC: 1.94168 (Simulation time: 0 hr 0 min 51 sec) 
Heartbeat CPU  0 instructions:   26000003 cycles:   13390417 heartbeat IPC: 1.94199 cumulative IPC: 1.94169 (Simulation time: 0 hr 0 min 53 sec) 
Heartbeat CPU  0 instructions:   27000002 cycles:   13905233 heartbeat IPC: 1.94244 cumulative IPC: 1.94172 (Simulation time: 0 hr 0 min 55 sec) 
Heartbeat CPU  0 instructions:   28000000 cycles:   14419979 heartbeat IPC: 1.94270 cumulative IPC: 1.94175 (Simulation time: 0 hr 0 min 57 sec) 
Heartbeat CPU  0 instructions:   29000000 cycles:   14934919 heartbeat IPC: 1.94197 cumulative IPC: 1.94176 (Simulation time: 0 hr 0 min 59 sec) 
Heartbeat CPU  0 instructions:   30000002 cycles:   15449856 heartbeat IPC: 1.94199 cumulative IPC: 1.94177 (Simulation time: 0 hr 1 min 1 sec) 
Heartbeat CPU  0 instructions:   31000001 cycles:   15964535 heartbeat IPC: 1.94296 cumulative IPC: 1.94180 (Simulation time: 0 hr 1 min 3 sec) 
Heartbeat CPU  0 instructions:   32000000 cycles:   16479967 heartbeat IPC: 1.94012 cumulative IPC: 1.94175 (Simulation time: 0 hr 1 min 5 sec) 
Heartbeat CPU  0 instructions:   33000000 cycles:   16994919 heartbeat IPC: 1.94193 cumulative IPC: 1.94176 (Simulation time: 0 hr 1 min 7 sec) 
Heartbeat CPU  0 instructions:   34000001 cycles:   17509654 heartbeat IPC: 1.94275 cumulative IPC: 1.94179 (Simulation time: 0 hr 1 min 9 sec) 
Heartbeat CPU  0 instructions:   35000000 cycles:   18024729 heartbeat IPC: 1.94146 cumulative IPC: 1.94178 (Simulation time: 0 hr 1 min 11 sec) 
Heartbeat CPU  0 instructions:   36000000 cycles:   18539735 heartbeat IPC: 1.94172 cumulative IPC: 1.94178 (Simulation time: 0 hr 1 min 13 sec) 
Heartbeat CPU  0 instructions:   37000001 cycles:   19054575 heartbeat IPC: 1.94235 cumulative IPC: 1.94179 (Simulation time: 0 hr 1 min 15 sec) 
Heartbeat CPU  0 instructions:   38000000 cycles:   19569592 heartbeat IPC: 1.94168 cumulative IPC: 1.94179 (Simulation time: 0 hr 1 min 17 sec) 
Heartbeat CPU  0 instructions:   39000002 cycles:   20084718 heartbeat IPC: 1.94128 cumulative IPC: 1.94177 (Simulation time: 0 hr 1 min 19 sec) 
Heartbeat CPU  0 instructions:   40000000 cycles:   20599472 heartbeat IPC: 1.94267 cumulative IPC: 1.94180 (Simulation time: 0 hr 1 min 21 sec) 
Heartbeat CPU  0 instructions:   41000000 cycles:   21114325 heartbeat IPC: 1.94230 cumulative IPC: 1.94181 (Simulation time: 0 hr 1 min 23 sec) 
Heartbeat CPU  0 instructions:   42000000 cycles:   21629350 heartbeat IPC: 1.94165 cumulative IPC: 1.94181 (Simulation time: 0 hr 1 min 25 sec) 
Heartbeat CPU  0 instructions:   43000003 cycles:   22143988 heartbeat IPC: 1.94312 cumulative IPC: 1.94184 (Simulation time: 0 hr 1 min 27 sec) 
Heartbeat CPU  0 instructions:   44000000 cycles:   22658953 heartbeat IPC: 1.94187 cumulative IPC: 1.94184 (Simulation time: 0 hr 1 min 29 sec) 
Heartbeat CPU  0 instructions:   45000003 cycles:   23174197 heartbeat IPC: 1.94083 cumulative IPC: 1.94182 (Simulation time: 0 hr 1 min 31 sec) 
Heartbeat CPU  0 instructions:   46000001 cycles:   23689041 heartbeat IPC: 1.94233 cumulative IPC: 1.94183 (Simulation time: 0 hr 1 min 33 sec) 
Heartbeat CPU  0 instructions:   47000000 cycles:   24203910 heartbeat IPC: 1.94224 cumulative IPC: 1.94184 (Simulation time: 0 hr 1 min 35 sec) 
Heartbeat CPU  0 instructions:   48000000 cycles:   24719300 heartbeat IPC: 1.94028 cumulative IPC: 1.94180 (Simulation time: 0 hr 1 min 37 sec) 
Heartbeat CPU  0 instructions:   49000000 cycles:   25234260 heartbeat IPC: 1.94190 cumulative IPC: 1.94180 (Simulation time: 0 hr 1 min 39 sec) 
Heartbeat CPU  0 instructions:   50000000 cycles:   25749105 heartbeat IPC: 1.94233 cumulative IPC: 1.94182 (Simulation time: 0 hr 1 min 42 sec) 
Heartbeat CPU  0 instructions:   51000003 cycles:   26264128 heartbeat IPC: 1.94167 cumulative IPC: 1.94181 (Simulation time: 0 hr 1 min 44 sec) 
Heartbeat CPU  0 instructions:   52000000 cycles:   26778904 heartbeat IPC: 1.94259 cumulative IPC: 1.94183 (Simulation time: 0 hr 1 min 46 sec) 
Heartbeat CPU  0 instructions:   53000001 cycles:   27293861 heartbeat IPC: 1.94191 cumulative IPC: 1.94183 (Simulation time: 0 hr 1 min 48 sec) 
Heartbeat CPU  0 instructions:   54000003 cycles:   27808996 heartbeat IPC: 1.94124 cumulative IPC: 1.94182 (Simulation time: 0 hr 1 min 50 sec) 
Heartbeat CPU  0 instructions:   55000003 cycles:   28323808 heartbeat IPC: 1.94246 cumulative IPC: 1.94183 (Simulation time: 0 hr 1 min 52 sec) 
Heartbeat CPU  0 instructions:   56000000 cycles:   28838444 heartbeat IPC: 1.94312 cumulative IPC: 1.94185 (Simulation time: 0 hr 1 min 55 sec) 
Heartbeat CPU  0 instructions:   57000002 cycles:   29379913 heartbeat IPC: 1.84683 cumulative IPC: 1.94010 (Simulation time: 0 hr 1 min 57 sec) 
Heartbeat CPU  0 instructions:   58000001 cycles:   29927069 heartbeat IPC: 1.82763 cumulative IPC: 1.93804 (Simulation time: 0 hr 1 min 59 sec) 
Heartbeat CPU  0 instructions:   59000001 cycles:   30474179 heartbeat IPC: 1.82779 cumulative IPC: 1.93607 (Simulation time: 0 hr 2 min 1 sec) 
Heartbeat CPU  0 instructions:   60000000 cycles:   31021441 heartbeat IPC: 1.82728 cumulative IPC: 1.93415 (Simulation time: 0 hr 2 min 3 sec) 
Heartbeat CPU  0 instructions:   61000003 cycles:   31568591 heartbeat IPC: 1.82766 cumulative IPC: 1.93230 (Simulation time: 0 hr 2 min 6 sec) 
Heartbeat CPU  0 instructions:   62000003 cycles:   32115578 heartbeat IPC: 1.82820 cumulative IPC: 1.93053 (Simulation time: 0 hr 2 min 8 sec) 
Heartbeat CPU  0 instructions:   63000003 cycles:   32662728 heartbeat IPC: 1.82765 cumulative IPC: 1.92880 (Simulation time: 0 hr 2 min 10 sec) 
Heartbeat CPU  0 instructions:   64000000 cycles:   33209674 heartbeat IPC: 1.82833 cumulative IPC: 1.92715 (Simulation time: 0 hr 2 min 12 sec) 
Heartbeat CPU  0 instructions:   65000002 cycles:   33752408 heartbeat IPC: 1.84253 cumulative IPC: 1.92579 (Simulation time: 0 hr 2 min 14 sec) 
Heartbeat CPU  0 instructions:   66000002 cycles:   34283989 heartbeat IPC: 1.88118 cumulative IPC: 1.92510 (Simulation time: 0 hr 2 min 17 sec) 
Heartbeat CPU  0 instructions:   67000001 cycles:   34815949 heartbeat IPC: 1.87984 cumulative IPC: 1.92441 (Simulation time: 0 hr 2 min 19 sec) 
Heartbeat CPU  0 instructions:   68000000 cycles:   35347596 heartbeat IPC: 1.88095 cumulative IPC: 1.92375 (Simulation time: 0 hr 2 min 21 sec) 
Heartbeat CPU  0 instructions:   69000003 cycles:   35879468 heartbeat IPC: 1.88016 cumulative IPC: 1.92311 (Simulation time: 0 hr 2 min 23 sec) 
Heartbeat CPU  0 instructions:   70000000 cycles:   36411227 heartbeat IPC: 1.88055 cumulative IPC: 1.92248 (Simulation time: 0 hr 2 min 25 sec) 
Heartbeat CPU  0 instructions:   71000000 cycles:   36943028 heartbeat IPC: 1.88040 cumulative IPC: 1.92188 (Simulation time: 0 hr 2 min 27 sec) 
Heartbeat CPU  0 instructions:   72000000 cycles:   37474713 heartbeat IPC: 1.88081 cumulative IPC: 1.92130 (Simulation time: 0 hr 2 min 29 sec) 
Heartbeat CPU  0 instructions:   73000000 cycles:   38006640 heartbeat IPC: 1.87996 cumulative IPC: 1.92072 (Simulation time: 0 hr 2 min 32 sec) 
Heartbeat CPU  0 instructions:   74000001 cycles:   38537296 heartbeat IPC: 1.88446 cumulative IPC: 1.92022 (Simulation time: 0 hr 2 min 34 sec) 
Heartbeat CPU  0 instructions:   75000001 cycles:   39068895 heartbeat IPC: 1.88112 cumulative IPC: 1.91969 (Simulation time: 0 hr 2 min 36 sec) 
Heartbeat CPU  0 instructions:   76000000 cycles:   39600086 heartbeat IPC: 1.88256 cumulative IPC: 1.91919 (Simulation time: 0 hr 2 min 38 sec) 
Heartbeat CPU  0 instructions:   77000003 cycles:   40131739 heartbeat IPC: 1.88093 cumulative IPC: 1.91868 (Simulation time: 0 hr 2 min 40 sec) 
Heartbeat CPU  0 instructions:   78000002 cycles:   40662974 heartbeat IPC: 1.88240 cumulative IPC: 1.91821 (Simulation time: 0 hr 2 min 42 sec) 
Heartbeat CPU  0 instructions:   79000000 cycles:   41194576 heartbeat IPC: 1.88110 cumulative IPC: 1.91773 (Simulation time: 0 hr 2 min 45 sec) 
Heartbeat CPU  0 instructions:   80000000 cycles:   41725806 heartbeat IPC: 1.88242 cumulative IPC: 1.91728 (Simulation time: 0 hr 2 min 47 sec) 
Heartbeat CPU  0 instructions:   81000003 cycles:   42257418 heartbeat IPC: 1.88108 cumulative IPC: 1.91682 (Simulation time: 0 hr 2 min 49 sec) 
Heartbeat CPU  0 instructions:   82000003 cycles:   42788693 heartbeat IPC: 1.88226 cumulative IPC: 1.91639 (Simulation time: 0 hr 2 min 51 sec) 
Heartbeat CPU  0 instructions:   83000000 cycles:   43376728 heartbeat IPC: 1.70057 cumulative IPC: 1.91347 (Simulation time: 0 hr 2 min 54 sec) 
Heartbeat CPU  0 instructions:   84000000 cycles:   43984108 heartbeat IPC: 1.64642 cumulative IPC: 1.90978 (Simulation time: 0 hr 2 min 56 sec) 
Heartbeat CPU  0 instructions:   85000001 cycles:   44591744 heartbeat IPC: 1.64572 cumulative IPC: 1.90618 (Simulation time: 0 hr 2 min 59 sec) 
Heartbeat CPU  0 instructions:   86000001 cycles:   45199193 heartbeat IPC: 1.64623 cumulative IPC: 1.90269 (Simulation time: 0 hr 3 min 1 sec) 
Heartbeat CPU  0 instructions:   87000002 cycles:   45806740 heartbeat IPC: 1.64596 cumulative IPC: 1.89928 (Simulation time: 0 hr 3 min 4 sec) 
Heartbeat CPU  0 instructions:   88000000 cycles:   46414398 heartbeat IPC: 1.64566 cumulative IPC: 1.89596 (Simulation time: 0 hr 3 min 7 sec) 
Heartbeat CPU  0 instructions:   89000002 cycles:   47022109 heartbeat IPC: 1.64552 cumulative IPC: 1.89273 (Simulation time: 0 hr 3 min 9 sec) 
Heartbeat CPU  0 instructions:   90000003 cycles:   47629540 heartbeat IPC: 1.64628 cumulative IPC: 1.88958 (Simulation time: 0 hr 3 min 12 sec) 
Heartbeat CPU  0 instructions:   91000000 cycles:   48237060 heartbeat IPC: 1.64603 cumulative IPC: 1.88652 (Simulation time: 0 hr 3 min 15 sec) 
Heartbeat CPU  0 instructions:   92000000 cycles:   48844510 heartbeat IPC: 1.64623 cumulative IPC: 1.88353 (Simulation time: 0 hr 3 min 17 sec) 
Heartbeat CPU  0 instructions:   93000000 cycles:   49452113 heartbeat IPC: 1.64581 cumulative IPC: 1.88061 (Simulation time: 0 hr 3 min 20 sec) 
Heartbeat CPU  0 instructions:   94000001 cycles:   50059568 heartbeat IPC: 1.64621 cumulative IPC: 1.87776 (Simulation time: 0 hr 3 min 22 sec) 
Heartbeat CPU  0 instructions:   95000003 cycles:   50667004 heartbeat IPC: 1.64627 cumulative IPC: 1.87499 (Simulation time: 0 hr 3 min 25 sec) 
Heartbeat CPU  0 instructions:   96000000 cycles:   51274653 heartbeat IPC: 1.64568 cumulative IPC: 1.87227 (Simulation time: 0 hr 3 min 27 sec) 
Heartbeat CPU  0 instructions:   97000000 cycles:   51882369 heartbeat IPC: 1.64551 cumulative IPC: 1.86961 (Simulation time: 0 hr 3 min 30 sec) 
Heartbeat CPU  0 instructions:   98000002 cycles:   52489929 heartbeat IPC: 1.64593 cumulative IPC: 1.86702 (Simulation time: 0 hr 3 min 33 sec) 
Heartbeat CPU  0 instructions:   99000003 cycles:   53097480 heartbeat IPC: 1.64595 cumulative IPC: 1.86450 (Simulation time: 0 hr 3 min 35 sec) 
Heartbeat CPU  0 instructions:  100000000 cycles:   53704889 heartbeat IPC: 1.64633 cumulative IPC: 1.86203 (Simulation time: 0 hr 3 min 38 sec) 

Warmup complete CPU  0 instructions:  100000002 cycles:   53704890 (Simulation time: 0 hr 3 min 38 sec) 

Heartbeat CPU  0 instructions:  101000003 cycles:   55492324 heartbeat IPC: 0.55946 cumulative IPC: 0.55946 (Simulation time: 0 hr 3 min 41 sec) 
Heartbeat CPU  0 instructions:  102000000 cycles:   57295518 heartbeat IPC: 0.55457 cumulative IPC: 0.55701 (Simulation time: 0 hr 3 min 45 sec) 
Heartbeat CPU  0 instructions:  103000000 cycles:   59066062 heartbeat IPC: 0.56480 cumulative IPC: 0.55958 (Simulation time: 0 hr 3 min 48 sec) 
Heartbeat CPU  0 instructions:  104000000 cycles:   60872168 heartbeat IPC: 0.55368 cumulative IPC: 0.55809 (Simulation time: 0 hr 3 min 52 sec) 
Heartbeat CPU  0 instructions:  105000001 cycles:   62629245 heartbeat IPC: 0.56913 cumulative IPC: 0.56026 (Simulation time: 0 hr 3 min 55 sec) 
Heartbeat CPU  0 instructions:  106000001 cycles:   64458676 heartbeat IPC: 0.54662 cumulative IPC: 0.55794 (Simulation time: 0 hr 3 min 59 sec) 
Heartbeat CPU  0 instructions:  107000002 cycles:   66232278 heartbeat IPC: 0.56382 cumulative IPC: 0.55878 (Simulation time: 0 hr 4 min 2 sec) 
Heartbeat CPU  0 instructions:  108000000 cycles:   68051305 heartbeat IPC: 0.54974 cumulative IPC: 0.55763 (Simulation time: 0 hr 4 min 5 sec) 
Heartbeat CPU  0 instructions:  109000002 cycles:   69832468 heartbeat IPC: 0.56143 cumulative IPC: 0.55805 (Simulation time: 0 hr 4 min 9 sec) 
Heartbeat CPU  0 instructions:  110000003 cycles:   71642680 heartbeat IPC: 0.55242 cumulative IPC: 0.55748 (Simulation time: 0 hr 4 min 12 sec) 
Heartbeat CPU  0 instructions:  111000000 cycles:   73444313 heartbeat IPC: 0.55505 cumulative IPC: 0.55726 (Simulation time: 0 hr 4 min 15 sec) 
Heartbeat CPU  0 instructions:  112000000 cycles:   75237453 heartbeat IPC: 0.55768 cumulative IPC: 0.55730 (Simulation time: 0 hr 4 min 18 sec) 
Heartbeat CPU  0 instructions:  113000000 cycles:   77038828 heartbeat IPC: 0.55513 cumulative IPC: 0.55713 (Simulation time: 0 hr 4 min 22 sec) 
Heartbeat CPU  0 instructions:  114000001 cycles:   78846816 heartbeat IPC: 0.55310 cumulative IPC: 0.55684 (Simulation time: 0 hr 4 min 25 sec) 
Heartbeat CPU  0 instructions:  115000002 cycles:   80627729 heartbeat IPC: 0.56151 cumulative IPC: 0.55715 (Simulation time: 0 hr 4 min 28 sec) 
Heartbeat CPU  0 instructions:  116000000 cycles:   82432684 heartbeat IPC: 0.55403 cumulative IPC: 0.55695 (Simulation time: 0 hr 4 min 31 sec) 
Heartbeat CPU  0 instructions:  117000001 cycles:   84230347 heartbeat IPC: 0.55628 cumulative IPC: 0.55691 (Simulation time: 0 hr 4 min 35 sec) 
Heartbeat CPU  0 instructions:  118000002 cycles:   86021869 heartbeat IPC: 0.55819 cumulative IPC: 0.55698 (Simulation time: 0 hr 4 min 38 sec) 
Heartbeat CPU  0 instructions:  119000003 cycles:   87822435 heartbeat IPC: 0.55538 cumulative IPC: 0.55690 (Simulation time: 0 hr 4 min 41 sec) 
Heartbeat CPU  0 instructions:  120000000 cycles:   89622180 heartbeat IPC: 0.55563 cumulative IPC: 0.55683 (Simulation time: 0 hr 4 min 44 sec) 
Heartbeat CPU  0 instructions:  121000003 cycles:   91384171 heartbeat IPC: 0.56754 cumulative IPC: 0.55734 (Simulation time: 0 hr 4 min 48 sec) 
Heartbeat CPU  0 instructions:  122000002 cycles:   92798305 heartbeat IPC: 0.70715 cumulative IPC: 0.56275 (Simulation time: 0 hr 4 min 50 sec) 
Heartbeat CPU  0 instructions:  123000002 cycles:   93919582 heartbeat IPC: 0.89184 cumulative IPC: 0.57193 (Simulation time: 0 hr 4 min 53 sec) 
Heartbeat CPU  0 instructions:  124000000 cycles:   95096927 heartbeat IPC: 0.84937 cumulative IPC: 0.57982 (Simulation time: 0 hr 4 min 56 sec) 
Heartbeat CPU  0 instructions:  125000000 cycles:   96298836 heartbeat IPC: 0.83201 cumulative IPC: 0.58694 (Simulation time: 0 hr 4 min 59 sec) 
Heartbeat CPU  0 instructions:  126000001 cycles:   97393156 heartbeat IPC: 0.91381 cumulative IPC: 0.59513 (Simulation time: 0 hr 5 min 1 sec) 
Heartbeat CPU  0 instructions:  127000002 cycles:   98534071 heartbeat IPC: 0.87649 cumulative IPC: 0.60229 (Simulation time: 0 hr 5 min 4 sec) 
Heartbeat CPU  0 instructions:  128000000 cycles:   99650871 heartbeat IPC: 0.89541 cumulative IPC: 0.60941 (Simulation time: 0 hr 5 min 7 sec) 
Heartbeat CPU  0 instructions:  129000003 cycles:  100804209 heartbeat IPC: 0.86705 cumulative IPC: 0.61572 (Simulation time: 0 hr 5 min 9 sec) 
Heartbeat CPU  0 instructions:  130000003 cycles:  101976625 heartbeat IPC: 0.85294 cumulative IPC: 0.62148 (Simulation time: 0 hr 5 min 12 sec) 
Heartbeat CPU  0 instructions:  131000000 cycles:  103094949 heartbeat IPC: 0.89419 cumulative IPC: 0.62766 (Simulation time: 0 hr 5 min 15 sec) 
Heartbeat CPU  0 instructions:  132000000 cycles:  104097641 heartbeat IPC: 0.99732 cumulative IPC: 0.63501 (Simulation time: 0 hr 5 min 17 sec) 
Heartbeat CPU  0 instructions:  133000002 cycles:  105218574 heartbeat IPC: 0.89212 cumulative IPC: 0.64061 (Simulation time: 0 hr 5 min 20 sec) 
Heartbeat CPU  0 instructions:  134000002 cycles:  106288171 heartbeat IPC: 0.93493 cumulative IPC: 0.64659 (Simulation time: 0 hr 5 min 23 sec) 
Heartbeat CPU  0 instructions:  135000000 cycles:  107421981 heartbeat IPC: 0.88198 cumulative IPC: 0.65156 (Simulation time: 0 hr 5 min 25 sec) 
Heartbeat CPU  0 instructions:  136000000 cycles:  108520961 heartbeat IPC: 0.90993 cumulative IPC: 0.65674 (Simulation time: 0 hr 5 min 28 sec) 
Heartbeat CPU  0 instructions:  137000000 cycles:  109603594 heartbeat IPC: 0.92367 cumulative IPC: 0.66191 (Simulation time: 0 hr 5 min 31 sec) 
Heartbeat CPU  0 instructions:  138000003 cycles:  110759729 heartbeat IPC: 0.86495 cumulative IPC: 0.66603 (Simulation time: 0 hr 5 min 33 sec) 
Heartbeat CPU  0 instructions:  139000000 cycles:  111881231 heartbeat IPC: 0.89166 cumulative IPC: 0.67038 (Simulation time: 0 hr 5 min 36 sec) 
Heartbeat CPU  0 instructions:  140000000 cycles:  113042616 heartbeat IPC: 0.86104 cumulative IPC: 0.67411 (Simulation time: 0 hr 5 min 39 sec) 
Heartbeat CPU  0 instructions:  141000000 cycles:  114204782 heartbeat IPC: 0.86046 cumulative IPC: 0.67769 (Simulation time: 0 hr 5 min 41 sec) 
Heartbeat CPU  0 instructions:  142000000 cycles:  115269028 heartbeat IPC: 0.93963 cumulative IPC: 0.68222 (Simulation time: 0 hr 5 min 44 sec) 
Heartbeat CPU  0 instructions:  143000001 cycles:  116385403 heartbeat IPC: 0.89576 cumulative IPC: 0.68602 (Simulation time: 0 hr 5 min 47 sec) 
Heartbeat CPU  0 instructions:  144000000 cycles:  117492987 heartbeat IPC: 0.90287 cumulative IPC: 0.68978 (Simulation time: 0 hr 5 min 49 sec) 
Heartbeat CPU  0 instructions:  145000003 cycles:  118594879 heartbeat IPC: 0.90753 cumulative IPC: 0.69348 (Simulation time: 0 hr 5 min 52 sec) 
Heartbeat CPU  0 instructions:  146000001 cycles:  119732114 heartbeat IPC: 0.87932 cumulative IPC: 0.69668 (Simulation time: 0 hr 5 min 54 sec) 
Heartbeat CPU  0 instructions:  147000002 cycles:  120824467 heartbeat IPC: 0.91546 cumulative IPC: 0.70024 (Simulation time: 0 hr 5 min 57 sec) 
Heartbeat CPU  0 instructions:  148000000 cycles:  121913418 heartbeat IPC: 0.91831 cumulative IPC: 0.70372 (Simulation time: 0 hr 6 min 0 sec) 
Heartbeat CPU  0 instructions:  149000000 cycles:  123052105 heartbeat IPC: 0.87820 cumulative IPC: 0.70659 (Simulation time: 0 hr 6 min 3 sec) 
Heartbeat CPU  0 instructions:  150000003 cycles:  124174951 heartbeat IPC: 0.89060 cumulative IPC: 0.70952 (Simulation time: 0 hr 6 min 5 sec) 
Heartbeat CPU  0 instructions:  151000001 cycles:  125281730 heartbeat IPC: 0.90352 cumulative IPC: 0.71252 (Simulation time: 0 hr 6 min 8 sec) 
Heartbeat CPU  0 instructions:  152000000 cycles:  126444681 heartbeat IPC: 0.85988 cumulative IPC: 0.71488 (Simulation time: 0 hr 6 min 11 sec) 
Heartbeat CPU  0 instructions:  153000001 cycles:  127474984 heartbeat IPC: 0.97059 cumulative IPC: 0.71845 (Simulation time: 0 hr 6 min 13 sec) 
Heartbeat CPU  0 instructions:  154000003 cycles:  128608416 heartbeat IPC: 0.88228 cumulative IPC: 0.72093 (Simulation time: 0 hr 6 min 16 sec) 
Heartbeat CPU  0 instructions:  155000003 cycles:  129729657 heartbeat IPC: 0.89187 cumulative IPC: 0.72345 (Simulation time: 0 hr 6 min 19 sec) 
Heartbeat CPU  0 instructions:  156000000 cycles:  130838737 heartbeat IPC: 0.90165 cumulative IPC: 0.72601 (Simulation time: 0 hr 6 min 21 sec) 
Heartbeat CPU  0 instructions:  157000000 cycles:  131977181 heartbeat IPC: 0.87839 cumulative IPC: 0.72823 (Simulation time: 0 hr 6 min 24 sec) 
Heartbeat CPU  0 instructions:  158000002 cycles:  133079944 heartbeat IPC: 0.90681 cumulative IPC: 0.73071 (Simulation time: 0 hr 6 min 27 sec) 
Heartbeat CPU  0 instructions:  159000002 cycles:  134199787 heartbeat IPC: 0.89298 cumulative IPC: 0.73297 (Simulation time: 0 hr 6 min 29 sec) 
Heartbeat CPU  0 instructions:  160000000 cycles:  135328497 heartbeat IPC: 0.88597 cumulative IPC: 0.73508 (Simulation time: 0 hr 6 min 32 sec) 
Heartbeat CPU  0 instructions:  161000003 cycles:  136473862 heartbeat IPC: 0.87309 cumulative IPC: 0.73699 (Simulation time: 0 hr 6 min 35 sec) 
Heartbeat CPU  0 instructions:  162000000 cycles:  137568326 heartbeat IPC: 0.91369 cumulative IPC: 0.73930 (Simulation time: 0 hr 6 min 37 sec) 
Heartbeat CPU  0 instructions:  163000001 cycles:  138727442 heartbeat IPC: 0.86273 cumulative IPC: 0.74098 (Simulation time: 0 hr 6 min 40 sec) 
Heartbeat CPU  0 instructions:  164000000 cycles:  139827641 heartbeat IPC: 0.90893 cumulative IPC: 0.74313 (Simulation time: 0 hr 6 min 43 sec) 
Heartbeat CPU  0 instructions:  165000001 cycles:  140967906 heartbeat IPC: 0.87699 cumulative IPC: 0.74487 (Simulation time: 0 hr 6 min 45 sec) 
Heartbeat CPU  0 instructions:  166000003 cycles:  142106219 heartbeat IPC: 0.87849 cumulative IPC: 0.74660 (Simulation time: 0 hr 6 min 48 sec) 
Heartbeat CPU  0 instructions:  167000001 cycles:  143260626 heartbeat IPC: 0.86624 cumulative IPC: 0.74814 (Simulation time: 0 hr 6 min 51 sec) 
Heartbeat CPU  0 instructions:  168000000 cycles:  144360592 heartbeat IPC: 0.90912 cumulative IPC: 0.75009 (Simulation time: 0 hr 6 min 53 sec) 
Heartbeat CPU  0 instructions:  169000001 cycles:  145488925 heartbeat IPC: 0.88626 cumulative IPC: 0.75176 (Simulation time: 0 hr 6 min 56 sec) 
Heartbeat CPU  0 instructions:  170000000 cycles:  146583670 heartbeat IPC: 0.91345 cumulative IPC: 0.75367 (Simulation time: 0 hr 6 min 59 sec) 
Heartbeat CPU  0 instructions:  171000000 cycles:  147703556 heartbeat IPC: 0.89295 cumulative IPC: 0.75533 (Simulation time: 0 hr 7 min 1 sec) 
Heartbeat CPU  0 instructions:  172000000 cycles:  148872650 heartbeat IPC: 0.85536 cumulative IPC: 0.75656 (Simulation time: 0 hr 7 min 4 sec) 
Heartbeat CPU  0 instructions:  173000002 cycles:  150071331 heartbeat IPC: 0.83425 cumulative IPC: 0.75753 (Simulation time: 0 hr 7 min 7 sec) 
Heartbeat CPU  0 instructions:  174000002 cycles:  151222361 heartbeat IPC: 0.86879 cumulative IPC: 0.75884 (Simulation time: 0 hr 7 min 9 sec) 
Heartbeat CPU  0 instructions:  175000000 cycles:  152349271 heartbeat IPC: 0.88738 cumulative IPC: 0.76031 (Simulation time: 0 hr 7 min 12 sec) 
Heartbeat CPU  0 instructions:  176000000 cycles:  153483151 heartbeat IPC: 0.88193 cumulative IPC: 0.76169 (Simulation time: 0 hr 7 min 15 sec) 
Heartbeat CPU  0 instructions:  177000001 cycles:  154645925 heartbeat IPC: 0.86001 cumulative IPC: 0.76282 (Simulation time: 0 hr 7 min 17 sec) 
Heartbeat CPU  0 instructions:  178000002 cycles:  155794335 heartbeat IPC: 0.87077 cumulative IPC: 0.76404 (Simulation time: 0 hr 7 min 20 sec) 
Heartbeat CPU  0 instructions:  179000001 cycles:  156884633 heartbeat IPC: 0.91718 cumulative IPC: 0.76565 (Simulation time: 0 hr 7 min 23 sec) 
Heartbeat CPU  0 instructions:  180000000 cycles:  158032737 heartbeat IPC: 0.87100 cumulative IPC: 0.76681 (Simulation time: 0 hr 7 min 25 sec) 
Heartbeat CPU  0 instructions:  181000000 cycles:  159120449 heartbeat IPC: 0.91936 cumulative IPC: 0.76839 (Simulation time: 0 hr 7 min 28 sec) 
Heartbeat CPU  0 instructions:  182000000 cycles:  160257980 heartbeat IPC: 0.87910 cumulative IPC: 0.76957 (Simulation time: 0 hr 7 min 31 sec) 
Heartbeat CPU  0 instructions:  183000003 cycles:  161426071 heartbeat IPC: 0.85610 cumulative IPC: 0.77051 (Simulation time: 0 hr 7 min 33 sec) 
Heartbeat CPU  0 instructions:  184000000 cycles:  162586980 heartbeat IPC: 0.86139 cumulative IPC: 0.77148 (Simulation time: 0 hr 7 min 36 sec) 
Heartbeat CPU  0 instructions:  185000002 cycles:  163706859 heartbeat IPC: 0.89296 cumulative IPC: 0.77271 (Simulation time: 0 hr 7 min 39 sec) 
Heartbeat CPU  0 instructions:  186000003 cycles:  164798381 heartbeat IPC: 0.91615 cumulative IPC: 0.77412 (Simulation time: 0 hr 7 min 41 sec) 
Heartbeat CPU  0 instructions:  187000003 cycles:  165919574 heartbeat IPC: 0.89191 cumulative IPC: 0.77530 (Simulation time: 0 hr 7 min 44 sec) 
Heartbeat CPU  0 instructions:  188000000 cycles:  167084707 heartbeat IPC: 0.85827 cumulative IPC: 0.77615 (Simulation time: 0 hr 7 min 47 sec) 
Heartbeat CPU  0 instructions:  189000001 cycles:  168243890 heartbeat IPC: 0.86268 cumulative IPC: 0.77703 (Simulation time: 0 hr 7 min 49 sec) 
Heartbeat CPU  0 instructions:  190000003 cycles:  169318689 heartbeat IPC: 0.93041 cumulative IPC: 0.77845 (Simulation time: 0 hr 7 min 52 sec) 
Heartbeat CPU  0 instructions:  191000001 cycles:  170474807 heartbeat IPC: 0.86496 cumulative IPC: 0.77931 (Simulation time: 0 hr 7 min 55 sec) 
Heartbeat CPU  0 instructions:  192000000 cycles:  171571210 heartbeat IPC: 0.91207 cumulative IPC: 0.78055 (Simulation time: 0 hr 7 min 57 sec) 
Heartbeat CPU  0 instructions:  193000000 cycles:  172697958 heartbeat IPC: 0.88751 cumulative IPC: 0.78156 (Simulation time: 0 hr 8 min 0 sec) 
Heartbeat CPU  0 instructions:  194000003 cycles:  173914616 heartbeat IPC: 0.82193 cumulative IPC: 0.78197 (Simulation time: 0 hr 8 min 3 sec) 
Heartbeat CPU  0 instructions:  195000002 cycles:  174989779 heartbeat IPC: 0.93009 cumulative IPC: 0.78328 (Simulation time: 0 hr 8 min 5 sec) 
Heartbeat CPU  0 instructions:  196000000 cycles:  176107909 heartbeat IPC: 0.89435 cumulative IPC: 0.78429 (Simulation time: 0 hr 8 min 8 sec) 
Heartbeat CPU  0 instructions:  197000000 cycles:  177250427 heartbeat IPC: 0.87526 cumulative IPC: 0.78514 (Simulation time: 0 hr 8 min 11 sec) 
Heartbeat CPU  0 instructions:  198000001 cycles:  178338134 heartbeat IPC: 0.91937 cumulative IPC: 0.78631 (Simulation time: 0 hr 8 min 13 sec) 
Heartbeat CPU  0 instructions:  199000003 cycles:  179495946 heartbeat IPC: 0.86370 cumulative IPC: 0.78702 (Simulation time: 0 hr 8 min 16 sec) 
Heartbeat CPU  0 instructions:  200000000 cycles:  180610238 heartbeat IPC: 0.89743 cumulative IPC: 0.78799 (Simulation time: 0 hr 8 min 19 sec) 
Heartbeat CPU  0 instructions:  201000002 cycles:  181709658 heartbeat IPC: 0.90957 cumulative IPC: 0.78903 (Simulation time: 0 hr 8 min 21 sec) 
Heartbeat CPU  0 instructions:  202000000 cycles:  182863505 heartbeat IPC: 0.86666 cumulative IPC: 0.78973 (Simulation time: 0 hr 8 min 24 sec) 
Heartbeat CPU  0 instructions:  203000000 cycles:  183955092 heartbeat IPC: 0.91610 cumulative IPC: 0.79079 (Simulation time: 0 hr 8 min 27 sec) 
Heartbeat CPU  0 instructions:  204000000 cycles:  185105767 heartbeat IPC: 0.86906 cumulative IPC: 0.79147 (Simulation time: 0 hr 8 min 29 sec) 
Heartbeat CPU  0 instructions:  205000000 cycles:  186330982 heartbeat IPC: 0.81618 cumulative IPC: 0.79170 (Simulation time: 0 hr 8 min 32 sec) 
Heartbeat CPU  0 instructions:  206000003 cycles:  187424451 heartbeat IPC: 0.91452 cumulative IPC: 0.79270 (Simulation time: 0 hr 8 min 35 sec) 
Heartbeat CPU  0 instructions:  207000003 cycles:  188588201 heartbeat IPC: 0.85929 cumulative IPC: 0.79328 (Simulation time: 0 hr 8 min 37 sec) 
Heartbeat CPU  0 instructions:  208000000 cycles:  189767293 heartbeat IPC: 0.84811 cumulative IPC: 0.79375 (Simulation time: 0 hr 8 min 40 sec) 
Heartbeat CPU  0 instructions:  209000000 cycles:  190886495 heartbeat IPC: 0.89349 cumulative IPC: 0.79457 (Simulation time: 0 hr 8 min 43 sec) 
Heartbeat CPU  0 instructions:  210000003 cycles:  192041220 heartbeat IPC: 0.86601 cumulative IPC: 0.79516 (Simulation time: 0 hr 8 min 45 sec) 
Heartbeat CPU  0 instructions:  211000002 cycles:  193156834 heartbeat IPC: 0.89637 cumulative IPC: 0.79597 (Simulation time: 0 hr 8 min 48 sec) 
Heartbeat CPU  0 instructions:  212000000 cycles:  194263590 heartbeat IPC: 0.90354 cumulative IPC: 0.79682 (Simulation time: 0 hr 8 min 51 sec) 
Heartbeat CPU  0 instructions:  213000002 cycles:  195445794 heartbeat IPC: 0.84588 cumulative IPC: 0.79723 (Simulation time: 0 hr 8 min 53 sec) 
Heartbeat CPU  0 instructions:  214000001 cycles:  196589279 heartbeat IPC: 0.87452 cumulative IPC: 0.79785 (Simulation time: 0 hr 8 min 56 sec) 
Heartbeat CPU  0 instructions:  215000002 cycles:  197827109 heartbeat IPC: 0.80787 cumulative IPC: 0.79793 (Simulation time: 0 hr 8 min 59 sec) 
Heartbeat CPU  0 instructions:  216000000 cycles:  198938315 heartbeat IPC: 0.89992 cumulative IPC: 0.79871 (Simulation time: 0 hr 9 min 1 sec) 
Heartbeat CPU  0 instructions:  217000002 cycles:  200048490 heartbeat IPC: 0.90076 cumulative IPC: 0.79949 (Simulation time: 0 hr 9 min 4 sec) 
Heartbeat CPU  0 instructions:  218000000 cycles:  201208551 heartbeat IPC: 0.86202 cumulative IPC: 0.79998 (Simulation time: 0 hr 9 min 7 sec) 
Heartbeat CPU  0 instructions:  219000002 cycles:  202352437 heartbeat IPC: 0.87421 cumulative IPC: 0.80055 (Simulation time: 0 hr 9 min 10 sec) 
Heartbeat CPU  0 instructions:  220000000 cycles:  203452856 heartbeat IPC: 0.90874 cumulative IPC: 0.80135 (Simulation time: 0 hr 9 min 12 sec) 
Heartbeat CPU  0 instructions:  221000002 cycles:  204593334 heartbeat IPC: 0.87683 cumulative IPC: 0.80192 (Simulation time: 0 hr 9 min 15 sec) 
Heartbeat CPU  0 instructions:  222000000 cycles:  205684276 heartbeat IPC: 0.91664 cumulative IPC: 0.80274 (Simulation time: 0 hr 9 min 18 sec) 
Heartbeat CPU  0 instructions:  223000002 cycles:  206825189 heartbeat IPC: 0.87649 cumulative IPC: 0.80329 (Simulation time: 0 hr 9 min 21 sec) 
Heartbeat CPU  0 instructions:  224000000 cycles:  207976126 heartbeat IPC: 0.86886 cumulative IPC: 0.80378 (Simulation time: 0 hr 9 min 24 sec) 
Heartbeat CPU  0 instructions:  225000000 cycles:  209178184 heartbeat IPC: 0.83191 cumulative IPC: 0.80400 (Simulation time: 0 hr 9 min 26 sec) 
Heartbeat CPU  0 instructions:  226000000 cycles:  210273531 heartbeat IPC: 0.91295 cumulative IPC: 0.80476 (Simulation time: 0 hr 9 min 29 sec) 
Heartbeat CPU  0 instructions:  227000001 cycles:  211387627 heartbeat IPC: 0.89759 cumulative IPC: 0.80541 (Simulation time: 0 hr 9 min 32 sec) 
Heartbeat CPU  0 instructions:  228000000 cycles:  212479008 heartbeat IPC: 0.91627 cumulative IPC: 0.80618 (Simulation time: 0 hr 9 min 34 sec) 
Heartbeat CPU  0 instructions:  229000001 cycles:  213608741 heartbeat IPC: 0.88517 cumulative IPC: 0.80673 (Simulation time: 0 hr 9 min 37 sec) 
Heartbeat CPU  0 instructions:  230000001 cycles:  214752617 heartbeat IPC: 0.87422 cumulative IPC: 0.80721 (Simulation time: 0 hr 9 min 40 sec) 
Heartbeat CPU  0 instructions:  231000002 cycles:  215874447 heartbeat IPC: 0.89140 cumulative IPC: 0.80780 (Simulation time: 0 hr 9 min 42 sec) 
Heartbeat CPU  0 instructions:  232000000 cycles:  217002502 heartbeat IPC: 0.88648 cumulative IPC: 0.80834 (Simulation time: 0 hr 9 min 45 sec) 
Heartbeat CPU  0 instructions:  233000000 cycles:  218109573 heartbeat IPC: 0.90328 cumulative IPC: 0.80898 (Simulation time: 0 hr 9 min 48 sec) 
Heartbeat CPU  0 instructions:  234000001 cycles:  219233312 heartbeat IPC: 0.88989 cumulative IPC: 0.80953 (Simulation time: 0 hr 9 min 50 sec) 
Heartbeat CPU  0 instructions:  235000001 cycles:  220388974 heartbeat IPC: 0.86530 cumulative IPC: 0.80992 (Simulation time: 0 hr 9 min 53 sec) 
Heartbeat CPU  0 instructions:  236000000 cycles:  221616280 heartbeat IPC: 0.81479 cumulative IPC: 0.80995 (Simulation time: 0 hr 9 min 56 sec) 
Heartbeat CPU  0 instructions:  237000000 cycles:  222721371 heartbeat IPC: 0.90490 cumulative IPC: 0.81057 (Simulation time: 0 hr 9 min 58 sec) 
Heartbeat CPU  0 instructions:  238000000 cycles:  223852610 heartbeat IPC: 0.88399 cumulative IPC: 0.81106 (Simulation time: 0 hr 10 min 1 sec) 
Heartbeat CPU  0 instructions:  239000003 cycles:  224934852 heartbeat IPC: 0.92401 cumulative IPC: 0.81177 (Simulation time: 0 hr 10 min 3 sec) 
Heartbeat CPU  0 instructions:  240000000 cycles:  226071688 heartbeat IPC: 0.87963 cumulative IPC: 0.81222 (Simulation time: 0 hr 10 min 6 sec) 
Heartbeat CPU  0 instructions:  241000001 cycles:  227204213 heartbeat IPC: 0.88298 cumulative IPC: 0.81268 (Simulation time: 0 hr 10 min 9 sec) 
Heartbeat CPU  0 instructions:  242000001 cycles:  228337973 heartbeat IPC: 0.88202 cumulative IPC: 0.81313 (Simulation time: 0 hr 10 min 11 sec) 
Heartbeat CPU  0 instructions:  243000001 cycles:  229418787 heartbeat IPC: 0.92523 cumulative IPC: 0.81382 (Simulation time: 0 hr 10 min 14 sec) 
Heartbeat CPU  0 instructions:  244000000 cycles:  230555620 heartbeat IPC: 0.87964 cumulative IPC: 0.81425 (Simulation time: 0 hr 10 min 17 sec) 
Heartbeat CPU  0 instructions:  245000002 cycles:  231657756 heartbeat IPC: 0.90733 cumulative IPC: 0.81482 (Simulation time: 0 hr 10 min 19 sec) 
Heartbeat CPU  0 instructions:  246000003 cycles:  232863366 heartbeat IPC: 0.82946 cumulative IPC: 0.81492 (Simulation time: 0 hr 10 min 22 sec) 
Heartbeat CPU  0 instructions:  247000003 cycles:  234008392 heartbeat IPC: 0.87334 cumulative IPC: 0.81529 (Simulation time: 0 hr 10 min 25 sec) 
Heartbeat CPU  0 instructions:  248000000 cycles:  235082149 heartbeat IPC: 0.93131 cumulative IPC: 0.81598 (Simulation time: 0 hr 10 min 27 sec) 
Heartbeat CPU  0 instructions:  249000003 cycles:  236210991 heartbeat IPC: 0.88587 cumulative IPC: 0.81641 (Simulation time: 0 hr 10 min 30 sec) 
Heartbeat CPU  0 instructions:  250000003 cycles:  237316818 heartbeat IPC: 0.90430 cumulative IPC: 0.81694 (Simulation time: 0 hr 10 min 33 sec) 
Heartbeat CPU  0 instructions:  251000003 cycles:  238457729 heartbeat IPC: 0.87649 cumulative IPC: 0.81731 (Simulation time: 0 hr 10 min 35 sec) 
Heartbeat CPU  0 instructions:  252000000 cycles:  239602862 heartbeat IPC: 0.87326 cumulative IPC: 0.81765 (Simulation time: 0 hr 10 min 38 sec) 
Heartbeat CPU  0 instructions:  253000001 cycles:  240745156 heartbeat IPC: 0.87543 cumulative IPC: 0.81801 (Simulation time: 0 hr 10 min 41 sec) 
Heartbeat CPU  0 instructions:  254000000 cycles:  241830172 heartbeat IPC: 0.92164 cumulative IPC: 0.81860 (Simulation time: 0 hr 10 min 43 sec) 
Heartbeat CPU  0 instructions:  255000002 cycles:  242969116 heartbeat IPC: 0.87801 cumulative IPC: 0.81896 (Simulation time: 0 hr 10 min 46 sec) 
Heartbeat CPU  0 instructions:  256000000 cycles:  244062493 heartbeat IPC: 0.91460 cumulative IPC: 0.81951 (Simulation time: 0 hr 10 min 49 sec) 
Heartbeat CPU  0 instructions:  257000002 cycles:  245264069 heartbeat IPC: 0.83224 cumulative IPC: 0.81959 (Simulation time: 0 hr 10 min 51 sec) 
Heartbeat CPU  0 instructions:  258000003 cycles:  246410471 heartbeat IPC: 0.87230 cumulative IPC: 0.81990 (Simulation time: 0 hr 10 min 54 sec) 
Heartbeat CPU  0 instructions:  259000002 cycles:  247486117 heartbeat IPC: 0.92967 cumulative IPC: 0.82051 (Simulation time: 0 hr 10 min 57 sec) 
Heartbeat CPU  0 instructions:  260000000 cycles:  248629263 heartbeat IPC: 0.87478 cumulative IPC: 0.82083 (Simulation time: 0 hr 10 min 59 sec) 
Heartbeat CPU  0 instructions:  261000001 cycles:  249745606 heartbeat IPC: 0.89578 cumulative IPC: 0.82126 (Simulation time: 0 hr 11 min 2 sec) 
Heartbeat CPU  0 instructions:  262000002 cycles:  250882821 heartbeat IPC: 0.87934 cumulative IPC: 0.82159 (Simulation time: 0 hr 11 min 5 sec) 
Heartbeat CPU  0 instructions:  263000001 cycles:  252038277 heartbeat IPC: 0.86546 cumulative IPC: 0.82185 (Simulation time: 0 hr 11 min 8 sec) 
Heartbeat CPU  0 instructions:  264000000 cycles:  253176665 heartbeat IPC: 0.87843 cumulative IPC: 0.82217 (Simulation time: 0 hr 11 min 10 sec) 
Heartbeat CPU  0 instructions:  265000002 cycles:  254278190 heartbeat IPC: 0.90783 cumulative IPC: 0.82264 (Simulation time: 0 hr 11 min 13 sec) 
Heartbeat CPU  0 instructions:  266000000 cycles:  255422442 heartbeat IPC: 0.87393 cumulative IPC: 0.82293 (Simulation time: 0 hr 11 min 16 sec) 
Heartbeat CPU  0 instructions:  267000002 cycles:  257178053 heartbeat IPC: 0.56960 cumulative IPC: 0.82075 (Simulation time: 0 hr 11 min 18 sec) 
Heartbeat CPU  0 instructions:  268000000 cycles:  260361501 heartbeat IPC: 0.31412 cumulative IPC: 0.81294 (Simulation time: 0 hr 11 min 22 sec) 
Heartbeat CPU  0 instructions:  269000002 cycles:  262005415 heartbeat IPC: 0.60831 cumulative IPC: 0.81133 (Simulation time: 0 hr 11 min 25 sec) 
Heartbeat CPU  0 instructions:  270000003 cycles:  263162035 heartbeat IPC: 0.86459 cumulative IPC: 0.81162 (Simulation time: 0 hr 11 min 28 sec) 
Heartbeat CPU  0 instructions:  271000001 cycles:  264260473 heartbeat IPC: 0.91038 cumulative IPC: 0.81214 (Simulation time: 0 hr 11 min 31 sec) 
Heartbeat CPU  0 instructions:  272000000 cycles:  265374940 heartbeat IPC: 0.89729 cumulative IPC: 0.81259 (Simulation time: 0 hr 11 min 34 sec) 
Heartbeat CPU  0 instructions:  273000002 cycles:  266411272 heartbeat IPC: 0.96494 cumulative IPC: 0.81333 (Simulation time: 0 hr 11 min 36 sec) 
Heartbeat CPU  0 instructions:  274000003 cycles:  267447718 heartbeat IPC: 0.96484 cumulative IPC: 0.81406 (Simulation time: 0 hr 11 min 39 sec) 
Heartbeat CPU  0 instructions:  275000000 cycles:  268545284 heartbeat IPC: 0.91110 cumulative IPC: 0.81456 (Simulation time: 0 hr 11 min 42 sec) 
Heartbeat CPU  0 instructions:  276000000 cycles:  269591804 heartbeat IPC: 0.95555 cumulative IPC: 0.81524 (Simulation time: 0 hr 11 min 44 sec) 
Heartbeat CPU  0 instructions:  277000003 cycles:  270699603 heartbeat IPC: 0.90269 cumulative IPC: 0.81569 (Simulation time: 0 hr 11 min 47 sec) 
Heartbeat CPU  0 instructions:  278000003 cycles:  271717416 heartbeat IPC: 0.98250 cumulative IPC: 0.81647 (Simulation time: 0 hr 11 min 50 sec) 
Heartbeat CPU  0 instructions:  279000001 cycles:  272761345 heartbeat IPC: 0.95792 cumulative IPC: 0.81714 (Simulation time: 0 hr 11 min 53 sec) 
Heartbeat CPU  0 instructions:  280000000 cycles:  273821155 heartbeat IPC: 0.94356 cumulative IPC: 0.81775 (Simulation time: 0 hr 11 min 55 sec) 
Heartbeat CPU  0 instructions:  281000001 cycles:  274855220 heartbeat IPC: 0.96706 cumulative IPC: 0.81845 (Simulation time: 0 hr 11 min 58 sec) 
Heartbeat CPU  0 instructions:  282000003 cycles:  275865363 heartbeat IPC: 0.98996 cumulative IPC: 0.81923 (Simulation time: 0 hr 12 min 1 sec) 
Heartbeat CPU  0 instructions:  283000000 cycles:  276891047 heartbeat IPC: 0.97496 cumulative IPC: 0.81994 (Simulation time: 0 hr 12 min 3 sec) 
Heartbeat CPU  0 instructions:  284000000 cycles:  277908155 heartbeat IPC: 0.98318 cumulative IPC: 0.82068 (Simulation time: 0 hr 12 min 6 sec) 
Heartbeat CPU  0 instructions:  285000002 cycles:  278908207 heartbeat IPC: 0.99995 cumulative IPC: 0.82148 (Simulation time: 0 hr 12 min 9 sec) 
Heartbeat CPU  0 instructions:  286000000 cycles:  279897006 heartbeat IPC: 1.01133 cumulative IPC: 0.82231 (Simulation time: 0 hr 12 min 12 sec) 
Heartbeat CPU  0 instructions:  287000000 cycles:  280906351 heartbeat IPC: 0.99074 cumulative IPC: 0.82306 (Simulation time: 0 hr 12 min 14 sec) 
Heartbeat CPU  0 instructions:  288000000 cycles:  281902020 heartbeat IPC: 1.00435 cumulative IPC: 0.82385 (Simulation time: 0 hr 12 min 17 sec) 
Heartbeat CPU  0 instructions:  289000003 cycles:  282984471 heartbeat IPC: 0.92383 cumulative IPC: 0.82432 (Simulation time: 0 hr 12 min 20 sec) 
Heartbeat CPU  0 instructions:  290000000 cycles:  284028985 heartbeat IPC: 0.95738 cumulative IPC: 0.82492 (Simulation time: 0 hr 12 min 22 sec) 
Heartbeat CPU  0 instructions:  291000000 cycles:  285016489 heartbeat IPC: 1.01265 cumulative IPC: 0.82573 (Simulation time: 0 hr 12 min 25 sec) 
Heartbeat CPU  0 instructions:  292000000 cycles:  285997831 heartbeat IPC: 1.01901 cumulative IPC: 0.82654 (Simulation time: 0 hr 12 min 28 sec) 
Heartbeat CPU  0 instructions:  293000000 cycles:  286989126 heartbeat IPC: 1.00878 cumulative IPC: 0.82732 (Simulation time: 0 hr 12 min 31 sec) 
Heartbeat CPU  0 instructions:  294000002 cycles:  287979802 heartbeat IPC: 1.00941 cumulative IPC: 0.82809 (Simulation time: 0 hr 12 min 33 sec) 
Heartbeat CPU  0 instructions:  295000002 cycles:  289040207 heartbeat IPC: 0.94304 cumulative IPC: 0.82860 (Simulation time: 0 hr 12 min 36 sec) 
Heartbeat CPU  0 instructions:  296000000 cycles:  290087707 heartbeat IPC: 0.95465 cumulative IPC: 0.82916 (Simulation time: 0 hr 12 min 39 sec) 
Heartbeat CPU  0 instructions:  297000001 cycles:  291074800 heartbeat IPC: 1.01308 cumulative IPC: 0.82993 (Simulation time: 0 hr 12 min 41 sec) 
Heartbeat CPU  0 instructions:  298000000 cycles:  292084816 heartbeat IPC: 0.99008 cumulative IPC: 0.83061 (Simulation time: 0 hr 12 min 44 sec) 
Heartbeat CPU  0 instructions:  299000003 cycles:  293152090 heartbeat IPC: 0.93697 cumulative IPC: 0.83108 (Simulation time: 0 hr 12 min 47 sec) 
Heartbeat CPU  0 instructions:  300000000 cycles:  294207729 heartbeat IPC: 0.94729 cumulative IPC: 0.83159 (Simulation time: 0 hr 12 min 50 sec) 
Heartbeat CPU  0 instructions:  301000002 cycles:  295195757 heartbeat IPC: 1.01212 cumulative IPC: 0.83233 (Simulation time: 0 hr 12 min 52 sec) 
Heartbeat CPU  0 instructions:  302000002 cycles:  296192491 heartbeat IPC: 1.00328 cumulative IPC: 0.83303 (Simulation time: 0 hr 12 min 55 sec) 
Heartbeat CPU  0 instructions:  303000001 cycles:  297178384 heartbeat IPC: 1.01431 cumulative IPC: 0.83377 (Simulation time: 0 hr 12 min 58 sec) 
Heartbeat CPU  0 instructions:  304000000 cycles:  298170967 heartbeat IPC: 1.00747 cumulative IPC: 0.83447 (Simulation time: 0 hr 13 min 0 sec) 
Heartbeat CPU  0 instructions:  305000000 cycles:  299202703 heartbeat IPC: 0.96924 cumulative IPC: 0.83504 (Simulation time: 0 hr 13 min 3 sec) 
Heartbeat CPU  0 instructions:  306000001 cycles:  300247056 heartbeat IPC: 0.95753 cumulative IPC: 0.83556 (Simulation time: 0 hr 13 min 6 sec) 
Heartbeat CPU  0 instructions:  307000003 cycles:  301277387 heartbeat IPC: 0.97056 cumulative IPC: 0.83612 (Simulation time: 0 hr 13 min 8 sec) 
Heartbeat CPU  0 instructions:  308000000 cycles:  302293081 heartbeat IPC: 0.98455 cumulative IPC: 0.83673 (Simulation time: 0 hr 13 min 11 sec) 
Heartbeat CPU  0 instructions:  309000000 cycles:  303350524 heartbeat IPC: 0.94568 cumulative IPC: 0.83719 (Simulation time: 0 hr 13 min 14 sec) 
Heartbeat CPU  0 instructions:  310000001 cycles:  304443634 heartbeat IPC: 0.91482 cumulative IPC: 0.83753 (Simulation time: 0 hr 13 min 17 sec) 
Heartbeat CPU  0 instructions:  311000001 cycles:  305518487 heartbeat IPC: 0.93036 cumulative IPC: 0.83792 (Simulation time: 0 hr 13 min 19 sec) 
Heartbeat CPU  0 instructions:  312000000 cycles:  306599140 heartbeat IPC: 0.92537 cumulative IPC: 0.83830 (Simulation time: 0 hr 13 min 22 sec) 
Heartbeat CPU  0 instructions:  313000000 cycles:  307616810 heartbeat IPC: 0.98264 cumulative IPC: 0.83887 (Simulation time: 0 hr 13 min 25 sec) 
Heartbeat CPU  0 instructions:  314000001 cycles:  308608876 heartbeat IPC: 1.00800 cumulative IPC: 0.83953 (Simulation time: 0 hr 13 min 27 sec) 
Heartbeat CPU  0 instructions:  315000000 cycles:  309623449 heartbeat IPC: 0.98564 cumulative IPC: 0.84011 (Simulation time: 0 hr 13 min 30 sec) 
Heartbeat CPU  0 instructions:  316000000 cycles:  310613297 heartbeat IPC: 1.01026 cumulative IPC: 0.84077 (Simulation time: 0 hr 13 min 33 sec) 
Heartbeat CPU  0 instructions:  317000001 cycles:  311601381 heartbeat IPC: 1.01206 cumulative IPC: 0.84142 (Simulation time: 0 hr 13 min 35 sec) 
Heartbeat CPU  0 instructions:  318000001 cycles:  312603509 heartbeat IPC: 0.99788 cumulative IPC: 0.84203 (Simulation time: 0 hr 13 min 38 sec) 
Heartbeat CPU  0 instructions:  319000002 cycles:  313592253 heartbeat IPC: 1.01139 cumulative IPC: 0.84267 (Simulation time: 0 hr 13 min 41 sec) 
Heartbeat CPU  0 instructions:  320000000 cycles:  314589424 heartbeat IPC: 1.00284 cumulative IPC: 0.84328 (Simulation time: 0 hr 13 min 44 sec) 
Heartbeat CPU  0 instructions:  321000000 cycles:  315572216 heartbeat IPC: 1.01751 cumulative IPC: 0.84394 (Simulation time: 0 hr 13 min 46 sec) 
Heartbeat CPU  0 instructions:  322000001 cycles:  316567995 heartbeat IPC: 1.00424 cumulative IPC: 0.84455 (Simulation time: 0 hr 13 min 49 sec) 
Heartbeat CPU  0 instructions:  323000000 cycles:  317612288 heartbeat IPC: 0.95758 cumulative IPC: 0.84499 (Simulation time: 0 hr 13 min 52 sec) 
Heartbeat CPU  0 instructions:  324000000 cycles:  318630111 heartbeat IPC: 0.98249 cumulative IPC: 0.84552 (Simulation time: 0 hr 13 min 54 sec) 
Heartbeat CPU  0 instructions:  325000001 cycles:  319620215 heartbeat IPC: 1.01000 cumulative IPC: 0.84613 (Simulation time: 0 hr 13 min 57 sec) 
Heartbeat CPU  0 instructions:  326000000 cycles:  320603441 heartbeat IPC: 1.01706 cumulative IPC: 0.84676 (Simulation time: 0 hr 14 min 0 sec) 
Heartbeat CPU  0 instructions:  327000001 cycles:  321602349 heartbeat IPC: 1.00109 cumulative IPC: 0.84734 (Simulation time: 0 hr 14 min 2 sec) 
Heartbeat CPU  0 instructions:  328000000 cycles:  322587141 heartbeat IPC: 1.01544 cumulative IPC: 0.84795 (Simulation time: 0 hr 14 min 5 sec) 
Heartbeat CPU  0 instructions:  329000001 cycles:  323600557 heartbeat IPC: 0.98676 cumulative IPC: 0.84848 (Simulation time: 0 hr 14 min 8 sec) 
Heartbeat CPU  0 instructions:  330000000 cycles:  325716411 heartbeat IPC: 0.47262 cumulative IPC: 0.84555 (Simulation time: 0 hr 14 min 11 sec) 
Heartbeat CPU  0 instructions:  331000000 cycles:  327573244 heartbeat IPC: 0.53855 cumulative IPC: 0.84347 (Simulation time: 0 hr 14 min 14 sec) 
Heartbeat CPU  0 instructions:  332000000 cycles:  329272303 heartbeat IPC: 0.58856 cumulative IPC: 0.84190 (Simulation time: 0 hr 14 min 17 sec) 
Heartbeat CPU  0 instructions:  333000001 cycles:  330807404 heartbeat IPC: 0.65142 cumulative IPC: 0.84084 (Simulation time: 0 hr 14 min 20 sec) 
Heartbeat CPU  0 instructions:  334000002 cycles:  332572821 heartbeat IPC: 0.56644 cumulative IPC: 0.83911 (Simulation time: 0 hr 14 min 23 sec) 
Heartbeat CPU  0 instructions:  335000002 cycles:  334522152 heartbeat IPC: 0.51300 cumulative IPC: 0.83684 (Simulation time: 0 hr 14 min 26 sec) 
Heartbeat CPU  0 instructions:  336000000 cycles:  336276537 heartbeat IPC: 0.57000 cumulative IPC: 0.83519 (Simulation time: 0 hr 14 min 28 sec) 
Heartbeat CPU  0 instructions:  337000003 cycles:  337918617 heartbeat IPC: 0.60899 cumulative IPC: 0.83388 (Simulation time: 0 hr 14 min 31 sec) 
Heartbeat CPU  0 instructions:  338000000 cycles:  339637658 heartbeat IPC: 0.58172 cumulative IPC: 0.83236 (Simulation time: 0 hr 14 min 34 sec) 
Heartbeat CPU  0 instructions:  339000003 cycles:  342086354 heartbeat IPC: 0.40838 cumulative IPC: 0.82876 (Simulation time: 0 hr 14 min 37 sec) 
Heartbeat CPU  0 instructions:  340000000 cycles:  343814654 heartbeat IPC: 0.57860 cumulative IPC: 0.82727 (Simulation time: 0 hr 14 min 40 sec) 
Heartbeat CPU  0 instructions:  341000000 cycles:  345447605 heartbeat IPC: 0.61239 cumulative IPC: 0.82607 (Simulation time: 0 hr 14 min 43 sec) 
Heartbeat CPU  0 instructions:  342000000 cycles:  347179456 heartbeat IPC: 0.57742 cumulative IPC: 0.82460 (Simulation time: 0 hr 14 min 46 sec) 
Heartbeat CPU  0 instructions:  343000003 cycles:  348856455 heartbeat IPC: 0.59631 cumulative IPC: 0.82331 (Simulation time: 0 hr 14 min 49 sec) 
Heartbeat CPU  0 instructions:  344000000 cycles:  350579753 heartbeat IPC: 0.58028 cumulative IPC: 0.82190 (Simulation time: 0 hr 14 min 52 sec) 
Heartbeat CPU  0 instructions:  345000000 cycles:  352099332 heartbeat IPC: 0.65808 cumulative IPC: 0.82106 (Simulation time: 0 hr 14 min 55 sec) 
Heartbeat CPU  0 instructions:  346000003 cycles:  353677276 heartbeat IPC: 0.63374 cumulative IPC: 0.82008 (Simulation time: 0 hr 14 min 57 sec) 
Heartbeat CPU  0 instructions:  347000002 cycles:  355249998 heartbeat IPC: 0.63584 cumulative IPC: 0.81911 (Simulation time: 0 hr 15 min 0 sec) 
Heartbeat CPU  0 instructions:  348000000 cycles:  357832386 heartbeat IPC: 0.38724 cumulative IPC: 0.81545 (Simulation time: 0 hr 15 min 4 sec) 
Heartbeat CPU  0 instructions:  349000000 cycles:  359630870 heartbeat IPC: 0.55602 cumulative IPC: 0.81392 (Simulation time: 0 hr 15 min 6 sec) 
Heartbeat CPU  0 instructions:  350000003 cycles:  361298175 heartbeat IPC: 0.59977 cumulative IPC: 0.81276 (Simulation time: 0 hr 15 min 9 sec) 
Heartbeat CPU  0 instructions:  351000003 cycles:  363160055 heartbeat IPC: 0.53709 cumulative IPC: 0.81110 (Simulation time: 0 hr 15 min 12 sec) 
Heartbeat CPU  0 instructions:  352000000 cycles:  364925731 heartbeat IPC: 0.56635 cumulative IPC: 0.80971 (Simulation time: 0 hr 15 min 15 sec) 
Heartbeat CPU  0 instructions:  353000000 cycles:  366703963 heartbeat IPC: 0.56236 cumulative IPC: 0.80831 (Simulation time: 0 hr 15 min 18 sec) 
Heartbeat CPU  0 instructions:  354000000 cycles:  368425945 heartbeat IPC: 0.58073 cumulative IPC: 0.80706 (Simulation time: 0 hr 15 min 21 sec) 
Heartbeat CPU  0 instructions:  355000001 cycles:  370037581 heartbeat IPC: 0.62049 cumulative IPC: 0.80611 (Simulation time: 0 hr 15 min 24 sec) 
Heartbeat CPU  0 instructions:  356000000 cycles:  371830524 heartbeat IPC: 0.55774 cumulative IPC: 0.80471 (Simulation time: 0 hr 15 min 27 sec) 
Heartbeat CPU  0 instructions:  357000003 cycles:  373924371 heartbeat IPC: 0.47759 cumulative IPC: 0.80257 (Simulation time: 0 hr 15 min 30 sec) 
Heartbeat CPU  0 instructions:  358000000 cycles:  375737773 heartbeat IPC: 0.55145 cumulative IPC: 0.80116 (Simulation time: 0 hr 15 min 34 sec) 
Heartbeat CPU  0 instructions:  359000002 cycles:  377544593 heartbeat IPC: 0.55346 cumulative IPC: 0.79978 (Simulation time: 0 hr 15 min 37 sec) 
Heartbeat CPU  0 instructions:  360000000 cycles:  379348640 heartbeat IPC: 0.55431 cumulative IPC: 0.79842 (Simulation time: 0 hr 15 min 40 sec) 
Heartbeat CPU  0 instructions:  361000000 cycles:  381144400 heartbeat IPC: 0.55687 cumulative IPC: 0.79709 (Simulation time: 0 hr 15 min 43 sec) 
Heartbeat CPU  0 instructions:  362000000 cycles:  382945882 heartbeat IPC: 0.55510 cumulative IPC: 0.79577 (Simulation time: 0 hr 15 min 47 sec) 
Heartbeat CPU  0 instructions:  363000001 cycles:  384736241 heartbeat IPC: 0.55855 cumulative IPC: 0.79449 (Simulation time: 0 hr 15 min 50 sec) 
Heartbeat CPU  0 instructions:  364000000 cycles:  386526407 heartbeat IPC: 0.55861 cumulative IPC: 0.79322 (Simulation time: 0 hr 15 min 53 sec) 
Heartbeat CPU  0 instructions:  365000002 cycles:  388341588 heartbeat IPC: 0.55091 cumulative IPC: 0.79190 (Simulation time: 0 hr 15 min 56 sec) 
Heartbeat CPU  0 instructions:  366000001 cycles:  390125878 heartbeat IPC: 0.56045 cumulative IPC: 0.79068 (Simulation time: 0 hr 15 min 59 sec) 
Heartbeat CPU  0 instructions:  367000001 cycles:  391928694 heartbeat IPC: 0.55469 cumulative IPC: 0.78942 (Simulation time: 0 hr 16 min 3 sec) 
Heartbeat CPU  0 instructions:  368000000 cycles:  393726486 heartbeat IPC: 0.55624 cumulative IPC: 0.78819 (Simulation time: 0 hr 16 min 6 sec) 
Heartbeat CPU  0 instructions:  369000001 cycles:  395545144 heartbeat IPC: 0.54986 cumulative IPC: 0.78692 (Simulation time: 0 hr 16 min 9 sec) 
Heartbeat CPU  0 instructions:  370000002 cycles:  397322459 heartbeat IPC: 0.56265 cumulative IPC: 0.78576 (Simulation time: 0 hr 16 min 12 sec) 
Heartbeat CPU  0 instructions:  371000002 cycles:  399117379 heartbeat IPC: 0.55713 cumulative IPC: 0.78457 (Simulation time: 0 hr 16 min 16 sec) 
Heartbeat CPU  0 instructions:  372000000 cycles:  400894656 heartbeat IPC: 0.56266 cumulative IPC: 0.78343 (Simulation time: 0 hr 16 min 19 sec) 
Heartbeat CPU  0 instructions:  373000000 cycles:  402692490 heartbeat IPC: 0.55622 cumulative IPC: 0.78226 (Simulation time: 0 hr 16 min 22 sec) 
Heartbeat CPU  0 instructions:  374000003 cycles:  404466054 heartbeat IPC: 0.56384 cumulative IPC: 0.78116 (Simulation time: 0 hr 16 min 25 sec) 
Heartbeat CPU  0 instructions:  375000002 cycles:  406254741 heartbeat IPC: 0.55907 cumulative IPC: 0.78003 (Simulation time: 0 hr 16 min 29 sec) 
Heartbeat CPU  0 instructions:  376000000 cycles:  408055805 heartbeat IPC: 0.55523 cumulative IPC: 0.77889 (Simulation time: 0 hr 16 min 32 sec) 
Heartbeat CPU  0 instructions:  377000001 cycles:  409855765 heartbeat IPC: 0.55557 cumulative IPC: 0.77776 (Simulation time: 0 hr 16 min 35 sec) 
Heartbeat CPU  0 instructions:  378000000 cycles:  411625476 heartbeat IPC: 0.56506 cumulative IPC: 0.77671 (Simulation time: 0 hr 16 min 38 sec) 
Heartbeat CPU  0 instructions:  379000001 cycles:  413435651 heartbeat IPC: 0.55243 cumulative IPC: 0.77558 (Simulation time: 0 hr 16 min 41 sec) 
Heartbeat CPU  0 instructions:  380000000 cycles:  415232395 heartbeat IPC: 0.55656 cumulative IPC: 0.77449 (Simulation time: 0 hr 16 min 45 sec) 
Heartbeat CPU  0 instructions:  381000001 cycles:  417053587 heartbeat IPC: 0.54909 cumulative IPC: 0.77336 (Simulation time: 0 hr 16 min 48 sec) 
Heartbeat CPU  0 instructions:  382000000 cycles:  418839400 heartbeat IPC: 0.55997 cumulative IPC: 0.77232 (Simulation time: 0 hr 16 min 51 sec) 
Heartbeat CPU  0 instructions:  383000000 cycles:  420649978 heartbeat IPC: 0.55231 cumulative IPC: 0.77123 (Simulation time: 0 hr 16 min 54 sec) 
Heartbeat CPU  0 instructions:  384000000 cycles:  422437450 heartbeat IPC: 0.55945 cumulative IPC: 0.77021 (Simulation time: 0 hr 16 min 58 sec) 
Heartbeat CPU  0 instructions:  385000001 cycles:  424241770 heartbeat IPC: 0.55423 cumulative IPC: 0.76915 (Simulation time: 0 hr 17 min 1 sec) 
Heartbeat CPU  0 instructions:  386000001 cycles:  426041105 heartbeat IPC: 0.55576 cumulative IPC: 0.76812 (Simulation time: 0 hr 17 min 4 sec) 
Heartbeat CPU  0 instructions:  387000003 cycles:  427825954 heartbeat IPC: 0.56027 cumulative IPC: 0.76713 (Simulation time: 0 hr 17 min 7 sec) 
Heartbeat CPU  0 instructions:  388000000 cycles:  429638497 heartbeat IPC: 0.55171 cumulative IPC: 0.76609 (Simulation time: 0 hr 17 min 10 sec) 
Heartbeat CPU  0 instructions:  389000002 cycles:  431430958 heartbeat IPC: 0.55789 cumulative IPC: 0.76510 (Simulation time: 0 hr 17 min 14 sec) 
Heartbeat CPU  0 instructions:  390000002 cycles:  433252251 heartbeat IPC: 0.54906 cumulative IPC: 0.76407 (Simulation time: 0 hr 17 min 17 sec) 
Heartbeat CPU  0 instructions:  391000001 cycles:  435031760 heartbeat IPC: 0.56195 cumulative IPC: 0.76312 (Simulation time: 0 hr 17 min 20 sec) 
Heartbeat CPU  0 instructions:  392000000 cycles:  436836061 heartbeat IPC: 0.55423 cumulative IPC: 0.76214 (Simulation time: 0 hr 17 min 23 sec) 
Heartbeat CPU  0 instructions:  393000003 cycles:  438637663 heartbeat IPC: 0.55506 cumulative IPC: 0.76117 (Simulation time: 0 hr 17 min 27 sec) 
Heartbeat CPU  0 instructions:  394000002 cycles:  440603501 heartbeat IPC: 0.50869 cumulative IPC: 0.75989 (Simulation time: 0 hr 17 min 30 sec) 
Heartbeat CPU  0 instructions:  395000001 cycles:  442081976 heartbeat IPC: 0.67637 cumulative IPC: 0.75957 (Simulation time: 0 hr 17 min 33 sec) 
Heartbeat CPU  0 instructions:  396000000 cycles:  443363736 heartbeat IPC: 0.78018 cumulative IPC: 0.75964 (Simulation time: 0 hr 17 min 36 sec) 
Heartbeat CPU  0 instructions:  397000000 cycles:  444624150 heartbeat IPC: 0.79339 cumulative IPC: 0.75975 (Simulation time: 0 hr 17 min 38 sec) 
Heartbeat CPU  0 instructions:  398000001 cycles:  445871300 heartbeat IPC: 0.80183 cumulative IPC: 0.75988 (Simulation time: 0 hr 17 min 41 sec) 
Heartbeat CPU  0 instructions:  399000001 cycles:  447127167 heartbeat IPC: 0.79626 cumulative IPC: 0.76000 (Simulation time: 0 hr 17 min 44 sec) 
Heartbeat CPU  0 instructions:  400000000 cycles:  448399224 heartbeat IPC: 0.78613 cumulative IPC: 0.76008 (Simulation time: 0 hr 17 min 47 sec) 
Heartbeat CPU  0 instructions:  401000001 cycles:  449677398 heartbeat IPC: 0.78237 cumulative IPC: 0.76015 (Simulation time: 0 hr 17 min 50 sec) 
Heartbeat CPU  0 instructions:  402000000 cycles:  450942723 heartbeat IPC: 0.79031 cumulative IPC: 0.76025 (Simulation time: 0 hr 17 min 52 sec) 
Heartbeat CPU  0 instructions:  403000003 cycles:  452306240 heartbeat IPC: 0.73340 cumulative IPC: 0.76016 (Simulation time: 0 hr 17 min 55 sec) 
Heartbeat CPU  0 instructions:  404000000 cycles:  453638498 heartbeat IPC: 0.75060 cumulative IPC: 0.76013 (Simulation time: 0 hr 17 min 58 sec) 
Heartbeat CPU  0 instructions:  405000002 cycles:  454789065 heartbeat IPC: 0.86914 cumulative IPC: 0.76044 (Simulation time: 0 hr 18 min 1 sec) 
Heartbeat CPU  0 instructions:  406000002 cycles:  455994396 heartbeat IPC: 0.82965 cumulative IPC: 0.76065 (Simulation time: 0 hr 18 min 3 sec) 
Heartbeat CPU  0 instructions:  407000003 cycles:  457208763 heartbeat IPC: 0.82348 cumulative IPC: 0.76084 (Simulation time: 0 hr 18 min 6 sec) 
Heartbeat CPU  0 instructions:  408000000 cycles:  458398273 heartbeat IPC: 0.84068 cumulative IPC: 0.76107 (Simulation time: 0 hr 18 min 9 sec) 
Heartbeat CPU  0 instructions:  409000003 cycles:  459569908 heartbeat IPC: 0.85351 cumulative IPC: 0.76134 (Simulation time: 0 hr 18 min 11 sec) 
Heartbeat CPU  0 instructions:  410000002 cycles:  460772930 heartbeat IPC: 0.83124 cumulative IPC: 0.76154 (Simulation time: 0 hr 18 min 14 sec) 
Heartbeat CPU  0 instructions:  411000002 cycles:  461996782 heartbeat IPC: 0.81709 cumulative IPC: 0.76171 (Simulation time: 0 hr 18 min 17 sec) 
Heartbeat CPU  0 instructions:  412000000 cycles:  463226182 heartbeat IPC: 0.81340 cumulative IPC: 0.76187 (Simulation time: 0 hr 18 min 20 sec) 
Heartbeat CPU  0 instructions:  413000000 cycles:  464217830 heartbeat IPC: 1.00842 cumulative IPC: 0.76246 (Simulation time: 0 hr 18 min 22 sec) 
Heartbeat CPU  0 instructions:  414000002 cycles:  465301043 heartbeat IPC: 0.92318 cumulative IPC: 0.76288 (Simulation time: 0 hr 18 min 25 sec) 
Heartbeat CPU  0 instructions:  415000002 cycles:  466458385 heartbeat IPC: 0.86405 cumulative IPC: 0.76317 (Simulation time: 0 hr 18 min 27 sec) 
Heartbeat CPU  0 instructions:  416000000 cycles:  467659018 heartbeat IPC: 0.83289 cumulative IPC: 0.76337 (Simulation time: 0 hr 18 min 30 sec) 
Heartbeat CPU  0 instructions:  417000000 cycles:  468854783 heartbeat IPC: 0.83628 cumulative IPC: 0.76358 (Simulation time: 0 hr 18 min 33 sec) 
Heartbeat CPU  0 instructions:  418000002 cycles:  470060013 heartbeat IPC: 0.82972 cumulative IPC: 0.76377 (Simulation time: 0 hr 18 min 36 sec) 
Heartbeat CPU  0 instructions:  419000002 cycles:  471253209 heartbeat IPC: 0.83809 cumulative IPC: 0.76398 (Simulation time: 0 hr 18 min 38 sec) 
Heartbeat CPU  0 instructions:  420000000 cycles:  472432927 heartbeat IPC: 0.84766 cumulative IPC: 0.76422 (Simulation time: 0 hr 18 min 41 sec) 
Heartbeat CPU  0 instructions:  421000000 cycles:  473643858 heartbeat IPC: 0.82581 cumulative IPC: 0.76440 (Simulation time: 0 hr 18 min 44 sec) 
Heartbeat CPU  0 instructions:  422000001 cycles:  474862005 heartbeat IPC: 0.82092 cumulative IPC: 0.76456 (Simulation time: 0 hr 18 min 46 sec) 
Heartbeat CPU  0 instructions:  423000002 cycles:  476035285 heartbeat IPC: 0.85231 cumulative IPC: 0.76480 (Simulation time: 0 hr 18 min 49 sec) 
Heartbeat CPU  0 instructions:  424000000 cycles:  476991104 heartbeat IPC: 1.04622 cumulative IPC: 0.76544 (Simulation time: 0 hr 18 min 52 sec) 
Heartbeat CPU  0 instructions:  425000003 cycles:  478202636 heartbeat IPC: 0.82540 cumulative IPC: 0.76561 (Simulation time: 0 hr 18 min 54 sec) 
Heartbeat CPU  0 instructions:  426000003 cycles:  479360860 heartbeat IPC: 0.86339 cumulative IPC: 0.76588 (Simulation time: 0 hr 18 min 57 sec) 
Heartbeat CPU  0 instructions:  427000000 cycles:  480528649 heartbeat IPC: 0.85632 cumulative IPC: 0.76612 (Simulation time: 0 hr 19 min 0 sec) 
Heartbeat CPU  0 instructions:  428000000 cycles:  481708432 heartbeat IPC: 0.84761 cumulative IPC: 0.76635 (Simulation time: 0 hr 19 min 2 sec) 
Heartbeat CPU  0 instructions:  429000001 cycles:  482913310 heartbeat IPC: 0.82996 cumulative IPC: 0.76653 (Simulation time: 0 hr 19 min 5 sec) 
Heartbeat CPU  0 instructions:  430000003 cycles:  484081521 heartbeat IPC: 0.85601 cumulative IPC: 0.76677 (Simulation time: 0 hr 19 min 8 sec) 
Heartbeat CPU  0 instructions:  431000000 cycles:  485290937 heartbeat IPC: 0.82684 cumulative IPC: 0.76694 (Simulation time: 0 hr 19 min 11 sec) 
Heartbeat CPU  0 instructions:  432000000 cycles:  486490326 heartbeat IPC: 0.83376 cumulative IPC: 0.76712 (Simulation time: 0 hr 19 min 13 sec) 
Heartbeat CPU  0 instructions:  433000001 cycles:  487703112 heartbeat IPC: 0.82455 cumulative IPC: 0.76728 (Simulation time: 0 hr 19 min 16 sec) 
Heartbeat CPU  0 instructions:  434000001 cycles:  488673613 heartbeat IPC: 1.03040 cumulative IPC: 0.76787 (Simulation time: 0 hr 19 min 19 sec) 
Heartbeat CPU  0 instructions:  435000003 cycles:  489766299 heartbeat IPC: 0.91518 cumulative IPC: 0.76824 (Simulation time: 0 hr 19 min 21 sec) 
Heartbeat CPU  0 instructions:  436000000 cycles:  491016809 heartbeat IPC: 0.79967 cumulative IPC: 0.76833 (Simulation time: 0 hr 19 min 24 sec) 
Heartbeat CPU  0 instructions:  437000001 cycles:  492201140 heartbeat IPC: 0.84436 cumulative IPC: 0.76854 (Simulation time: 0 hr 19 min 27 sec) 
Heartbeat CPU  0 instructions:  438000000 cycles:  493375403 heartbeat IPC: 0.85160 cumulative IPC: 0.76876 (Simulation time: 0 hr 19 min 29 sec) 
Heartbeat CPU  0 instructions:  439000003 cycles:  494548879 heartbeat IPC: 0.85217 cumulative IPC: 0.76898 (Simulation time: 0 hr 19 min 32 sec) 
Heartbeat CPU  0 instructions:  440000000 cycles:  495779128 heartbeat IPC: 0.81284 cumulative IPC: 0.76910 (Simulation time: 0 hr 19 min 35 sec) 
Heartbeat CPU  0 instructions:  441000001 cycles:  496972996 heartbeat IPC: 0.83761 cumulative IPC: 0.76929 (Simulation time: 0 hr 19 min 37 sec) 
Heartbeat CPU  0 instructions:  442000000 cycles:  498179008 heartbeat IPC: 0.82918 cumulative IPC: 0.76945 (Simulation time: 0 hr 19 min 40 sec) 
Heartbeat CPU  0 instructions:  443000003 cycles:  499391090 heartbeat IPC: 0.82503 cumulative IPC: 0.76960 (Simulation time: 0 hr 19 min 43 sec) 
Heartbeat CPU  0 instructions:  444000000 cycles:  500508109 heartbeat IPC: 0.89524 cumulative IPC: 0.76991 (Simulation time: 0 hr 19 min 45 sec) 
Heartbeat CPU  0 instructions:  445000000 cycles:  501516393 heartbeat IPC: 0.99178 cumulative IPC: 0.77041 (Simulation time: 0 hr 19 min 48 sec) 
Heartbeat CPU  0 instructions:  446000000 cycles:  502759533 heartbeat IPC: 0.80441 cumulative IPC: 0.77051 (Simulation time: 0 hr 19 min 51 sec) 
Heartbeat CPU  0 instructions:  447000001 cycles:  503945678 heartbeat IPC: 0.84307 cumulative IPC: 0.77070 (Simulation time: 0 hr 19 min 53 sec) 
Heartbeat CPU  0 instructions:  448000000 cycles:  505109784 heartbeat IPC: 0.85903 cumulative IPC: 0.77093 (Simulation time: 0 hr 19 min 56 sec) 
Heartbeat CPU  0 instructions:  449000001 cycles:  506293928 heartbeat IPC: 0.84449 cumulative IPC: 0.77112 (Simulation time: 0 hr 19 min 59 sec) 
Heartbeat CPU  0 instructions:  450000000 cycles:  507517721 heartbeat IPC: 0.81713 cumulative IPC: 0.77124 (Simulation time: 0 hr 20 min 2 sec) 
Heartbeat CPU  0 instructions:  451000000 cycles:  508737155 heartbeat IPC: 0.82005 cumulative IPC: 0.77137 (Simulation time: 0 hr 20 min 4 sec) 
Heartbeat CPU  0 instructions:  452000000 cycles:  509939511 heartbeat IPC: 0.83170 cumulative IPC: 0.77153 (Simulation time: 0 hr 20 min 7 sec) 
Heartbeat CPU  0 instructions:  453000002 cycles:  511135757 heartbeat IPC: 0.83595 cumulative IPC: 0.77170 (Simulation time: 0 hr 20 min 10 sec) 
Heartbeat CPU  0 instructions:  454000000 cycles:  512350107 heartbeat IPC: 0.82348 cumulative IPC: 0.77184 (Simulation time: 0 hr 20 min 12 sec) 
Heartbeat CPU  0 instructions:  455000002 cycles:  513262591 heartbeat IPC: 1.09591 cumulative IPC: 0.77248 (Simulation time: 0 hr 20 min 15 sec) 
Heartbeat CPU  0 instructions:  456000000 cycles:  514421032 heartbeat IPC: 0.86323 cumulative IPC: 0.77271 (Simulation time: 0 hr 20 min 17 sec) 
Heartbeat CPU  0 instructions:  457000002 cycles:  515679885 heartbeat IPC: 0.79438 cumulative IPC: 0.77277 (Simulation time: 0 hr 20 min 20 sec) 
Heartbeat CPU  0 instructions:  458000000 cycles:  516860731 heartbeat IPC: 0.84685 cumulative IPC: 0.77296 (Simulation time: 0 hr 20 min 23 sec) 
Heartbeat CPU  0 instructions:  459000000 cycles:  518053448 heartbeat IPC: 0.83842 cumulative IPC: 0.77313 (Simulation time: 0 hr 20 min 26 sec) 
Heartbeat CPU  0 instructions:  460000000 cycles:  519267039 heartbeat IPC: 0.82400 cumulative IPC: 0.77326 (Simulation time: 0 hr 20 min 28 sec) 
Heartbeat CPU  0 instructions:  461000000 cycles:  520480520 heartbeat IPC: 0.82408 cumulative IPC: 0.77339 (Simulation time: 0 hr 20 min 31 sec) 
Heartbeat CPU  0 instructions:  462000000 cycles:  521684136 heartbeat IPC: 0.83083 cumulative IPC: 0.77354 (Simulation time: 0 hr 20 min 34 sec) 
Heartbeat CPU  0 instructions:  463000002 cycles:  522891270 heartbeat IPC: 0.82841 cumulative IPC: 0.77368 (Simulation time: 0 hr 20 min 36 sec) 
Heartbeat CPU  0 instructions:  464000000 cycles:  524084189 heartbeat IPC: 0.83828 cumulative IPC: 0.77384 (Simulation time: 0 hr 20 min 39 sec) 
Heartbeat CPU  0 instructions:  465000003 cycles:  525160702 heartbeat IPC: 0.92893 cumulative IPC: 0.77420 (Simulation time: 0 hr 20 min 42 sec) 
Heartbeat CPU  0 instructions:  466000001 cycles:  526162606 heartbeat IPC: 0.99810 cumulative IPC: 0.77467 (Simulation time: 0 hr 20 min 44 sec) 
Heartbeat CPU  0 instructions:  467000000 cycles:  527446971 heartbeat IPC: 0.77859 cumulative IPC: 0.77468 (Simulation time: 0 hr 20 min 47 sec) 
Heartbeat CPU  0 instructions:  468000000 cycles:  528599457 heartbeat IPC: 0.86769 cumulative IPC: 0.77491 (Simulation time: 0 hr 20 min 50 sec) 
Heartbeat CPU  0 instructions:  469000002 cycles:  529797763 heartbeat IPC: 0.83451 cumulative IPC: 0.77506 (Simulation time: 0 hr 20 min 53 sec) 
Heartbeat CPU  0 instructions:  470000003 cycles:  530977473 heartbeat IPC: 0.84767 cumulative IPC: 0.77524 (Simulation time: 0 hr 20 min 55 sec) 
Heartbeat CPU  0 instructions:  471000001 cycles:  532210706 heartbeat IPC: 0.81088 cumulative IPC: 0.77533 (Simulation time: 0 hr 20 min 58 sec) 
Heartbeat CPU  0 instructions:  472000000 cycles:  533435510 heartbeat IPC: 0.81646 cumulative IPC: 0.77544 (Simulation time: 0 hr 21 min 1 sec) 
Heartbeat CPU  0 instructions:  473000000 cycles:  534628828 heartbeat IPC: 0.83800 cumulative IPC: 0.77559 (Simulation time: 0 hr 21 min 3 sec) 
Heartbeat CPU  0 instructions:  474000002 cycles:  535814790 heartbeat IPC: 0.84320 cumulative IPC: 0.77576 (Simulation time: 0 hr 21 min 6 sec) 
Heartbeat CPU  0 instructions:  475000000 cycles:  537056898 heartbeat IPC: 0.80508 cumulative IPC: 0.77583 (Simulation time: 0 hr 21 min 9 sec) 
Heartbeat CPU  0 instructions:  476000000 cycles:  537994758 heartbeat IPC: 1.06626 cumulative IPC: 0.77639 (Simulation time: 0 hr 21 min 12 sec) 
Heartbeat CPU  0 instructions:  477000003 cycles:  539168103 heartbeat IPC: 0.85227 cumulative IPC: 0.77658 (Simulation time: 0 hr 21 min 14 sec) 
Heartbeat CPU  0 instructions:  478000001 cycles:  540390999 heartbeat IPC: 0.81773 cumulative IPC: 0.77668 (Simulation time: 0 hr 21 min 17 sec) 
Heartbeat CPU  0 instructions:  479000000 cycles:  541558019 heartbeat IPC: 0.85688 cumulative IPC: 0.77687 (Simulation time: 0 hr 21 min 20 sec) 
Heartbeat CPU  0 instructions:  480000000 cycles:  542751175 heartbeat IPC: 0.83811 cumulative IPC: 0.77702 (Simulation time: 0 hr 21 min 22 sec) 
Heartbeat CPU  0 instructions:  481000001 cycles:  543959358 heartbeat IPC: 0.82769 cumulative IPC: 0.77715 (Simulation time: 0 hr 21 min 25 sec) 
Heartbeat CPU  0 instructions:  482000003 cycles:  545174959 heartbeat IPC: 0.82264 cumulative IPC: 0.77726 (Simulation time: 0 hr 21 min 28 sec) 
Heartbeat CPU  0 instructions:  483000000 cycles:  546350034 heartbeat IPC: 0.85101 cumulative IPC: 0.77744 (Simulation time: 0 hr 21 min 31 sec) 
Heartbeat CPU  0 instructions:  484000000 cycles:  547554137 heartbeat IPC: 0.83049 cumulative IPC: 0.77757 (Simulation time: 0 hr 21 min 33 sec) 
Heartbeat CPU  0 instructions:  485000001 cycles:  548757922 heartbeat IPC: 0.83071 cumulative IPC: 0.77769 (Simulation time: 0 hr 21 min 36 sec) 
Heartbeat CPU  0 instructions:  486000000 cycles:  549798600 heartbeat IPC: 0.96091 cumulative IPC: 0.77808 (Simulation time: 0 hr 21 min 39 sec) 
Heartbeat CPU  0 instructions:  487000002 cycles:  550862780 heartbeat IPC: 0.93969 cumulative IPC: 0.77842 (Simulation time: 0 hr 21 min 41 sec) 
Heartbeat CPU  0 instructions:  488000000 cycles:  552204770 heartbeat IPC: 0.74516 cumulative IPC: 0.77834 (Simulation time: 0 hr 21 min 44 sec) 
Heartbeat CPU  0 instructions:  489000000 cycles:  553369387 heartbeat IPC: 0.85865 cumulative IPC: 0.77852 (Simulation time: 0 hr 21 min 47 sec) 
Heartbeat CPU  0 instructions:  490000000 cycles:  554545418 heartbeat IPC: 0.85032 cumulative IPC: 0.77869 (Simulation time: 0 hr 21 min 49 sec) 
Heartbeat CPU  0 instructions:  491000001 cycles:  555733741 heartbeat IPC: 0.84152 cumulative IPC: 0.77884 (Simulation time: 0 hr 21 min 52 sec) 
Heartbeat CPU  0 instructions:  492000000 cycles:  556942701 heartbeat IPC: 0.82716 cumulative IPC: 0.77896 (Simulation time: 0 hr 21 min 55 sec) 
Heartbeat CPU  0 instructions:  493000000 cycles:  558159645 heartbeat IPC: 0.82173 cumulative IPC: 0.77906 (Simulation time: 0 hr 21 min 58 sec) 
Heartbeat CPU  0 instructions:  494000003 cycles:  559353879 heartbeat IPC: 0.83736 cumulative IPC: 0.77920 (Simulation time: 0 hr 22 min 0 sec) 
Heartbeat CPU  0 instructions:  495000001 cycles:  560556202 heartbeat IPC: 0.83172 cumulative IPC: 0.77932 (Simulation time: 0 hr 22 min 3 sec) 
Heartbeat CPU  0 instructions:  496000000 cycles:  561766058 heartbeat IPC: 0.82654 cumulative IPC: 0.77943 (Simulation time: 0 hr 22 min 6 sec) 
Heartbeat CPU  0 instructions:  497000003 cycles:  562661375 heartbeat IPC: 1.11693 cumulative IPC: 0.78003 (Simulation time: 0 hr 22 min 8 sec) 
Heartbeat CPU  0 instructions:  498000001 cycles:  563871377 heartbeat IPC: 0.82644 cumulative IPC: 0.78014 (Simulation time: 0 hr 22 min 11 sec) 
Heartbeat CPU  0 instructions:  499000001 cycles:  565063253 heartbeat IPC: 0.83901 cumulative IPC: 0.78027 (Simulation time: 0 hr 22 min 14 sec) 
Heartbeat CPU  0 instructions:  500000000 cycles:  566238058 heartbeat IPC: 0.85120 cumulative IPC: 0.78044 (Simulation time: 0 hr 22 min 16 sec) 
Heartbeat CPU  0 instructions:  501000003 cycles:  567413234 heartbeat IPC: 0.85094 cumulative IPC: 0.78060 (Simulation time: 0 hr 22 min 19 sec) 
Heartbeat CPU  0 instructions:  502000003 cycles:  568621558 heartbeat IPC: 0.82759 cumulative IPC: 0.78071 (Simulation time: 0 hr 22 min 22 sec) 
Heartbeat CPU  0 instructions:  503000002 cycles:  569839784 heartbeat IPC: 0.82086 cumulative IPC: 0.78080 (Simulation time: 0 hr 22 min 24 sec) 
Heartbeat CPU  0 instructions:  504000000 cycles:  571036038 heartbeat IPC: 0.83594 cumulative IPC: 0.78093 (Simulation time: 0 hr 22 min 27 sec) 
Heartbeat CPU  0 instructions:  505000000 cycles:  572227392 heartbeat IPC: 0.83938 cumulative IPC: 0.78107 (Simulation time: 0 hr 22 min 30 sec) 
Heartbeat CPU  0 instructions:  506000002 cycles:  573435860 heartbeat IPC: 0.82750 cumulative IPC: 0.78117 (Simulation time: 0 hr 22 min 32 sec) 
Heartbeat CPU  0 instructions:  507000001 cycles:  574417281 heartbeat IPC: 1.01893 cumulative IPC: 0.78162 (Simulation time: 0 hr 22 min 35 sec) 
Heartbeat CPU  0 instructions:  508000000 cycles:  575493726 heartbeat IPC: 0.92898 cumulative IPC: 0.78193 (Simulation time: 0 hr 22 min 38 sec) 
Heartbeat CPU  0 instructions:  509000002 cycles:  576781365 heartbeat IPC: 0.77662 cumulative IPC: 0.78191 (Simulation time: 0 hr 22 min 40 sec) 
Heartbeat CPU  0 instructions:  510000002 cycles:  577962687 heartbeat IPC: 0.84651 cumulative IPC: 0.78206 (Simulation time: 0 hr 22 min 43 sec) 
Heartbeat CPU  0 instructions:  511000001 cycles:  579152684 heartbeat IPC: 0.84034 cumulative IPC: 0.78219 (Simulation time: 0 hr 22 min 46 sec) 
Heartbeat CPU  0 instructions:  512000000 cycles:  580350969 heartbeat IPC: 0.83453 cumulative IPC: 0.78231 (Simulation time: 0 hr 22 min 49 sec) 
Heartbeat CPU  0 instructions:  513000002 cycles:  581560599 heartbeat IPC: 0.82670 cumulative IPC: 0.78241 (Simulation time: 0 hr 22 min 51 sec) 
Heartbeat CPU  0 instructions:  514000000 cycles:  582792574 heartbeat IPC: 0.81170 cumulative IPC: 0.78248 (Simulation time: 0 hr 22 min 54 sec) 
Heartbeat CPU  0 instructions:  515000000 cycles:  583973164 heartbeat IPC: 0.84703 cumulative IPC: 0.78262 (Simulation time: 0 hr 22 min 57 sec) 
Heartbeat CPU  0 instructions:  516000000 cycles:  585174099 heartbeat IPC: 0.83268 cumulative IPC: 0.78274 (Simulation time: 0 hr 22 min 59 sec) 
Heartbeat CPU  0 instructions:  517000002 cycles:  586328966 heartbeat IPC: 0.86590 cumulative IPC: 0.78292 (Simulation time: 0 hr 23 min 2 sec) 
Heartbeat CPU  0 instructions:  518000000 cycles:  587240526 heartbeat IPC: 1.09702 cumulative IPC: 0.78345 (Simulation time: 0 hr 23 min 5 sec) 
Heartbeat CPU  0 instructions:  519000003 cycles:  588511447 heartbeat IPC: 0.78683 cumulative IPC: 0.78346 (Simulation time: 0 hr 23 min 7 sec) 
Heartbeat CPU  0 instructions:  520000000 cycles:  589737243 heartbeat IPC: 0.81579 cumulative IPC: 0.78353 (Simulation time: 0 hr 23 min 10 sec) 
Heartbeat CPU  0 instructions:  521000000 cycles:  590927355 heartbeat IPC: 0.84026 cumulative IPC: 0.78366 (Simulation time: 0 hr 23 min 13 sec) 
Heartbeat CPU  0 instructions:  522000003 cycles:  592108147 heartbeat IPC: 0.84689 cumulative IPC: 0.78380 (Simulation time: 0 hr 23 min 15 sec) 
Heartbeat CPU  0 instructions:  523000001 cycles:  593310953 heartbeat IPC: 0.83139 cumulative IPC: 0.78391 (Simulation time: 0 hr 23 min 18 sec) 
Heartbeat CPU  0 instructions:  524000000 cycles:  594501422 heartbeat IPC: 0.84000 cumulative IPC: 0.78403 (Simulation time: 0 hr 23 min 21 sec) 
Heartbeat CPU  0 instructions:  525000002 cycles:  595713983 heartbeat IPC: 0.82470 cumulative IPC: 0.78412 (Simulation time: 0 hr 23 min 23 sec) 
Heartbeat CPU  0 instructions:  526000002 cycles:  596920350 heartbeat IPC: 0.82894 cumulative IPC: 0.78422 (Simulation time: 0 hr 23 min 26 sec) 
Heartbeat CPU  0 instructions:  527000000 cycles:  598119841 heartbeat IPC: 0.83369 cumulative IPC: 0.78433 (Simulation time: 0 hr 23 min 29 sec) 
Heartbeat CPU  0 instructions:  528000000 cycles:  599056944 heartbeat IPC: 1.06712 cumulative IPC: 0.78481 (Simulation time: 0 hr 23 min 31 sec) 
Heartbeat CPU  0 instructions:  529000003 cycles:  600126535 heartbeat IPC: 0.93494 cumulative IPC: 0.78511 (Simulation time: 0 hr 23 min 34 sec) 
Heartbeat CPU  0 instructions:  530000002 cycles:  601455552 heartbeat IPC: 0.75244 cumulative IPC: 0.78503 (Simulation time: 0 hr 23 min 37 sec) 
Heartbeat CPU  0 instructions:  531000002 cycles:  602655439 heartbeat IPC: 0.83341 cumulative IPC: 0.78513 (Simulation time: 0 hr 23 min 40 sec) 
Heartbeat CPU  0 instructions:  532000000 cycles:  603823642 heartbeat IPC: 0.85601 cumulative IPC: 0.78528 (Simulation time: 0 hr 23 min 43 sec) 
Heartbeat CPU  0 instructions:  533000001 cycles:  605008082 heartbeat IPC: 0.84428 cumulative IPC: 0.78541 (Simulation time: 0 hr 23 min 46 sec) 
Heartbeat CPU  0 instructions:  534000003 cycles:  606206141 heartbeat IPC: 0.83469 cumulative IPC: 0.78552 (Simulation time: 0 hr 23 min 49 sec) 
Heartbeat CPU  0 instructions:  535000000 cycles:  607427949 heartbeat IPC: 0.81846 cumulative IPC: 0.78559 (Simulation time: 0 hr 23 min 51 sec) 
Heartbeat CPU  0 instructions:  536000000 cycles:  608631929 heartbeat IPC: 0.83058 cumulative IPC: 0.78569 (Simulation time: 0 hr 23 min 54 sec) 
Heartbeat CPU  0 instructions:  537000002 cycles:  609844321 heartbeat IPC: 0.82482 cumulative IPC: 0.78577 (Simulation time: 0 hr 23 min 57 sec) 
Heartbeat CPU  0 instructions:  538000003 cycles:  610958722 heartbeat IPC: 0.89734 cumulative IPC: 0.78600 (Simulation time: 0 hr 23 min 59 sec) 
Heartbeat CPU  0 instructions:  539000001 cycles:  611932840 heartbeat IPC: 1.02657 cumulative IPC: 0.78642 (Simulation time: 0 hr 24 min 2 sec) 
Heartbeat CPU  0 instructions:  540000000 cycles:  613736064 heartbeat IPC: 0.55456 cumulative IPC: 0.78567 (Simulation time: 0 hr 24 min 5 sec) 
Heartbeat CPU  0 instructions:  541000002 cycles:  615322166 heartbeat IPC: 0.63048 cumulative IPC: 0.78523 (Simulation time: 0 hr 24 min 8 sec) 
Heartbeat CPU  0 instructions:  542000003 cycles:  616618702 heartbeat IPC: 0.77129 cumulative IPC: 0.78520 (Simulation time: 0 hr 24 min 11 sec) 
Heartbeat CPU  0 instructions:  543000002 cycles:  617886571 heartbeat IPC: 0.78872 cumulative IPC: 0.78521 (Simulation time: 0 hr 24 min 14 sec) 
Heartbeat CPU  0 instructions:  544000000 cycles:  619122489 heartbeat IPC: 0.80911 cumulative IPC: 0.78526 (Simulation time: 0 hr 24 min 16 sec) 
Heartbeat CPU  0 instructions:  545000000 cycles:  620407685 heartbeat IPC: 0.77809 cumulative IPC: 0.78524 (Simulation time: 0 hr 24 min 19 sec) 
Heartbeat CPU  0 instructions:  546000001 cycles:  621696650 heartbeat IPC: 0.77582 cumulative IPC: 0.78522 (Simulation time: 0 hr 24 min 22 sec) 
Heartbeat CPU  0 instructions:  547000002 cycles:  622942089 heartbeat IPC: 0.80293 cumulative IPC: 0.78526 (Simulation time: 0 hr 24 min 25 sec) 
Heartbeat CPU  0 instructions:  548000000 cycles:  624224713 heartbeat IPC: 0.77965 cumulative IPC: 0.78525 (Simulation time: 0 hr 24 min 28 sec) 
Heartbeat CPU  0 instructions:  549000003 cycles:  625416309 heartbeat IPC: 0.83921 cumulative IPC: 0.78536 (Simulation time: 0 hr 24 min 31 sec) 
Heartbeat CPU  0 instructions:  550000002 cycles:  626571437 heartbeat IPC: 0.86570 cumulative IPC: 0.78552 (Simulation time: 0 hr 24 min 34 sec) 
Heartbeat CPU  0 instructions:  551000002 cycles:  628275579 heartbeat IPC: 0.58681 cumulative IPC: 0.78493 (Simulation time: 0 hr 24 min 37 sec) 
Heartbeat CPU  0 instructions:  552000000 cycles:  629320244 heartbeat IPC: 0.95724 cumulative IPC: 0.78525 (Simulation time: 0 hr 24 min 39 sec) 
Heartbeat CPU  0 instructions:  553000000 cycles:  630312089 heartbeat IPC: 1.00822 cumulative IPC: 0.78563 (Simulation time: 0 hr 24 min 42 sec) 
Heartbeat CPU  0 instructions:  554000001 cycles:  631304253 heartbeat IPC: 1.00790 cumulative IPC: 0.78601 (Simulation time: 0 hr 24 min 45 sec) 
Heartbeat CPU  0 instructions:  555000001 cycles:  632291916 heartbeat IPC: 1.01249 cumulative IPC: 0.78640 (Simulation time: 0 hr 24 min 47 sec) 
Heartbeat CPU  0 instructions:  556000000 cycles:  633320473 heartbeat IPC: 0.97223 cumulative IPC: 0.78673 (Simulation time: 0 hr 24 min 50 sec) 
Heartbeat CPU  0 instructions:  557000001 cycles:  634495539 heartbeat IPC: 0.85102 cumulative IPC: 0.78686 (Simulation time: 0 hr 24 min 53 sec) 
Heartbeat CPU  0 instructions:  558000001 cycles:  635764512 heartbeat IPC: 0.78804 cumulative IPC: 0.78686 (Simulation time: 0 hr 24 min 56 sec) 
Heartbeat CPU  0 instructions:  559000000 cycles:  636819856 heartbeat IPC: 0.94756 cumulative IPC: 0.78715 (Simulation time: 0 hr 24 min 59 sec) 
Heartbeat CPU  0 instructions:  560000000 cycles:  637825520 heartbeat IPC: 0.99437 cumulative IPC: 0.78751 (Simulation time: 0 hr 25 min 1 sec) 
Heartbeat CPU  0 instructions:  561000000 cycles:  639388521 heartbeat IPC: 0.63979 cumulative IPC: 0.78711 (Simulation time: 0 hr 25 min 4 sec) 
Heartbeat CPU  0 instructions:  562000002 cycles:  640701181 heartbeat IPC: 0.76181 cumulative IPC: 0.78706 (Simulation time: 0 hr 25 min 7 sec) 
Heartbeat CPU  0 instructions:  563000003 cycles:  641752359 heartbeat IPC: 0.95131 cumulative IPC: 0.78735 (Simulation time: 0 hr 25 min 10 sec) 
Heartbeat CPU  0 instructions:  564000000 cycles:  642941625 heartbeat IPC: 0.84085 cumulative IPC: 0.78746 (Simulation time: 0 hr 25 min 13 sec) 
Heartbeat CPU  0 instructions:  565000000 cycles:  644060850 heartbeat IPC: 0.89348 cumulative IPC: 0.78766 (Simulation time: 0 hr 25 min 16 sec) 
Heartbeat CPU  0 instructions:  566000003 cycles:  645268662 heartbeat IPC: 0.82795 cumulative IPC: 0.78774 (Simulation time: 0 hr 25 min 19 sec) 
Heartbeat CPU  0 instructions:  567000003 cycles:  646294335 heartbeat IPC: 0.97497 cumulative IPC: 0.78807 (Simulation time: 0 hr 25 min 21 sec) 
Heartbeat CPU  0 instructions:  568000000 cycles:  647298997 heartbeat IPC: 0.99536 cumulative IPC: 0.78842 (Simulation time: 0 hr 25 min 24 sec) 
Heartbeat CPU  0 instructions:  569000000 cycles:  648372182 heartbeat IPC: 0.93181 cumulative IPC: 0.78868 (Simulation time: 0 hr 25 min 27 sec) 
Heartbeat CPU  0 instructions:  570000003 cycles:  649541174 heartbeat IPC: 0.85544 cumulative IPC: 0.78881 (Simulation time: 0 hr 25 min 30 sec) 
Heartbeat CPU  0 instructions:  571000000 cycles:  650685061 heartbeat IPC: 0.87421 cumulative IPC: 0.78897 (Simulation time: 0 hr 25 min 32 sec) 
Heartbeat CPU  0 instructions:  572000000 cycles:  652559796 heartbeat IPC: 0.53341 cumulative IPC: 0.78817 (Simulation time: 0 hr 25 min 36 sec) 
Heartbeat CPU  0 instructions:  573000002 cycles:  653554784 heartbeat IPC: 1.00504 cumulative IPC: 0.78853 (Simulation time: 0 hr 25 min 38 sec) 
Heartbeat CPU  0 instructions:  574000000 cycles:  654577043 heartbeat IPC: 0.97822 cumulative IPC: 0.78885 (Simulation time: 0 hr 25 min 41 sec) 
Heartbeat CPU  0 instructions:  575000003 cycles:  655601575 heartbeat IPC: 0.97606 cumulative IPC: 0.78917 (Simulation time: 0 hr 25 min 44 sec) 
Heartbeat CPU  0 instructions:  576000000 cycles:  656678561 heartbeat IPC: 0.92851 cumulative IPC: 0.78942 (Simulation time: 0 hr 25 min 46 sec) 
Heartbeat CPU  0 instructions:  577000002 cycles:  657739481 heartbeat IPC: 0.94258 cumulative IPC: 0.78969 (Simulation time: 0 hr 25 min 49 sec) 
Heartbeat CPU  0 instructions:  578000002 cycles:  659007317 heartbeat IPC: 0.78875 cumulative IPC: 0.78969 (Simulation time: 0 hr 25 min 52 sec) 
Heartbeat CPU  0 instructions:  579000001 cycles:  660140933 heartbeat IPC: 0.88213 cumulative IPC: 0.78986 (Simulation time: 0 hr 25 min 55 sec) 
Heartbeat CPU  0 instructions:  580000000 cycles:  661158486 heartbeat IPC: 0.98275 cumulative IPC: 0.79018 (Simulation time: 0 hr 25 min 58 sec) 
Heartbeat CPU  0 instructions:  581000000 cycles:  662173023 heartbeat IPC: 0.98567 cumulative IPC: 0.79051 (Simulation time: 0 hr 26 min 0 sec) 
Heartbeat CPU  0 instructions:  582000002 cycles:  663533860 heartbeat IPC: 0.73484 cumulative IPC: 0.79039 (Simulation time: 0 hr 26 min 3 sec) 
Heartbeat CPU  0 instructions:  583000000 cycles:  664608803 heartbeat IPC: 0.93028 cumulative IPC: 0.79063 (Simulation time: 0 hr 26 min 6 sec) 
Heartbeat CPU  0 instructions:  584000000 cycles:  665595643 heartbeat IPC: 1.01334 cumulative IPC: 0.79099 (Simulation time: 0 hr 26 min 9 sec) 
Heartbeat CPU  0 instructions:  585000001 cycles:  666744573 heartbeat IPC: 0.87038 cumulative IPC: 0.79114 (Simulation time: 0 hr 26 min 12 sec) 
Heartbeat CPU  0 instructions:  586000002 cycles:  667872870 heartbeat IPC: 0.88629 cumulative IPC: 0.79131 (Simulation time: 0 hr 26 min 14 sec) 
Heartbeat CPU  0 instructions:  587000002 cycles:  668902600 heartbeat IPC: 0.97113 cumulative IPC: 0.79162 (Simulation time: 0 hr 26 min 17 sec) 
Heartbeat CPU  0 instructions:  588000000 cycles:  669906200 heartbeat IPC: 0.99641 cumulative IPC: 0.79195 (Simulation time: 0 hr 26 min 20 sec) 
Heartbeat CPU  0 instructions:  589000002 cycles:  671003878 heartbeat IPC: 0.91102 cumulative IPC: 0.79216 (Simulation time: 0 hr 26 min 23 sec) 
Heartbeat CPU  0 instructions:  590000002 cycles:  672192403 heartbeat IPC: 0.84138 cumulative IPC: 0.79226 (Simulation time: 0 hr 26 min 25 sec) 
Heartbeat CPU  0 instructions:  591000001 cycles:  673375139 heartbeat IPC: 0.84550 cumulative IPC: 0.79236 (Simulation time: 0 hr 26 min 28 sec) 
Heartbeat CPU  0 instructions:  592000000 cycles:  674837797 heartbeat IPC: 0.68369 cumulative IPC: 0.79210 (Simulation time: 0 hr 26 min 31 sec) 
Heartbeat CPU  0 instructions:  593000003 cycles:  677049631 heartbeat IPC: 0.45211 cumulative IPC: 0.79089 (Simulation time: 0 hr 26 min 34 sec) 
Heartbeat CPU  0 instructions:  594000003 cycles:  678915554 heartbeat IPC: 0.53593 cumulative IPC: 0.79013 (Simulation time: 0 hr 26 min 37 sec) 
Heartbeat CPU  0 instructions:  595000000 cycles:  680241457 heartbeat IPC: 0.75420 cumulative IPC: 0.79006 (Simulation time: 0 hr 26 min 40 sec) 
Heartbeat CPU  0 instructions:  596000000 cycles:  681553441 heartbeat IPC: 0.76220 cumulative IPC: 0.79000 (Simulation time: 0 hr 26 min 43 sec) 
Heartbeat CPU  0 instructions:  597000003 cycles:  683037110 heartbeat IPC: 0.67401 cumulative IPC: 0.78973 (Simulation time: 0 hr 26 min 46 sec) 
Heartbeat CPU  0 instructions:  598000003 cycles:  684438361 heartbeat IPC: 0.71365 cumulative IPC: 0.78956 (Simulation time: 0 hr 26 min 49 sec) 
Heartbeat CPU  0 instructions:  599000003 cycles:  686083819 heartbeat IPC: 0.60773 cumulative IPC: 0.78908 (Simulation time: 0 hr 26 min 52 sec) 
Heartbeat CPU  0 instructions:  600000000 cycles:  688411086 heartbeat IPC: 0.42969 cumulative IPC: 0.78777 (Simulation time: 0 hr 26 min 55 sec) 
Finished CPU 0 instructions: 500000003 cycles: 634706218 cumulative IPC: 0.78777 (Simulation time: 0 hr 26 min 55 sec) 

ChampSim completed all CPUs

[ROI Statistics]
Core_0_instructions 500000003
Core_0_cycles 634706218
Core_0_IPC 0.78777

Core_0_branch_prediction_accuracy 99.13980
Core_0_branch_MPKI 0.20639
Core_0_average_ROB_occupancy_at_mispredict 243.21295

Core_0_L1D_total_access 146743770
Core_0_L1D_total_hit 141422868
Core_0_L1D_total_miss 5320902
Core_0_L1D_loads 134700396
Core_0_L1D_load_hit 130681371
Core_0_L1D_load_miss 4019025
Core_0_L1D_RFOs 12043374
Core_0_L1D_RFO_hit 10741497
Core_0_L1D_RFO_miss 1301877
Core_0_L1D_prefetches 0
Core_0_L1D_prefetch_hit 0
Core_0_L1D_prefetch_miss 0
Core_0_L1D_writebacks 0
Core_0_L1D_writeback_hit 0
Core_0_L1D_writeback_miss 0
Core_0_L1D_prefetch_requested 0
Core_0_L1D_prefetch_dropped 0
Core_0_L1D_prefetch_issued 0
Core_0_L1D_prefetch_filled 0
Core_0_L1D_prefetch_useful 0
Core_0_L1D_prefetch_useless 0
Core_0_L1D_prefetch_late 0
Core_0_L1D_average_miss_latency 224.15326

Core_0_L1D_rq_access 197260197
Core_0_L1D_rq_forward 0
Core_0_L1D_rq_merged 61605228
Core_0_L1D_rq_to_cache 135654969
Core_0_L1D_rq_full 0

Core_0_L1D_wq_access 16646357
Core_0_L1D_wq_forward 0
Core_0_L1D_wq_merged 0
Core_0_L1D_wq_to_cache 16646357
Core_0_L1D_wq_full 2736374

Core_0_L1D_pq_access 0
Core_0_L1D_pq_forward 0
Core_0_L1D_pq_merged 0
Core_0_L1D_pq_to_cache 0
Core_0_L1D_pq_full 0

Core_0_L1D_acc_epochs 668134
Core_0_L1D_acc_level_0 668134
Core_0_L1D_acc_level_1 0
Core_0_L1D_acc_level_2 0
Core_0_L1D_acc_level_3 0
Core_0_L1D_acc_level_4 0
Core_0_L1D_acc_level_5 0
Core_0_L1D_acc_level_6 0
Core_0_L1D_acc_level_7 0
Core_0_L1D_acc_level_8 0
Core_0_L1D_acc_level_9 0

Core_0_L1I_total_access 121106148
Core_0_L1I_total_hit 121105850
Core_0_L1I_total_miss 298
Core_0_L1I_loads 121106148
Core_0_L1I_load_hit 121105850
Core_0_L1I_load_miss 298
Core_0_L1I_RFOs 0
Core_0_L1I_RFO_hit 0
Core_0_L1I_RFO_miss 0
Core_0_L1I_prefetches 0
Core_0_L1I_prefetch_hit 0
Core_0_L1I_prefetch_miss 0
Core_0_L1I_writebacks 0
Core_0_L1I_writeback_hit 0
Core_0_L1I_writeback_miss 0
Core_0_L1I_prefetch_requested 0
Core_0_L1I_prefetch_dropped 0
Core_0_L1I_prefetch_issued 0
Core_0_L1I_prefetch_filled 0
Core_0_L1I_prefetch_useful 0
Core_0_L1I_prefetch_useless 0
Core_0_L1I_prefetch_late 0
Core_0_L1I_average_miss_latency 704.71141

Core_0_L1I_rq_access 500000208
Core_0_L1I_rq_forward 0
Core_0_L1I_rq_merged 378893006
Core_0_L1I_rq_to_cache 121107202
Core_0_L1I_rq_full 0

Core_0_L1I_wq_access 0
Core_0_L1I_wq_forward 0
Core_0_L1I_wq_merged 0
Core_0_L1I_wq_to_cache 0
Core_0_L1I_wq_full 0

Core_0_L1I_pq_access 0
Core_0_L1I_pq_forward 0
Core_0_L1I_pq_merged 0
Core_0_L1I_pq_to_cache 0
Core_0_L1I_pq_full 0

Core_0_L1I_acc_epochs 668134
Core_0_L1I_acc_level_0 668134
Core_0_L1I_acc_level_1 0
Core_0_L1I_acc_level_2 0
Core_0_L1I_acc_level_3 0
Core_0_L1I_acc_level_4 0
Core_0_L1I_acc_level_5 0
Core_0_L1I_acc_level_6 0
Core_0_L1I_acc_level_7 0
Core_0_L1I_acc_level_8 0
Core_0_L1I_acc_level_9 0

Core_0_L2C_total_access 9772047
Core_0_L2C_total_hit 5973515
Core_0_L2C_total_miss 3798532
Core_0_L2C_loads 4019273
Core_0_L2C_load_hit 3771279
Core_0_L2C_load_miss 247994
Core_0_L2C_RFOs 1301733
Core_0_L2C_RFO_hit 500999
Core_0_L2C_RFO_miss 800734
Core_0_L2C_prefetches 2780648
Core_0_L2C_prefetch_hit 31264
Core_0_L2C_prefetch_miss 2749384
Core_0_L2C_writebacks 1670393
Core_0_L2C_writeback_hit 1669973
Core_0_L2C_writeback_miss 420
Core_0_L2C_prefetch_requested 3274868
Core_0_L2C_prefetch_dropped 0
Core_0_L2C_prefetch_issued 3274868
Core_0_L2C_prefetch_filled 3191866
Core_0_L2C_prefetch_useful 3166648
Core_0_L2C_prefetch_useless 25200
Core_0_L2C_prefetch_late 25368
Core_0_L2C_average_miss_latency 1565.50853

Core_0_L2C_rq_access 5321209
Core_0_L2C_rq_forward 0
Core_0_L2C_rq_merged 0
Core_0_L2C_rq_to_cache 5321015
Core_0_L2C_rq_full 0

Core_0_L2C_wq_access 1670393
Core_0_L2C_wq_forward 199
Core_0_L2C_wq_merged 0
Core_0_L2C_wq_to_cache 1670393
Core_0_L2C_wq_full 0

Core_0_L2C_pq_access 3274868
Core_0_L2C_pq_forward 0
Core_0_L2C_pq_merged 0
Core_0_L2C_pq_to_cache 3274863
Core_0_L2C_pq_full 0

Core_0_L2C_acc_epochs 668134
Core_0_L2C_acc_level_0 308497
Core_0_L2C_acc_level_1 75577
Core_0_L2C_acc_level_2 52882
Core_0_L2C_acc_level_3 33748
Core_0_L2C_acc_level_4 23284
Core_0_L2C_acc_level_5 26790
Core_0_L2C_acc_level_6 17900
Core_0_L2C_acc_level_7 15425
Core_0_L2C_acc_level_8 14075
Core_0_L2C_acc_level_9 99956

Core_0_LLC_total_access 4791900
Core_0_LLC_total_hit 888346
Core_0_LLC_total_miss 3903554
Core_0_LLC_loads 222626
Core_0_LLC_load_hit 43695
Core_0_LLC_load_miss 178931
Core_0_LLC_RFOs 800734
Core_0_LLC_RFO_hit 90616
Core_0_LLC_RFO_miss 710118
Core_0_LLC_prefetches 2800616
Core_0_LLC_prefetch_hit 434584
Core_0_LLC_prefetch_miss 2366032
Core_0_LLC_writebacks 967924
Core_0_LLC_writeback_hit 319451
Core_0_LLC_writeback_miss 648473
Core_0_LLC_prefetch_requested 0
Core_0_LLC_prefetch_dropped 0
Core_0_LLC_prefetch_issued 0
Core_0_LLC_prefetch_filled 2808439
Core_0_LLC_prefetch_useful 23281
Core_0_LLC_prefetch_useless 2776310
Core_0_LLC_prefetch_late 2
Core_0_LLC_average_miss_latency 1516.87039

Core_0_LLC_rq_access 1023369
Core_0_LLC_rq_forward 0
Core_0_LLC_rq_merged 0
Core_0_LLC_rq_to_cache 1023369
Core_0_LLC_rq_full 0

Core_0_LLC_wq_access 967924
Core_0_LLC_wq_forward 0
Core_0_LLC_wq_merged 0
Core_0_LLC_wq_to_cache 967924
Core_0_LLC_wq_full 638

Core_0_LLC_pq_access 3243120
Core_0_LLC_pq_forward 0
Core_0_LLC_pq_merged 0
Core_0_LLC_pq_to_cache 3243120
Core_0_LLC_pq_full 0

Core_0_LLC_acc_epochs 672277
Core_0_LLC_acc_level_0 667186
Core_0_LLC_acc_level_1 2160
Core_0_LLC_acc_level_2 1003
Core_0_LLC_acc_level_3 437
Core_0_LLC_acc_level_4 288
Core_0_LLC_acc_level_5 345
Core_0_LLC_acc_level_6 139
Core_0_LLC_acc_level_7 106
Core_0_LLC_acc_level_8 121
Core_0_LLC_acc_level_9 492

Core_0_major_page_fault 0
Core_0_minor_page_fault 14596

[Bingo] PHT Access: 112579
[Bingo] PHT Hit PC+Addr: 1597
[Bingo] PHT Hit PC+Offs: 107124
[Bingo] PHT Miss: 3858
[Bingo] Prefetch PC+Addr: 0
[Bingo] Prefetch PC+Offs: 0
[Bingo] Useful PC+Addr: 0
[Bingo] Useful PC+Offs: 0
[Bingo] Useless PC+Addr: 0
[Bingo] Useless PC+Offs: 0
[Bingo] L1 Prefetch per Region: 0.00000
[Bingo] L2 Prefetch per Region: 31.26835
[Bingo] L3 Prefetch per Region: 0.30309
[Bingo] No Prefetch per Region: 0.42856
[Bingo] Number of Voters Mean: 15.37073
[Bingo] Number of Voters SD: 2.36237

Channel_0_RQ_row_buffer_hit 1945048
Channel_0_RQ_row_buffer_miss 1310033
Channel_0_WQ_row_buffer_hit 299848
Channel_0_WQ_row_buffer_miss 557001
Channel_0_WQ_full 224252
Channel_0_dbus_congested 3785076

avg_congested_cycle 101

DRAM_bw_pochs 2689106
DRAM_bw_level_0 1581315
DRAM_bw_level_1 464545
DRAM_bw_level_2 0
DRAM_bw_level_3 643246
