*************************************************
   ChampSim Multicore Out-of-Order Simulator
   Last compiled: Dec 11 2024 17:59:53
*************************************************
parsing config file: /home/functionmain/桌面/Pythia/config/pythia.ini

trace_0 /home/functionmain/桌面/Pythia/traces/437.leslie3d-149B.champsimtrace.xz
adding L2C_PREFETCHER: Scooby
Initialize SHIP state
warmup_instructions 100000000
simulation_instructions 500000000
champsim_seed 224
measure_ipc 0
measure_ipc_epoch 1000
measure_dram_bw 1
measure_dram_bw_epoch 256
measure_cache_acc 1
measure_cache_acc_epoch 1024
l1d_perfect 0
l2c_perfect 0
llc_perfect 0
l1d_semi_perfect 0
l2c_semi_perfect 0
llc_semi_perfect 0
semi_perfect_cache_page_buffer_size 64

num_cpus 1
cpu_freq 4000
dram_io_freq 600
page_size 4096
block_size 64
max_read_per_cycle 8
max_fill_per_cycle 1
dram_channels 1
log2_dram_channels 0
dram_ranks 1
dram_banks 8
dram_rows 65536
dram_columns 128
dram_row_size 8
dram_size 4096
dram_pages 1048576

fetch_width 6
decode_width 6
exec_width 4
lq_width 2
sq_width 2
retire_width 4
scheduler_size 128
branch_mispredict_penalty 20
rob_size 256
lq_size 72
sq_size 56
num_instr_destinations_sparc 4
num_instr_destinations 2
num_instr_sources 4

itlb_set 16
itlb_way 8
itlb_rq_size 16
itlb_wq_size 16
itlb_pq_size 0
itlb_mshr_size 8
itlb_latency 1

dtlb_set 16
dtlb_way 4
dtlb_rq_size 16
dtlb_wq_size 16
dtlb_pq_size 0
dtlb_mshr_size 8
dtlb_latency 1

stlb_set 128
stlb_way 12
stlb_rq_size 32
stlb_wq_size 32
stlb_pq_size 0
stlb_mshr_size 16
stlb_latency 8

l1i_size 32
l1i_set 64
l1i_way 8
l1i_rq_size 64
l1i_wq_size 64
l1i_pq_size 8
l1i_mshr_size 8
l1i_latency 1

l1d_size 32
l1d_set 64
l1d_way 8
l1d_rq_size 64
l1d_wq_size 64
l1d_pq_size 8
l1d_mshr_size 16
l1d_latency 4

l2c_size 256
l2c_set 512
l2c_way 8
l2c_rq_size 32
l2c_wq_size 32
l2c_pq_size 32
l2c_mshr_size 32
l2c_latency 10

llc_size 2048
llc_set 2048
llc_way 16
llc_rq_size 32
llc_wq_size 32
llc_pq_size 32
llc_mshr_size 64
llc_latency 20

dram_channel_width 8
dram_wq_size 64
dram_rq_size 64
tRP 15
tRCD 15
tCAS 12.5
dram_dbus_turn_around_time 30
dram_write_high_wm 56
dram_write_low_wm 48
min_dram_writes_per_switch 16
dram_mtps 600
dram_dbus_return_time 53

scooby_alpha 0.0065088
scooby_gamma 0.556301
scooby_epsilon 0.00182284
scooby_state_num_bits 10
scooby_max_states 1024
scooby_seed 200
scooby_policy EGreedy
scooby_learning_type SARSA
scooby_actions 1,3,4,5,10,11,12,22,23,30,32,-1,-3,-6,0,
scooby_max_actions 15
scooby_pt_size 256
scooby_st_size 64
scooby_max_pcs 5
scooby_max_offsets 5
scooby_max_deltas 5
scooby_reward_none -4
scooby_reward_incorrect -8
scooby_reward_correct_untimely 12
scooby_reward_correct_timely 20
scooby_brain_zero_init 0
scooby_enable_reward_all 0
scooby_enable_track_multiple 0
scooby_enable_reward_out_of_bounds 1
scooby_reward_out_of_bounds -12
scooby_state_type 1
scooby_state_hash_type 11
scooby_access_debug 0
scooby_print_access_debug 0
scooby_print_access_debug_pc deadbeef
scooby_print_access_debug_pc_count 0
scooby_print_trace 0
scooby_enable_state_action_stats 1
scooby_enable_reward_tracker_hit 0
scooby_reward_tracker_hit -2
scooby_enable_featurewise_engine 1
scooby_pref_degree 1
scooby_enable_dyn_degree 1
scooby_max_to_avg_q_thresholds 0.5,1,2,
scooby_dyn_degrees 1,2,4,4,
scooby_multi_deg_select_type 2
scooby_last_pref_offset_conf_thresholds 1,3,8,
scooby_dyn_degrees_type2 1,2,4,6,
scooby_action_tracker_size 2
scooby_high_bw_thresh 4
scooby_enable_hbw_reward 1
scooby_reward_hbw_correct_timely 20
scooby_reward_hbw_correct_untimely 12
scooby_reward_hbw_incorrect -14
scooby_reward_hbw_none -2
scooby_reward_hbw_out_of_bounds -12
scooby_reward_hbw_tracker_hit -2
scooby_last_pref_offset_conf_thresholds_hbw 1,3,8,
scooby_dyn_degrees_type2_hbw 1,2,4,6,

le_enable_trace 0
le_trace_interval 0
le_trace_file_name 
le_trace_state 0
le_enable_score_plot 0
le_plot_file_name 
le_plot_actions 
le_enable_action_trace 0
le_action_trace_interval 0
le_action_trace_name 
le_enable_action_plot 0

le_featurewise_active_features PC, PC_Delta
le_featurewise_num_tilings 3,3,
le_featurewise_num_tiles 128,128,
le_featurewise_hash_types 2,2,
le_featurewise_enable_tiling_offset 1,1,
le_featurewise_max_q_thresh 0.5
le_featurewise_enable_action_fallback 1
le_featurewise_feature_weights 1,1,
le_featurewise_enable_dynamic_weight 0
le_featurewise_weight_gradient 0.001
le_featurewise_disable_adjust_weight_all_features_align 1
le_featurewise_selective_update 0
le_featurewise_pooling_type 2
le_featurewise_enable_dyn_action_fallback 1
le_featurewise_bw_acc_check_level 1
le_featurewise_acc_thresh 2
le_featurewise_enable_trace 0
le_featurewise_trace_feature_type 0
le_featurewise_trace_feature 
le_featurewise_trace_interval 0
le_featurewise_trace_record_count 0
le_featurewise_trace_file_name 
le_featurewise_enable_score_plot 0
le_featurewise_plot_actions 
le_featurewise_plot_file_name 


Heartbeat CPU  0 instructions:    1000002 cycles:     502898 heartbeat IPC: 1.98848 cumulative IPC: 1.98848 (Simulation time: 0 hr 0 min 2 sec) 
Heartbeat CPU  0 instructions:    2000001 cycles:     991170 heartbeat IPC: 2.04804 cumulative IPC: 2.01782 (Simulation time: 0 hr 0 min 4 sec) 
Heartbeat CPU  0 instructions:    3000003 cycles:    1493380 heartbeat IPC: 1.99120 cumulative IPC: 2.00887 (Simulation time: 0 hr 0 min 5 sec) 
Heartbeat CPU  0 instructions:    4000000 cycles:    1995284 heartbeat IPC: 1.99241 cumulative IPC: 2.00473 (Simulation time: 0 hr 0 min 7 sec) 
Heartbeat CPU  0 instructions:    5000000 cycles:    2497629 heartbeat IPC: 1.99066 cumulative IPC: 2.00190 (Simulation time: 0 hr 0 min 9 sec) 
Heartbeat CPU  0 instructions:    6000001 cycles:    2997556 heartbeat IPC: 2.00029 cumulative IPC: 2.00163 (Simulation time: 0 hr 0 min 11 sec) 
Heartbeat CPU  0 instructions:    7000000 cycles:    3487754 heartbeat IPC: 2.03999 cumulative IPC: 2.00702 (Simulation time: 0 hr 0 min 13 sec) 
Heartbeat CPU  0 instructions:    8000000 cycles:    3990929 heartbeat IPC: 1.98738 cumulative IPC: 2.00455 (Simulation time: 0 hr 0 min 15 sec) 
Heartbeat CPU  0 instructions:    9000002 cycles:    4492925 heartbeat IPC: 1.99205 cumulative IPC: 2.00315 (Simulation time: 0 hr 0 min 17 sec) 
Heartbeat CPU  0 instructions:   10000000 cycles:    4994933 heartbeat IPC: 1.99200 cumulative IPC: 2.00203 (Simulation time: 0 hr 0 min 19 sec) 
Heartbeat CPU  0 instructions:   11000002 cycles:    5486056 heartbeat IPC: 2.03615 cumulative IPC: 2.00508 (Simulation time: 0 hr 0 min 21 sec) 
Heartbeat CPU  0 instructions:   12000000 cycles:    5985151 heartbeat IPC: 2.00362 cumulative IPC: 2.00496 (Simulation time: 0 hr 0 min 23 sec) 
Heartbeat CPU  0 instructions:   13000002 cycles:    6487771 heartbeat IPC: 1.98958 cumulative IPC: 2.00377 (Simulation time: 0 hr 0 min 25 sec) 
Heartbeat CPU  0 instructions:   14000003 cycles:    6990302 heartbeat IPC: 1.98993 cumulative IPC: 2.00278 (Simulation time: 0 hr 0 min 26 sec) 
Heartbeat CPU  0 instructions:   15000002 cycles:    7492536 heartbeat IPC: 1.99110 cumulative IPC: 2.00199 (Simulation time: 0 hr 0 min 28 sec) 
Heartbeat CPU  0 instructions:   16000000 cycles:    7980164 heartbeat IPC: 2.05074 cumulative IPC: 2.00497 (Simulation time: 0 hr 0 min 30 sec) 
Heartbeat CPU  0 instructions:   17000001 cycles:    8483052 heartbeat IPC: 1.98852 cumulative IPC: 2.00400 (Simulation time: 0 hr 0 min 32 sec) 
Heartbeat CPU  0 instructions:   18000003 cycles:    8986302 heartbeat IPC: 1.98709 cumulative IPC: 2.00305 (Simulation time: 0 hr 0 min 34 sec) 
Heartbeat CPU  0 instructions:   19000003 cycles:    9488664 heartbeat IPC: 1.99060 cumulative IPC: 2.00239 (Simulation time: 0 hr 0 min 36 sec) 
Heartbeat CPU  0 instructions:   20000000 cycles:    9980834 heartbeat IPC: 2.03181 cumulative IPC: 2.00384 (Simulation time: 0 hr 0 min 38 sec) 
Heartbeat CPU  0 instructions:   21000003 cycles:   10478317 heartbeat IPC: 2.01012 cumulative IPC: 2.00414 (Simulation time: 0 hr 0 min 40 sec) 
Heartbeat CPU  0 instructions:   22000001 cycles:   10981151 heartbeat IPC: 1.98872 cumulative IPC: 2.00343 (Simulation time: 0 hr 0 min 42 sec) 
Heartbeat CPU  0 instructions:   23000002 cycles:   11483863 heartbeat IPC: 1.98921 cumulative IPC: 2.00281 (Simulation time: 0 hr 0 min 44 sec) 
Heartbeat CPU  0 instructions:   24000000 cycles:   11986029 heartbeat IPC: 1.99137 cumulative IPC: 2.00233 (Simulation time: 0 hr 0 min 46 sec) 
Heartbeat CPU  0 instructions:   25000002 cycles:   12473593 heartbeat IPC: 2.05102 cumulative IPC: 2.00423 (Simulation time: 0 hr 0 min 48 sec) 
Heartbeat CPU  0 instructions:   26000002 cycles:   12975552 heartbeat IPC: 1.99219 cumulative IPC: 2.00377 (Simulation time: 0 hr 0 min 50 sec) 
Heartbeat CPU  0 instructions:   27000001 cycles:   13477987 heartbeat IPC: 1.99031 cumulative IPC: 2.00327 (Simulation time: 0 hr 0 min 51 sec) 
Heartbeat CPU  0 instructions:   28000000 cycles:   13980731 heartbeat IPC: 1.98908 cumulative IPC: 2.00276 (Simulation time: 0 hr 0 min 53 sec) 
Heartbeat CPU  0 instructions:   29000003 cycles:   14475819 heartbeat IPC: 2.01985 cumulative IPC: 2.00334 (Simulation time: 0 hr 0 min 55 sec) 
Heartbeat CPU  0 instructions:   30000003 cycles:   14970533 heartbeat IPC: 2.02137 cumulative IPC: 2.00394 (Simulation time: 0 hr 0 min 57 sec) 
Heartbeat CPU  0 instructions:   31000001 cycles:   15472764 heartbeat IPC: 1.99111 cumulative IPC: 2.00352 (Simulation time: 0 hr 0 min 59 sec) 
Heartbeat CPU  0 instructions:   32000000 cycles:   15975192 heartbeat IPC: 1.99033 cumulative IPC: 2.00311 (Simulation time: 0 hr 1 min 1 sec) 
Heartbeat CPU  0 instructions:   33000000 cycles:   16477789 heartbeat IPC: 1.98967 cumulative IPC: 2.00270 (Simulation time: 0 hr 1 min 3 sec) 
Heartbeat CPU  0 instructions:   34000003 cycles:   16965714 heartbeat IPC: 2.04950 cumulative IPC: 2.00404 (Simulation time: 0 hr 1 min 5 sec) 
Heartbeat CPU  0 instructions:   35000003 cycles:   17467830 heartbeat IPC: 1.99157 cumulative IPC: 2.00368 (Simulation time: 0 hr 1 min 7 sec) 
Heartbeat CPU  0 instructions:   36000000 cycles:   17969880 heartbeat IPC: 1.99183 cumulative IPC: 2.00335 (Simulation time: 0 hr 1 min 9 sec) 
Heartbeat CPU  0 instructions:   37000001 cycles:   18472935 heartbeat IPC: 1.98786 cumulative IPC: 2.00293 (Simulation time: 0 hr 1 min 11 sec) 
Heartbeat CPU  0 instructions:   38000003 cycles:   18970651 heartbeat IPC: 2.00918 cumulative IPC: 2.00309 (Simulation time: 0 hr 1 min 12 sec) 
Heartbeat CPU  0 instructions:   39000001 cycles:   19463364 heartbeat IPC: 2.02958 cumulative IPC: 2.00376 (Simulation time: 0 hr 1 min 14 sec) 
Heartbeat CPU  0 instructions:   40000000 cycles:   19965633 heartbeat IPC: 1.99096 cumulative IPC: 2.00344 (Simulation time: 0 hr 1 min 16 sec) 
Heartbeat CPU  0 instructions:   41000002 cycles:   20468144 heartbeat IPC: 1.99001 cumulative IPC: 2.00311 (Simulation time: 0 hr 1 min 18 sec) 
Heartbeat CPU  0 instructions:   42000000 cycles:   20970872 heartbeat IPC: 1.98914 cumulative IPC: 2.00278 (Simulation time: 0 hr 1 min 20 sec) 
Heartbeat CPU  0 instructions:   43000000 cycles:   21459006 heartbeat IPC: 2.04862 cumulative IPC: 2.00382 (Simulation time: 0 hr 1 min 22 sec) 
Heartbeat CPU  0 instructions:   44000000 cycles:   21961369 heartbeat IPC: 1.99059 cumulative IPC: 2.00352 (Simulation time: 0 hr 1 min 24 sec) 
Heartbeat CPU  0 instructions:   45000002 cycles:   22464150 heartbeat IPC: 1.98894 cumulative IPC: 2.00319 (Simulation time: 0 hr 1 min 26 sec) 
Heartbeat CPU  0 instructions:   46000003 cycles:   22966082 heartbeat IPC: 1.99230 cumulative IPC: 2.00295 (Simulation time: 0 hr 1 min 28 sec) 
Heartbeat CPU  0 instructions:   47000000 cycles:   23465123 heartbeat IPC: 2.00384 cumulative IPC: 2.00297 (Simulation time: 0 hr 1 min 30 sec) 
Heartbeat CPU  0 instructions:   48000000 cycles:   23956165 heartbeat IPC: 2.03649 cumulative IPC: 2.00366 (Simulation time: 0 hr 1 min 32 sec) 
Heartbeat CPU  0 instructions:   49000002 cycles:   24459081 heartbeat IPC: 1.98841 cumulative IPC: 2.00335 (Simulation time: 0 hr 1 min 34 sec) 
Heartbeat CPU  0 instructions:   50000003 cycles:   24961537 heartbeat IPC: 1.99023 cumulative IPC: 2.00308 (Simulation time: 0 hr 1 min 35 sec) 
Heartbeat CPU  0 instructions:   51000001 cycles:   25463608 heartbeat IPC: 1.99175 cumulative IPC: 2.00286 (Simulation time: 0 hr 1 min 37 sec) 
Heartbeat CPU  0 instructions:   52000000 cycles:   25953752 heartbeat IPC: 2.04021 cumulative IPC: 2.00356 (Simulation time: 0 hr 1 min 39 sec) 
Heartbeat CPU  0 instructions:   53000003 cycles:   26453628 heartbeat IPC: 2.00050 cumulative IPC: 2.00351 (Simulation time: 0 hr 1 min 41 sec) 
Heartbeat CPU  0 instructions:   54000003 cycles:   26965174 heartbeat IPC: 1.95486 cumulative IPC: 2.00258 (Simulation time: 0 hr 1 min 43 sec) 
Heartbeat CPU  0 instructions:   55000001 cycles:   27484393 heartbeat IPC: 1.92597 cumulative IPC: 2.00114 (Simulation time: 0 hr 1 min 45 sec) 
Heartbeat CPU  0 instructions:   56000000 cycles:   27996859 heartbeat IPC: 1.95135 cumulative IPC: 2.00022 (Simulation time: 0 hr 1 min 47 sec) 
Heartbeat CPU  0 instructions:   57000000 cycles:   28508758 heartbeat IPC: 1.95351 cumulative IPC: 1.99939 (Simulation time: 0 hr 1 min 49 sec) 
Heartbeat CPU  0 instructions:   58000002 cycles:   29022610 heartbeat IPC: 1.94609 cumulative IPC: 1.99844 (Simulation time: 0 hr 1 min 50 sec) 
Heartbeat CPU  0 instructions:   59000003 cycles:   29533995 heartbeat IPC: 1.95548 cumulative IPC: 1.99770 (Simulation time: 0 hr 1 min 52 sec) 
Heartbeat CPU  0 instructions:   60000000 cycles:   30044534 heartbeat IPC: 1.95871 cumulative IPC: 1.99704 (Simulation time: 0 hr 1 min 54 sec) 
Heartbeat CPU  0 instructions:   61000001 cycles:   30557014 heartbeat IPC: 1.95130 cumulative IPC: 1.99627 (Simulation time: 0 hr 1 min 56 sec) 
Heartbeat CPU  0 instructions:   62000003 cycles:   31069598 heartbeat IPC: 1.95090 cumulative IPC: 1.99552 (Simulation time: 0 hr 1 min 57 sec) 
Heartbeat CPU  0 instructions:   63000001 cycles:   31581444 heartbeat IPC: 1.95371 cumulative IPC: 1.99484 (Simulation time: 0 hr 1 min 59 sec) 
Heartbeat CPU  0 instructions:   64000000 cycles:   32094769 heartbeat IPC: 1.94808 cumulative IPC: 1.99409 (Simulation time: 0 hr 2 min 1 sec) 
Heartbeat CPU  0 instructions:   65000000 cycles:   32608112 heartbeat IPC: 1.94802 cumulative IPC: 1.99337 (Simulation time: 0 hr 2 min 3 sec) 
Heartbeat CPU  0 instructions:   66000002 cycles:   33119969 heartbeat IPC: 1.95367 cumulative IPC: 1.99276 (Simulation time: 0 hr 2 min 5 sec) 
Heartbeat CPU  0 instructions:   67000002 cycles:   33633286 heartbeat IPC: 1.94811 cumulative IPC: 1.99207 (Simulation time: 0 hr 2 min 6 sec) 
Heartbeat CPU  0 instructions:   68000000 cycles:   34146496 heartbeat IPC: 1.94852 cumulative IPC: 1.99142 (Simulation time: 0 hr 2 min 8 sec) 
Heartbeat CPU  0 instructions:   69000001 cycles:   34658058 heartbeat IPC: 1.95480 cumulative IPC: 1.99088 (Simulation time: 0 hr 2 min 10 sec) 
Heartbeat CPU  0 instructions:   70000003 cycles:   35170951 heartbeat IPC: 1.94973 cumulative IPC: 1.99028 (Simulation time: 0 hr 2 min 12 sec) 
Heartbeat CPU  0 instructions:   71000002 cycles:   35683720 heartbeat IPC: 1.95019 cumulative IPC: 1.98970 (Simulation time: 0 hr 2 min 13 sec) 
Heartbeat CPU  0 instructions:   72000000 cycles:   36195150 heartbeat IPC: 1.95530 cumulative IPC: 1.98922 (Simulation time: 0 hr 2 min 15 sec) 
Heartbeat CPU  0 instructions:   73000003 cycles:   36707556 heartbeat IPC: 1.95158 cumulative IPC: 1.98869 (Simulation time: 0 hr 2 min 17 sec) 
Heartbeat CPU  0 instructions:   74000001 cycles:   37220178 heartbeat IPC: 1.95075 cumulative IPC: 1.98817 (Simulation time: 0 hr 2 min 19 sec) 
Heartbeat CPU  0 instructions:   75000001 cycles:   37732110 heartbeat IPC: 1.95338 cumulative IPC: 1.98770 (Simulation time: 0 hr 2 min 21 sec) 
Heartbeat CPU  0 instructions:   76000000 cycles:   38244876 heartbeat IPC: 1.95021 cumulative IPC: 1.98719 (Simulation time: 0 hr 2 min 22 sec) 
Heartbeat CPU  0 instructions:   77000001 cycles:   38758353 heartbeat IPC: 1.94751 cumulative IPC: 1.98667 (Simulation time: 0 hr 2 min 24 sec) 
Heartbeat CPU  0 instructions:   78000003 cycles:   39270341 heartbeat IPC: 1.95317 cumulative IPC: 1.98623 (Simulation time: 0 hr 2 min 26 sec) 
Heartbeat CPU  0 instructions:   79000000 cycles:   39782931 heartbeat IPC: 1.95087 cumulative IPC: 1.98578 (Simulation time: 0 hr 2 min 28 sec) 
Heartbeat CPU  0 instructions:   80000000 cycles:   40296297 heartbeat IPC: 1.94793 cumulative IPC: 1.98529 (Simulation time: 0 hr 2 min 29 sec) 
Heartbeat CPU  0 instructions:   81000000 cycles:   40808288 heartbeat IPC: 1.95316 cumulative IPC: 1.98489 (Simulation time: 0 hr 2 min 31 sec) 
Heartbeat CPU  0 instructions:   82000001 cycles:   41320556 heartbeat IPC: 1.95211 cumulative IPC: 1.98448 (Simulation time: 0 hr 2 min 33 sec) 
Heartbeat CPU  0 instructions:   83000001 cycles:   41834170 heartbeat IPC: 1.94699 cumulative IPC: 1.98402 (Simulation time: 0 hr 2 min 35 sec) 
Heartbeat CPU  0 instructions:   84000000 cycles:   42346049 heartbeat IPC: 1.95358 cumulative IPC: 1.98366 (Simulation time: 0 hr 2 min 37 sec) 
Heartbeat CPU  0 instructions:   85000001 cycles:   42858153 heartbeat IPC: 1.95273 cumulative IPC: 1.98329 (Simulation time: 0 hr 2 min 38 sec) 
Heartbeat CPU  0 instructions:   86000002 cycles:   43371647 heartbeat IPC: 1.94744 cumulative IPC: 1.98286 (Simulation time: 0 hr 2 min 40 sec) 
Heartbeat CPU  0 instructions:   87000003 cycles:   43883481 heartbeat IPC: 1.95376 cumulative IPC: 1.98252 (Simulation time: 0 hr 2 min 42 sec) 
Heartbeat CPU  0 instructions:   88000000 cycles:   44395612 heartbeat IPC: 1.95262 cumulative IPC: 1.98218 (Simulation time: 0 hr 2 min 44 sec) 
Heartbeat CPU  0 instructions:   89000002 cycles:   44909349 heartbeat IPC: 1.94653 cumulative IPC: 1.98177 (Simulation time: 0 hr 2 min 45 sec) 
Heartbeat CPU  0 instructions:   90000003 cycles:   45421455 heartbeat IPC: 1.95272 cumulative IPC: 1.98144 (Simulation time: 0 hr 2 min 47 sec) 
Heartbeat CPU  0 instructions:   91000002 cycles:   45932200 heartbeat IPC: 1.95792 cumulative IPC: 1.98118 (Simulation time: 0 hr 2 min 49 sec) 
Heartbeat CPU  0 instructions:   92000000 cycles:   46444789 heartbeat IPC: 1.95088 cumulative IPC: 1.98085 (Simulation time: 0 hr 2 min 51 sec) 
Heartbeat CPU  0 instructions:   93000001 cycles:   46955955 heartbeat IPC: 1.95631 cumulative IPC: 1.98058 (Simulation time: 0 hr 2 min 53 sec) 
Heartbeat CPU  0 instructions:   94000003 cycles:   47467502 heartbeat IPC: 1.95486 cumulative IPC: 1.98030 (Simulation time: 0 hr 2 min 54 sec) 
Heartbeat CPU  0 instructions:   95000003 cycles:   47981326 heartbeat IPC: 1.94619 cumulative IPC: 1.97994 (Simulation time: 0 hr 2 min 56 sec) 
Heartbeat CPU  0 instructions:   96000000 cycles:   48493705 heartbeat IPC: 1.95167 cumulative IPC: 1.97964 (Simulation time: 0 hr 2 min 58 sec) 
Heartbeat CPU  0 instructions:   97000002 cycles:   49005182 heartbeat IPC: 1.95513 cumulative IPC: 1.97938 (Simulation time: 0 hr 3 min 0 sec) 
Heartbeat CPU  0 instructions:   98000000 cycles:   49518272 heartbeat IPC: 1.94897 cumulative IPC: 1.97907 (Simulation time: 0 hr 3 min 1 sec) 
Heartbeat CPU  0 instructions:   99000000 cycles:   50030249 heartbeat IPC: 1.95321 cumulative IPC: 1.97880 (Simulation time: 0 hr 3 min 3 sec) 
Heartbeat CPU  0 instructions:  100000000 cycles:   50566655 heartbeat IPC: 1.86426 cumulative IPC: 1.97759 (Simulation time: 0 hr 3 min 5 sec) 

Warmup complete CPU  0 instructions:  100000001 cycles:   50566676 (Simulation time: 0 hr 3 min 5 sec) 

Heartbeat CPU  0 instructions:  101000003 cycles:   53331672 heartbeat IPC: 0.36166 cumulative IPC: 0.36166 (Simulation time: 0 hr 3 min 9 sec) 
Heartbeat CPU  0 instructions:  102000002 cycles:   58914158 heartbeat IPC: 0.17913 cumulative IPC: 0.23959 (Simulation time: 0 hr 3 min 13 sec) 
Heartbeat CPU  0 instructions:  103000002 cycles:   62636627 heartbeat IPC: 0.26864 cumulative IPC: 0.24855 (Simulation time: 0 hr 3 min 17 sec) 
Heartbeat CPU  0 instructions:  104000000 cycles:   63724223 heartbeat IPC: 0.91946 cumulative IPC: 0.30401 (Simulation time: 0 hr 3 min 20 sec) 
Heartbeat CPU  0 instructions:  105000002 cycles:   64973841 heartbeat IPC: 0.80025 cumulative IPC: 0.34705 (Simulation time: 0 hr 3 min 22 sec) 
Heartbeat CPU  0 instructions:  106000003 cycles:   66008570 heartbeat IPC: 0.96644 cumulative IPC: 0.38855 (Simulation time: 0 hr 3 min 25 sec) 
Heartbeat CPU  0 instructions:  107000000 cycles:   66888181 heartbeat IPC: 1.13686 cumulative IPC: 0.42888 (Simulation time: 0 hr 3 min 27 sec) 
Heartbeat CPU  0 instructions:  108000000 cycles:   67749960 heartbeat IPC: 1.16039 cumulative IPC: 0.46557 (Simulation time: 0 hr 3 min 29 sec) 
Heartbeat CPU  0 instructions:  109000001 cycles:   68609147 heartbeat IPC: 1.16389 cumulative IPC: 0.49882 (Simulation time: 0 hr 3 min 32 sec) 
Heartbeat CPU  0 instructions:  110000001 cycles:   69709371 heartbeat IPC: 0.90891 cumulative IPC: 0.52239 (Simulation time: 0 hr 3 min 34 sec) 
Heartbeat CPU  0 instructions:  111000001 cycles:   71195410 heartbeat IPC: 0.67293 cumulative IPC: 0.53324 (Simulation time: 0 hr 3 min 37 sec) 
Heartbeat CPU  0 instructions:  112000000 cycles:   72701280 heartbeat IPC: 0.66407 cumulative IPC: 0.54214 (Simulation time: 0 hr 3 min 39 sec) 
Heartbeat CPU  0 instructions:  113000003 cycles:   73701553 heartbeat IPC: 0.99973 cumulative IPC: 0.56192 (Simulation time: 0 hr 3 min 42 sec) 
Heartbeat CPU  0 instructions:  114000001 cycles:   74615340 heartbeat IPC: 1.09434 cumulative IPC: 0.58215 (Simulation time: 0 hr 3 min 44 sec) 
Heartbeat CPU  0 instructions:  115000001 cycles:   75533537 heartbeat IPC: 1.08909 cumulative IPC: 0.60080 (Simulation time: 0 hr 3 min 46 sec) 
Heartbeat CPU  0 instructions:  116000000 cycles:   76476799 heartbeat IPC: 1.06015 cumulative IPC: 0.61752 (Simulation time: 0 hr 3 min 49 sec) 
Heartbeat CPU  0 instructions:  117000000 cycles:   77275724 heartbeat IPC: 1.25168 cumulative IPC: 0.63649 (Simulation time: 0 hr 3 min 51 sec) 
Heartbeat CPU  0 instructions:  118000003 cycles:   78076929 heartbeat IPC: 1.24812 cumulative IPC: 0.65430 (Simulation time: 0 hr 3 min 53 sec) 
Heartbeat CPU  0 instructions:  119000000 cycles:   78882908 heartbeat IPC: 1.24072 cumulative IPC: 0.67099 (Simulation time: 0 hr 3 min 55 sec) 
Heartbeat CPU  0 instructions:  120000000 cycles:   79689632 heartbeat IPC: 1.23958 cumulative IPC: 0.68674 (Simulation time: 0 hr 3 min 57 sec) 
Heartbeat CPU  0 instructions:  121000001 cycles:   80497359 heartbeat IPC: 1.23804 cumulative IPC: 0.70162 (Simulation time: 0 hr 3 min 59 sec) 
Heartbeat CPU  0 instructions:  122000002 cycles:   81304196 heartbeat IPC: 1.23941 cumulative IPC: 0.71574 (Simulation time: 0 hr 4 min 1 sec) 
Heartbeat CPU  0 instructions:  123000000 cycles:   82112292 heartbeat IPC: 1.23747 cumulative IPC: 0.72910 (Simulation time: 0 hr 4 min 3 sec) 
Heartbeat CPU  0 instructions:  124000000 cycles:   82918861 heartbeat IPC: 1.23982 cumulative IPC: 0.74184 (Simulation time: 0 hr 4 min 6 sec) 
Heartbeat CPU  0 instructions:  125000002 cycles:   83725571 heartbeat IPC: 1.23961 cumulative IPC: 0.75395 (Simulation time: 0 hr 4 min 8 sec) 
Heartbeat CPU  0 instructions:  126000001 cycles:   84532699 heartbeat IPC: 1.23896 cumulative IPC: 0.76547 (Simulation time: 0 hr 4 min 10 sec) 
Heartbeat CPU  0 instructions:  127000003 cycles:   85339254 heartbeat IPC: 1.23984 cumulative IPC: 0.77647 (Simulation time: 0 hr 4 min 12 sec) 
Heartbeat CPU  0 instructions:  128000000 cycles:   86145996 heartbeat IPC: 1.23955 cumulative IPC: 0.78697 (Simulation time: 0 hr 4 min 14 sec) 
Heartbeat CPU  0 instructions:  129000001 cycles:   86952230 heartbeat IPC: 1.24034 cumulative IPC: 0.79702 (Simulation time: 0 hr 4 min 16 sec) 
Heartbeat CPU  0 instructions:  130000003 cycles:   87758842 heartbeat IPC: 1.23976 cumulative IPC: 0.80662 (Simulation time: 0 hr 4 min 18 sec) 
Heartbeat CPU  0 instructions:  131000000 cycles:   88565913 heartbeat IPC: 1.23904 cumulative IPC: 0.81581 (Simulation time: 0 hr 4 min 20 sec) 
Heartbeat CPU  0 instructions:  132000000 cycles:   89372539 heartbeat IPC: 1.23973 cumulative IPC: 0.82462 (Simulation time: 0 hr 4 min 22 sec) 
Heartbeat CPU  0 instructions:  133000000 cycles:   90178969 heartbeat IPC: 1.24003 cumulative IPC: 0.83307 (Simulation time: 0 hr 4 min 24 sec) 
Heartbeat CPU  0 instructions:  134000003 cycles:   90985946 heartbeat IPC: 1.23920 cumulative IPC: 0.84118 (Simulation time: 0 hr 4 min 27 sec) 
Heartbeat CPU  0 instructions:  135000003 cycles:   91793919 heartbeat IPC: 1.23767 cumulative IPC: 0.84895 (Simulation time: 0 hr 4 min 29 sec) 
Heartbeat CPU  0 instructions:  136000000 cycles:   92599871 heartbeat IPC: 1.24076 cumulative IPC: 0.85647 (Simulation time: 0 hr 4 min 31 sec) 
Heartbeat CPU  0 instructions:  137000003 cycles:   93407840 heartbeat IPC: 1.23767 cumulative IPC: 0.86366 (Simulation time: 0 hr 4 min 33 sec) 
Heartbeat CPU  0 instructions:  138000002 cycles:   94215186 heartbeat IPC: 1.23863 cumulative IPC: 0.87059 (Simulation time: 0 hr 4 min 35 sec) 
Heartbeat CPU  0 instructions:  139000002 cycles:   95022409 heartbeat IPC: 1.23882 cumulative IPC: 0.87728 (Simulation time: 0 hr 4 min 37 sec) 
Heartbeat CPU  0 instructions:  140000000 cycles:   95828038 heartbeat IPC: 1.24126 cumulative IPC: 0.88376 (Simulation time: 0 hr 4 min 39 sec) 
Heartbeat CPU  0 instructions:  141000000 cycles:   96636355 heartbeat IPC: 1.23714 cumulative IPC: 0.88996 (Simulation time: 0 hr 4 min 41 sec) 
Heartbeat CPU  0 instructions:  142000000 cycles:   97443293 heartbeat IPC: 1.23925 cumulative IPC: 0.89597 (Simulation time: 0 hr 4 min 44 sec) 
Heartbeat CPU  0 instructions:  143000003 cycles:   98249347 heartbeat IPC: 1.24062 cumulative IPC: 0.90180 (Simulation time: 0 hr 4 min 46 sec) 
Heartbeat CPU  0 instructions:  144000000 cycles:   99060928 heartbeat IPC: 1.23216 cumulative IPC: 0.90732 (Simulation time: 0 hr 4 min 48 sec) 
Heartbeat CPU  0 instructions:  145000001 cycles:   99868408 heartbeat IPC: 1.23842 cumulative IPC: 0.91275 (Simulation time: 0 hr 4 min 50 sec) 
Heartbeat CPU  0 instructions:  146000003 cycles:  100675003 heartbeat IPC: 1.23978 cumulative IPC: 0.91801 (Simulation time: 0 hr 4 min 52 sec) 
Heartbeat CPU  0 instructions:  147000000 cycles:  101482328 heartbeat IPC: 1.23865 cumulative IPC: 0.92310 (Simulation time: 0 hr 4 min 54 sec) 
Heartbeat CPU  0 instructions:  148000000 cycles:  102290536 heartbeat IPC: 1.23731 cumulative IPC: 0.92800 (Simulation time: 0 hr 4 min 56 sec) 
Heartbeat CPU  0 instructions:  149000003 cycles:  103099418 heartbeat IPC: 1.23628 cumulative IPC: 0.93275 (Simulation time: 0 hr 4 min 58 sec) 
Heartbeat CPU  0 instructions:  150000003 cycles:  103906563 heartbeat IPC: 1.23893 cumulative IPC: 0.93738 (Simulation time: 0 hr 5 min 1 sec) 
Heartbeat CPU  0 instructions:  151000000 cycles:  104713582 heartbeat IPC: 1.23912 cumulative IPC: 0.94188 (Simulation time: 0 hr 5 min 3 sec) 
Heartbeat CPU  0 instructions:  152000000 cycles:  105520440 heartbeat IPC: 1.23938 cumulative IPC: 0.94625 (Simulation time: 0 hr 5 min 5 sec) 
Heartbeat CPU  0 instructions:  153000002 cycles:  106328709 heartbeat IPC: 1.23721 cumulative IPC: 0.95047 (Simulation time: 0 hr 5 min 7 sec) 
Heartbeat CPU  0 instructions:  154000002 cycles:  107135930 heartbeat IPC: 1.23882 cumulative IPC: 0.95458 (Simulation time: 0 hr 5 min 9 sec) 
Heartbeat CPU  0 instructions:  155000001 cycles:  107944647 heartbeat IPC: 1.23653 cumulative IPC: 0.95856 (Simulation time: 0 hr 5 min 11 sec) 
Heartbeat CPU  0 instructions:  156000000 cycles:  108750754 heartbeat IPC: 1.24053 cumulative IPC: 0.96246 (Simulation time: 0 hr 5 min 13 sec) 
Heartbeat CPU  0 instructions:  157000000 cycles:  109557066 heartbeat IPC: 1.24021 cumulative IPC: 0.96626 (Simulation time: 0 hr 5 min 15 sec) 
Heartbeat CPU  0 instructions:  158000001 cycles:  110362545 heartbeat IPC: 1.24150 cumulative IPC: 0.96997 (Simulation time: 0 hr 5 min 17 sec) 
Heartbeat CPU  0 instructions:  159000003 cycles:  111169198 heartbeat IPC: 1.23969 cumulative IPC: 0.97356 (Simulation time: 0 hr 5 min 20 sec) 
Heartbeat CPU  0 instructions:  160000000 cycles:  111976168 heartbeat IPC: 1.23920 cumulative IPC: 0.97705 (Simulation time: 0 hr 5 min 22 sec) 
Heartbeat CPU  0 instructions:  161000001 cycles:  112783190 heartbeat IPC: 1.23912 cumulative IPC: 0.98045 (Simulation time: 0 hr 5 min 24 sec) 
Heartbeat CPU  0 instructions:  162000000 cycles:  113590514 heartbeat IPC: 1.23866 cumulative IPC: 0.98375 (Simulation time: 0 hr 5 min 26 sec) 
Heartbeat CPU  0 instructions:  163000003 cycles:  114398896 heartbeat IPC: 1.23704 cumulative IPC: 0.98696 (Simulation time: 0 hr 5 min 28 sec) 
Heartbeat CPU  0 instructions:  164000000 cycles:  115206771 heartbeat IPC: 1.23781 cumulative IPC: 0.99010 (Simulation time: 0 hr 5 min 30 sec) 
Heartbeat CPU  0 instructions:  165000000 cycles:  116013856 heartbeat IPC: 1.23903 cumulative IPC: 0.99317 (Simulation time: 0 hr 5 min 32 sec) 
Heartbeat CPU  0 instructions:  166000000 cycles:  116821184 heartbeat IPC: 1.23865 cumulative IPC: 0.99616 (Simulation time: 0 hr 5 min 34 sec) 
Heartbeat CPU  0 instructions:  167000003 cycles:  117627991 heartbeat IPC: 1.23946 cumulative IPC: 0.99909 (Simulation time: 0 hr 5 min 37 sec) 
Heartbeat CPU  0 instructions:  168000000 cycles:  118435577 heartbeat IPC: 1.23825 cumulative IPC: 1.00193 (Simulation time: 0 hr 5 min 39 sec) 
Heartbeat CPU  0 instructions:  169000003 cycles:  119243759 heartbeat IPC: 1.23735 cumulative IPC: 1.00470 (Simulation time: 0 hr 5 min 41 sec) 
Heartbeat CPU  0 instructions:  170000001 cycles:  120050961 heartbeat IPC: 1.23884 cumulative IPC: 1.00742 (Simulation time: 0 hr 5 min 43 sec) 
Heartbeat CPU  0 instructions:  171000002 cycles:  120857948 heartbeat IPC: 1.23918 cumulative IPC: 1.01008 (Simulation time: 0 hr 5 min 45 sec) 
Heartbeat CPU  0 instructions:  172000000 cycles:  121664283 heartbeat IPC: 1.24018 cumulative IPC: 1.01269 (Simulation time: 0 hr 5 min 47 sec) 
Heartbeat CPU  0 instructions:  173000002 cycles:  122471413 heartbeat IPC: 1.23896 cumulative IPC: 1.01523 (Simulation time: 0 hr 5 min 49 sec) 
Heartbeat CPU  0 instructions:  174000000 cycles:  123278794 heartbeat IPC: 1.23857 cumulative IPC: 1.01771 (Simulation time: 0 hr 5 min 51 sec) 
Heartbeat CPU  0 instructions:  175000001 cycles:  124085530 heartbeat IPC: 1.23956 cumulative IPC: 1.02015 (Simulation time: 0 hr 5 min 53 sec) 
Heartbeat CPU  0 instructions:  176000000 cycles:  124892396 heartbeat IPC: 1.23936 cumulative IPC: 1.02253 (Simulation time: 0 hr 5 min 56 sec) 
Heartbeat CPU  0 instructions:  177000000 cycles:  125699109 heartbeat IPC: 1.23960 cumulative IPC: 1.02486 (Simulation time: 0 hr 5 min 58 sec) 
Heartbeat CPU  0 instructions:  178000003 cycles:  126507250 heartbeat IPC: 1.23741 cumulative IPC: 1.02712 (Simulation time: 0 hr 6 min 0 sec) 
Heartbeat CPU  0 instructions:  179000000 cycles:  127316873 heartbeat IPC: 1.23514 cumulative IPC: 1.02931 (Simulation time: 0 hr 6 min 2 sec) 
Heartbeat CPU  0 instructions:  180000000 cycles:  128123418 heartbeat IPC: 1.23986 cumulative IPC: 1.03150 (Simulation time: 0 hr 6 min 4 sec) 
Heartbeat CPU  0 instructions:  181000003 cycles:  128931128 heartbeat IPC: 1.23807 cumulative IPC: 1.03363 (Simulation time: 0 hr 6 min 6 sec) 
Heartbeat CPU  0 instructions:  182000003 cycles:  129738800 heartbeat IPC: 1.23813 cumulative IPC: 1.03572 (Simulation time: 0 hr 6 min 8 sec) 
Heartbeat CPU  0 instructions:  183000003 cycles:  130545110 heartbeat IPC: 1.24022 cumulative IPC: 1.03778 (Simulation time: 0 hr 6 min 10 sec) 
Heartbeat CPU  0 instructions:  184000000 cycles:  131353432 heartbeat IPC: 1.23713 cumulative IPC: 1.03977 (Simulation time: 0 hr 6 min 12 sec) 
Heartbeat CPU  0 instructions:  185000002 cycles:  132161061 heartbeat IPC: 1.23819 cumulative IPC: 1.04174 (Simulation time: 0 hr 6 min 14 sec) 
Heartbeat CPU  0 instructions:  186000002 cycles:  132967267 heartbeat IPC: 1.24038 cumulative IPC: 1.04368 (Simulation time: 0 hr 6 min 17 sec) 
Heartbeat CPU  0 instructions:  187000001 cycles:  134357169 heartbeat IPC: 0.71947 cumulative IPC: 1.03830 (Simulation time: 0 hr 6 min 19 sec) 
Heartbeat CPU  0 instructions:  188000000 cycles:  136007027 heartbeat IPC: 0.60611 cumulative IPC: 1.02996 (Simulation time: 0 hr 6 min 22 sec) 
Heartbeat CPU  0 instructions:  189000000 cycles:  137302392 heartbeat IPC: 0.77198 cumulative IPC: 1.02611 (Simulation time: 0 hr 6 min 24 sec) 
Heartbeat CPU  0 instructions:  190000000 cycles:  138315899 heartbeat IPC: 0.98667 cumulative IPC: 1.02565 (Simulation time: 0 hr 6 min 26 sec) 
Heartbeat CPU  0 instructions:  191000003 cycles:  139328255 heartbeat IPC: 0.98780 cumulative IPC: 1.02522 (Simulation time: 0 hr 6 min 28 sec) 
Heartbeat CPU  0 instructions:  192000000 cycles:  140291506 heartbeat IPC: 1.03815 cumulative IPC: 1.02536 (Simulation time: 0 hr 6 min 30 sec) 
Heartbeat CPU  0 instructions:  193000003 cycles:  141202460 heartbeat IPC: 1.09775 cumulative IPC: 1.02608 (Simulation time: 0 hr 6 min 33 sec) 
Heartbeat CPU  0 instructions:  194000001 cycles:  142117005 heartbeat IPC: 1.09344 cumulative IPC: 1.02676 (Simulation time: 0 hr 6 min 35 sec) 
Heartbeat CPU  0 instructions:  195000003 cycles:  143043190 heartbeat IPC: 1.07970 cumulative IPC: 1.02729 (Simulation time: 0 hr 6 min 37 sec) 
Heartbeat CPU  0 instructions:  196000000 cycles:  144386989 heartbeat IPC: 0.74416 cumulative IPC: 1.02323 (Simulation time: 0 hr 6 min 39 sec) 
Heartbeat CPU  0 instructions:  197000000 cycles:  145960054 heartbeat IPC: 0.63570 cumulative IPC: 1.01684 (Simulation time: 0 hr 6 min 42 sec) 
Heartbeat CPU  0 instructions:  198000002 cycles:  147078765 heartbeat IPC: 0.89389 cumulative IPC: 1.01542 (Simulation time: 0 hr 6 min 44 sec) 
Heartbeat CPU  0 instructions:  199000001 cycles:  148059081 heartbeat IPC: 1.02008 cumulative IPC: 1.01546 (Simulation time: 0 hr 6 min 46 sec) 
Heartbeat CPU  0 instructions:  200000000 cycles:  148998138 heartbeat IPC: 1.06490 cumulative IPC: 1.01594 (Simulation time: 0 hr 6 min 48 sec) 
Heartbeat CPU  0 instructions:  201000001 cycles:  149926124 heartbeat IPC: 1.07760 cumulative IPC: 1.01651 (Simulation time: 0 hr 6 min 50 sec) 
Heartbeat CPU  0 instructions:  202000002 cycles:  150833901 heartbeat IPC: 1.10159 cumulative IPC: 1.01728 (Simulation time: 0 hr 6 min 53 sec) 
Heartbeat CPU  0 instructions:  203000002 cycles:  151740659 heartbeat IPC: 1.10283 cumulative IPC: 1.01805 (Simulation time: 0 hr 6 min 55 sec) 
Heartbeat CPU  0 instructions:  204000000 cycles:  152697595 heartbeat IPC: 1.04500 cumulative IPC: 1.01830 (Simulation time: 0 hr 6 min 57 sec) 
Heartbeat CPU  0 instructions:  205000003 cycles:  154064207 heartbeat IPC: 0.73174 cumulative IPC: 1.01452 (Simulation time: 0 hr 6 min 59 sec) 
Heartbeat CPU  0 instructions:  206000000 cycles:  155549131 heartbeat IPC: 0.67343 cumulative IPC: 1.00969 (Simulation time: 0 hr 7 min 2 sec) 
Heartbeat CPU  0 instructions:  207000001 cycles:  156567104 heartbeat IPC: 0.98235 cumulative IPC: 1.00943 (Simulation time: 0 hr 7 min 4 sec) 
Heartbeat CPU  0 instructions:  208000000 cycles:  157554351 heartbeat IPC: 1.01292 cumulative IPC: 1.00946 (Simulation time: 0 hr 7 min 6 sec) 
Heartbeat CPU  0 instructions:  209000001 cycles:  158532328 heartbeat IPC: 1.02252 cumulative IPC: 1.00958 (Simulation time: 0 hr 7 min 8 sec) 
Heartbeat CPU  0 instructions:  210000003 cycles:  159476501 heartbeat IPC: 1.05913 cumulative IPC: 1.01001 (Simulation time: 0 hr 7 min 10 sec) 
Heartbeat CPU  0 instructions:  211000001 cycles:  160416236 heartbeat IPC: 1.06413 cumulative IPC: 1.01047 (Simulation time: 0 hr 7 min 12 sec) 
Heartbeat CPU  0 instructions:  212000000 cycles:  161331754 heartbeat IPC: 1.09228 cumulative IPC: 1.01115 (Simulation time: 0 hr 7 min 15 sec) 
Heartbeat CPU  0 instructions:  213000001 cycles:  162376677 heartbeat IPC: 0.95701 cumulative IPC: 1.01064 (Simulation time: 0 hr 7 min 17 sec) 
Heartbeat CPU  0 instructions:  214000002 cycles:  163603433 heartbeat IPC: 0.81516 cumulative IPC: 1.00852 (Simulation time: 0 hr 7 min 20 sec) 
Heartbeat CPU  0 instructions:  215000002 cycles:  164886222 heartbeat IPC: 0.77955 cumulative IPC: 1.00595 (Simulation time: 0 hr 7 min 22 sec) 
Heartbeat CPU  0 instructions:  216000000 cycles:  166137536 heartbeat IPC: 0.79916 cumulative IPC: 1.00371 (Simulation time: 0 hr 7 min 25 sec) 
Heartbeat CPU  0 instructions:  217000002 cycles:  167222400 heartbeat IPC: 0.92178 cumulative IPC: 1.00295 (Simulation time: 0 hr 7 min 28 sec) 
Heartbeat CPU  0 instructions:  218000003 cycles:  168310519 heartbeat IPC: 0.91902 cumulative IPC: 1.00218 (Simulation time: 0 hr 7 min 30 sec) 
Heartbeat CPU  0 instructions:  219000000 cycles:  169374221 heartbeat IPC: 0.94011 cumulative IPC: 1.00162 (Simulation time: 0 hr 7 min 33 sec) 
Heartbeat CPU  0 instructions:  220000000 cycles:  170450640 heartbeat IPC: 0.92901 cumulative IPC: 1.00097 (Simulation time: 0 hr 7 min 36 sec) 
Heartbeat CPU  0 instructions:  221000000 cycles:  171530282 heartbeat IPC: 0.92623 cumulative IPC: 1.00030 (Simulation time: 0 hr 7 min 38 sec) 
Heartbeat CPU  0 instructions:  222000001 cycles:  172605246 heartbeat IPC: 0.93026 cumulative IPC: 0.99968 (Simulation time: 0 hr 7 min 41 sec) 
Heartbeat CPU  0 instructions:  223000000 cycles:  173671280 heartbeat IPC: 0.93806 cumulative IPC: 0.99915 (Simulation time: 0 hr 7 min 43 sec) 
Heartbeat CPU  0 instructions:  224000000 cycles:  174748988 heartbeat IPC: 0.92790 cumulative IPC: 0.99853 (Simulation time: 0 hr 7 min 46 sec) 
Heartbeat CPU  0 instructions:  225000002 cycles:  175819755 heartbeat IPC: 0.93391 cumulative IPC: 0.99798 (Simulation time: 0 hr 7 min 49 sec) 
Heartbeat CPU  0 instructions:  226000003 cycles:  176899700 heartbeat IPC: 0.92597 cumulative IPC: 0.99736 (Simulation time: 0 hr 7 min 51 sec) 
Heartbeat CPU  0 instructions:  227000002 cycles:  177963308 heartbeat IPC: 0.94020 cumulative IPC: 0.99689 (Simulation time: 0 hr 7 min 54 sec) 
Heartbeat CPU  0 instructions:  228000000 cycles:  179050413 heartbeat IPC: 0.91987 cumulative IPC: 0.99624 (Simulation time: 0 hr 7 min 56 sec) 
Heartbeat CPU  0 instructions:  229000002 cycles:  180114147 heartbeat IPC: 0.94009 cumulative IPC: 0.99577 (Simulation time: 0 hr 7 min 59 sec) 
Heartbeat CPU  0 instructions:  230000000 cycles:  181179867 heartbeat IPC: 0.93833 cumulative IPC: 0.99531 (Simulation time: 0 hr 8 min 2 sec) 
Heartbeat CPU  0 instructions:  231000001 cycles:  182249794 heartbeat IPC: 0.93464 cumulative IPC: 0.99481 (Simulation time: 0 hr 8 min 4 sec) 
Heartbeat CPU  0 instructions:  232000000 cycles:  183332162 heartbeat IPC: 0.92390 cumulative IPC: 0.99423 (Simulation time: 0 hr 8 min 7 sec) 
Heartbeat CPU  0 instructions:  233000001 cycles:  184404126 heartbeat IPC: 0.93287 cumulative IPC: 0.99374 (Simulation time: 0 hr 8 min 9 sec) 
Heartbeat CPU  0 instructions:  234000002 cycles:  185485152 heartbeat IPC: 0.92505 cumulative IPC: 0.99319 (Simulation time: 0 hr 8 min 12 sec) 
Heartbeat CPU  0 instructions:  235000002 cycles:  186563692 heartbeat IPC: 0.92718 cumulative IPC: 0.99267 (Simulation time: 0 hr 8 min 15 sec) 
Heartbeat CPU  0 instructions:  236000000 cycles:  187650158 heartbeat IPC: 0.92041 cumulative IPC: 0.99210 (Simulation time: 0 hr 8 min 17 sec) 
Heartbeat CPU  0 instructions:  237000003 cycles:  188743137 heartbeat IPC: 0.91493 cumulative IPC: 0.99149 (Simulation time: 0 hr 8 min 20 sec) 
Heartbeat CPU  0 instructions:  238000003 cycles:  189824004 heartbeat IPC: 0.92518 cumulative IPC: 0.99097 (Simulation time: 0 hr 8 min 22 sec) 
Heartbeat CPU  0 instructions:  239000000 cycles:  190923090 heartbeat IPC: 0.90984 cumulative IPC: 0.99034 (Simulation time: 0 hr 8 min 25 sec) 
Heartbeat CPU  0 instructions:  240000000 cycles:  192007771 heartbeat IPC: 0.92193 cumulative IPC: 0.98981 (Simulation time: 0 hr 8 min 28 sec) 
Heartbeat CPU  0 instructions:  241000000 cycles:  193111990 heartbeat IPC: 0.90562 cumulative IPC: 0.98916 (Simulation time: 0 hr 8 min 30 sec) 
Heartbeat CPU  0 instructions:  242000001 cycles:  194196837 heartbeat IPC: 0.92179 cumulative IPC: 0.98865 (Simulation time: 0 hr 8 min 33 sec) 
Heartbeat CPU  0 instructions:  243000000 cycles:  195296782 heartbeat IPC: 0.90914 cumulative IPC: 0.98805 (Simulation time: 0 hr 8 min 35 sec) 
Heartbeat CPU  0 instructions:  244000000 cycles:  196385882 heartbeat IPC: 0.91819 cumulative IPC: 0.98752 (Simulation time: 0 hr 8 min 38 sec) 
Heartbeat CPU  0 instructions:  245000002 cycles:  197480078 heartbeat IPC: 0.91391 cumulative IPC: 0.98698 (Simulation time: 0 hr 8 min 41 sec) 
Heartbeat CPU  0 instructions:  246000003 cycles:  198577999 heartbeat IPC: 0.91081 cumulative IPC: 0.98641 (Simulation time: 0 hr 8 min 43 sec) 
Heartbeat CPU  0 instructions:  247000003 cycles:  199674177 heartbeat IPC: 0.91226 cumulative IPC: 0.98587 (Simulation time: 0 hr 8 min 46 sec) 
Heartbeat CPU  0 instructions:  248000000 cycles:  200777614 heartbeat IPC: 0.90626 cumulative IPC: 0.98528 (Simulation time: 0 hr 8 min 49 sec) 
Heartbeat CPU  0 instructions:  249000003 cycles:  201877957 heartbeat IPC: 0.90881 cumulative IPC: 0.98472 (Simulation time: 0 hr 8 min 51 sec) 
Heartbeat CPU  0 instructions:  250000000 cycles:  202987180 heartbeat IPC: 0.90153 cumulative IPC: 0.98412 (Simulation time: 0 hr 8 min 54 sec) 
Heartbeat CPU  0 instructions:  251000000 cycles:  204052171 heartbeat IPC: 0.93898 cumulative IPC: 0.98381 (Simulation time: 0 hr 8 min 56 sec) 
Heartbeat CPU  0 instructions:  252000000 cycles:  204984189 heartbeat IPC: 1.07294 cumulative IPC: 0.98434 (Simulation time: 0 hr 8 min 59 sec) 
Heartbeat CPU  0 instructions:  253000002 cycles:  205930616 heartbeat IPC: 1.05661 cumulative IPC: 0.98478 (Simulation time: 0 hr 9 min 1 sec) 
Heartbeat CPU  0 instructions:  254000003 cycles:  206874679 heartbeat IPC: 1.05925 cumulative IPC: 0.98523 (Simulation time: 0 hr 9 min 3 sec) 
Heartbeat CPU  0 instructions:  255000000 cycles:  207814422 heartbeat IPC: 1.06412 cumulative IPC: 0.98571 (Simulation time: 0 hr 9 min 6 sec) 
Heartbeat CPU  0 instructions:  256000000 cycles:  208718585 heartbeat IPC: 1.10600 cumulative IPC: 0.98639 (Simulation time: 0 hr 9 min 8 sec) 
Heartbeat CPU  0 instructions:  257000000 cycles:  209548405 heartbeat IPC: 1.20508 cumulative IPC: 0.98753 (Simulation time: 0 hr 9 min 11 sec) 
Heartbeat CPU  0 instructions:  258000002 cycles:  210377052 heartbeat IPC: 1.20679 cumulative IPC: 0.98867 (Simulation time: 0 hr 9 min 13 sec) 
Heartbeat CPU  0 instructions:  259000000 cycles:  211206419 heartbeat IPC: 1.20574 cumulative IPC: 0.98979 (Simulation time: 0 hr 9 min 15 sec) 
Heartbeat CPU  0 instructions:  260000000 cycles:  212035303 heartbeat IPC: 1.20644 cumulative IPC: 0.99090 (Simulation time: 0 hr 9 min 17 sec) 
Heartbeat CPU  0 instructions:  261000001 cycles:  212868523 heartbeat IPC: 1.20016 cumulative IPC: 0.99198 (Simulation time: 0 hr 9 min 20 sec) 
Heartbeat CPU  0 instructions:  262000000 cycles:  213699037 heartbeat IPC: 1.20407 cumulative IPC: 0.99306 (Simulation time: 0 hr 9 min 22 sec) 
Heartbeat CPU  0 instructions:  263000002 cycles:  214516992 heartbeat IPC: 1.22256 cumulative IPC: 0.99420 (Simulation time: 0 hr 9 min 24 sec) 
Heartbeat CPU  0 instructions:  264000000 cycles:  215337421 heartbeat IPC: 1.21887 cumulative IPC: 0.99532 (Simulation time: 0 hr 9 min 26 sec) 
Heartbeat CPU  0 instructions:  265000002 cycles:  216155732 heartbeat IPC: 1.22203 cumulative IPC: 0.99644 (Simulation time: 0 hr 9 min 29 sec) 
Heartbeat CPU  0 instructions:  266000000 cycles:  216973795 heartbeat IPC: 1.22240 cumulative IPC: 0.99755 (Simulation time: 0 hr 9 min 31 sec) 
Heartbeat CPU  0 instructions:  267000000 cycles:  217791066 heartbeat IPC: 1.22358 cumulative IPC: 0.99866 (Simulation time: 0 hr 9 min 33 sec) 
Heartbeat CPU  0 instructions:  268000000 cycles:  218616432 heartbeat IPC: 1.21158 cumulative IPC: 0.99970 (Simulation time: 0 hr 9 min 35 sec) 
Heartbeat CPU  0 instructions:  269000000 cycles:  219440461 heartbeat IPC: 1.21355 cumulative IPC: 1.00075 (Simulation time: 0 hr 9 min 37 sec) 
Heartbeat CPU  0 instructions:  270000003 cycles:  220266175 heartbeat IPC: 1.21108 cumulative IPC: 1.00177 (Simulation time: 0 hr 9 min 40 sec) 
Heartbeat CPU  0 instructions:  271000000 cycles:  221089998 heartbeat IPC: 1.21385 cumulative IPC: 1.00280 (Simulation time: 0 hr 9 min 42 sec) 
Heartbeat CPU  0 instructions:  272000000 cycles:  221923905 heartbeat IPC: 1.19917 cumulative IPC: 1.00375 (Simulation time: 0 hr 9 min 44 sec) 
Heartbeat CPU  0 instructions:  273000000 cycles:  222747143 heartbeat IPC: 1.21472 cumulative IPC: 1.00476 (Simulation time: 0 hr 9 min 46 sec) 
Heartbeat CPU  0 instructions:  274000002 cycles:  223564882 heartbeat IPC: 1.22289 cumulative IPC: 1.00579 (Simulation time: 0 hr 9 min 49 sec) 
Heartbeat CPU  0 instructions:  275000000 cycles:  224384748 heartbeat IPC: 1.21971 cumulative IPC: 1.00680 (Simulation time: 0 hr 9 min 51 sec) 
Heartbeat CPU  0 instructions:  276000000 cycles:  225203343 heartbeat IPC: 1.22161 cumulative IPC: 1.00781 (Simulation time: 0 hr 9 min 53 sec) 
Heartbeat CPU  0 instructions:  277000002 cycles:  226024223 heartbeat IPC: 1.21821 cumulative IPC: 1.00879 (Simulation time: 0 hr 9 min 55 sec) 
Heartbeat CPU  0 instructions:  278000002 cycles:  226845742 heartbeat IPC: 1.21726 cumulative IPC: 1.00976 (Simulation time: 0 hr 9 min 58 sec) 
Heartbeat CPU  0 instructions:  279000000 cycles:  227669761 heartbeat IPC: 1.21356 cumulative IPC: 1.01071 (Simulation time: 0 hr 10 min 0 sec) 
Heartbeat CPU  0 instructions:  280000000 cycles:  228491620 heartbeat IPC: 1.21675 cumulative IPC: 1.01166 (Simulation time: 0 hr 10 min 2 sec) 
Heartbeat CPU  0 instructions:  281000002 cycles:  229315395 heartbeat IPC: 1.21393 cumulative IPC: 1.01259 (Simulation time: 0 hr 10 min 4 sec) 
Heartbeat CPU  0 instructions:  282000002 cycles:  230157466 heartbeat IPC: 1.18755 cumulative IPC: 1.01341 (Simulation time: 0 hr 10 min 7 sec) 
Heartbeat CPU  0 instructions:  283000001 cycles:  230980970 heartbeat IPC: 1.21432 cumulative IPC: 1.01433 (Simulation time: 0 hr 10 min 9 sec) 
Heartbeat CPU  0 instructions:  284000000 cycles:  231802496 heartbeat IPC: 1.21725 cumulative IPC: 1.01525 (Simulation time: 0 hr 10 min 11 sec) 
Heartbeat CPU  0 instructions:  285000003 cycles:  232626064 heartbeat IPC: 1.21423 cumulative IPC: 1.01615 (Simulation time: 0 hr 10 min 13 sec) 
Heartbeat CPU  0 instructions:  286000003 cycles:  233447594 heartbeat IPC: 1.21724 cumulative IPC: 1.01706 (Simulation time: 0 hr 10 min 16 sec) 
Heartbeat CPU  0 instructions:  287000001 cycles:  234269859 heartbeat IPC: 1.21615 cumulative IPC: 1.01795 (Simulation time: 0 hr 10 min 18 sec) 
Heartbeat CPU  0 instructions:  288000000 cycles:  235094040 heartbeat IPC: 1.21332 cumulative IPC: 1.01882 (Simulation time: 0 hr 10 min 20 sec) 
Heartbeat CPU  0 instructions:  289000001 cycles:  235914687 heartbeat IPC: 1.21855 cumulative IPC: 1.01970 (Simulation time: 0 hr 10 min 22 sec) 
Heartbeat CPU  0 instructions:  290000003 cycles:  236741356 heartbeat IPC: 1.20968 cumulative IPC: 1.02055 (Simulation time: 0 hr 10 min 25 sec) 
Heartbeat CPU  0 instructions:  291000003 cycles:  237564603 heartbeat IPC: 1.21470 cumulative IPC: 1.02140 (Simulation time: 0 hr 10 min 27 sec) 
Heartbeat CPU  0 instructions:  292000000 cycles:  238389973 heartbeat IPC: 1.21157 cumulative IPC: 1.02224 (Simulation time: 0 hr 10 min 29 sec) 
Heartbeat CPU  0 instructions:  293000002 cycles:  239227898 heartbeat IPC: 1.19343 cumulative IPC: 1.02300 (Simulation time: 0 hr 10 min 31 sec) 
Heartbeat CPU  0 instructions:  294000002 cycles:  240052174 heartbeat IPC: 1.21319 cumulative IPC: 1.02383 (Simulation time: 0 hr 10 min 34 sec) 
Heartbeat CPU  0 instructions:  295000001 cycles:  240875347 heartbeat IPC: 1.21481 cumulative IPC: 1.02465 (Simulation time: 0 hr 10 min 36 sec) 
Heartbeat CPU  0 instructions:  296000000 cycles:  241699388 heartbeat IPC: 1.21353 cumulative IPC: 1.02547 (Simulation time: 0 hr 10 min 38 sec) 
Heartbeat CPU  0 instructions:  297000003 cycles:  242518106 heartbeat IPC: 1.22143 cumulative IPC: 1.02630 (Simulation time: 0 hr 10 min 40 sec) 
Heartbeat CPU  0 instructions:  298000000 cycles:  243341359 heartbeat IPC: 1.21469 cumulative IPC: 1.02711 (Simulation time: 0 hr 10 min 43 sec) 
Heartbeat CPU  0 instructions:  299000003 cycles:  244167101 heartbeat IPC: 1.21104 cumulative IPC: 1.02789 (Simulation time: 0 hr 10 min 45 sec) 
Heartbeat CPU  0 instructions:  300000000 cycles:  244992169 heartbeat IPC: 1.21202 cumulative IPC: 1.02867 (Simulation time: 0 hr 10 min 47 sec) 
Heartbeat CPU  0 instructions:  301000000 cycles:  245818257 heartbeat IPC: 1.21052 cumulative IPC: 1.02944 (Simulation time: 0 hr 10 min 49 sec) 
Heartbeat CPU  0 instructions:  302000003 cycles:  246640765 heartbeat IPC: 1.21580 cumulative IPC: 1.03022 (Simulation time: 0 hr 10 min 52 sec) 
Heartbeat CPU  0 instructions:  303000000 cycles:  247482216 heartbeat IPC: 1.18842 cumulative IPC: 1.03090 (Simulation time: 0 hr 10 min 54 sec) 
Heartbeat CPU  0 instructions:  304000000 cycles:  248314284 heartbeat IPC: 1.20182 cumulative IPC: 1.03162 (Simulation time: 0 hr 10 min 56 sec) 
Heartbeat CPU  0 instructions:  305000003 cycles:  249142867 heartbeat IPC: 1.20688 cumulative IPC: 1.03235 (Simulation time: 0 hr 10 min 58 sec) 
Heartbeat CPU  0 instructions:  306000001 cycles:  249969383 heartbeat IPC: 1.20990 cumulative IPC: 1.03309 (Simulation time: 0 hr 11 min 1 sec) 
Heartbeat CPU  0 instructions:  307000001 cycles:  250801571 heartbeat IPC: 1.20165 cumulative IPC: 1.03379 (Simulation time: 0 hr 11 min 3 sec) 
Heartbeat CPU  0 instructions:  308000000 cycles:  251629320 heartbeat IPC: 1.20809 cumulative IPC: 1.03450 (Simulation time: 0 hr 11 min 5 sec) 
Heartbeat CPU  0 instructions:  309000001 cycles:  252460906 heartbeat IPC: 1.20252 cumulative IPC: 1.03520 (Simulation time: 0 hr 11 min 7 sec) 
Heartbeat CPU  0 instructions:  310000000 cycles:  253281974 heartbeat IPC: 1.21792 cumulative IPC: 1.03594 (Simulation time: 0 hr 11 min 10 sec) 
Heartbeat CPU  0 instructions:  311000000 cycles:  254106785 heartbeat IPC: 1.21240 cumulative IPC: 1.03665 (Simulation time: 0 hr 11 min 12 sec) 
Heartbeat CPU  0 instructions:  312000000 cycles:  254932921 heartbeat IPC: 1.21045 cumulative IPC: 1.03735 (Simulation time: 0 hr 11 min 14 sec) 
Heartbeat CPU  0 instructions:  313000003 cycles:  255756856 heartbeat IPC: 1.21369 cumulative IPC: 1.03806 (Simulation time: 0 hr 11 min 16 sec) 
Heartbeat CPU  0 instructions:  314000001 cycles:  256599538 heartbeat IPC: 1.18668 cumulative IPC: 1.03867 (Simulation time: 0 hr 11 min 19 sec) 
Heartbeat CPU  0 instructions:  315000000 cycles:  257428961 heartbeat IPC: 1.20566 cumulative IPC: 1.03934 (Simulation time: 0 hr 11 min 21 sec) 
Heartbeat CPU  0 instructions:  316000000 cycles:  258256322 heartbeat IPC: 1.20866 cumulative IPC: 1.04001 (Simulation time: 0 hr 11 min 23 sec) 
Heartbeat CPU  0 instructions:  317000003 cycles:  259085340 heartbeat IPC: 1.20625 cumulative IPC: 1.04067 (Simulation time: 0 hr 11 min 25 sec) 
Heartbeat CPU  0 instructions:  318000002 cycles:  259914370 heartbeat IPC: 1.20623 cumulative IPC: 1.04133 (Simulation time: 0 hr 11 min 28 sec) 
Heartbeat CPU  0 instructions:  319000002 cycles:  260738783 heartbeat IPC: 1.21298 cumulative IPC: 1.04200 (Simulation time: 0 hr 11 min 30 sec) 
Heartbeat CPU  0 instructions:  320000000 cycles:  261567750 heartbeat IPC: 1.20632 cumulative IPC: 1.04265 (Simulation time: 0 hr 11 min 32 sec) 
Heartbeat CPU  0 instructions:  321000002 cycles:  262391944 heartbeat IPC: 1.21331 cumulative IPC: 1.04331 (Simulation time: 0 hr 11 min 34 sec) 
Heartbeat CPU  0 instructions:  322000002 cycles:  263217516 heartbeat IPC: 1.21128 cumulative IPC: 1.04396 (Simulation time: 0 hr 11 min 37 sec) 
Heartbeat CPU  0 instructions:  323000002 cycles:  264042983 heartbeat IPC: 1.21144 cumulative IPC: 1.04461 (Simulation time: 0 hr 11 min 39 sec) 
Heartbeat CPU  0 instructions:  324000000 cycles:  264880819 heartbeat IPC: 1.19355 cumulative IPC: 1.04519 (Simulation time: 0 hr 11 min 41 sec) 
Heartbeat CPU  0 instructions:  325000002 cycles:  265712607 heartbeat IPC: 1.20223 cumulative IPC: 1.04580 (Simulation time: 0 hr 11 min 43 sec) 
Heartbeat CPU  0 instructions:  326000000 cycles:  266542196 heartbeat IPC: 1.20541 cumulative IPC: 1.04641 (Simulation time: 0 hr 11 min 46 sec) 
Heartbeat CPU  0 instructions:  327000002 cycles:  267367962 heartbeat IPC: 1.21100 cumulative IPC: 1.04704 (Simulation time: 0 hr 11 min 48 sec) 
Heartbeat CPU  0 instructions:  328000000 cycles:  268197158 heartbeat IPC: 1.20599 cumulative IPC: 1.04765 (Simulation time: 0 hr 11 min 50 sec) 
Heartbeat CPU  0 instructions:  329000001 cycles:  269024861 heartbeat IPC: 1.20816 cumulative IPC: 1.04826 (Simulation time: 0 hr 11 min 52 sec) 
Heartbeat CPU  0 instructions:  330000001 cycles:  269854854 heartbeat IPC: 1.20483 cumulative IPC: 1.04885 (Simulation time: 0 hr 11 min 55 sec) 
Heartbeat CPU  0 instructions:  331000001 cycles:  270683030 heartbeat IPC: 1.20747 cumulative IPC: 1.04944 (Simulation time: 0 hr 11 min 57 sec) 
Heartbeat CPU  0 instructions:  332000000 cycles:  271506066 heartbeat IPC: 1.21501 cumulative IPC: 1.05006 (Simulation time: 0 hr 11 min 59 sec) 
Heartbeat CPU  0 instructions:  333000001 cycles:  272330560 heartbeat IPC: 1.21287 cumulative IPC: 1.05067 (Simulation time: 0 hr 12 min 1 sec) 
Heartbeat CPU  0 instructions:  334000003 cycles:  273153550 heartbeat IPC: 1.21508 cumulative IPC: 1.05127 (Simulation time: 0 hr 12 min 4 sec) 
Heartbeat CPU  0 instructions:  335000002 cycles:  274001132 heartbeat IPC: 1.17983 cumulative IPC: 1.05176 (Simulation time: 0 hr 12 min 6 sec) 
Heartbeat CPU  0 instructions:  336000000 cycles:  274826329 heartbeat IPC: 1.21183 cumulative IPC: 1.05235 (Simulation time: 0 hr 12 min 8 sec) 
Heartbeat CPU  0 instructions:  337000002 cycles:  275658856 heartbeat IPC: 1.20116 cumulative IPC: 1.05290 (Simulation time: 0 hr 12 min 11 sec) 
Heartbeat CPU  0 instructions:  338000002 cycles:  276486086 heartbeat IPC: 1.20885 cumulative IPC: 1.05347 (Simulation time: 0 hr 12 min 13 sec) 
Heartbeat CPU  0 instructions:  339000002 cycles:  277314062 heartbeat IPC: 1.20776 cumulative IPC: 1.05404 (Simulation time: 0 hr 12 min 15 sec) 
Heartbeat CPU  0 instructions:  340000000 cycles:  278141992 heartbeat IPC: 1.20783 cumulative IPC: 1.05460 (Simulation time: 0 hr 12 min 17 sec) 
Heartbeat CPU  0 instructions:  341000001 cycles:  278969739 heartbeat IPC: 1.20810 cumulative IPC: 1.05515 (Simulation time: 0 hr 12 min 20 sec) 
Heartbeat CPU  0 instructions:  342000003 cycles:  279795613 heartbeat IPC: 1.21084 cumulative IPC: 1.05571 (Simulation time: 0 hr 12 min 22 sec) 
Heartbeat CPU  0 instructions:  343000003 cycles:  280621494 heartbeat IPC: 1.21083 cumulative IPC: 1.05627 (Simulation time: 0 hr 12 min 24 sec) 
Heartbeat CPU  0 instructions:  344000000 cycles:  281444897 heartbeat IPC: 1.21447 cumulative IPC: 1.05683 (Simulation time: 0 hr 12 min 26 sec) 
Heartbeat CPU  0 instructions:  345000001 cycles:  282282622 heartbeat IPC: 1.19371 cumulative IPC: 1.05733 (Simulation time: 0 hr 12 min 29 sec) 
Heartbeat CPU  0 instructions:  346000003 cycles:  283115528 heartbeat IPC: 1.20062 cumulative IPC: 1.05784 (Simulation time: 0 hr 12 min 31 sec) 
Heartbeat CPU  0 instructions:  347000003 cycles:  283948902 heartbeat IPC: 1.19994 cumulative IPC: 1.05835 (Simulation time: 0 hr 12 min 33 sec) 
Heartbeat CPU  0 instructions:  348000000 cycles:  284777663 heartbeat IPC: 1.20662 cumulative IPC: 1.05887 (Simulation time: 0 hr 12 min 35 sec) 
Heartbeat CPU  0 instructions:  349000000 cycles:  285601831 heartbeat IPC: 1.21334 cumulative IPC: 1.05942 (Simulation time: 0 hr 12 min 38 sec) 
Heartbeat CPU  0 instructions:  350000003 cycles:  286428902 heartbeat IPC: 1.20909 cumulative IPC: 1.05994 (Simulation time: 0 hr 12 min 40 sec) 
Heartbeat CPU  0 instructions:  351000002 cycles:  287257524 heartbeat IPC: 1.20682 cumulative IPC: 1.06046 (Simulation time: 0 hr 12 min 42 sec) 
Heartbeat CPU  0 instructions:  352000000 cycles:  288085161 heartbeat IPC: 1.20826 cumulative IPC: 1.06097 (Simulation time: 0 hr 12 min 44 sec) 
Heartbeat CPU  0 instructions:  353000003 cycles:  288912093 heartbeat IPC: 1.20929 cumulative IPC: 1.06148 (Simulation time: 0 hr 12 min 47 sec) 
Heartbeat CPU  0 instructions:  354000003 cycles:  289738371 heartbeat IPC: 1.21025 cumulative IPC: 1.06200 (Simulation time: 0 hr 12 min 49 sec) 
Heartbeat CPU  0 instructions:  355000000 cycles:  290560478 heartbeat IPC: 1.21638 cumulative IPC: 1.06253 (Simulation time: 0 hr 12 min 51 sec) 
Heartbeat CPU  0 instructions:  356000000 cycles:  291405464 heartbeat IPC: 1.18345 cumulative IPC: 1.06295 (Simulation time: 0 hr 12 min 53 sec) 
Heartbeat CPU  0 instructions:  357000001 cycles:  292232156 heartbeat IPC: 1.20964 cumulative IPC: 1.06345 (Simulation time: 0 hr 12 min 56 sec) 
Heartbeat CPU  0 instructions:  358000003 cycles:  293058825 heartbeat IPC: 1.20968 cumulative IPC: 1.06395 (Simulation time: 0 hr 12 min 58 sec) 
Heartbeat CPU  0 instructions:  359000000 cycles:  293887548 heartbeat IPC: 1.20667 cumulative IPC: 1.06444 (Simulation time: 0 hr 13 min 0 sec) 
Heartbeat CPU  0 instructions:  360000000 cycles:  294716793 heartbeat IPC: 1.20592 cumulative IPC: 1.06492 (Simulation time: 0 hr 13 min 2 sec) 
Heartbeat CPU  0 instructions:  361000002 cycles:  295543926 heartbeat IPC: 1.20900 cumulative IPC: 1.06541 (Simulation time: 0 hr 13 min 5 sec) 
Heartbeat CPU  0 instructions:  362000002 cycles:  296370487 heartbeat IPC: 1.20983 cumulative IPC: 1.06589 (Simulation time: 0 hr 13 min 7 sec) 
Heartbeat CPU  0 instructions:  363000002 cycles:  297196185 heartbeat IPC: 1.21110 cumulative IPC: 1.06638 (Simulation time: 0 hr 13 min 9 sec) 
Heartbeat CPU  0 instructions:  364000000 cycles:  298022733 heartbeat IPC: 1.20985 cumulative IPC: 1.06686 (Simulation time: 0 hr 13 min 11 sec) 
Heartbeat CPU  0 instructions:  365000001 cycles:  298848008 heartbeat IPC: 1.21172 cumulative IPC: 1.06734 (Simulation time: 0 hr 13 min 14 sec) 
Heartbeat CPU  0 instructions:  366000001 cycles:  299685808 heartbeat IPC: 1.19360 cumulative IPC: 1.06776 (Simulation time: 0 hr 13 min 16 sec) 
Heartbeat CPU  0 instructions:  367000003 cycles:  300516701 heartbeat IPC: 1.20353 cumulative IPC: 1.06821 (Simulation time: 0 hr 13 min 18 sec) 
Heartbeat CPU  0 instructions:  368000000 cycles:  301347803 heartbeat IPC: 1.20322 cumulative IPC: 1.06866 (Simulation time: 0 hr 13 min 20 sec) 
Heartbeat CPU  0 instructions:  369000001 cycles:  302177152 heartbeat IPC: 1.20577 cumulative IPC: 1.06911 (Simulation time: 0 hr 13 min 23 sec) 
Heartbeat CPU  0 instructions:  370000002 cycles:  303005638 heartbeat IPC: 1.20702 cumulative IPC: 1.06957 (Simulation time: 0 hr 13 min 25 sec) 
Heartbeat CPU  0 instructions:  371000002 cycles:  303834006 heartbeat IPC: 1.20719 cumulative IPC: 1.07002 (Simulation time: 0 hr 13 min 27 sec) 
Heartbeat CPU  0 instructions:  372000000 cycles:  304656828 heartbeat IPC: 1.21533 cumulative IPC: 1.07049 (Simulation time: 0 hr 13 min 29 sec) 
Heartbeat CPU  0 instructions:  373000001 cycles:  305483922 heartbeat IPC: 1.20905 cumulative IPC: 1.07094 (Simulation time: 0 hr 13 min 32 sec) 
Heartbeat CPU  0 instructions:  374000001 cycles:  306310349 heartbeat IPC: 1.21003 cumulative IPC: 1.07139 (Simulation time: 0 hr 13 min 34 sec) 
Heartbeat CPU  0 instructions:  375000000 cycles:  307135314 heartbeat IPC: 1.21217 cumulative IPC: 1.07184 (Simulation time: 0 hr 13 min 36 sec) 
Heartbeat CPU  0 instructions:  376000000 cycles:  307960482 heartbeat IPC: 1.21187 cumulative IPC: 1.07229 (Simulation time: 0 hr 13 min 38 sec) 
Heartbeat CPU  0 instructions:  377000002 cycles:  308800229 heartbeat IPC: 1.19084 cumulative IPC: 1.07267 (Simulation time: 0 hr 13 min 41 sec) 
Heartbeat CPU  0 instructions:  378000000 cycles:  309633154 heartbeat IPC: 1.20059 cumulative IPC: 1.07308 (Simulation time: 0 hr 13 min 43 sec) 
Heartbeat CPU  0 instructions:  379000000 cycles:  310461515 heartbeat IPC: 1.20720 cumulative IPC: 1.07351 (Simulation time: 0 hr 13 min 45 sec) 
Heartbeat CPU  0 instructions:  380000000 cycles:  311289716 heartbeat IPC: 1.20744 cumulative IPC: 1.07394 (Simulation time: 0 hr 13 min 47 sec) 
Heartbeat CPU  0 instructions:  381000002 cycles:  312117035 heartbeat IPC: 1.20873 cumulative IPC: 1.07436 (Simulation time: 0 hr 13 min 50 sec) 
Heartbeat CPU  0 instructions:  382000000 cycles:  312946223 heartbeat IPC: 1.20600 cumulative IPC: 1.07478 (Simulation time: 0 hr 13 min 52 sec) 
Heartbeat CPU  0 instructions:  383000000 cycles:  313774146 heartbeat IPC: 1.20784 cumulative IPC: 1.07520 (Simulation time: 0 hr 13 min 54 sec) 
Heartbeat CPU  0 instructions:  384000000 cycles:  314600306 heartbeat IPC: 1.21042 cumulative IPC: 1.07562 (Simulation time: 0 hr 13 min 56 sec) 
Heartbeat CPU  0 instructions:  385000001 cycles:  315422141 heartbeat IPC: 1.21679 cumulative IPC: 1.07606 (Simulation time: 0 hr 13 min 59 sec) 
Heartbeat CPU  0 instructions:  386000002 cycles:  316247569 heartbeat IPC: 1.21149 cumulative IPC: 1.07648 (Simulation time: 0 hr 14 min 1 sec) 
Heartbeat CPU  0 instructions:  387000000 cycles:  317091838 heartbeat IPC: 1.18445 cumulative IPC: 1.07682 (Simulation time: 0 hr 14 min 3 sec) 
Heartbeat CPU  0 instructions:  388000000 cycles:  317919080 heartbeat IPC: 1.20884 cumulative IPC: 1.07723 (Simulation time: 0 hr 14 min 5 sec) 
Heartbeat CPU  0 instructions:  389000003 cycles:  318752279 heartbeat IPC: 1.20020 cumulative IPC: 1.07761 (Simulation time: 0 hr 14 min 8 sec) 
Heartbeat CPU  0 instructions:  390000003 cycles:  319582082 heartbeat IPC: 1.20511 cumulative IPC: 1.07801 (Simulation time: 0 hr 14 min 10 sec) 
Heartbeat CPU  0 instructions:  391000002 cycles:  320409987 heartbeat IPC: 1.20787 cumulative IPC: 1.07840 (Simulation time: 0 hr 14 min 12 sec) 
Heartbeat CPU  0 instructions:  392000000 cycles:  321239521 heartbeat IPC: 1.20549 cumulative IPC: 1.07879 (Simulation time: 0 hr 14 min 14 sec) 
Heartbeat CPU  0 instructions:  393000003 cycles:  322069479 heartbeat IPC: 1.20488 cumulative IPC: 1.07918 (Simulation time: 0 hr 14 min 17 sec) 
Heartbeat CPU  0 instructions:  394000003 cycles:  322893588 heartbeat IPC: 1.21343 cumulative IPC: 1.07958 (Simulation time: 0 hr 14 min 19 sec) 
Heartbeat CPU  0 instructions:  395000003 cycles:  323722235 heartbeat IPC: 1.20679 cumulative IPC: 1.07997 (Simulation time: 0 hr 14 min 21 sec) 
Heartbeat CPU  0 instructions:  396000000 cycles:  324547755 heartbeat IPC: 1.21135 cumulative IPC: 1.08037 (Simulation time: 0 hr 14 min 23 sec) 
Heartbeat CPU  0 instructions:  397000001 cycles:  325374475 heartbeat IPC: 1.20960 cumulative IPC: 1.08076 (Simulation time: 0 hr 14 min 26 sec) 
Heartbeat CPU  0 instructions:  398000001 cycles:  327523910 heartbeat IPC: 0.46524 cumulative IPC: 1.07598 (Simulation time: 0 hr 14 min 28 sec) 
Heartbeat CPU  0 instructions:  399000000 cycles:  328474094 heartbeat IPC: 1.05243 cumulative IPC: 1.07590 (Simulation time: 0 hr 14 min 31 sec) 
Heartbeat CPU  0 instructions:  400000000 cycles:  329425875 heartbeat IPC: 1.05066 cumulative IPC: 1.07581 (Simulation time: 0 hr 14 min 33 sec) 
Heartbeat CPU  0 instructions:  401000001 cycles:  330376274 heartbeat IPC: 1.05219 cumulative IPC: 1.07573 (Simulation time: 0 hr 14 min 35 sec) 
Heartbeat CPU  0 instructions:  402000003 cycles:  331328218 heartbeat IPC: 1.05048 cumulative IPC: 1.07565 (Simulation time: 0 hr 14 min 38 sec) 
Heartbeat CPU  0 instructions:  403000000 cycles:  332277903 heartbeat IPC: 1.05298 cumulative IPC: 1.07557 (Simulation time: 0 hr 14 min 40 sec) 
Heartbeat CPU  0 instructions:  404000000 cycles:  333228601 heartbeat IPC: 1.05186 cumulative IPC: 1.07549 (Simulation time: 0 hr 14 min 42 sec) 
Heartbeat CPU  0 instructions:  405000003 cycles:  334177868 heartbeat IPC: 1.05345 cumulative IPC: 1.07542 (Simulation time: 0 hr 14 min 44 sec) 
Heartbeat CPU  0 instructions:  406000003 cycles:  335128388 heartbeat IPC: 1.05206 cumulative IPC: 1.07534 (Simulation time: 0 hr 14 min 47 sec) 
Heartbeat CPU  0 instructions:  407000000 cycles:  336077800 heartbeat IPC: 1.05328 cumulative IPC: 1.07526 (Simulation time: 0 hr 14 min 49 sec) 
Heartbeat CPU  0 instructions:  408000000 cycles:  337028304 heartbeat IPC: 1.05207 cumulative IPC: 1.07519 (Simulation time: 0 hr 14 min 51 sec) 
Heartbeat CPU  0 instructions:  409000002 cycles:  337975718 heartbeat IPC: 1.05551 cumulative IPC: 1.07512 (Simulation time: 0 hr 14 min 53 sec) 
Heartbeat CPU  0 instructions:  410000002 cycles:  338924374 heartbeat IPC: 1.05412 cumulative IPC: 1.07505 (Simulation time: 0 hr 14 min 56 sec) 
Heartbeat CPU  0 instructions:  411000000 cycles:  339875749 heartbeat IPC: 1.05111 cumulative IPC: 1.07497 (Simulation time: 0 hr 14 min 58 sec) 
Heartbeat CPU  0 instructions:  412000000 cycles:  340825612 heartbeat IPC: 1.05278 cumulative IPC: 1.07490 (Simulation time: 0 hr 15 min 0 sec) 
Heartbeat CPU  0 instructions:  413000001 cycles:  341775709 heartbeat IPC: 1.05253 cumulative IPC: 1.07483 (Simulation time: 0 hr 15 min 2 sec) 
Heartbeat CPU  0 instructions:  414000000 cycles:  342725051 heartbeat IPC: 1.05336 cumulative IPC: 1.07476 (Simulation time: 0 hr 15 min 5 sec) 
Heartbeat CPU  0 instructions:  415000002 cycles:  343675382 heartbeat IPC: 1.05227 cumulative IPC: 1.07469 (Simulation time: 0 hr 15 min 7 sec) 
Heartbeat CPU  0 instructions:  416000000 cycles:  344624796 heartbeat IPC: 1.05328 cumulative IPC: 1.07462 (Simulation time: 0 hr 15 min 9 sec) 
Heartbeat CPU  0 instructions:  417000001 cycles:  345575830 heartbeat IPC: 1.05149 cumulative IPC: 1.07454 (Simulation time: 0 hr 15 min 11 sec) 
Heartbeat CPU  0 instructions:  418000002 cycles:  346525335 heartbeat IPC: 1.05318 cumulative IPC: 1.07447 (Simulation time: 0 hr 15 min 14 sec) 
Heartbeat CPU  0 instructions:  419000003 cycles:  347474414 heartbeat IPC: 1.05365 cumulative IPC: 1.07441 (Simulation time: 0 hr 15 min 16 sec) 
Heartbeat CPU  0 instructions:  420000000 cycles:  348424845 heartbeat IPC: 1.05215 cumulative IPC: 1.07434 (Simulation time: 0 hr 15 min 18 sec) 
Heartbeat CPU  0 instructions:  421000002 cycles:  349374874 heartbeat IPC: 1.05260 cumulative IPC: 1.07427 (Simulation time: 0 hr 15 min 20 sec) 
Heartbeat CPU  0 instructions:  422000000 cycles:  350327303 heartbeat IPC: 1.04994 cumulative IPC: 1.07419 (Simulation time: 0 hr 15 min 23 sec) 
Heartbeat CPU  0 instructions:  423000003 cycles:  351276211 heartbeat IPC: 1.05385 cumulative IPC: 1.07413 (Simulation time: 0 hr 15 min 25 sec) 
Heartbeat CPU  0 instructions:  424000000 cycles:  352225886 heartbeat IPC: 1.05299 cumulative IPC: 1.07406 (Simulation time: 0 hr 15 min 27 sec) 
Heartbeat CPU  0 instructions:  425000000 cycles:  353175076 heartbeat IPC: 1.05353 cumulative IPC: 1.07400 (Simulation time: 0 hr 15 min 29 sec) 
Heartbeat CPU  0 instructions:  426000000 cycles:  354124720 heartbeat IPC: 1.05303 cumulative IPC: 1.07393 (Simulation time: 0 hr 15 min 32 sec) 
Heartbeat CPU  0 instructions:  427000003 cycles:  355073764 heartbeat IPC: 1.05370 cumulative IPC: 1.07387 (Simulation time: 0 hr 15 min 34 sec) 
Heartbeat CPU  0 instructions:  428000000 cycles:  356024615 heartbeat IPC: 1.05169 cumulative IPC: 1.07380 (Simulation time: 0 hr 15 min 36 sec) 
Heartbeat CPU  0 instructions:  429000000 cycles:  356974216 heartbeat IPC: 1.05307 cumulative IPC: 1.07373 (Simulation time: 0 hr 15 min 39 sec) 
Heartbeat CPU  0 instructions:  430000003 cycles:  357923103 heartbeat IPC: 1.05387 cumulative IPC: 1.07367 (Simulation time: 0 hr 15 min 41 sec) 
Heartbeat CPU  0 instructions:  431000003 cycles:  358872954 heartbeat IPC: 1.05280 cumulative IPC: 1.07361 (Simulation time: 0 hr 15 min 43 sec) 
Heartbeat CPU  0 instructions:  432000000 cycles:  359822112 heartbeat IPC: 1.05356 cumulative IPC: 1.07355 (Simulation time: 0 hr 15 min 45 sec) 
Heartbeat CPU  0 instructions:  433000001 cycles:  360774191 heartbeat IPC: 1.05033 cumulative IPC: 1.07348 (Simulation time: 0 hr 15 min 48 sec) 
Heartbeat CPU  0 instructions:  434000003 cycles:  361723712 heartbeat IPC: 1.05316 cumulative IPC: 1.07341 (Simulation time: 0 hr 15 min 50 sec) 
Heartbeat CPU  0 instructions:  435000001 cycles:  362673637 heartbeat IPC: 1.05271 cumulative IPC: 1.07335 (Simulation time: 0 hr 15 min 52 sec) 
Heartbeat CPU  0 instructions:  436000000 cycles:  363622584 heartbeat IPC: 1.05380 cumulative IPC: 1.07329 (Simulation time: 0 hr 15 min 54 sec) 
Heartbeat CPU  0 instructions:  437000000 cycles:  364573909 heartbeat IPC: 1.05117 cumulative IPC: 1.07322 (Simulation time: 0 hr 15 min 57 sec) 
Heartbeat CPU  0 instructions:  438000001 cycles:  365523339 heartbeat IPC: 1.05326 cumulative IPC: 1.07316 (Simulation time: 0 hr 15 min 59 sec) 
Heartbeat CPU  0 instructions:  439000002 cycles:  366473013 heartbeat IPC: 1.05299 cumulative IPC: 1.07310 (Simulation time: 0 hr 16 min 1 sec) 
Heartbeat CPU  0 instructions:  440000000 cycles:  367424179 heartbeat IPC: 1.05134 cumulative IPC: 1.07304 (Simulation time: 0 hr 16 min 4 sec) 
Heartbeat CPU  0 instructions:  441000001 cycles:  368373615 heartbeat IPC: 1.05326 cumulative IPC: 1.07298 (Simulation time: 0 hr 16 min 6 sec) 
Heartbeat CPU  0 instructions:  442000001 cycles:  369323921 heartbeat IPC: 1.05229 cumulative IPC: 1.07292 (Simulation time: 0 hr 16 min 8 sec) 
Heartbeat CPU  0 instructions:  443000002 cycles:  370273064 heartbeat IPC: 1.05358 cumulative IPC: 1.07286 (Simulation time: 0 hr 16 min 10 sec) 
Heartbeat CPU  0 instructions:  444000000 cycles:  371223446 heartbeat IPC: 1.05221 cumulative IPC: 1.07280 (Simulation time: 0 hr 16 min 13 sec) 
Heartbeat CPU  0 instructions:  445000001 cycles:  372172383 heartbeat IPC: 1.05381 cumulative IPC: 1.07274 (Simulation time: 0 hr 16 min 15 sec) 
Heartbeat CPU  0 instructions:  446000001 cycles:  373122694 heartbeat IPC: 1.05229 cumulative IPC: 1.07268 (Simulation time: 0 hr 16 min 17 sec) 
Heartbeat CPU  0 instructions:  447000002 cycles:  374071730 heartbeat IPC: 1.05370 cumulative IPC: 1.07263 (Simulation time: 0 hr 16 min 19 sec) 
Heartbeat CPU  0 instructions:  448000000 cycles:  375023793 heartbeat IPC: 1.05035 cumulative IPC: 1.07256 (Simulation time: 0 hr 16 min 22 sec) 
Heartbeat CPU  0 instructions:  449000003 cycles:  375972839 heartbeat IPC: 1.05369 cumulative IPC: 1.07251 (Simulation time: 0 hr 16 min 24 sec) 
Heartbeat CPU  0 instructions:  450000002 cycles:  376922100 heartbeat IPC: 1.05345 cumulative IPC: 1.07245 (Simulation time: 0 hr 16 min 26 sec) 
Heartbeat CPU  0 instructions:  451000000 cycles:  377872499 heartbeat IPC: 1.05219 cumulative IPC: 1.07239 (Simulation time: 0 hr 16 min 29 sec) 
Heartbeat CPU  0 instructions:  452000000 cycles:  378821279 heartbeat IPC: 1.05399 cumulative IPC: 1.07234 (Simulation time: 0 hr 16 min 31 sec) 
Heartbeat CPU  0 instructions:  453000003 cycles:  379772043 heartbeat IPC: 1.05179 cumulative IPC: 1.07228 (Simulation time: 0 hr 16 min 33 sec) 
Heartbeat CPU  0 instructions:  454000000 cycles:  380724532 heartbeat IPC: 1.04988 cumulative IPC: 1.07221 (Simulation time: 0 hr 16 min 35 sec) 
Heartbeat CPU  0 instructions:  455000002 cycles:  381675043 heartbeat IPC: 1.05207 cumulative IPC: 1.07216 (Simulation time: 0 hr 16 min 38 sec) 
Heartbeat CPU  0 instructions:  456000000 cycles:  382623963 heartbeat IPC: 1.05383 cumulative IPC: 1.07210 (Simulation time: 0 hr 16 min 40 sec) 
Heartbeat CPU  0 instructions:  457000000 cycles:  383574147 heartbeat IPC: 1.05243 cumulative IPC: 1.07205 (Simulation time: 0 hr 16 min 42 sec) 
Heartbeat CPU  0 instructions:  458000002 cycles:  384524100 heartbeat IPC: 1.05269 cumulative IPC: 1.07199 (Simulation time: 0 hr 16 min 44 sec) 
Heartbeat CPU  0 instructions:  459000003 cycles:  385473079 heartbeat IPC: 1.05377 cumulative IPC: 1.07194 (Simulation time: 0 hr 16 min 47 sec) 
Heartbeat CPU  0 instructions:  460000000 cycles:  386570205 heartbeat IPC: 0.91147 cumulative IPC: 1.07142 (Simulation time: 0 hr 16 min 49 sec) 
Heartbeat CPU  0 instructions:  461000000 cycles:  387652968 heartbeat IPC: 0.92356 cumulative IPC: 1.07094 (Simulation time: 0 hr 16 min 51 sec) 
Heartbeat CPU  0 instructions:  462000000 cycles:  388683939 heartbeat IPC: 0.96996 cumulative IPC: 1.07063 (Simulation time: 0 hr 16 min 54 sec) 
Heartbeat CPU  0 instructions:  463000001 cycles:  389678223 heartbeat IPC: 1.00575 cumulative IPC: 1.07044 (Simulation time: 0 hr 16 min 56 sec) 
Heartbeat CPU  0 instructions:  464000000 cycles:  390707167 heartbeat IPC: 0.97187 cumulative IPC: 1.07015 (Simulation time: 0 hr 16 min 58 sec) 
Heartbeat CPU  0 instructions:  465000002 cycles:  391750034 heartbeat IPC: 0.95890 cumulative IPC: 1.06981 (Simulation time: 0 hr 17 min 0 sec) 
Heartbeat CPU  0 instructions:  466000000 cycles:  392791672 heartbeat IPC: 0.96002 cumulative IPC: 1.06947 (Simulation time: 0 hr 17 min 2 sec) 
Heartbeat CPU  0 instructions:  467000001 cycles:  393825077 heartbeat IPC: 0.96768 cumulative IPC: 1.06917 (Simulation time: 0 hr 17 min 5 sec) 
Heartbeat CPU  0 instructions:  468000000 cycles:  394871224 heartbeat IPC: 0.95589 cumulative IPC: 1.06882 (Simulation time: 0 hr 17 min 7 sec) 
Heartbeat CPU  0 instructions:  469000003 cycles:  396227019 heartbeat IPC: 0.73758 cumulative IPC: 1.06752 (Simulation time: 0 hr 17 min 9 sec) 
Heartbeat CPU  0 instructions:  470000001 cycles:  397788116 heartbeat IPC: 0.64057 cumulative IPC: 1.06560 (Simulation time: 0 hr 17 min 12 sec) 
Heartbeat CPU  0 instructions:  471000001 cycles:  399218359 heartbeat IPC: 0.69918 cumulative IPC: 1.06410 (Simulation time: 0 hr 17 min 14 sec) 
Heartbeat CPU  0 instructions:  472000000 cycles:  400148795 heartbeat IPC: 1.07476 cumulative IPC: 1.06413 (Simulation time: 0 hr 17 min 16 sec) 
Heartbeat CPU  0 instructions:  473000002 cycles:  401091887 heartbeat IPC: 1.06034 cumulative IPC: 1.06412 (Simulation time: 0 hr 17 min 19 sec) 
Heartbeat CPU  0 instructions:  474000001 cycles:  402021842 heartbeat IPC: 1.07532 cumulative IPC: 1.06415 (Simulation time: 0 hr 17 min 21 sec) 
Heartbeat CPU  0 instructions:  475000001 cycles:  402927547 heartbeat IPC: 1.10411 cumulative IPC: 1.06425 (Simulation time: 0 hr 17 min 23 sec) 
Heartbeat CPU  0 instructions:  476000000 cycles:  403817176 heartbeat IPC: 1.12406 cumulative IPC: 1.06440 (Simulation time: 0 hr 17 min 25 sec) 
Heartbeat CPU  0 instructions:  477000002 cycles:  404700649 heartbeat IPC: 1.13190 cumulative IPC: 1.06457 (Simulation time: 0 hr 17 min 27 sec) 
Heartbeat CPU  0 instructions:  478000000 cycles:  405781352 heartbeat IPC: 0.92532 cumulative IPC: 1.06415 (Simulation time: 0 hr 17 min 29 sec) 
Heartbeat CPU  0 instructions:  479000002 cycles:  407314380 heartbeat IPC: 0.65231 cumulative IPC: 1.06238 (Simulation time: 0 hr 17 min 32 sec) 
Heartbeat CPU  0 instructions:  480000000 cycles:  408577862 heartbeat IPC: 0.79146 cumulative IPC: 1.06142 (Simulation time: 0 hr 17 min 34 sec) 
Heartbeat CPU  0 instructions:  481000003 cycles:  409593178 heartbeat IPC: 0.98492 cumulative IPC: 1.06120 (Simulation time: 0 hr 17 min 36 sec) 
Heartbeat CPU  0 instructions:  482000003 cycles:  410575039 heartbeat IPC: 1.01847 cumulative IPC: 1.06109 (Simulation time: 0 hr 17 min 39 sec) 
Heartbeat CPU  0 instructions:  483000003 cycles:  411541485 heartbeat IPC: 1.03472 cumulative IPC: 1.06102 (Simulation time: 0 hr 17 min 41 sec) 
Heartbeat CPU  0 instructions:  484000000 cycles:  412483858 heartbeat IPC: 1.06115 cumulative IPC: 1.06102 (Simulation time: 0 hr 17 min 43 sec) 
Heartbeat CPU  0 instructions:  485000002 cycles:  413432590 heartbeat IPC: 1.05404 cumulative IPC: 1.06100 (Simulation time: 0 hr 17 min 45 sec) 
Heartbeat CPU  0 instructions:  486000000 cycles:  414360301 heartbeat IPC: 1.07792 cumulative IPC: 1.06104 (Simulation time: 0 hr 17 min 47 sec) 
Heartbeat CPU  0 instructions:  487000000 cycles:  415564797 heartbeat IPC: 0.83022 cumulative IPC: 1.06028 (Simulation time: 0 hr 17 min 50 sec) 
Heartbeat CPU  0 instructions:  488000000 cycles:  416834443 heartbeat IPC: 0.78762 cumulative IPC: 1.05933 (Simulation time: 0 hr 17 min 53 sec) 
Heartbeat CPU  0 instructions:  489000000 cycles:  418127313 heartbeat IPC: 0.77347 cumulative IPC: 1.05833 (Simulation time: 0 hr 17 min 55 sec) 
Heartbeat CPU  0 instructions:  490000003 cycles:  419269023 heartbeat IPC: 0.87588 cumulative IPC: 1.05776 (Simulation time: 0 hr 17 min 58 sec) 
Heartbeat CPU  0 instructions:  491000003 cycles:  420364329 heartbeat IPC: 0.91299 cumulative IPC: 1.05734 (Simulation time: 0 hr 18 min 1 sec) 
Heartbeat CPU  0 instructions:  492000000 cycles:  421439097 heartbeat IPC: 0.93043 cumulative IPC: 1.05697 (Simulation time: 0 hr 18 min 3 sec) 
Heartbeat CPU  0 instructions:  493000001 cycles:  422518595 heartbeat IPC: 0.92636 cumulative IPC: 1.05659 (Simulation time: 0 hr 18 min 6 sec) 
Heartbeat CPU  0 instructions:  494000000 cycles:  423602114 heartbeat IPC: 0.92292 cumulative IPC: 1.05620 (Simulation time: 0 hr 18 min 8 sec) 
Heartbeat CPU  0 instructions:  495000000 cycles:  424685951 heartbeat IPC: 0.92265 cumulative IPC: 1.05581 (Simulation time: 0 hr 18 min 11 sec) 
Heartbeat CPU  0 instructions:  496000000 cycles:  425758880 heartbeat IPC: 0.93203 cumulative IPC: 1.05546 (Simulation time: 0 hr 18 min 14 sec) 
Heartbeat CPU  0 instructions:  497000002 cycles:  426844526 heartbeat IPC: 0.92111 cumulative IPC: 1.05507 (Simulation time: 0 hr 18 min 16 sec) 
Heartbeat CPU  0 instructions:  498000001 cycles:  427922103 heartbeat IPC: 0.92801 cumulative IPC: 1.05471 (Simulation time: 0 hr 18 min 19 sec) 
Heartbeat CPU  0 instructions:  499000000 cycles:  429006823 heartbeat IPC: 0.92190 cumulative IPC: 1.05433 (Simulation time: 0 hr 18 min 21 sec) 
Heartbeat CPU  0 instructions:  500000000 cycles:  430081312 heartbeat IPC: 0.93067 cumulative IPC: 1.05398 (Simulation time: 0 hr 18 min 24 sec) 
Heartbeat CPU  0 instructions:  501000003 cycles:  431168582 heartbeat IPC: 0.91974 cumulative IPC: 1.05359 (Simulation time: 0 hr 18 min 27 sec) 
Heartbeat CPU  0 instructions:  502000002 cycles:  432245623 heartbeat IPC: 0.92847 cumulative IPC: 1.05324 (Simulation time: 0 hr 18 min 29 sec) 
Heartbeat CPU  0 instructions:  503000000 cycles:  433320565 heartbeat IPC: 0.93028 cumulative IPC: 1.05290 (Simulation time: 0 hr 18 min 32 sec) 
Heartbeat CPU  0 instructions:  504000000 cycles:  434398023 heartbeat IPC: 0.92811 cumulative IPC: 1.05255 (Simulation time: 0 hr 18 min 34 sec) 
Heartbeat CPU  0 instructions:  505000000 cycles:  435481289 heartbeat IPC: 0.92313 cumulative IPC: 1.05218 (Simulation time: 0 hr 18 min 37 sec) 
Heartbeat CPU  0 instructions:  506000003 cycles:  436577801 heartbeat IPC: 0.91199 cumulative IPC: 1.05178 (Simulation time: 0 hr 18 min 40 sec) 
Heartbeat CPU  0 instructions:  507000002 cycles:  437660967 heartbeat IPC: 0.92322 cumulative IPC: 1.05142 (Simulation time: 0 hr 18 min 42 sec) 
Heartbeat CPU  0 instructions:  508000000 cycles:  438755739 heartbeat IPC: 0.91343 cumulative IPC: 1.05103 (Simulation time: 0 hr 18 min 45 sec) 
Heartbeat CPU  0 instructions:  509000001 cycles:  439844274 heartbeat IPC: 0.91867 cumulative IPC: 1.05066 (Simulation time: 0 hr 18 min 47 sec) 
Heartbeat CPU  0 instructions:  510000003 cycles:  440948995 heartbeat IPC: 0.90521 cumulative IPC: 1.05025 (Simulation time: 0 hr 18 min 50 sec) 
Heartbeat CPU  0 instructions:  511000001 cycles:  442035154 heartbeat IPC: 0.92067 cumulative IPC: 1.04989 (Simulation time: 0 hr 18 min 53 sec) 
Heartbeat CPU  0 instructions:  512000000 cycles:  443141805 heartbeat IPC: 0.90363 cumulative IPC: 1.04948 (Simulation time: 0 hr 18 min 55 sec) 
[...]
scooby_state_410a05|40|1 1,0,0,0,0,0,0,0,0,0,0,0,0,0,0,1,
scooby_state_410a44|41|1 1,0,0,0,0,0,0,0,0,0,0,0,0,0,0,1,
scooby_state_410b45|45|1 1,0,0,0,0,0,0,0,0,0,0,0,0,0,0,1,
scooby_state_402183|6|1 1,0,0,0,0,0,0,0,0,0,0,0,0,0,0,1,
scooby_state_410b80|46|1 1,0,0,0,0,0,0,0,0,0,0,0,0,0,0,1,
scooby_state_40d685|47|1 1,0,0,0,0,0,0,0,0,0,0,0,0,0,0,1,
scooby_state_402102|4|1 1,0,0,0,0,0,0,0,0,0,0,0,0,0,0,1,
scooby_state_402044|1|1 1,0,0,0,0,0,0,0,0,0,0,0,0,0,0,1,
scooby_state_401f83|62|1 1,0,0,0,0,0,0,0,0,0,0,0,0,0,0,1,
scooby_state_401dc8|48|0 1,0,0,0,0,0,0,0,0,0,0,0,0,0,0,1,
scooby_state_410a49|24|0 1,0,0,0,0,0,0,0,0,0,0,0,0,0,0,1,
scooby_state_401e82|58|1 1,0,0,0,0,0,0,0,0,0,0,0,0,0,0,1,
scooby_state_401e02|56|1 1,0,0,0,0,0,0,0,0,0,0,0,0,0,0,1,
scooby_state_401d4b|53|1 1,0,0,0,0,0,0,0,0,0,0,0,0,0,0,1,
scooby_state_40f8d0|25|10 1,0,0,0,0,0,0,0,0,0,0,0,0,0,0,1,
scooby_state_401d13|19|0 1,0,0,0,0,0,0,0,0,0,0,0,0,0,0,1,
scooby_state_401cfe|29|6 1,0,0,0,0,0,0,0,0,0,0,0,0,0,0,1,
scooby_state_401d05|52|1 1,0,0,0,0,0,0,0,0,0,0,0,0,0,0,1,
scooby_state_414d80|54|0 1,0,0,0,0,0,0,0,0,0,0,0,0,0,0,1,
scooby_state_40d4e0|52|-2 1,0,0,0,0,0,0,0,0,0,0,0,0,0,0,1,
scooby_state_40d653|1|-62 1,0,0,0,0,0,0,0,0,0,0,0,0,0,0,1,
scooby_state_40517f|11|0 1,0,0,0,0,0,0,0,0,0,0,0,0,0,0,1,
scooby_state_40db02|56|2 1,0,0,0,0,0,0,0,0,0,0,0,0,0,0,1,
scooby_state_40d685|41|15 1,0,0,0,0,0,0,0,0,0,0,0,0,0,0,1,
scooby_state_40e045|1|1 1,0,0,0,0,0,0,0,0,0,0,0,0,0,0,1,
scooby_state_40f7dc|25|-38 1,0,0,0,0,0,0,0,0,0,0,0,0,0,0,1,
scooby_state_401001|0|0 1,0,0,0,0,0,0,0,0,0,0,0,0,0,0,1,
scooby_state_410d13|31|1 1,0,0,0,0,0,0,0,0,0,0,0,0,0,0,1,
scooby_state_40dd03|36|0 1,0,0,0,0,0,0,0,0,0,0,0,0,0,0,1,
scooby_state_40fd30|34|1 1,0,0,0,0,0,0,0,0,0,0,0,0,0,0,1,
scooby_state_40dcae|49|2 1,0,0,0,0,0,0,0,0,0,0,0,0,0,0,1,
scooby_state_40d4e0|54|-9 1,0,0,0,0,0,0,0,0,0,0,0,0,0,0,1,
scooby_state_40d685|37|1 1,0,0,0,0,0,0,0,0,0,0,0,0,0,0,1,
scooby_state_40d4e0|20|1 1,0,0,0,0,0,0,0,0,0,0,0,0,0,0,1,
scooby_state_40d6e3|53|48 0,0,0,0,0,0,0,0,0,1,0,0,0,0,0,1,
scooby_state_4108c5|35|1 1,0,0,0,0,0,0,0,0,0,0,0,0,0,0,1,
scooby_state_410900|36|1 1,0,0,0,0,0,0,0,0,0,0,0,0,0,0,1,
scooby_state_40f6a2|5|-8 1,0,0,0,0,0,0,0,0,0,0,0,0,0,0,1,
scooby_state_410c7b|54|17 1,0,0,0,0,0,0,0,0,0,0,0,0,0,0,1,
scooby_state_40d685|17|1 1,0,0,0,0,0,0,0,0,0,0,0,0,0,0,1,
scooby_state_40d6da|24|1 1,0,0,0,0,0,0,0,0,0,0,0,0,0,0,1,
scooby_state_40f6e9|5|-14 1,0,0,0,0,0,0,0,0,0,0,0,0,0,0,1,
scooby_state_40f736|26|-30 1,0,0,0,0,0,0,0,0,0,0,0,0,0,0,1,
scooby_state_401e8e|49|1 1,0,0,0,0,0,0,0,0,0,0,0,0,0,0,1,
scooby_state_401dc8|49|1 1,0,0,0,0,0,0,0,0,0,0,0,0,0,0,1,
scooby_state_401e51|48|0 1,0,0,0,0,0,0,0,0,0,0,0,0,0,0,1,
scooby_state_40d4e0|53|12 1,0,0,0,0,0,0,0,0,0,0,0,0,0,0,1,
scooby_state_40f875|18|11 1,0,0,0,0,0,0,0,0,0,0,0,0,0,0,1,
scooby_state_401e11|48|0 1,0,0,0,0,0,0,0,0,0,0,0,0,0,0,1,
scooby_state_40da40|41|1 1,0,0,0,0,0,0,0,0,0,0,0,0,0,0,1,
scooby_state_40d8c3|52|0 1,0,0,0,0,0,0,0,0,0,0,0,0,0,0,1,
scooby_state_40fc6c|50|1 1,0,0,0,0,0,0,0,0,0,0,0,0,0,0,1,
scooby_state_410c2a|55|6 1,0,0,0,0,0,0,0,0,0,0,0,0,0,0,1,
scooby_state_410dc2|55|1 1,0,0,0,0,0,0,0,0,0,0,0,0,0,0,1,
scooby_state_40f291|63|17 1,0,0,0,0,0,0,0,0,0,0,0,0,0,0,1,
scooby_state_40f750|8|2 1,0,0,0,0,0,0,0,0,0,0,0,0,0,0,1,
scooby_state_40d83d|13|0 1,0,0,0,0,0,0,0,0,0,0,0,0,0,0,1,
scooby_state_40d5dd|47|1 1,0,0,0,0,0,0,0,0,0,0,0,0,0,0,1,
scooby_state_40d5f6|27|-16 1,0,0,0,0,0,0,0,0,0,0,0,0,0,0,1,
scooby_state_40f8d0|62|4 1,0,0,0,0,0,0,0,0,0,0,0,0,0,0,1,
scooby_state_40f291|59|2 1,0,0,0,0,0,0,0,0,0,0,0,0,0,0,1,
scooby_state_40d2ec|14|1 1,0,0,0,0,0,0,0,0,0,0,0,0,0,0,1,
scooby_state_411301|12|1 1,0,0,0,0,0,0,0,0,0,0,0,0,0,0,1,
scooby_state_40f00b|45|0 1,0,0,0,0,0,0,0,0,0,0,0,0,0,0,1,
scooby_state_40f736|4|-14 1,0,0,0,0,0,0,0,0,0,0,0,0,0,0,1,
scooby_state_40d6da|11|-15 1,0,0,0,0,0,0,0,0,0,0,0,0,0,0,1,
scooby_state_410807|2|2 1,0,0,0,0,0,0,0,0,0,0,0,0,0,0,1,
scooby_state_402263|33|4 1,0,0,0,0,0,0,0,0,0,0,0,0,0,0,1,
scooby_state_40d8be|8|0 1,0,0,0,0,0,0,0,0,0,0,0,0,0,0,1,
scooby_state_40ee8e|20|0 1,0,0,0,0,0,0,0,0,0,0,0,0,0,0,1,
scooby_state_40d842|7|0 1,0,0,0,0,0,0,0,0,0,0,0,0,0,0,1,
scooby_state_40f83a|9|9 1,0,0,0,0,0,0,0,0,0,0,0,0,0,0,1,
scooby_state_40d83d|8|0 1,0,0,0,0,0,0,0,0,0,0,0,0,0,0,1,
scooby_state_4013dc|50|1 1,0,0,0,0,0,0,0,0,0,0,0,0,0,0,1,
scooby_state_40f218|40|1 1,0,0,0,0,0,0,0,0,0,0,0,0,0,0,1,
scooby_state_40d7c9|7|0 1,0,0,0,0,0,0,0,0,0,0,0,0,0,0,1,
scooby_state_40d7c4|8|0 1,0,0,0,0,0,0,0,0,0,0,0,0,0,0,1,
scooby_state_40f88e|19|13 0,0,0,0,0,0,0,0,0,0,1,0,0,0,0,1,
scooby_state_40f296|49|-13 1,0,0,0,0,0,0,0,0,0,0,0,0,0,0,1,
scooby_state_410aa0|21|0 1,0,0,0,0,0,0,0,0,0,0,0,0,0,0,1,
scooby_state_40f88e|47|15 1,0,0,0,0,0,0,0,0,0,0,0,0,0,0,1,
scooby_state_405181|6|0 1,0,0,0,0,0,0,0,0,0,0,0,0,0,0,1,
scooby_state_40dccb|59|12 1,0,0,0,0,0,0,0,0,0,0,0,0,0,0,1,
scooby_state_40dce9|60|10 1,0,0,0,0,0,0,0,0,0,0,0,0,0,0,1,
scooby_state_40f296|62|5 1,0,0,0,0,0,0,0,0,0,0,0,0,0,0,1,
scooby_state_40f000|6|-4 1,0,0,0,0,0,0,0,0,0,0,0,0,0,0,1,
scooby_state_410c7b|56|17 1,0,0,0,0,0,0,0,0,0,0,0,0,0,0,1,
scooby_state_40d4da|40|1 1,0,0,0,0,0,0,0,0,0,0,0,0,0,0,1,
scooby_state_40dd27|21|13 1,0,0,0,0,0,0,0,0,0,0,0,0,0,0,1,
scooby_state_410a49|2|0 1,0,0,0,0,0,0,0,0,0,0,0,0,0,0,1,
scooby_state_40db49|54|0 1,0,0,0,0,0,0,0,0,0,0,0,0,0,0,1,
scooby_state_411348|27|0 1,0,0,0,0,0,0,0,0,0,0,0,0,0,0,1,
scooby_state_4101c3|7|1 1,0,0,0,0,0,0,0,0,0,0,0,0,0,0,1,
scooby_state_40f00b|40|-5 1,0,0,0,0,0,0,0,0,0,0,0,0,0,0,1,
scooby_state_40f314|3|-32 1,0,0,0,0,0,0,0,0,0,0,0,0,0,0,1,
scooby_state_410807|47|2 1,0,0,0,0,0,0,0,0,0,0,0,0,0,0,1,
scooby_state_40f7dc|16|-5 1,0,0,0,0,0,0,0,0,0,0,0,0,0,0,1,
scooby_state_40f84e|49|11 1,0,0,0,0,0,0,0,0,0,0,0,0,0,0,1,
scooby_state_40d6e3|42|15 1,0,0,0,0,0,0,0,0,0,0,0,0,0,0,1,
scooby_state_40dd27|61|17 1,0,0,0,0,0,0,0,0,0,0,0,0,0,0,1,
scooby_state_410c00|48|1 1,0,0,0,0,0,0,0,0,0,0,0,0,0,0,1,
scooby_state_410d80|26|15 1,0,0,0,0,0,0,0,0,0,0,0,0,0,0,1,
scooby_state_40dc0f|2|0 1,0,0,0,0,0,0,0,0,0,0,0,0,0,0,1,
scooby_state_40d6fc|51|47 1,0,0,0,0,0,0,0,0,0,0,0,0,0,0,1,
scooby_state_410d01|52|1 1,0,0,0,0,0,0,0,0,0,0,0,0,0,0,1,
scooby_state_410d44|53|1 1,0,0,0,0,0,0,0,0,0,0,0,0,0,0,1,
scooby_state_410240|9|1 1,0,0,0,0,0,0,0,0,0,0,0,0,0,0,1,
scooby_state_40d6e3|61|21 1,0,0,0,0,0,0,0,0,0,0,0,0,0,0,1,
scooby_state_4039c0|39|1 1,0,0,0,0,0,0,0,0,0,0,0,0,0,0,1,
scooby_state_403987|38|1 1,0,0,0,0,0,0,0,0,0,0,0,0,0,0,1,
scooby_state_403944|37|1 1,0,0,0,0,0,0,0,0,0,0,0,0,0,0,1,
scooby_state_403900|36|1 1,0,0,0,0,0,0,0,0,0,0,0,0,0,0,1,
scooby_state_40f736|17|-30 1,0,0,0,0,0,0,0,0,0,0,0,0,0,0,1,
scooby_state_4038c0|35|1 1,0,0,0,0,0,0,0,0,0,0,0,0,0,0,1,
scooby_state_403882|34|1 1,0,0,0,0,0,0,0,0,0,0,0,0,0,0,1,
scooby_state_403842|33|1 1,0,0,0,0,0,0,0,0,0,0,0,0,0,0,1,
scooby_state_403784|30|1 1,0,0,0,0,0,0,0,0,0,0,0,0,0,0,1,
scooby_state_4036c6|27|1 1,0,0,0,0,0,0,0,0,0,0,0,0,0,0,1,
scooby_state_403682|26|1 1,0,0,0,0,0,0,0,0,0,0,0,0,0,0,1,
scooby_state_403642|25|1 1,0,0,0,0,0,0,0,0,0,0,0,0,0,0,1,
scooby_state_400b00|44|0 1,0,0,0,0,0,0,0,0,0,0,0,0,0,0,1,
scooby_state_403a01|40|1 1,0,0,0,0,0,0,0,0,0,0,0,0,0,0,1,
scooby_state_4035c0|23|1 1,0,0,0,0,0,0,0,0,0,0,0,0,0,0,1,
scooby_state_4034c1|19|1 1,0,0,0,0,0,0,0,0,0,0,0,0,0,0,1,
scooby_state_404681|26|1 1,0,0,0,0,0,0,0,0,0,0,0,0,0,0,1,
scooby_state_400a74|33|0 1,0,0,0,0,0,0,0,0,0,0,0,0,0,0,1,
scooby_state_403485|18|1 1,0,0,0,0,0,0,0,0,0,0,0,0,0,0,1,
scooby_state_4007dc|50|0 1,0,0,0,0,0,0,0,0,0,0,0,0,0,0,1,
scooby_state_40341b|33|0 1,0,0,0,0,0,0,0,0,0,0,0,0,0,0,1,
scooby_state_401e8e|7|1 1,0,0,0,0,0,0,0,0,0,0,0,0,0,0,1,
scooby_state_401e51|7|1 1,0,0,0,0,0,0,0,0,0,0,0,0,0,0,1,
scooby_state_4009a8|33|0 1,0,0,0,0,0,0,0,0,0,0,0,0,0,0,1,
scooby_state_401dc8|7|1 1,0,0,0,0,0,0,0,0,0,0,0,0,0,0,1,
scooby_state_410807|13|3 1,0,0,0,0,0,0,0,0,0,0,0,0,0,0,1,
scooby_state_401d88|7|1 1,0,0,0,0,0,0,0,0,0,0,0,0,0,0,1,
scooby_state_403685|39|1 1,0,0,0,0,0,0,0,0,0,0,0,0,0,0,1,
scooby_state_40f746|29|1 1,0,0,0,0,0,0,0,0,0,0,0,0,0,0,1,
scooby_state_40d6e3|37|32 1,0,0,0,0,0,0,0,0,0,0,0,0,0,0,1,
scooby_state_4109e8|53|39 1,0,0,0,0,0,0,0,0,0,0,0,0,0,0,1,
scooby_state_40f30f|15|15 1,0,0,0,0,0,0,0,0,0,0,0,0,0,0,1,
scooby_state_40d6fc|13|2 1,0,0,0,0,0,0,0,0,0,0,0,0,0,0,1,
scooby_state_4028c0|35|1 1,0,0,0,0,0,0,0,0,0,0,0,0,0,0,1,
scooby_state_40dccb|24|7 1,0,0,0,0,0,0,0,0,0,0,0,0,0,0,1,
scooby_state_40f750|12|5 1,0,0,0,0,0,0,0,0,0,0,0,0,0,0,1,
scooby_state_40d4e0|45|-1 1,0,0,0,0,0,0,0,0,0,0,0,0,0,0,1,
scooby_state_40fd2b|50|16 1,0,0,0,0,0,0,0,0,0,0,0,0,0,0,1,
scooby_state_456240|9|1 1,0,0,0,0,0,0,0,0,0,0,0,0,0,0,1,
scooby_state_40d4e0|4|-4 1,0,0,0,0,0,0,0,0,0,0,0,0,0,0,1,
scooby_state_40d6da|10|-46 1,0,0,0,0,0,0,0,0,0,0,0,0,0,0,1,
scooby_state_401e8e|56|0 1,0,0,0,0,0,0,0,0,0,0,0,0,0,0,1,
scooby_state_40d685|41|1 1,0,0,0,0,0,0,0,0,0,0,0,0,0,0,1,
scooby_state_40d685|40|15 1,0,0,0,0,0,0,0,0,0,0,0,0,0,0,1,
scooby_state_40dd27|23|15 1,0,0,0,0,0,0,0,0,0,0,0,0,0,0,1,
scooby_state_40f296|57|3 1,0,0,0,0,0,0,0,0,0,0,0,0,0,0,1,
scooby_state_40dce9|23|14 1,0,0,0,0,0,0,0,0,0,0,0,0,0,0,1,
scooby_state_40f21d|4|1 1,0,0,0,0,0,0,0,0,0,0,0,0,0,0,1,
scooby_state_40d4e0|33|-14 1,0,0,0,0,0,0,0,0,0,0,0,0,0,0,1,
scooby_state_403696|19|1 1,0,0,0,0,0,0,0,0,0,0,0,0,0,0,1,
scooby_state_40d4e0|34|-5 1,0,0,0,0,0,0,0,0,0,0,0,0,0,0,1,
scooby_state_40377e|49|1 1,0,0,0,0,0,0,0,0,0,0,0,0,0,0,1,
scooby_state_40d9d0|5|0 1,0,0,0,0,0,0,0,0,0,0,0,0,0,0,1,
scooby_state_403685|38|0 1,0,0,0,0,0,0,0,0,0,0,0,0,0,0,1,
scooby_state_40377e|48|0 1,0,0,0,0,0,0,0,0,0,0,0,0,0,0,1,
scooby_state_40f291|19|17 1,0,0,0,0,0,0,0,0,0,0,0,0,0,0,1,
scooby_state_4107b5|26|-7 1,0,0,0,0,0,0,0,0,0,0,0,0,0,0,1,
scooby_state_40f21d|55|2 1,0,0,0,0,0,0,0,0,0,0,0,0,0,0,1,
scooby_state_40f30f|47|1 1,0,0,0,0,0,0,0,0,0,0,0,0,0,0,1,
scooby_state_411141|5|1 1,0,0,0,0,0,0,0,0,0,0,0,0,0,0,1,
scooby_state_4009c0|39|1 1,0,0,0,0,0,0,0,0,0,0,0,0,0,0,1,
scooby_state_40d5f6|1|-16 1,0,0,0,0,0,0,0,0,0,0,0,0,0,0,1,
scooby_state_40dd27|62|13 1,0,0,0,0,0,0,0,0,0,0,0,0,0,0,1,
scooby_state_410846|33|1 1,0,0,0,0,0,0,0,0,0,0,0,0,0,0,1,
scooby_state_40f750|7|-2 1,0,0,0,0,0,0,0,0,0,0,0,0,0,0,1,
scooby_state_410cf3|24|0 1,0,0,0,0,0,0,0,0,0,0,0,0,0,0,1,
scooby_state_40f21d|59|4 1,0,0,0,0,0,0,0,0,0,0,0,0,0,0,1,
scooby_state_40ed53|20|16 1,0,0,0,0,0,0,0,0,0,0,0,0,0,0,1,
scooby_state_40d685|1|-48 1,0,0,0,0,0,0,0,0,0,0,0,0,0,0,1,
scooby_state_40dd27|59|10 1,0,0,0,0,0,0,0,0,0,0,0,0,0,0,1,
scooby_state_40fbc0|47|1 1,0,0,0,0,0,0,0,0,0,0,0,0,0,0,1,
scooby_state_40dccb|37|2 1,0,0,0,0,0,0,0,0,0,0,0,0,0,0,1,
scooby_state_410c6f|16|-45 1,0,0,0,0,0,0,0,0,0,0,0,0,0,0,1,
scooby_state_40d947|7|0 1,0,0,0,0,0,0,0,0,0,0,0,0,0,0,1,
scooby_state_40d83d|7|0 1,0,0,0,0,0,0,0,0,0,0,0,0,0,0,1,
scooby_state_40d6e3|38|32 1,0,0,0,0,0,0,0,0,0,0,0,0,0,0,1,
scooby_state_40d685|46|15 1,0,0,0,0,0,0,0,0,0,0,0,0,0,0,1,
scooby_state_40d653|31|1 1,0,0,0,0,0,0,0,0,0,0,0,0,0,0,1,
scooby_state_40dcae|17|3 1,0,0,0,0,0,0,0,0,0,0,0,0,0,0,1,
scooby_state_40db68|61|38 1,0,0,0,0,0,0,0,0,0,0,0,0,0,0,1,
scooby_state_40d4a2|62|1 1,0,0,0,0,0,0,0,0,0,0,0,0,0,0,1,
scooby_state_40f174|1|0 1,0,0,0,0,0,0,0,0,0,0,0,0,0,0,1,
scooby_state_40dd27|25|0 1,0,0,0,0,0,0,0,0,0,0,0,0,0,0,1,
scooby_state_40dd03|45|0 1,0,0,0,0,0,0,0,0,0,0,0,0,0,0,1,
scooby_state_40dd27|33|7 1,0,0,0,0,0,0,0,0,0,0,0,0,0,0,1,
scooby_state_401dc8|56|0 1,0,0,0,0,0,0,0,0,0,0,0,0,0,0,1,
scooby_state_40dcae|32|17 1,0,0,0,0,0,0,0,0,0,0,0,0,0,0,1,
scooby_state_40df83|62|1 1,0,0,0,0,0,0,0,0,0,0,0,0,0,0,1,
scooby_state_401e11|56|0 1,0,0,0,0,0,0,0,0,0,0,0,0,0,0,1,
scooby_state_40d6fc|58|48 1,0,0,0,0,0,0,0,0,0,0,0,0,0,0,1,
scooby_state_401d88|56|0 1,0,0,0,0,0,0,0,0,0,0,0,0,0,0,1,
scooby_state_453942|37|1 1,0,0,0,0,0,0,0,0,0,0,0,0,0,0,1,
scooby_state_40ed53|40|16 1,0,0,0,0,0,0,0,0,0,0,0,0,0,0,1,
scooby_state_40f276|43|0 1,0,0,0,0,0,0,0,0,0,0,0,0,0,0,1,
scooby_state_404f01|60|1 1,0,0,0,0,0,0,0,0,0,0,0,0,0,0,1,
scooby_state_40f218|18|17 1,0,0,0,0,0,0,0,0,0,0,0,0,0,0,1,
scooby_state_40d4e0|45|-3 1,0,0,0,0,0,0,0,0,0,0,0,0,0,0,1,
scooby_state_40f6f6|47|1 1,0,0,0,0,0,0,0,0,0,0,0,0,0,0,1,
scooby_state_40db8d|53|0 1,0,0,0,0,0,0,0,0,0,0,0,0,0,0,1,
scooby_state_400933|41|0 1,0,0,0,0,0,0,0,0,0,0,0,0,0,0,1,
scooby_state_4009c7|41|0 1,0,0,0,0,0,0,0,0,0,0,0,0,0,0,1,
scooby_state_410800|32|1 1,0,0,0,0,0,0,0,0,0,0,0,0,0,0,1,
scooby_state_40d5dd|61|48 1,0,0,0,0,0,0,0,0,0,0,0,0,0,0,1,
scooby_state_402bc3|47|1 1,0,0,0,0,0,0,0,0,0,0,0,0,0,0,1,
scooby_state_40058e|4|0 1,0,0,0,0,0,0,0,0,0,0,0,0,0,0,1,
scooby_state_4106d6|37|8 1,0,0,0,0,0,0,0,0,0,0,0,0,0,0,1,
scooby_state_40f1f5|18|17 1,0,0,0,0,0,0,0,0,0,0,0,0,0,0,1,
scooby_state_4106dc|33|-4 1,0,0,0,0,0,0,0,0,0,0,0,0,0,0,1,
scooby_state_40da80|18|0 1,0,0,0,0,0,0,0,0,0,0,0,0,0,0,1,
scooby_state_41078a|8|3 1,0,0,0,0,0,0,0,0,0,0,0,0,0,0,1,

scooby_action_0_deg_dist 0,2645,0,0,0,0,0,0,0,0,0,0,0,0,0,0,
scooby_action_12_deg_dist 0,1685,2,0,5,0,1,0,0,0,0,0,0,0,0,0,
scooby_action_3_deg_dist 0,1882,2,0,0,0,0,0,0,0,0,0,0,0,0,0,
scooby_action_32_deg_dist 0,3754,2,0,5,0,5,0,0,0,0,0,0,0,0,0,
scooby_action_5_deg_dist 0,1783,1,0,0,0,0,0,0,0,0,0,0,0,0,0,
scooby_action_4_deg_dist 0,1855,0,0,0,0,0,0,0,0,0,0,0,0,0,0,
scooby_action_1_deg_dist 0,355981,155006,0,371737,0,3688054,0,0,0,0,0,0,0,0,0,
scooby_action_30_deg_dist 0,1529,2,0,5,0,5,0,0,0,0,0,0,0,0,0,
scooby_action_-3_deg_dist 0,1660,0,0,0,0,0,0,0,0,0,0,0,0,0,0,
scooby_action_10_deg_dist 0,1759,2,0,4,0,0,0,0,0,0,0,0,0,0,0,
scooby_action_-1_deg_dist 0,1701,0,0,0,0,0,0,0,0,0,0,0,0,0,0,
scooby_action_23_deg_dist 0,1558,2,0,5,0,5,0,0,0,0,0,0,0,0,0,
scooby_action_-6_deg_dist 0,1655,0,0,0,0,0,0,0,0,0,0,0,0,0,0,
scooby_action_11_deg_dist 0,1688,0,0,0,0,0,0,0,0,0,0,0,0,0,0,
scooby_action_22_deg_dist 0,1580,2,0,5,0,5,0,0,0,0,0,0,0,0,0,

scooby_track_called 4597577
scooby_track_same_address 145087
scooby_track_evict 4452234

scooby_reward_demand_called 4597577
scooby_reward_demand_pt_not_found 350420
scooby_reward_demand_pt_found 4247157
scooby_reward_demand_pt_found_total 4247157
scooby_reward_demand_has_reward 129457
scooby_reward_train_called 258824
scooby_reward_assign_reward_called 4452446
scooby_reward_no_pref 2645
scooby_reward_incorrect 256179
scooby_reward_correct_untimely 3799178
scooby_reward_correct_timely 318522
scooby_reward_out_of_bounds 75922
scooby_reward_tracker_hit 0

scooby_reward_none_low_bw 2645
scooby_reward_none_high_bw 0
scooby_reward_incorrect_low_bw 256179
scooby_reward_incorrect_high_bw 0
scooby_reward_correct_untimely_low_bw 3799178
scooby_reward_correct_untimely_high_bw 0
scooby_reward_correct_timely_low_bw 318522
scooby_reward_correct_timely_high_bw 0
scooby_reward_out_of_bounds_low_bw 75922
scooby_reward_out_of_bounds_high_bw 0
scooby_reward_tracker_hit_low_bw 0
scooby_reward_tracker_hit_high_bw 0

scooby_reward_1 0,241607,3798026,316134,71448,0,
scooby_reward_3 0,1300,411,69,67,0,
scooby_reward_4 0,1252,341,107,130,0,
scooby_reward_5 0,1236,237,161,124,0,
scooby_reward_10 0,1149,37,260,289,0,
scooby_reward_11 0,1109,30,225,299,0,
scooby_reward_12 0,1038,19,218,369,0,
scooby_reward_22 0,861,22,125,571,0,
scooby_reward_23 0,769,13,156,619,0,
scooby_reward_30 0,705,4,97,717,0,
scooby_reward_32 0,1681,5,963,1106,0,
scooby_reward_-1 0,1165,5,0,23,0,
scooby_reward_-3 0,1176,7,3,36,0,
scooby_reward_-6 0,1131,21,4,124,0,
scooby_reward_0 2645,0,0,0,0,0,

scooby_train_called 4452233
scooby_train_compute_reward 258824

scooby_register_fill_called 3402430
scooby_register_fill_set 358800
scooby_register_fill_set_total 358800

scooby_register_prefetch_hit_called 16985128
scooby_register_prefetch_hit_set 4330073
scooby_register_prefetch_hit_set_total 4330073

scooby_pref_issue_scooby 22153502

learning_engine_featurewise.action.called 4597577
learning_engine_featurewise.action.explore 8428
learning_engine_featurewise.action.exploit 4589149
learning_engine_featurewise.action.fallback 31
learning_engine_featurewise.action.dyn_fallback_saved_bw 0
learning_engine_featurewise.action.dyn_fallback_saved_bw_acc 50503
learning_engine_featurewise.action.index_1_explored 570
learning_engine_featurewise.action.index_1_exploited 4570208
learning_engine_featurewise.action.index_3_explored 570
learning_engine_featurewise.action.index_3_exploited 1314
learning_engine_featurewise.action.index_4_explored 570
learning_engine_featurewise.action.index_4_exploited 1285
learning_engine_featurewise.action.index_5_explored 538
learning_engine_featurewise.action.index_5_exploited 1246
learning_engine_featurewise.action.index_10_explored 598
learning_engine_featurewise.action.index_10_exploited 1167
learning_engine_featurewise.action.index_11_explored 567
learning_engine_featurewise.action.index_11_exploited 1121
learning_engine_featurewise.action.index_12_explored 593
learning_engine_featurewise.action.index_12_exploited 1100
learning_engine_featurewise.action.index_22_explored 561
learning_engine_featurewise.action.index_22_exploited 1031
learning_engine_featurewise.action.index_23_explored 567
learning_engine_featurewise.action.index_23_exploited 1003
learning_engine_featurewise.action.index_30_explored 563
learning_engine_featurewise.action.index_30_exploited 978
learning_engine_featurewise.action.index_32_explored 516
learning_engine_featurewise.action.index_32_exploited 3250
learning_engine_featurewise.action.index_-1_explored 562
learning_engine_featurewise.action.index_-1_exploited 1139
learning_engine_featurewise.action.index_-3_explored 541
learning_engine_featurewise.action.index_-3_exploited 1119
learning_engine_featurewise.action.index_-6_explored 550
learning_engine_featurewise.action.index_-6_exploited 1105
learning_engine_featurewise.action.index_0_explored 562
learning_engine_featurewise.action.index_0_exploited 2083
learning_engine_featurewise.learn.called 4452233
learning_engine_featurewise.learn.su_skip_PC 0
learning_engine_featurewise.learn.su_skip_PC_Delta 0

learning_engine_featurewise.q_value_histogram.bucket_0 0
learning_engine_featurewise.q_value_histogram.bucket_1 177
learning_engine_featurewise.q_value_histogram.bucket_2 3863
learning_engine_featurewise.q_value_histogram.bucket_3 11076
learning_engine_featurewise.q_value_histogram.bucket_4 20869
learning_engine_featurewise.q_value_histogram.bucket_5 18958
learning_engine_featurewise.q_value_histogram.bucket_6 4534206
learning_engine_featurewise.q_value_histogram.bucket_7 0

learning_engine_featurewise.consensus.total 4589149
learning_engine_featurewise.consensus.feature_align_PC 4538115
learning_engine_featurewise.consensus.feature_align_PC_ratio 0.99
learning_engine_featurewise.consensus.feature_align_PC_Delta 4581904
learning_engine_featurewise.consensus.feature_align_PC_Delta_ratio 1.00
learning_engine_featurewise.consensus.feature_align_all 4531044
learning_engine_featurewise.consensus.feature_align_all_ratio 0.99

learning_engine_featurewise.feature_PC_min_weight 1000000.00000000
learning_engine_featurewise.feature_PC_max_weight 0.00000000
learning_engine_featurewise.feature_PC_Delta_min_weight 1000000.00000000
learning_engine_featurewise.feature_PC_Delta_max_weight 0.00000000
unique_pcs 1172
unique_pages 18365
unique_trigger_pcs 345
total_bitmaps_seen 0
unique_bitmaps_seen 0

scooby_bw_epochs 2038913
scooby_bw_level_0 699538
scooby_bw_level_1 323930
scooby_bw_level_2 361737
scooby_bw_level_3 653708

scooby_ipc_epochs 0
scooby_ipc_level_0 0
scooby_ipc_level_1 0
scooby_ipc_level_2 0
scooby_ipc_level_3 0

scooby_cache_acc_epochs 504053
scooby_cache_acc_level_0 21712
scooby_cache_acc_level_1 7002
scooby_cache_acc_level_2 7878
scooby_cache_acc_level_3 6448
scooby_cache_acc_level_4 10313
scooby_cache_acc_level_5 15139
scooby_cache_acc_level_6 24340
scooby_cache_acc_level_7 33648
scooby_cache_acc_level_8 53000
scooby_cache_acc_level_9 324573

Channel_0_RQ_row_buffer_hit 760826
Channel_0_RQ_row_buffer_miss 2746644
Channel_0_WQ_row_buffer_hit 447350
Channel_0_WQ_row_buffer_miss 603723
Channel_0_WQ_full 214
Channel_0_dbus_congested 3052237

avg_congested_cycle 43

DRAM_bw_pochs 2038913
DRAM_bw_level_0 699538
DRAM_bw_level_1 323930
DRAM_bw_level_2 361737
DRAM_bw_level_3 653708
