*************************************************
   ChampSim Multicore Out-of-Order Simulator
   Last compiled: Dec 11 2024 17:59:53
*************************************************
parsing config file: /home/functionmain/桌面/Pythia/config/nopref.ini

trace_0 /home/functionmain/桌面/Pythia/traces/437.leslie3d-271B.champsimtrace.xz
adding L2C_PREFETCHER: NONE
Initialize SHIP state
warmup_instructions 100000000
simulation_instructions 500000000
champsim_seed 220
measure_ipc 0
measure_ipc_epoch 1000
measure_dram_bw 1
measure_dram_bw_epoch 256
measure_cache_acc 1
measure_cache_acc_epoch 1024
l1d_perfect 0
l2c_perfect 0
llc_perfect 0
l1d_semi_perfect 0
l2c_semi_perfect 0
llc_semi_perfect 0
semi_perfect_cache_page_buffer_size 64

num_cpus 1
cpu_freq 4000
dram_io_freq 600
page_size 4096
block_size 64
max_read_per_cycle 8
max_fill_per_cycle 1
dram_channels 1
log2_dram_channels 0
dram_ranks 1
dram_banks 8
dram_rows 65536
dram_columns 128
dram_row_size 8
dram_size 4096
dram_pages 1048576

fetch_width 6
decode_width 6
exec_width 4
lq_width 2
sq_width 2
retire_width 4
scheduler_size 128
branch_mispredict_penalty 20
rob_size 256
lq_size 72
sq_size 56
num_instr_destinations_sparc 4
num_instr_destinations 2
num_instr_sources 4

itlb_set 16
itlb_way 8
itlb_rq_size 16
itlb_wq_size 16
itlb_pq_size 0
itlb_mshr_size 8
itlb_latency 1

dtlb_set 16
dtlb_way 4
dtlb_rq_size 16
dtlb_wq_size 16
dtlb_pq_size 0
dtlb_mshr_size 8
dtlb_latency 1

stlb_set 128
stlb_way 12
stlb_rq_size 32
stlb_wq_size 32
stlb_pq_size 0
stlb_mshr_size 16
stlb_latency 8

l1i_size 32
l1i_set 64
l1i_way 8
l1i_rq_size 64
l1i_wq_size 64
l1i_pq_size 8
l1i_mshr_size 8
l1i_latency 1

l1d_size 32
l1d_set 64
l1d_way 8
l1d_rq_size 64
l1d_wq_size 64
l1d_pq_size 8
l1d_mshr_size 16
l1d_latency 4

l2c_size 256
l2c_set 512
l2c_way 8
l2c_rq_size 32
l2c_wq_size 32
l2c_pq_size 32
l2c_mshr_size 32
l2c_latency 10

llc_size 2048
llc_set 2048
llc_way 16
llc_rq_size 32
llc_wq_size 32
llc_pq_size 32
llc_mshr_size 64
llc_latency 20

dram_channel_width 8
dram_wq_size 64
dram_rq_size 64
tRP 15
tRCD 15
tCAS 12.5
dram_dbus_turn_around_time 30
dram_write_high_wm 56
dram_write_low_wm 48
min_dram_writes_per_switch 16
dram_mtps 600
dram_dbus_return_time 53


Heartbeat CPU  0 instructions:    1000002 cycles:     516704 heartbeat IPC: 1.93535 cumulative IPC: 1.93535 (Simulation time: 0 hr 0 min 2 sec) 
Heartbeat CPU  0 instructions:    2000001 cycles:    1032706 heartbeat IPC: 1.93798 cumulative IPC: 1.93666 (Simulation time: 0 hr 0 min 4 sec) 
Heartbeat CPU  0 instructions:    3000003 cycles:    1548698 heartbeat IPC: 1.93802 cumulative IPC: 1.93711 (Simulation time: 0 hr 0 min 6 sec) 
Heartbeat CPU  0 instructions:    4000000 cycles:    2064926 heartbeat IPC: 1.93712 cumulative IPC: 1.93712 (Simulation time: 0 hr 0 min 8 sec) 
Heartbeat CPU  0 instructions:    5000001 cycles:    2581654 heartbeat IPC: 1.93526 cumulative IPC: 1.93674 (Simulation time: 0 hr 0 min 10 sec) 
Heartbeat CPU  0 instructions:    6000001 cycles:    3098172 heartbeat IPC: 1.93604 cumulative IPC: 1.93663 (Simulation time: 0 hr 0 min 12 sec) 
Heartbeat CPU  0 instructions:    7000003 cycles:    3614630 heartbeat IPC: 1.93627 cumulative IPC: 1.93658 (Simulation time: 0 hr 0 min 14 sec) 
Heartbeat CPU  0 instructions:    8000000 cycles:    4131078 heartbeat IPC: 1.93630 cumulative IPC: 1.93654 (Simulation time: 0 hr 0 min 16 sec) 
Heartbeat CPU  0 instructions:    9000000 cycles:    4647059 heartbeat IPC: 1.93806 cumulative IPC: 1.93671 (Simulation time: 0 hr 0 min 18 sec) 
Heartbeat CPU  0 instructions:   10000003 cycles:    5163365 heartbeat IPC: 1.93684 cumulative IPC: 1.93672 (Simulation time: 0 hr 0 min 20 sec) 
Heartbeat CPU  0 instructions:   11000000 cycles:    5680313 heartbeat IPC: 1.93442 cumulative IPC: 1.93651 (Simulation time: 0 hr 0 min 22 sec) 
Heartbeat CPU  0 instructions:   12000000 cycles:    6196856 heartbeat IPC: 1.93595 cumulative IPC: 1.93647 (Simulation time: 0 hr 0 min 24 sec) 
Heartbeat CPU  0 instructions:   13000001 cycles:    6713236 heartbeat IPC: 1.93656 cumulative IPC: 1.93647 (Simulation time: 0 hr 0 min 26 sec) 
Heartbeat CPU  0 instructions:   14000002 cycles:    7230112 heartbeat IPC: 1.93470 cumulative IPC: 1.93635 (Simulation time: 0 hr 0 min 28 sec) 
Heartbeat CPU  0 instructions:   15000000 cycles:    7746606 heartbeat IPC: 1.93613 cumulative IPC: 1.93633 (Simulation time: 0 hr 0 min 30 sec) 
Heartbeat CPU  0 instructions:   16000000 cycles:    8263029 heartbeat IPC: 1.93640 cumulative IPC: 1.93634 (Simulation time: 0 hr 0 min 32 sec) 
Heartbeat CPU  0 instructions:   17000003 cycles:    8779684 heartbeat IPC: 1.93553 cumulative IPC: 1.93629 (Simulation time: 0 hr 0 min 34 sec) 
Heartbeat CPU  0 instructions:   18000002 cycles:    9295474 heartbeat IPC: 1.93877 cumulative IPC: 1.93643 (Simulation time: 0 hr 0 min 36 sec) 
Heartbeat CPU  0 instructions:   19000003 cycles:    9811598 heartbeat IPC: 1.93752 cumulative IPC: 1.93648 (Simulation time: 0 hr 0 min 38 sec) 
Heartbeat CPU  0 instructions:   20000000 cycles:   10328282 heartbeat IPC: 1.93541 cumulative IPC: 1.93643 (Simulation time: 0 hr 0 min 40 sec) 
Heartbeat CPU  0 instructions:   21000001 cycles:   10844991 heartbeat IPC: 1.93533 cumulative IPC: 1.93638 (Simulation time: 0 hr 0 min 42 sec) 
Heartbeat CPU  0 instructions:   22000000 cycles:   11361471 heartbeat IPC: 1.93618 cumulative IPC: 1.93637 (Simulation time: 0 hr 0 min 44 sec) 
Heartbeat CPU  0 instructions:   23000003 cycles:   11877998 heartbeat IPC: 1.93601 cumulative IPC: 1.93635 (Simulation time: 0 hr 0 min 46 sec) 
Heartbeat CPU  0 instructions:   24000000 cycles:   12394091 heartbeat IPC: 1.93763 cumulative IPC: 1.93641 (Simulation time: 0 hr 0 min 48 sec) 
Heartbeat CPU  0 instructions:   25000000 cycles:   12910202 heartbeat IPC: 1.93757 cumulative IPC: 1.93645 (Simulation time: 0 hr 0 min 50 sec) 
Heartbeat CPU  0 instructions:   26000003 cycles:   13426683 heartbeat IPC: 1.93619 cumulative IPC: 1.93644 (Simulation time: 0 hr 0 min 52 sec) 
Heartbeat CPU  0 instructions:   27000002 cycles:   13943469 heartbeat IPC: 1.93503 cumulative IPC: 1.93639 (Simulation time: 0 hr 0 min 54 sec) 
Heartbeat CPU  0 instructions:   28000000 cycles:   14459960 heartbeat IPC: 1.93614 cumulative IPC: 1.93638 (Simulation time: 0 hr 0 min 56 sec) 
Heartbeat CPU  0 instructions:   29000000 cycles:   14976361 heartbeat IPC: 1.93648 cumulative IPC: 1.93638 (Simulation time: 0 hr 0 min 58 sec) 
Heartbeat CPU  0 instructions:   30000002 cycles:   15493100 heartbeat IPC: 1.93522 cumulative IPC: 1.93635 (Simulation time: 0 hr 1 min 0 sec) 
Heartbeat CPU  0 instructions:   31000001 cycles:   16009583 heartbeat IPC: 1.93617 cumulative IPC: 1.93634 (Simulation time: 0 hr 1 min 2 sec) 
Heartbeat CPU  0 instructions:   32000000 cycles:   16525916 heartbeat IPC: 1.93673 cumulative IPC: 1.93635 (Simulation time: 0 hr 1 min 4 sec) 
Heartbeat CPU  0 instructions:   33000000 cycles:   17042436 heartbeat IPC: 1.93603 cumulative IPC: 1.93634 (Simulation time: 0 hr 1 min 6 sec) 
Heartbeat CPU  0 instructions:   34000001 cycles:   17558464 heartbeat IPC: 1.93788 cumulative IPC: 1.93639 (Simulation time: 0 hr 1 min 8 sec) 
Heartbeat CPU  0 instructions:   35000000 cycles:   18074690 heartbeat IPC: 1.93713 cumulative IPC: 1.93641 (Simulation time: 0 hr 1 min 10 sec) 
Heartbeat CPU  0 instructions:   36000000 cycles:   18591568 heartbeat IPC: 1.93469 cumulative IPC: 1.93636 (Simulation time: 0 hr 1 min 12 sec) 
Heartbeat CPU  0 instructions:   37000001 cycles:   19108212 heartbeat IPC: 1.93557 cumulative IPC: 1.93634 (Simulation time: 0 hr 1 min 14 sec) 
Heartbeat CPU  0 instructions:   38000000 cycles:   19624555 heartbeat IPC: 1.93670 cumulative IPC: 1.93635 (Simulation time: 0 hr 1 min 16 sec) 
Heartbeat CPU  0 instructions:   39000002 cycles:   20141197 heartbeat IPC: 1.93558 cumulative IPC: 1.93633 (Simulation time: 0 hr 1 min 18 sec) 
Heartbeat CPU  0 instructions:   40000000 cycles:   20657170 heartbeat IPC: 1.93808 cumulative IPC: 1.93637 (Simulation time: 0 hr 1 min 20 sec) 
Heartbeat CPU  0 instructions:   41000000 cycles:   21173323 heartbeat IPC: 1.93741 cumulative IPC: 1.93640 (Simulation time: 0 hr 1 min 22 sec) 
Heartbeat CPU  0 instructions:   42000000 cycles:   21690049 heartbeat IPC: 1.93526 cumulative IPC: 1.93637 (Simulation time: 0 hr 1 min 25 sec) 
Heartbeat CPU  0 instructions:   43000003 cycles:   22205926 heartbeat IPC: 1.93845 cumulative IPC: 1.93642 (Simulation time: 0 hr 1 min 26 sec) 
Heartbeat CPU  0 instructions:   44000000 cycles:   22722010 heartbeat IPC: 1.93766 cumulative IPC: 1.93645 (Simulation time: 0 hr 1 min 29 sec) 
Heartbeat CPU  0 instructions:   45000003 cycles:   23238571 heartbeat IPC: 1.93589 cumulative IPC: 1.93644 (Simulation time: 0 hr 1 min 31 sec) 
Heartbeat CPU  0 instructions:   46000001 cycles:   23755235 heartbeat IPC: 1.93549 cumulative IPC: 1.93642 (Simulation time: 0 hr 1 min 33 sec) 
Heartbeat CPU  0 instructions:   47000000 cycles:   24271636 heartbeat IPC: 1.93648 cumulative IPC: 1.93642 (Simulation time: 0 hr 1 min 35 sec) 
Heartbeat CPU  0 instructions:   48000000 cycles:   24788180 heartbeat IPC: 1.93594 cumulative IPC: 1.93641 (Simulation time: 0 hr 1 min 37 sec) 
Heartbeat CPU  0 instructions:   49000000 cycles:   25304454 heartbeat IPC: 1.93696 cumulative IPC: 1.93642 (Simulation time: 0 hr 1 min 39 sec) 
Heartbeat CPU  0 instructions:   50000000 cycles:   25820500 heartbeat IPC: 1.93781 cumulative IPC: 1.93645 (Simulation time: 0 hr 1 min 41 sec) 
Heartbeat CPU  0 instructions:   51000003 cycles:   26336928 heartbeat IPC: 1.93638 cumulative IPC: 1.93644 (Simulation time: 0 hr 1 min 43 sec) 
Heartbeat CPU  0 instructions:   52000000 cycles:   26853662 heartbeat IPC: 1.93523 cumulative IPC: 1.93642 (Simulation time: 0 hr 1 min 45 sec) 
Heartbeat CPU  0 instructions:   53000001 cycles:   27370408 heartbeat IPC: 1.93519 cumulative IPC: 1.93640 (Simulation time: 0 hr 1 min 47 sec) 
Heartbeat CPU  0 instructions:   54000003 cycles:   27886830 heartbeat IPC: 1.93640 cumulative IPC: 1.93640 (Simulation time: 0 hr 1 min 49 sec) 
Heartbeat CPU  0 instructions:   55000003 cycles:   28403179 heartbeat IPC: 1.93667 cumulative IPC: 1.93640 (Simulation time: 0 hr 1 min 51 sec) 
Heartbeat CPU  0 instructions:   56000000 cycles:   28919226 heartbeat IPC: 1.93780 cumulative IPC: 1.93643 (Simulation time: 0 hr 1 min 53 sec) 
Heartbeat CPU  0 instructions:   57000002 cycles:   29460780 heartbeat IPC: 1.84654 cumulative IPC: 1.93478 (Simulation time: 0 hr 1 min 55 sec) 
Heartbeat CPU  0 instructions:   58000001 cycles:   30007295 heartbeat IPC: 1.82977 cumulative IPC: 1.93286 (Simulation time: 0 hr 1 min 57 sec) 
Heartbeat CPU  0 instructions:   59000001 cycles:   30553926 heartbeat IPC: 1.82939 cumulative IPC: 1.93101 (Simulation time: 0 hr 1 min 59 sec) 
Heartbeat CPU  0 instructions:   60000000 cycles:   31100790 heartbeat IPC: 1.82861 cumulative IPC: 1.92921 (Simulation time: 0 hr 2 min 1 sec) 
Heartbeat CPU  0 instructions:   61000003 cycles:   31647375 heartbeat IPC: 1.82955 cumulative IPC: 1.92749 (Simulation time: 0 hr 2 min 3 sec) 
Heartbeat CPU  0 instructions:   62000003 cycles:   32193838 heartbeat IPC: 1.82995 cumulative IPC: 1.92583 (Simulation time: 0 hr 2 min 5 sec) 
Heartbeat CPU  0 instructions:   63000003 cycles:   32740466 heartbeat IPC: 1.82940 cumulative IPC: 1.92422 (Simulation time: 0 hr 2 min 7 sec) 
Heartbeat CPU  0 instructions:   64000000 cycles:   33286899 heartbeat IPC: 1.83004 cumulative IPC: 1.92268 (Simulation time: 0 hr 2 min 9 sec) 
Heartbeat CPU  0 instructions:   65000002 cycles:   33829198 heartbeat IPC: 1.84400 cumulative IPC: 1.92142 (Simulation time: 0 hr 2 min 11 sec) 
Heartbeat CPU  0 instructions:   66000002 cycles:   34360205 heartbeat IPC: 1.88321 cumulative IPC: 1.92083 (Simulation time: 0 hr 2 min 13 sec) 
Heartbeat CPU  0 instructions:   67000001 cycles:   34891952 heartbeat IPC: 1.88059 cumulative IPC: 1.92021 (Simulation time: 0 hr 2 min 15 sec) 
Heartbeat CPU  0 instructions:   68000000 cycles:   35422965 heartbeat IPC: 1.88319 cumulative IPC: 1.91966 (Simulation time: 0 hr 2 min 17 sec) 
Heartbeat CPU  0 instructions:   69000003 cycles:   35954626 heartbeat IPC: 1.88090 cumulative IPC: 1.91909 (Simulation time: 0 hr 2 min 19 sec) 
Heartbeat CPU  0 instructions:   70000000 cycles:   36485709 heartbeat IPC: 1.88294 cumulative IPC: 1.91856 (Simulation time: 0 hr 2 min 21 sec) 
Heartbeat CPU  0 instructions:   71000001 cycles:   37017398 heartbeat IPC: 1.88080 cumulative IPC: 1.91802 (Simulation time: 0 hr 2 min 22 sec) 
Heartbeat CPU  0 instructions:   72000000 cycles:   37548428 heartbeat IPC: 1.88313 cumulative IPC: 1.91752 (Simulation time: 0 hr 2 min 24 sec) 
Heartbeat CPU  0 instructions:   73000000 cycles:   38080216 heartbeat IPC: 1.88045 cumulative IPC: 1.91701 (Simulation time: 0 hr 2 min 26 sec) 
Heartbeat CPU  0 instructions:   74000001 cycles:   38610471 heartbeat IPC: 1.88589 cumulative IPC: 1.91658 (Simulation time: 0 hr 2 min 28 sec) 
Heartbeat CPU  0 instructions:   75000002 cycles:   39139668 heartbeat IPC: 1.88966 cumulative IPC: 1.91621 (Simulation time: 0 hr 2 min 30 sec) 
Heartbeat CPU  0 instructions:   76000000 cycles:   39669240 heartbeat IPC: 1.88831 cumulative IPC: 1.91584 (Simulation time: 0 hr 2 min 32 sec) 
Heartbeat CPU  0 instructions:   77000003 cycles:   40198514 heartbeat IPC: 1.88939 cumulative IPC: 1.91549 (Simulation time: 0 hr 2 min 34 sec) 
Heartbeat CPU  0 instructions:   78000002 cycles:   40728092 heartbeat IPC: 1.88829 cumulative IPC: 1.91514 (Simulation time: 0 hr 2 min 36 sec) 
Heartbeat CPU  0 instructions:   79000000 cycles:   41257299 heartbeat IPC: 1.88962 cumulative IPC: 1.91481 (Simulation time: 0 hr 2 min 38 sec) 
Heartbeat CPU  0 instructions:   80000000 cycles:   41786868 heartbeat IPC: 1.88833 cumulative IPC: 1.91448 (Simulation time: 0 hr 2 min 40 sec) 
Heartbeat CPU  0 instructions:   81000003 cycles:   42316129 heartbeat IPC: 1.88943 cumulative IPC: 1.91416 (Simulation time: 0 hr 2 min 42 sec) 
Heartbeat CPU  0 instructions:   82000003 cycles:   42845742 heartbeat IPC: 1.88817 cumulative IPC: 1.91384 (Simulation time: 0 hr 2 min 44 sec) 
Heartbeat CPU  0 instructions:   83000000 cycles:   43433601 heartbeat IPC: 1.70108 cumulative IPC: 1.91096 (Simulation time: 0 hr 2 min 46 sec) 
Heartbeat CPU  0 instructions:   84000000 cycles:   44043004 heartbeat IPC: 1.64095 cumulative IPC: 1.90723 (Simulation time: 0 hr 2 min 49 sec) 
Heartbeat CPU  0 instructions:   85000001 cycles:   44652668 heartbeat IPC: 1.64025 cumulative IPC: 1.90358 (Simulation time: 0 hr 2 min 51 sec) 
Heartbeat CPU  0 instructions:   86000001 cycles:   45262171 heartbeat IPC: 1.64068 cumulative IPC: 1.90004 (Simulation time: 0 hr 2 min 54 sec) 
Heartbeat CPU  0 instructions:   87000002 cycles:   45871862 heartbeat IPC: 1.64018 cumulative IPC: 1.89659 (Simulation time: 0 hr 2 min 56 sec) 
Heartbeat CPU  0 instructions:   88000000 cycles:   46481577 heartbeat IPC: 1.64011 cumulative IPC: 1.89322 (Simulation time: 0 hr 2 min 58 sec) 
Heartbeat CPU  0 instructions:   89000002 cycles:   47091417 heartbeat IPC: 1.63978 cumulative IPC: 1.88994 (Simulation time: 0 hr 3 min 1 sec) 
Heartbeat CPU  0 instructions:   90000003 cycles:   47701028 heartbeat IPC: 1.64039 cumulative IPC: 1.88675 (Simulation time: 0 hr 3 min 3 sec) 
Heartbeat CPU  0 instructions:   91000000 cycles:   48310726 heartbeat IPC: 1.64015 cumulative IPC: 1.88364 (Simulation time: 0 hr 3 min 6 sec) 
Heartbeat CPU  0 instructions:   92000000 cycles:   48920286 heartbeat IPC: 1.64053 cumulative IPC: 1.88061 (Simulation time: 0 hr 3 min 8 sec) 
Heartbeat CPU  0 instructions:   93000000 cycles:   49529966 heartbeat IPC: 1.64020 cumulative IPC: 1.87765 (Simulation time: 0 hr 3 min 10 sec) 
Heartbeat CPU  0 instructions:   94000001 cycles:   50139605 heartbeat IPC: 1.64032 cumulative IPC: 1.87477 (Simulation time: 0 hr 3 min 13 sec) 
Heartbeat CPU  0 instructions:   95000003 cycles:   50749183 heartbeat IPC: 1.64048 cumulative IPC: 1.87195 (Simulation time: 0 hr 3 min 15 sec) 
Heartbeat CPU  0 instructions:   96000000 cycles:   51358996 heartbeat IPC: 1.63984 cumulative IPC: 1.86920 (Simulation time: 0 hr 3 min 18 sec) 
Heartbeat CPU  0 instructions:   97000000 cycles:   51968811 heartbeat IPC: 1.63984 cumulative IPC: 1.86650 (Simulation time: 0 hr 3 min 20 sec) 
Heartbeat CPU  0 instructions:   98000002 cycles:   52578509 heartbeat IPC: 1.64016 cumulative IPC: 1.86388 (Simulation time: 0 hr 3 min 22 sec) 
Heartbeat CPU  0 instructions:   99000003 cycles:   53188125 heartbeat IPC: 1.64038 cumulative IPC: 1.86132 (Simulation time: 0 hr 3 min 25 sec) 
Heartbeat CPU  0 instructions:  100000000 cycles:   53797658 heartbeat IPC: 1.64060 cumulative IPC: 1.85882 (Simulation time: 0 hr 3 min 27 sec) 

Warmup complete CPU  0 instructions:  100000002 cycles:   53797659 (Simulation time: 0 hr 3 min 27 sec) 

Heartbeat CPU  0 instructions:  101000003 cycles:   55838412 heartbeat IPC: 0.49002 cumulative IPC: 0.49002 (Simulation time: 0 hr 3 min 31 sec) 
Heartbeat CPU  0 instructions:  102000000 cycles:   57903954 heartbeat IPC: 0.48413 cumulative IPC: 0.48706 (Simulation time: 0 hr 3 min 34 sec) 
Heartbeat CPU  0 instructions:  103000000 cycles:   59965129 heartbeat IPC: 0.48516 cumulative IPC: 0.48642 (Simulation time: 0 hr 3 min 37 sec) 
Heartbeat CPU  0 instructions:  104000000 cycles:   62050343 heartbeat IPC: 0.47957 cumulative IPC: 0.48469 (Simulation time: 0 hr 3 min 41 sec) 
Heartbeat CPU  0 instructions:  105000001 cycles:   64120775 heartbeat IPC: 0.48299 cumulative IPC: 0.48435 (Simulation time: 0 hr 3 min 44 sec) 
Heartbeat CPU  0 instructions:  106000001 cycles:   66184328 heartbeat IPC: 0.48460 cumulative IPC: 0.48439 (Simulation time: 0 hr 3 min 47 sec) 
Heartbeat CPU  0 instructions:  107000002 cycles:   68254715 heartbeat IPC: 0.48300 cumulative IPC: 0.48419 (Simulation time: 0 hr 3 min 50 sec) 
Heartbeat CPU  0 instructions:  108000000 cycles:   70341649 heartbeat IPC: 0.47917 cumulative IPC: 0.48356 (Simulation time: 0 hr 3 min 54 sec) 
Heartbeat CPU  0 instructions:  109000002 cycles:   72443019 heartbeat IPC: 0.47588 cumulative IPC: 0.48269 (Simulation time: 0 hr 3 min 57 sec) 
Heartbeat CPU  0 instructions:  110000003 cycles:   74527073 heartbeat IPC: 0.47983 cumulative IPC: 0.48241 (Simulation time: 0 hr 4 min 0 sec) 
Heartbeat CPU  0 instructions:  111000000 cycles:   76599924 heartbeat IPC: 0.48243 cumulative IPC: 0.48241 (Simulation time: 0 hr 4 min 4 sec) 
Heartbeat CPU  0 instructions:  112000000 cycles:   78712601 heartbeat IPC: 0.47333 cumulative IPC: 0.48164 (Simulation time: 0 hr 4 min 7 sec) 
Heartbeat CPU  0 instructions:  113000000 cycles:   80815070 heartbeat IPC: 0.47563 cumulative IPC: 0.48117 (Simulation time: 0 hr 4 min 11 sec) 
Heartbeat CPU  0 instructions:  114000001 cycles:   82934604 heartbeat IPC: 0.47180 cumulative IPC: 0.48049 (Simulation time: 0 hr 4 min 14 sec) 
Heartbeat CPU  0 instructions:  115000002 cycles:   85025764 heartbeat IPC: 0.47820 cumulative IPC: 0.48034 (Simulation time: 0 hr 4 min 17 sec) 
Heartbeat CPU  0 instructions:  116000000 cycles:   87131432 heartbeat IPC: 0.47491 cumulative IPC: 0.47999 (Simulation time: 0 hr 4 min 21 sec) 
Heartbeat CPU  0 instructions:  117000001 cycles:   89207438 heartbeat IPC: 0.48169 cumulative IPC: 0.48009 (Simulation time: 0 hr 4 min 24 sec) 
Heartbeat CPU  0 instructions:  118000002 cycles:   91286765 heartbeat IPC: 0.48093 cumulative IPC: 0.48014 (Simulation time: 0 hr 4 min 27 sec) 
Heartbeat CPU  0 instructions:  119000003 cycles:   93373166 heartbeat IPC: 0.47929 cumulative IPC: 0.48009 (Simulation time: 0 hr 4 min 31 sec) 
Heartbeat CPU  0 instructions:  120000000 cycles:   95448377 heartbeat IPC: 0.48188 cumulative IPC: 0.48018 (Simulation time: 0 hr 4 min 34 sec) 
Heartbeat CPU  0 instructions:  121000003 cycles:   97173703 heartbeat IPC: 0.57960 cumulative IPC: 0.48414 (Simulation time: 0 hr 4 min 37 sec) 
Heartbeat CPU  0 instructions:  122000001 cycles:   98714645 heartbeat IPC: 0.64895 cumulative IPC: 0.48979 (Simulation time: 0 hr 4 min 40 sec) 
Heartbeat CPU  0 instructions:  123000002 cycles:  100217910 heartbeat IPC: 0.66522 cumulative IPC: 0.49547 (Simulation time: 0 hr 4 min 43 sec) 
Heartbeat CPU  0 instructions:  124000000 cycles:  101755991 heartbeat IPC: 0.65016 cumulative IPC: 0.50043 (Simulation time: 0 hr 4 min 46 sec) 
Heartbeat CPU  0 instructions:  125000000 cycles:  103266073 heartbeat IPC: 0.66222 cumulative IPC: 0.50537 (Simulation time: 0 hr 4 min 48 sec) 
Heartbeat CPU  0 instructions:  126000001 cycles:  104776954 heartbeat IPC: 0.66187 cumulative IPC: 0.51001 (Simulation time: 0 hr 4 min 51 sec) 
Heartbeat CPU  0 instructions:  127000002 cycles:  106242809 heartbeat IPC: 0.68220 cumulative IPC: 0.51482 (Simulation time: 0 hr 4 min 54 sec) 
Heartbeat CPU  0 instructions:  128000000 cycles:  107673982 heartbeat IPC: 0.69873 cumulative IPC: 0.51971 (Simulation time: 0 hr 4 min 57 sec) 
Heartbeat CPU  0 instructions:  129000003 cycles:  109124098 heartbeat IPC: 0.68960 cumulative IPC: 0.52416 (Simulation time: 0 hr 4 min 59 sec) 
Heartbeat CPU  0 instructions:  130000003 cycles:  110561942 heartbeat IPC: 0.69549 cumulative IPC: 0.52850 (Simulation time: 0 hr 5 min 2 sec) 
Heartbeat CPU  0 instructions:  131000000 cycles:  112022309 heartbeat IPC: 0.68476 cumulative IPC: 0.53242 (Simulation time: 0 hr 5 min 5 sec) 
Heartbeat CPU  0 instructions:  132000000 cycles:  113371618 heartbeat IPC: 0.74112 cumulative IPC: 0.53715 (Simulation time: 0 hr 5 min 7 sec) 
Heartbeat CPU  0 instructions:  133000002 cycles:  114615392 heartbeat IPC: 0.80401 cumulative IPC: 0.54260 (Simulation time: 0 hr 5 min 10 sec) 
Heartbeat CPU  0 instructions:  134000000 cycles:  115843533 heartbeat IPC: 0.81424 cumulative IPC: 0.54798 (Simulation time: 0 hr 5 min 13 sec) 
Heartbeat CPU  0 instructions:  135000000 cycles:  117043642 heartbeat IPC: 0.83326 cumulative IPC: 0.55339 (Simulation time: 0 hr 5 min 15 sec) 
Heartbeat CPU  0 instructions:  136000000 cycles:  118233364 heartbeat IPC: 0.84053 cumulative IPC: 0.55870 (Simulation time: 0 hr 5 min 18 sec) 
Heartbeat CPU  0 instructions:  137000000 cycles:  119479712 heartbeat IPC: 0.80234 cumulative IPC: 0.56332 (Simulation time: 0 hr 5 min 20 sec) 
Heartbeat CPU  0 instructions:  138000003 cycles:  120872622 heartbeat IPC: 0.71792 cumulative IPC: 0.56653 (Simulation time: 0 hr 5 min 23 sec) 
Heartbeat CPU  0 instructions:  139000000 cycles:  122321269 heartbeat IPC: 0.69030 cumulative IPC: 0.56915 (Simulation time: 0 hr 5 min 26 sec) 
Heartbeat CPU  0 instructions:  140000000 cycles:  123764123 heartbeat IPC: 0.69307 cumulative IPC: 0.57170 (Simulation time: 0 hr 5 min 29 sec) 
Heartbeat CPU  0 instructions:  141000000 cycles:  125196058 heartbeat IPC: 0.69836 cumulative IPC: 0.57424 (Simulation time: 0 hr 5 min 31 sec) 
Heartbeat CPU  0 instructions:  142000000 cycles:  126605159 heartbeat IPC: 0.70967 cumulative IPC: 0.57686 (Simulation time: 0 hr 5 min 34 sec) 
Heartbeat CPU  0 instructions:  143000001 cycles:  127936257 heartbeat IPC: 0.75126 cumulative IPC: 0.57999 (Simulation time: 0 hr 5 min 37 sec) 
Heartbeat CPU  0 instructions:  144000000 cycles:  129228103 heartbeat IPC: 0.77409 cumulative IPC: 0.58332 (Simulation time: 0 hr 5 min 39 sec) 
Heartbeat CPU  0 instructions:  145000003 cycles:  130503089 heartbeat IPC: 0.78432 cumulative IPC: 0.58666 (Simulation time: 0 hr 5 min 42 sec) 
Heartbeat CPU  0 instructions:  146000001 cycles:  131786734 heartbeat IPC: 0.77903 cumulative IPC: 0.58983 (Simulation time: 0 hr 5 min 45 sec) 
Heartbeat CPU  0 instructions:  147000002 cycles:  133076034 heartbeat IPC: 0.77562 cumulative IPC: 0.59285 (Simulation time: 0 hr 5 min 47 sec) 
Heartbeat CPU  0 instructions:  148000000 cycles:  134461029 heartbeat IPC: 0.72202 cumulative IPC: 0.59507 (Simulation time: 0 hr 5 min 50 sec) 
Heartbeat CPU  0 instructions:  149000000 cycles:  135911672 heartbeat IPC: 0.68935 cumulative IPC: 0.59673 (Simulation time: 0 hr 5 min 53 sec) 
Heartbeat CPU  0 instructions:  150000000 cycles:  137377045 heartbeat IPC: 0.68242 cumulative IPC: 0.59823 (Simulation time: 0 hr 5 min 56 sec) 
Heartbeat CPU  0 instructions:  151000001 cycles:  138809770 heartbeat IPC: 0.69797 cumulative IPC: 0.59991 (Simulation time: 0 hr 5 min 58 sec) 
Heartbeat CPU  0 instructions:  152000000 cycles:  140283189 heartbeat IPC: 0.67869 cumulative IPC: 0.60126 (Simulation time: 0 hr 6 min 1 sec) 
Heartbeat CPU  0 instructions:  153000001 cycles:  141665255 heartbeat IPC: 0.72356 cumulative IPC: 0.60318 (Simulation time: 0 hr 6 min 4 sec) 
Heartbeat CPU  0 instructions:  154000003 cycles:  143052113 heartbeat IPC: 0.72106 cumulative IPC: 0.60501 (Simulation time: 0 hr 6 min 6 sec) 
Heartbeat CPU  0 instructions:  155000003 cycles:  144411978 heartbeat IPC: 0.73537 cumulative IPC: 0.60697 (Simulation time: 0 hr 6 min 9 sec) 
Heartbeat CPU  0 instructions:  156000000 cycles:  145787763 heartbeat IPC: 0.72686 cumulative IPC: 0.60876 (Simulation time: 0 hr 6 min 12 sec) 
Heartbeat CPU  0 instructions:  157000000 cycles:  147154782 heartbeat IPC: 0.73152 cumulative IPC: 0.61056 (Simulation time: 0 hr 6 min 15 sec) 
Heartbeat CPU  0 instructions:  158000002 cycles:  148532896 heartbeat IPC: 0.72563 cumulative IPC: 0.61223 (Simulation time: 0 hr 6 min 17 sec) 
Heartbeat CPU  0 instructions:  159000002 cycles:  149974707 heartbeat IPC: 0.69357 cumulative IPC: 0.61345 (Simulation time: 0 hr 6 min 20 sec) 
Heartbeat CPU  0 instructions:  160000000 cycles:  151418209 heartbeat IPC: 0.69276 cumulative IPC: 0.61462 (Simulation time: 0 hr 6 min 23 sec) 
Heartbeat CPU  0 instructions:  161000003 cycles:  152893447 heartbeat IPC: 0.67786 cumulative IPC: 0.61557 (Simulation time: 0 hr 6 min 25 sec) 
Heartbeat CPU  0 instructions:  162000000 cycles:  154325618 heartbeat IPC: 0.69824 cumulative IPC: 0.61674 (Simulation time: 0 hr 6 min 28 sec) 
Heartbeat CPU  0 instructions:  163000001 cycles:  155808400 heartbeat IPC: 0.67441 cumulative IPC: 0.61758 (Simulation time: 0 hr 6 min 31 sec) 
Heartbeat CPU  0 instructions:  164000000 cycles:  157215222 heartbeat IPC: 0.71082 cumulative IPC: 0.61885 (Simulation time: 0 hr 6 min 34 sec) 
Heartbeat CPU  0 instructions:  165000001 cycles:  158622893 heartbeat IPC: 0.71039 cumulative IPC: 0.62008 (Simulation time: 0 hr 6 min 36 sec) 
Heartbeat CPU  0 instructions:  166000003 cycles:  160021959 heartbeat IPC: 0.71476 cumulative IPC: 0.62133 (Simulation time: 0 hr 6 min 39 sec) 
Heartbeat CPU  0 instructions:  167000001 cycles:  161445066 heartbeat IPC: 0.70269 cumulative IPC: 0.62240 (Simulation time: 0 hr 6 min 42 sec) 
Heartbeat CPU  0 instructions:  168000000 cycles:  162855026 heartbeat IPC: 0.70924 cumulative IPC: 0.62353 (Simulation time: 0 hr 6 min 45 sec) 
Heartbeat CPU  0 instructions:  169000001 cycles:  164284741 heartbeat IPC: 0.69944 cumulative IPC: 0.62451 (Simulation time: 0 hr 6 min 47 sec) 
Heartbeat CPU  0 instructions:  170000000 cycles:  165711982 heartbeat IPC: 0.70065 cumulative IPC: 0.62548 (Simulation time: 0 hr 6 min 50 sec) 
Heartbeat CPU  0 instructions:  171000000 cycles:  167173087 heartbeat IPC: 0.68441 cumulative IPC: 0.62624 (Simulation time: 0 hr 6 min 53 sec) 
Heartbeat CPU  0 instructions:  172000000 cycles:  168631629 heartbeat IPC: 0.68562 cumulative IPC: 0.62699 (Simulation time: 0 hr 6 min 56 sec) 
Heartbeat CPU  0 instructions:  173000002 cycles:  170099692 heartbeat IPC: 0.68117 cumulative IPC: 0.62768 (Simulation time: 0 hr 6 min 58 sec) 
Heartbeat CPU  0 instructions:  174000002 cycles:  171562065 heartbeat IPC: 0.68382 cumulative IPC: 0.62837 (Simulation time: 0 hr 7 min 1 sec) 
Heartbeat CPU  0 instructions:  175000000 cycles:  172997473 heartbeat IPC: 0.69666 cumulative IPC: 0.62920 (Simulation time: 0 hr 7 min 4 sec) 
Heartbeat CPU  0 instructions:  176000000 cycles:  174461697 heartbeat IPC: 0.68296 cumulative IPC: 0.62985 (Simulation time: 0 hr 7 min 6 sec) 
Heartbeat CPU  0 instructions:  177000001 cycles:  175912969 heartbeat IPC: 0.68905 cumulative IPC: 0.63055 (Simulation time: 0 hr 7 min 9 sec) 
Heartbeat CPU  0 instructions:  178000002 cycles:  177375594 heartbeat IPC: 0.68370 cumulative IPC: 0.63118 (Simulation time: 0 hr 7 min 12 sec) 
Heartbeat CPU  0 instructions:  179000001 cycles:  178822898 heartbeat IPC: 0.69094 cumulative IPC: 0.63187 (Simulation time: 0 hr 7 min 15 sec) 
Heartbeat CPU  0 instructions:  180000000 cycles:  180292210 heartbeat IPC: 0.68059 cumulative IPC: 0.63244 (Simulation time: 0 hr 7 min 17 sec) 
Heartbeat CPU  0 instructions:  181000000 cycles:  181740224 heartbeat IPC: 0.69060 cumulative IPC: 0.63310 (Simulation time: 0 hr 7 min 20 sec) 
Heartbeat CPU  0 instructions:  182000000 cycles:  183197828 heartbeat IPC: 0.68606 cumulative IPC: 0.63369 (Simulation time: 0 hr 7 min 23 sec) 
Heartbeat CPU  0 instructions:  183000003 cycles:  184641020 heartbeat IPC: 0.69291 cumulative IPC: 0.63435 (Simulation time: 0 hr 7 min 26 sec) 
Heartbeat CPU  0 instructions:  184000000 cycles:  186128467 heartbeat IPC: 0.67229 cumulative IPC: 0.63477 (Simulation time: 0 hr 7 min 28 sec) 
Heartbeat CPU  0 instructions:  185000002 cycles:  187564508 heartbeat IPC: 0.69636 cumulative IPC: 0.63543 (Simulation time: 0 hr 7 min 31 sec) 
Heartbeat CPU  0 instructions:  186000003 cycles:  189022063 heartbeat IPC: 0.68608 cumulative IPC: 0.63598 (Simulation time: 0 hr 7 min 34 sec) 
Heartbeat CPU  0 instructions:  187000003 cycles:  190481473 heartbeat IPC: 0.68521 cumulative IPC: 0.63651 (Simulation time: 0 hr 7 min 36 sec) 
Heartbeat CPU  0 instructions:  188000000 cycles:  191928097 heartbeat IPC: 0.69126 cumulative IPC: 0.63708 (Simulation time: 0 hr 7 min 39 sec) 
Heartbeat CPU  0 instructions:  189000001 cycles:  193391188 heartbeat IPC: 0.68349 cumulative IPC: 0.63757 (Simulation time: 0 hr 7 min 42 sec) 
Heartbeat CPU  0 instructions:  190000003 cycles:  194833173 heartbeat IPC: 0.69349 cumulative IPC: 0.63814 (Simulation time: 0 hr 7 min 45 sec) 
Heartbeat CPU  0 instructions:  191000001 cycles:  196291385 heartbeat IPC: 0.68577 cumulative IPC: 0.63862 (Simulation time: 0 hr 7 min 48 sec) 
Heartbeat CPU  0 instructions:  192000000 cycles:  197742015 heartbeat IPC: 0.68935 cumulative IPC: 0.63914 (Simulation time: 0 hr 7 min 50 sec) 
Heartbeat CPU  0 instructions:  193000000 cycles:  199212400 heartbeat IPC: 0.68009 cumulative IPC: 0.63955 (Simulation time: 0 hr 7 min 53 sec) 
Heartbeat CPU  0 instructions:  194000003 cycles:  200688331 heartbeat IPC: 0.67754 cumulative IPC: 0.63993 (Simulation time: 0 hr 7 min 56 sec) 
Heartbeat CPU  0 instructions:  195000002 cycles:  202156029 heartbeat IPC: 0.68134 cumulative IPC: 0.64034 (Simulation time: 0 hr 7 min 59 sec) 
Heartbeat CPU  0 instructions:  196000000 cycles:  203601756 heartbeat IPC: 0.69169 cumulative IPC: 0.64084 (Simulation time: 0 hr 8 min 1 sec) 
Heartbeat CPU  0 instructions:  197000000 cycles:  205063661 heartbeat IPC: 0.68404 cumulative IPC: 0.64125 (Simulation time: 0 hr 8 min 4 sec) 
Heartbeat CPU  0 instructions:  198000001 cycles:  206502267 heartbeat IPC: 0.69512 cumulative IPC: 0.64176 (Simulation time: 0 hr 8 min 7 sec) 
Heartbeat CPU  0 instructions:  199000003 cycles:  207960378 heartbeat IPC: 0.68582 cumulative IPC: 0.64218 (Simulation time: 0 hr 8 min 9 sec) 
Heartbeat CPU  0 instructions:  200000000 cycles:  209402872 heartbeat IPC: 0.69324 cumulative IPC: 0.64265 (Simulation time: 0 hr 8 min 12 sec) 
Heartbeat CPU  0 instructions:  201000002 cycles:  210864286 heartbeat IPC: 0.68427 cumulative IPC: 0.64304 (Simulation time: 0 hr 8 min 15 sec) 
Heartbeat CPU  0 instructions:  202000000 cycles:  212328533 heartbeat IPC: 0.68294 cumulative IPC: 0.64341 (Simulation time: 0 hr 8 min 18 sec) 
Heartbeat CPU  0 instructions:  203000000 cycles:  213767056 heartbeat IPC: 0.69516 cumulative IPC: 0.64387 (Simulation time: 0 hr 8 min 20 sec) 
Heartbeat CPU  0 instructions:  204000000 cycles:  215224934 heartbeat IPC: 0.68593 cumulative IPC: 0.64425 (Simulation time: 0 hr 8 min 23 sec) 
Heartbeat CPU  0 instructions:  205000000 cycles:  216711976 heartbeat IPC: 0.67248 cumulative IPC: 0.64451 (Simulation time: 0 hr 8 min 26 sec) 
Heartbeat CPU  0 instructions:  206000000 cycles:  218170272 heartbeat IPC: 0.68573 cumulative IPC: 0.64488 (Simulation time: 0 hr 8 min 28 sec) 
Heartbeat CPU  0 instructions:  207000003 cycles:  219619260 heartbeat IPC: 0.69014 cumulative IPC: 0.64527 (Simulation time: 0 hr 8 min 31 sec) 
Heartbeat CPU  0 instructions:  208000000 cycles:  221092797 heartbeat IPC: 0.67864 cumulative IPC: 0.64557 (Simulation time: 0 hr 8 min 34 sec) 
Heartbeat CPU  0 instructions:  209000000 cycles:  222535715 heartbeat IPC: 0.69304 cumulative IPC: 0.64597 (Simulation time: 0 hr 8 min 37 sec) 
Heartbeat CPU  0 instructions:  210000003 cycles:  223997403 heartbeat IPC: 0.68414 cumulative IPC: 0.64630 (Simulation time: 0 hr 8 min 40 sec) 
Heartbeat CPU  0 instructions:  211000002 cycles:  225435392 heartbeat IPC: 0.69541 cumulative IPC: 0.64671 (Simulation time: 0 hr 8 min 42 sec) 
Heartbeat CPU  0 instructions:  212000000 cycles:  226893963 heartbeat IPC: 0.68560 cumulative IPC: 0.64704 (Simulation time: 0 hr 8 min 45 sec) 
Heartbeat CPU  0 instructions:  213000002 cycles:  228335497 heartbeat IPC: 0.69371 cumulative IPC: 0.64742 (Simulation time: 0 hr 8 min 48 sec) 
Heartbeat CPU  0 instructions:  214000003 cycles:  229779774 heartbeat IPC: 0.69239 cumulative IPC: 0.64779 (Simulation time: 0 hr 8 min 50 sec) 
Heartbeat CPU  0 instructions:  215000002 cycles:  231259834 heartbeat IPC: 0.67565 cumulative IPC: 0.64803 (Simulation time: 0 hr 8 min 53 sec) 
Heartbeat CPU  0 instructions:  216000000 cycles:  232711709 heartbeat IPC: 0.68876 cumulative IPC: 0.64836 (Simulation time: 0 hr 8 min 56 sec) 
Heartbeat CPU  0 instructions:  217000002 cycles:  234165251 heartbeat IPC: 0.68798 cumulative IPC: 0.64868 (Simulation time: 0 hr 8 min 59 sec) 
Heartbeat CPU  0 instructions:  218000000 cycles:  235609539 heartbeat IPC: 0.69238 cumulative IPC: 0.64902 (Simulation time: 0 hr 9 min 1 sec) 
Heartbeat CPU  0 instructions:  219000002 cycles:  237063931 heartbeat IPC: 0.68757 cumulative IPC: 0.64933 (Simulation time: 0 hr 9 min 4 sec) 
Heartbeat CPU  0 instructions:  220000000 cycles:  238499847 heartbeat IPC: 0.69642 cumulative IPC: 0.64969 (Simulation time: 0 hr 9 min 7 sec) 
Heartbeat CPU  0 instructions:  221000002 cycles:  239952613 heartbeat IPC: 0.68834 cumulative IPC: 0.65000 (Simulation time: 0 hr 9 min 10 sec) 
Heartbeat CPU  0 instructions:  222000000 cycles:  241406470 heartbeat IPC: 0.68782 cumulative IPC: 0.65029 (Simulation time: 0 hr 9 min 12 sec) 
Heartbeat CPU  0 instructions:  223000002 cycles:  242875169 heartbeat IPC: 0.68088 cumulative IPC: 0.65053 (Simulation time: 0 hr 9 min 15 sec) 
Heartbeat CPU  0 instructions:  224000000 cycles:  244318853 heartbeat IPC: 0.69267 cumulative IPC: 0.65085 (Simulation time: 0 hr 9 min 18 sec) 
Heartbeat CPU  0 instructions:  225000000 cycles:  245807406 heartbeat IPC: 0.67179 cumulative IPC: 0.65101 (Simulation time: 0 hr 9 min 21 sec) 
Heartbeat CPU  0 instructions:  226000000 cycles:  247246442 heartbeat IPC: 0.69491 cumulative IPC: 0.65134 (Simulation time: 0 hr 9 min 23 sec) 
Heartbeat CPU  0 instructions:  227000001 cycles:  248709628 heartbeat IPC: 0.68344 cumulative IPC: 0.65158 (Simulation time: 0 hr 9 min 26 sec) 
Heartbeat CPU  0 instructions:  228000000 cycles:  250137479 heartbeat IPC: 0.70035 cumulative IPC: 0.65193 (Simulation time: 0 hr 9 min 29 sec) 
Heartbeat CPU  0 instructions:  229000001 cycles:  251587229 heartbeat IPC: 0.68977 cumulative IPC: 0.65221 (Simulation time: 0 hr 9 min 32 sec) 
Heartbeat CPU  0 instructions:  230000001 cycles:  253027809 heartbeat IPC: 0.69416 cumulative IPC: 0.65251 (Simulation time: 0 hr 9 min 34 sec) 
Heartbeat CPU  0 instructions:  231000002 cycles:  254478744 heartbeat IPC: 0.68921 cumulative IPC: 0.65278 (Simulation time: 0 hr 9 min 37 sec) 
Heartbeat CPU  0 instructions:  232000000 cycles:  255937466 heartbeat IPC: 0.68553 cumulative IPC: 0.65301 (Simulation time: 0 hr 9 min 40 sec) 
Heartbeat CPU  0 instructions:  233000000 cycles:  257372839 heartbeat IPC: 0.69668 cumulative IPC: 0.65332 (Simulation time: 0 hr 9 min 43 sec) 
Heartbeat CPU  0 instructions:  234000001 cycles:  258825670 heartbeat IPC: 0.68831 cumulative IPC: 0.65357 (Simulation time: 0 hr 9 min 45 sec) 
Heartbeat CPU  0 instructions:  235000001 cycles:  260265132 heartbeat IPC: 0.69470 cumulative IPC: 0.65386 (Simulation time: 0 hr 9 min 48 sec) 
Heartbeat CPU  0 instructions:  236000000 cycles:  261749934 heartbeat IPC: 0.67349 cumulative IPC: 0.65400 (Simulation time: 0 hr 9 min 51 sec) 
Heartbeat CPU  0 instructions:  237000000 cycles:  263184108 heartbeat IPC: 0.69727 cumulative IPC: 0.65429 (Simulation time: 0 hr 9 min 54 sec) 
Heartbeat CPU  0 instructions:  238000000 cycles:  264644557 heartbeat IPC: 0.68472 cumulative IPC: 0.65450 (Simulation time: 0 hr 9 min 56 sec) 
Heartbeat CPU  0 instructions:  239000003 cycles:  266081115 heartbeat IPC: 0.69611 cumulative IPC: 0.65478 (Simulation time: 0 hr 9 min 59 sec) 
Heartbeat CPU  0 instructions:  240000000 cycles:  267542092 heartbeat IPC: 0.68447 cumulative IPC: 0.65499 (Simulation time: 0 hr 10 min 2 sec) 
Heartbeat CPU  0 instructions:  241000001 cycles:  268983214 heartbeat IPC: 0.69390 cumulative IPC: 0.65525 (Simulation time: 0 hr 10 min 5 sec) 
Heartbeat CPU  0 instructions:  242000001 cycles:  270445430 heartbeat IPC: 0.68389 cumulative IPC: 0.65544 (Simulation time: 0 hr 10 min 7 sec) 
Heartbeat CPU  0 instructions:  243000001 cycles:  271876044 heartbeat IPC: 0.69900 cumulative IPC: 0.65573 (Simulation time: 0 hr 10 min 10 sec) 
Heartbeat CPU  0 instructions:  244000000 cycles:  273334534 heartbeat IPC: 0.68564 cumulative IPC: 0.65593 (Simulation time: 0 hr 10 min 13 sec) 
Heartbeat CPU  0 instructions:  245000002 cycles:  274775186 heartbeat IPC: 0.69413 cumulative IPC: 0.65618 (Simulation time: 0 hr 10 min 15 sec) 
Heartbeat CPU  0 instructions:  246000003 cycles:  276254804 heartbeat IPC: 0.67585 cumulative IPC: 0.65631 (Simulation time: 0 hr 10 min 18 sec) 
Heartbeat CPU  0 instructions:  247000003 cycles:  277712057 heartbeat IPC: 0.68622 cumulative IPC: 0.65650 (Simulation time: 0 hr 10 min 21 sec) 
Heartbeat CPU  0 instructions:  248000000 cycles:  279165896 heartbeat IPC: 0.68783 cumulative IPC: 0.65670 (Simulation time: 0 hr 10 min 24 sec) 
Heartbeat CPU  0 instructions:  249000003 cycles:  280615986 heartbeat IPC: 0.68961 cumulative IPC: 0.65691 (Simulation time: 0 hr 10 min 26 sec) 
Heartbeat CPU  0 instructions:  250000000 cycles:  282044104 heartbeat IPC: 0.70022 cumulative IPC: 0.65718 (Simulation time: 0 hr 10 min 29 sec) 
Heartbeat CPU  0 instructions:  251000003 cycles:  283504296 heartbeat IPC: 0.68484 cumulative IPC: 0.65736 (Simulation time: 0 hr 10 min 32 sec) 
Heartbeat CPU  0 instructions:  252000000 cycles:  284941644 heartbeat IPC: 0.69572 cumulative IPC: 0.65760 (Simulation time: 0 hr 10 min 35 sec) 
Heartbeat CPU  0 instructions:  253000001 cycles:  286411058 heartbeat IPC: 0.68054 cumulative IPC: 0.65774 (Simulation time: 0 hr 10 min 37 sec) 
Heartbeat CPU  0 instructions:  254000000 cycles:  287854629 heartbeat IPC: 0.69273 cumulative IPC: 0.65796 (Simulation time: 0 hr 10 min 40 sec) 
Heartbeat CPU  0 instructions:  255000002 cycles:  289322294 heartbeat IPC: 0.68136 cumulative IPC: 0.65811 (Simulation time: 0 hr 10 min 43 sec) 
Heartbeat CPU  0 instructions:  256000000 cycles:  290759813 heartbeat IPC: 0.69564 cumulative IPC: 0.65833 (Simulation time: 0 hr 10 min 46 sec) 
Heartbeat CPU  0 instructions:  257000002 cycles:  292262632 heartbeat IPC: 0.66542 cumulative IPC: 0.65838 (Simulation time: 0 hr 10 min 48 sec) 
Heartbeat CPU  0 instructions:  258000003 cycles:  293690773 heartbeat IPC: 0.70021 cumulative IPC: 0.65863 (Simulation time: 0 hr 10 min 51 sec) 
Heartbeat CPU  0 instructions:  259000002 cycles:  295147158 heartbeat IPC: 0.68663 cumulative IPC: 0.65880 (Simulation time: 0 hr 10 min 54 sec) 
Heartbeat CPU  0 instructions:  260000000 cycles:  296586079 heartbeat IPC: 0.69496 cumulative IPC: 0.65901 (Simulation time: 0 hr 10 min 56 sec) 
Heartbeat CPU  0 instructions:  261000001 cycles:  298035368 heartbeat IPC: 0.68999 cumulative IPC: 0.65919 (Simulation time: 0 hr 10 min 59 sec) 
Heartbeat CPU  0 instructions:  262000002 cycles:  299479727 heartbeat IPC: 0.69235 cumulative IPC: 0.65939 (Simulation time: 0 hr 11 min 2 sec) 
Heartbeat CPU  0 instructions:  263000001 cycles:  300920617 heartbeat IPC: 0.69401 cumulative IPC: 0.65959 (Simulation time: 0 hr 11 min 5 sec) 
Heartbeat CPU  0 instructions:  264000000 cycles:  302375876 heartbeat IPC: 0.68716 cumulative IPC: 0.65975 (Simulation time: 0 hr 11 min 7 sec) 
Heartbeat CPU  0 instructions:  265000002 cycles:  303801052 heartbeat IPC: 0.70167 cumulative IPC: 0.65999 (Simulation time: 0 hr 11 min 10 sec) 
Heartbeat CPU  0 instructions:  266000000 cycles:  305253214 heartbeat IPC: 0.68863 cumulative IPC: 0.66016 (Simulation time: 0 hr 11 min 13 sec) 
Heartbeat CPU  0 instructions:  267000002 cycles:  306924342 heartbeat IPC: 0.59840 cumulative IPC: 0.65975 (Simulation time: 0 hr 11 min 16 sec) 
Heartbeat CPU  0 instructions:  268000000 cycles:  309166185 heartbeat IPC: 0.44606 cumulative IPC: 0.65787 (Simulation time: 0 hr 11 min 19 sec) 
Heartbeat CPU  0 instructions:  269000002 cycles:  310884569 heartbeat IPC: 0.58194 cumulative IPC: 0.65737 (Simulation time: 0 hr 11 min 22 sec) 
Heartbeat CPU  0 instructions:  270000003 cycles:  312604419 heartbeat IPC: 0.58145 cumulative IPC: 0.65686 (Simulation time: 0 hr 11 min 25 sec) 
Heartbeat CPU  0 instructions:  271000001 cycles:  314319450 heartbeat IPC: 0.58308 cumulative IPC: 0.65638 (Simulation time: 0 hr 11 min 27 sec) 
Heartbeat CPU  0 instructions:  272000000 cycles:  316039065 heartbeat IPC: 0.58152 cumulative IPC: 0.65588 (Simulation time: 0 hr 11 min 30 sec) 
Heartbeat CPU  0 instructions:  273000002 cycles:  317748102 heartbeat IPC: 0.58513 cumulative IPC: 0.65543 (Simulation time: 0 hr 11 min 33 sec) 
Heartbeat CPU  0 instructions:  274000003 cycles:  319439393 heartbeat IPC: 0.59126 cumulative IPC: 0.65502 (Simulation time: 0 hr 11 min 36 sec) 
Heartbeat CPU  0 instructions:  275000000 cycles:  321120404 heartbeat IPC: 0.59488 cumulative IPC: 0.65464 (Simulation time: 0 hr 11 min 39 sec) 
Heartbeat CPU  0 instructions:  276000000 cycles:  322769994 heartbeat IPC: 0.60621 cumulative IPC: 0.65434 (Simulation time: 0 hr 11 min 42 sec) 
Heartbeat CPU  0 instructions:  277000003 cycles:  324440739 heartbeat IPC: 0.59854 cumulative IPC: 0.65400 (Simulation time: 0 hr 11 min 45 sec) 
Heartbeat CPU  0 instructions:  278000003 cycles:  326085193 heartbeat IPC: 0.60810 cumulative IPC: 0.65372 (Simulation time: 0 hr 11 min 48 sec) 
Heartbeat CPU  0 instructions:  279000001 cycles:  327748948 heartbeat IPC: 0.60105 cumulative IPC: 0.65340 (Simulation time: 0 hr 11 min 50 sec) 
Heartbeat CPU  0 instructions:  280000000 cycles:  329421668 heartbeat IPC: 0.59783 cumulative IPC: 0.65306 (Simulation time: 0 hr 11 min 53 sec) 
Heartbeat CPU  0 instructions:  281000001 cycles:  330822497 heartbeat IPC: 0.71386 cumulative IPC: 0.65337 (Simulation time: 0 hr 11 min 56 sec) 
Heartbeat CPU  0 instructions:  282000003 cycles:  332183714 heartbeat IPC: 0.73464 cumulative IPC: 0.65377 (Simulation time: 0 hr 11 min 59 sec) 
Heartbeat CPU  0 instructions:  283000000 cycles:  333601949 heartbeat IPC: 0.70510 cumulative IPC: 0.65403 (Simulation time: 0 hr 12 min 2 sec) 
Heartbeat CPU  0 instructions:  284000000 cycles:  335017903 heartbeat IPC: 0.70624 cumulative IPC: 0.65429 (Simulation time: 0 hr 12 min 4 sec) 
Heartbeat CPU  0 instructions:  285000002 cycles:  336481266 heartbeat IPC: 0.68336 cumulative IPC: 0.65444 (Simulation time: 0 hr 12 min 7 sec) 
Heartbeat CPU  0 instructions:  286000002 cycles:  337938167 heartbeat IPC: 0.68639 cumulative IPC: 0.65461 (Simulation time: 0 hr 12 min 10 sec) 
Heartbeat CPU  0 instructions:  287000000 cycles:  339400296 heartbeat IPC: 0.68393 cumulative IPC: 0.65476 (Simulation time: 0 hr 12 min 13 sec) 
Heartbeat CPU  0 instructions:  288000000 cycles:  340859685 heartbeat IPC: 0.68522 cumulative IPC: 0.65491 (Simulation time: 0 hr 12 min 15 sec) 
Heartbeat CPU  0 instructions:  289000003 cycles:  342327661 heartbeat IPC: 0.68121 cumulative IPC: 0.65504 (Simulation time: 0 hr 12 min 18 sec) 
Heartbeat CPU  0 instructions:  290000000 cycles:  343736377 heartbeat IPC: 0.70986 cumulative IPC: 0.65531 (Simulation time: 0 hr 12 min 21 sec) 
Heartbeat CPU  0 instructions:  291000000 cycles:  345137712 heartbeat IPC: 0.71361 cumulative IPC: 0.65559 (Simulation time: 0 hr 12 min 24 sec) 
Heartbeat CPU  0 instructions:  292000000 cycles:  346489095 heartbeat IPC: 0.73998 cumulative IPC: 0.65598 (Simulation time: 0 hr 12 min 26 sec) 
Heartbeat CPU  0 instructions:  293000000 cycles:  347821721 heartbeat IPC: 0.75040 cumulative IPC: 0.65641 (Simulation time: 0 hr 12 min 29 sec) 
Heartbeat CPU  0 instructions:  294000002 cycles:  349292621 heartbeat IPC: 0.67986 cumulative IPC: 0.65653 (Simulation time: 0 hr 12 min 32 sec) 
Heartbeat CPU  0 instructions:  295000002 cycles:  350757943 heartbeat IPC: 0.68244 cumulative IPC: 0.65665 (Simulation time: 0 hr 12 min 35 sec) 
Heartbeat CPU  0 instructions:  296000000 cycles:  352181067 heartbeat IPC: 0.70268 cumulative IPC: 0.65687 (Simulation time: 0 hr 12 min 37 sec) 
Heartbeat CPU  0 instructions:  297000001 cycles:  353631858 heartbeat IPC: 0.68928 cumulative IPC: 0.65703 (Simulation time: 0 hr 12 min 40 sec) 
Heartbeat CPU  0 instructions:  298000000 cycles:  355114498 heartbeat IPC: 0.67447 cumulative IPC: 0.65712 (Simulation time: 0 hr 12 min 43 sec) 
Heartbeat CPU  0 instructions:  299000003 cycles:  356549340 heartbeat IPC: 0.69694 cumulative IPC: 0.65730 (Simulation time: 0 hr 12 min 46 sec) 
Heartbeat CPU  0 instructions:  300000000 cycles:  357975091 heartbeat IPC: 0.70138 cumulative IPC: 0.65751 (Simulation time: 0 hr 12 min 48 sec) 
Heartbeat CPU  0 instructions:  301000002 cycles:  359403405 heartbeat IPC: 0.70013 cumulative IPC: 0.65771 (Simulation time: 0 hr 12 min 51 sec) 
Heartbeat CPU  0 instructions:  302000002 cycles:  360869278 heartbeat IPC: 0.68219 cumulative IPC: 0.65783 (Simulation time: 0 hr 12 min 54 sec) 
Heartbeat CPU  0 instructions:  303000001 cycles:  362324974 heartbeat IPC: 0.68696 cumulative IPC: 0.65796 (Simulation time: 0 hr 12 min 57 sec) 
Heartbeat CPU  0 instructions:  304000000 cycles:  363789319 heartbeat IPC: 0.68290 cumulative IPC: 0.65808 (Simulation time: 0 hr 13 min 0 sec) 
Heartbeat CPU  0 instructions:  305000000 cycles:  365258986 heartbeat IPC: 0.68043 cumulative IPC: 0.65819 (Simulation time: 0 hr 13 min 2 sec) 
Heartbeat CPU  0 instructions:  306000001 cycles:  366683213 heartbeat IPC: 0.70214 cumulative IPC: 0.65839 (Simulation time: 0 hr 13 min 5 sec) 
Heartbeat CPU  0 instructions:  307000003 cycles:  368131027 heartbeat IPC: 0.69070 cumulative IPC: 0.65854 (Simulation time: 0 hr 13 min 8 sec) 
Heartbeat CPU  0 instructions:  308000000 cycles:  369596446 heartbeat IPC: 0.68240 cumulative IPC: 0.65865 (Simulation time: 0 hr 13 min 11 sec) 
Heartbeat CPU  0 instructions:  309000000 cycles:  371032356 heartbeat IPC: 0.69642 cumulative IPC: 0.65882 (Simulation time: 0 hr 13 min 13 sec) 
Heartbeat CPU  0 instructions:  310000000 cycles:  372486086 heartbeat IPC: 0.68789 cumulative IPC: 0.65895 (Simulation time: 0 hr 13 min 16 sec) 
Heartbeat CPU  0 instructions:  311000001 cycles:  373930652 heartbeat IPC: 0.69225 cumulative IPC: 0.65910 (Simulation time: 0 hr 13 min 19 sec) 
Heartbeat CPU  0 instructions:  312000000 cycles:  375344769 heartbeat IPC: 0.70715 cumulative IPC: 0.65931 (Simulation time: 0 hr 13 min 22 sec) 
Heartbeat CPU  0 instructions:  313000000 cycles:  376771000 heartbeat IPC: 0.70115 cumulative IPC: 0.65950 (Simulation time: 0 hr 13 min 24 sec) 
Heartbeat CPU  0 instructions:  314000000 cycles:  378250078 heartbeat IPC: 0.67610 cumulative IPC: 0.65957 (Simulation time: 0 hr 13 min 27 sec) 
Heartbeat CPU  0 instructions:  315000000 cycles:  379729401 heartbeat IPC: 0.67598 cumulative IPC: 0.65965 (Simulation time: 0 hr 13 min 30 sec) 
Heartbeat CPU  0 instructions:  316000000 cycles:  381179712 heartbeat IPC: 0.68951 cumulative IPC: 0.65978 (Simulation time: 0 hr 13 min 33 sec) 
Heartbeat CPU  0 instructions:  317000001 cycles:  382656183 heartbeat IPC: 0.67729 cumulative IPC: 0.65986 (Simulation time: 0 hr 13 min 36 sec) 
Heartbeat CPU  0 instructions:  318000001 cycles:  384134162 heartbeat IPC: 0.67660 cumulative IPC: 0.65993 (Simulation time: 0 hr 13 min 38 sec) 
Heartbeat CPU  0 instructions:  319000002 cycles:  385597501 heartbeat IPC: 0.68337 cumulative IPC: 0.66004 (Simulation time: 0 hr 13 min 41 sec) 
Heartbeat CPU  0 instructions:  320000000 cycles:  387072600 heartbeat IPC: 0.67792 cumulative IPC: 0.66012 (Simulation time: 0 hr 13 min 44 sec) 
Heartbeat CPU  0 instructions:  321000000 cycles:  388549360 heartbeat IPC: 0.67716 cumulative IPC: 0.66019 (Simulation time: 0 hr 13 min 47 sec) 
Heartbeat CPU  0 instructions:  322000003 cycles:  390030734 heartbeat IPC: 0.67505 cumulative IPC: 0.66026 (Simulation time: 0 hr 13 min 50 sec) 
Heartbeat CPU  0 instructions:  323000000 cycles:  391480848 heartbeat IPC: 0.68960 cumulative IPC: 0.66038 (Simulation time: 0 hr 13 min 53 sec) 
Heartbeat CPU  0 instructions:  324000000 cycles:  392925990 heartbeat IPC: 0.69197 cumulative IPC: 0.66052 (Simulation time: 0 hr 13 min 56 sec) 
Heartbeat CPU  0 instructions:  325000001 cycles:  394386390 heartbeat IPC: 0.68474 cumulative IPC: 0.66062 (Simulation time: 0 hr 13 min 59 sec) 
Heartbeat CPU  0 instructions:  326000000 cycles:  395844574 heartbeat IPC: 0.68578 cumulative IPC: 0.66073 (Simulation time: 0 hr 14 min 2 sec) 
Heartbeat CPU  0 instructions:  327000001 cycles:  397309520 heartbeat IPC: 0.68262 cumulative IPC: 0.66082 (Simulation time: 0 hr 14 min 4 sec) 
Heartbeat CPU  0 instructions:  328000000 cycles:  398764987 heartbeat IPC: 0.68706 cumulative IPC: 0.66093 (Simulation time: 0 hr 14 min 7 sec) 
Heartbeat CPU  0 instructions:  329000001 cycles:  400234695 heartbeat IPC: 0.68041 cumulative IPC: 0.66101 (Simulation time: 0 hr 14 min 10 sec) 
Heartbeat CPU  0 instructions:  330000000 cycles:  402371567 heartbeat IPC: 0.46797 cumulative IPC: 0.65983 (Simulation time: 0 hr 14 min 14 sec) 
Heartbeat CPU  0 instructions:  331000000 cycles:  405039415 heartbeat IPC: 0.37483 cumulative IPC: 0.65767 (Simulation time: 0 hr 14 min 17 sec) 
Heartbeat CPU  0 instructions:  332000000 cycles:  407647419 heartbeat IPC: 0.38343 cumulative IPC: 0.65565 (Simulation time: 0 hr 14 min 21 sec) 
Heartbeat CPU  0 instructions:  333000001 cycles:  410219009 heartbeat IPC: 0.38886 cumulative IPC: 0.65372 (Simulation time: 0 hr 14 min 24 sec) 
Heartbeat CPU  0 instructions:  334000002 cycles:  412824716 heartbeat IPC: 0.38377 cumulative IPC: 0.65176 (Simulation time: 0 hr 14 min 27 sec) 
Heartbeat CPU  0 instructions:  335000002 cycles:  415402075 heartbeat IPC: 0.38799 cumulative IPC: 0.64988 (Simulation time: 0 hr 14 min 31 sec) 
Heartbeat CPU  0 instructions:  336000000 cycles:  417944846 heartbeat IPC: 0.39327 cumulative IPC: 0.64809 (Simulation time: 0 hr 14 min 34 sec) 
Heartbeat CPU  0 instructions:  337000003 cycles:  420474451 heartbeat IPC: 0.39532 cumulative IPC: 0.64635 (Simulation time: 0 hr 14 min 38 sec) 
Heartbeat CPU  0 instructions:  338000000 cycles:  423068804 heartbeat IPC: 0.38545 cumulative IPC: 0.64451 (Simulation time: 0 hr 14 min 41 sec) 
Heartbeat CPU  0 instructions:  339000001 cycles:  425676582 heartbeat IPC: 0.38347 cumulative IPC: 0.64268 (Simulation time: 0 hr 14 min 45 sec) 
Heartbeat CPU  0 instructions:  340000000 cycles:  428256478 heartbeat IPC: 0.38761 cumulative IPC: 0.64092 (Simulation time: 0 hr 14 min 48 sec) 
Heartbeat CPU  0 instructions:  341000000 cycles:  430713627 heartbeat IPC: 0.40698 cumulative IPC: 0.63940 (Simulation time: 0 hr 14 min 51 sec) 
Heartbeat CPU  0 instructions:  342000000 cycles:  433217581 heartbeat IPC: 0.39937 cumulative IPC: 0.63782 (Simulation time: 0 hr 14 min 55 sec) 
Heartbeat CPU  0 instructions:  343000000 cycles:  435711366 heartbeat IPC: 0.40100 cumulative IPC: 0.63627 (Simulation time: 0 hr 14 min 58 sec) 
Heartbeat CPU  0 instructions:  344000000 cycles:  438226888 heartbeat IPC: 0.39753 cumulative IPC: 0.63471 (Simulation time: 0 hr 15 min 1 sec) 
Heartbeat CPU  0 instructions:  345000000 cycles:  440731665 heartbeat IPC: 0.39924 cumulative IPC: 0.63318 (Simulation time: 0 hr 15 min 5 sec) 
Heartbeat CPU  0 instructions:  346000003 cycles:  443246390 heartbeat IPC: 0.39766 cumulative IPC: 0.63166 (Simulation time: 0 hr 15 min 8 sec) 
Heartbeat CPU  0 instructions:  347000002 cycles:  445749222 heartbeat IPC: 0.39955 cumulative IPC: 0.63018 (Simulation time: 0 hr 15 min 11 sec) 
Heartbeat CPU  0 instructions:  348000000 cycles:  448398111 heartbeat IPC: 0.37752 cumulative IPC: 0.62848 (Simulation time: 0 hr 15 min 15 sec) 
Heartbeat CPU  0 instructions:  349000000 cycles:  451053389 heartbeat IPC: 0.37661 cumulative IPC: 0.62680 (Simulation time: 0 hr 15 min 18 sec) 
Heartbeat CPU  0 instructions:  350000003 cycles:  453574947 heartbeat IPC: 0.39658 cumulative IPC: 0.62535 (Simulation time: 0 hr 15 min 22 sec) 
Heartbeat CPU  0 instructions:  351000003 cycles:  456130913 heartbeat IPC: 0.39124 cumulative IPC: 0.62386 (Simulation time: 0 hr 15 min 25 sec) 
Heartbeat CPU  0 instructions:  352000000 cycles:  458674024 heartbeat IPC: 0.39322 cumulative IPC: 0.62241 (Simulation time: 0 hr 15 min 28 sec) 
Heartbeat CPU  0 instructions:  353000000 cycles:  461205474 heartbeat IPC: 0.39503 cumulative IPC: 0.62100 (Simulation time: 0 hr 15 min 32 sec) 
Heartbeat CPU  0 instructions:  354000000 cycles:  463744899 heartbeat IPC: 0.39379 cumulative IPC: 0.61959 (Simulation time: 0 hr 15 min 35 sec) 
Heartbeat CPU  0 instructions:  355000001 cycles:  466287699 heartbeat IPC: 0.39327 cumulative IPC: 0.61820 (Simulation time: 0 hr 15 min 38 sec) 
Heartbeat CPU  0 instructions:  356000000 cycles:  468717308 heartbeat IPC: 0.41159 cumulative IPC: 0.61699 (Simulation time: 0 hr 15 min 42 sec) 
Heartbeat CPU  0 instructions:  357000003 cycles:  470865255 heartbeat IPC: 0.46556 cumulative IPC: 0.61621 (Simulation time: 0 hr 15 min 46 sec) 
Heartbeat CPU  0 instructions:  358000000 cycles:  473042674 heartbeat IPC: 0.45926 cumulative IPC: 0.61539 (Simulation time: 0 hr 15 min 49 sec) 
Heartbeat CPU  0 instructions:  359000002 cycles:  475208721 heartbeat IPC: 0.46167 cumulative IPC: 0.61460 (Simulation time: 0 hr 15 min 53 sec) 
Heartbeat CPU  0 instructions:  360000000 cycles:  477295040 heartbeat IPC: 0.47931 cumulative IPC: 0.61394 (Simulation time: 0 hr 15 min 57 sec) 
Heartbeat CPU  0 instructions:  361000000 cycles:  479349905 heartbeat IPC: 0.48665 cumulative IPC: 0.61332 (Simulation time: 0 hr 16 min 0 sec) 
Heartbeat CPU  0 instructions:  362000000 cycles:  481395489 heartbeat IPC: 0.48886 cumulative IPC: 0.61273 (Simulation time: 0 hr 16 min 4 sec) 
Heartbeat CPU  0 instructions:  363000000 cycles:  483442220 heartbeat IPC: 0.48858 cumulative IPC: 0.61213 (Simulation time: 0 hr 16 min 7 sec) 
Heartbeat CPU  0 instructions:  364000000 cycles:  485501295 heartbeat IPC: 0.48565 cumulative IPC: 0.61153 (Simulation time: 0 hr 16 min 11 sec) 
Heartbeat CPU  0 instructions:  365000002 cycles:  487546731 heartbeat IPC: 0.48889 cumulative IPC: 0.61095 (Simulation time: 0 hr 16 min 14 sec) 
Heartbeat CPU  0 instructions:  366000001 cycles:  489593120 heartbeat IPC: 0.48867 cumulative IPC: 0.61038 (Simulation time: 0 hr 16 min 17 sec) 
Heartbeat CPU  0 instructions:  367000001 cycles:  491636796 heartbeat IPC: 0.48931 cumulative IPC: 0.60981 (Simulation time: 0 hr 16 min 21 sec) 
Heartbeat CPU  0 instructions:  368000000 cycles:  493689922 heartbeat IPC: 0.48706 cumulative IPC: 0.60924 (Simulation time: 0 hr 16 min 24 sec) 
Heartbeat CPU  0 instructions:  369000001 cycles:  495730411 heartbeat IPC: 0.49008 cumulative IPC: 0.60869 (Simulation time: 0 hr 16 min 27 sec) 
Heartbeat CPU  0 instructions:  370000002 cycles:  497798463 heartbeat IPC: 0.48355 cumulative IPC: 0.60811 (Simulation time: 0 hr 16 min 31 sec) 
Heartbeat CPU  0 instructions:  371000002 cycles:  499837161 heartbeat IPC: 0.49051 cumulative IPC: 0.60757 (Simulation time: 0 hr 16 min 34 sec) 
Heartbeat CPU  0 instructions:  372000000 cycles:  501876262 heartbeat IPC: 0.49041 cumulative IPC: 0.60704 (Simulation time: 0 hr 16 min 37 sec) 
Heartbeat CPU  0 instructions:  373000000 cycles:  503918271 heartbeat IPC: 0.48971 cumulative IPC: 0.60650 (Simulation time: 0 hr 16 min 40 sec) 
Heartbeat CPU  0 instructions:  374000003 cycles:  505945877 heartbeat IPC: 0.49319 cumulative IPC: 0.60600 (Simulation time: 0 hr 16 min 44 sec) 
Heartbeat CPU  0 instructions:  375000002 cycles:  507992711 heartbeat IPC: 0.48856 cumulative IPC: 0.60547 (Simulation time: 0 hr 16 min 47 sec) 
Heartbeat CPU  0 instructions:  376000000 cycles:  510032472 heartbeat IPC: 0.49025 cumulative IPC: 0.60495 (Simulation time: 0 hr 16 min 50 sec) 
Heartbeat CPU  0 instructions:  377000001 cycles:  512102861 heartbeat IPC: 0.48300 cumulative IPC: 0.60440 (Simulation time: 0 hr 16 min 54 sec) 
Heartbeat CPU  0 instructions:  378000000 cycles:  514161630 heartbeat IPC: 0.48573 cumulative IPC: 0.60387 (Simulation time: 0 hr 16 min 57 sec) 
Heartbeat CPU  0 instructions:  379000001 cycles:  516238647 heartbeat IPC: 0.48146 cumulative IPC: 0.60332 (Simulation time: 0 hr 17 min 0 sec) 
Heartbeat CPU  0 instructions:  380000000 cycles:  518311813 heartbeat IPC: 0.48235 cumulative IPC: 0.60278 (Simulation time: 0 hr 17 min 4 sec) 
Heartbeat CPU  0 instructions:  381000001 cycles:  520393692 heartbeat IPC: 0.48034 cumulative IPC: 0.60223 (Simulation time: 0 hr 17 min 7 sec) 
Heartbeat CPU  0 instructions:  382000000 cycles:  522473868 heartbeat IPC: 0.48073 cumulative IPC: 0.60169 (Simulation time: 0 hr 17 min 10 sec) 
Heartbeat CPU  0 instructions:  383000000 cycles:  524566597 heartbeat IPC: 0.47784 cumulative IPC: 0.60114 (Simulation time: 0 hr 17 min 14 sec) 
Heartbeat CPU  0 instructions:  384000000 cycles:  526647484 heartbeat IPC: 0.48056 cumulative IPC: 0.60061 (Simulation time: 0 hr 17 min 17 sec) 
Heartbeat CPU  0 instructions:  385000001 cycles:  528754514 heartbeat IPC: 0.47460 cumulative IPC: 0.60005 (Simulation time: 0 hr 17 min 20 sec) 
Heartbeat CPU  0 instructions:  386000001 cycles:  530856000 heartbeat IPC: 0.47585 cumulative IPC: 0.59951 (Simulation time: 0 hr 17 min 24 sec) 
Heartbeat CPU  0 instructions:  387000000 cycles:  532972510 heartbeat IPC: 0.47248 cumulative IPC: 0.59895 (Simulation time: 0 hr 17 min 27 sec) 
Heartbeat CPU  0 instructions:  388000000 cycles:  535063510 heartbeat IPC: 0.47824 cumulative IPC: 0.59842 (Simulation time: 0 hr 17 min 30 sec) 
Heartbeat CPU  0 instructions:  389000002 cycles:  537156086 heartbeat IPC: 0.47788 cumulative IPC: 0.59790 (Simulation time: 0 hr 17 min 33 sec) 
Heartbeat CPU  0 instructions:  390000002 cycles:  539249660 heartbeat IPC: 0.47765 cumulative IPC: 0.59738 (Simulation time: 0 hr 17 min 37 sec) 
Heartbeat CPU  0 instructions:  391000001 cycles:  541343740 heartbeat IPC: 0.47754 cumulative IPC: 0.59687 (Simulation time: 0 hr 17 min 40 sec) 
Heartbeat CPU  0 instructions:  392000000 cycles:  543436277 heartbeat IPC: 0.47789 cumulative IPC: 0.59636 (Simulation time: 0 hr 17 min 43 sec) 
Heartbeat CPU  0 instructions:  393000003 cycles:  545516762 heartbeat IPC: 0.48066 cumulative IPC: 0.59587 (Simulation time: 0 hr 17 min 47 sec) 
Heartbeat CPU  0 instructions:  394000002 cycles:  547357483 heartbeat IPC: 0.54326 cumulative IPC: 0.59567 (Simulation time: 0 hr 17 min 50 sec) 
Heartbeat CPU  0 instructions:  395000001 cycles:  549099920 heartbeat IPC: 0.57391 cumulative IPC: 0.59560 (Simulation time: 0 hr 17 min 53 sec) 
Heartbeat CPU  0 instructions:  396000000 cycles:  550816774 heartbeat IPC: 0.58246 cumulative IPC: 0.59555 (Simulation time: 0 hr 17 min 56 sec) 
Heartbeat CPU  0 instructions:  397000000 cycles:  552540248 heartbeat IPC: 0.58022 cumulative IPC: 0.59550 (Simulation time: 0 hr 17 min 59 sec) 
Heartbeat CPU  0 instructions:  398000001 cycles:  554247376 heartbeat IPC: 0.58578 cumulative IPC: 0.59546 (Simulation time: 0 hr 18 min 2 sec) 
Heartbeat CPU  0 instructions:  399000001 cycles:  555915167 heartbeat IPC: 0.59960 cumulative IPC: 0.59548 (Simulation time: 0 hr 18 min 4 sec) 
Heartbeat CPU  0 instructions:  400000000 cycles:  557557773 heartbeat IPC: 0.60879 cumulative IPC: 0.59552 (Simulation time: 0 hr 18 min 7 sec) 
Heartbeat CPU  0 instructions:  401000001 cycles:  559211088 heartbeat IPC: 0.60485 cumulative IPC: 0.59555 (Simulation time: 0 hr 18 min 10 sec) 
Heartbeat CPU  0 instructions:  402000000 cycles:  560882707 heartbeat IPC: 0.59822 cumulative IPC: 0.59556 (Simulation time: 0 hr 18 min 13 sec) 
Heartbeat CPU  0 instructions:  403000003 cycles:  562486355 heartbeat IPC: 0.62358 cumulative IPC: 0.59565 (Simulation time: 0 hr 18 min 16 sec) 
Heartbeat CPU  0 instructions:  404000000 cycles:  564118179 heartbeat IPC: 0.61281 cumulative IPC: 0.59570 (Simulation time: 0 hr 18 min 18 sec) 
Heartbeat CPU  0 instructions:  405000002 cycles:  565674743 heartbeat IPC: 0.64244 cumulative IPC: 0.59585 (Simulation time: 0 hr 18 min 21 sec) 
Heartbeat CPU  0 instructions:  406000002 cycles:  567229975 heartbeat IPC: 0.64299 cumulative IPC: 0.59599 (Simulation time: 0 hr 18 min 24 sec) 
Heartbeat CPU  0 instructions:  407000003 cycles:  568699074 heartbeat IPC: 0.68069 cumulative IPC: 0.59623 (Simulation time: 0 hr 18 min 27 sec) 
Heartbeat CPU  0 instructions:  408000000 cycles:  570036701 heartbeat IPC: 0.74759 cumulative IPC: 0.59662 (Simulation time: 0 hr 18 min 29 sec) 
Heartbeat CPU  0 instructions:  409000003 cycles:  571380707 heartbeat IPC: 0.74405 cumulative IPC: 0.59701 (Simulation time: 0 hr 18 min 32 sec) 
Heartbeat CPU  0 instructions:  410000002 cycles:  572916774 heartbeat IPC: 0.65101 cumulative IPC: 0.59717 (Simulation time: 0 hr 18 min 35 sec) 
Heartbeat CPU  0 instructions:  411000002 cycles:  574495076 heartbeat IPC: 0.63359 cumulative IPC: 0.59728 (Simulation time: 0 hr 18 min 38 sec) 
Heartbeat CPU  0 instructions:  412000000 cycles:  576072084 heartbeat IPC: 0.63411 cumulative IPC: 0.59739 (Simulation time: 0 hr 18 min 40 sec) 
Heartbeat CPU  0 instructions:  413000000 cycles:  577482868 heartbeat IPC: 0.70883 cumulative IPC: 0.59769 (Simulation time: 0 hr 18 min 43 sec) 
Heartbeat CPU  0 instructions:  414000002 cycles:  578908292 heartbeat IPC: 0.70155 cumulative IPC: 0.59797 (Simulation time: 0 hr 18 min 45 sec) 
Heartbeat CPU  0 instructions:  415000002 cycles:  580539405 heartbeat IPC: 0.61308 cumulative IPC: 0.59802 (Simulation time: 0 hr 18 min 48 sec) 
Heartbeat CPU  0 instructions:  416000000 cycles:  582109694 heartbeat IPC: 0.63682 cumulative IPC: 0.59813 (Simulation time: 0 hr 18 min 51 sec) 
Heartbeat CPU  0 instructions:  417000000 cycles:  583683099 heartbeat IPC: 0.63556 cumulative IPC: 0.59824 (Simulation time: 0 hr 18 min 54 sec) 
Heartbeat CPU  0 instructions:  418000002 cycles:  585109568 heartbeat IPC: 0.70103 cumulative IPC: 0.59852 (Simulation time: 0 hr 18 min 57 sec) 
Heartbeat CPU  0 instructions:  419000002 cycles:  586513729 heartbeat IPC: 0.71217 cumulative IPC: 0.59882 (Simulation time: 0 hr 18 min 59 sec) 
Heartbeat CPU  0 instructions:  420000000 cycles:  588028831 heartbeat IPC: 0.66002 cumulative IPC: 0.59899 (Simulation time: 0 hr 19 min 2 sec) 
Heartbeat CPU  0 instructions:  421000000 cycles:  589595771 heartbeat IPC: 0.63819 cumulative IPC: 0.59911 (Simulation time: 0 hr 19 min 5 sec) 
Heartbeat CPU  0 instructions:  422000001 cycles:  591152263 heartbeat IPC: 0.64247 cumulative IPC: 0.59923 (Simulation time: 0 hr 19 min 8 sec) 
Heartbeat CPU  0 instructions:  423000002 cycles:  592709058 heartbeat IPC: 0.64235 cumulative IPC: 0.59936 (Simulation time: 0 hr 19 min 10 sec) 
Heartbeat CPU  0 instructions:  424000000 cycles:  594228464 heartbeat IPC: 0.65815 cumulative IPC: 0.59952 (Simulation time: 0 hr 19 min 13 sec) 
Heartbeat CPU  0 instructions:  425000003 cycles:  595933059 heartbeat IPC: 0.58665 cumulative IPC: 0.59948 (Simulation time: 0 hr 19 min 16 sec) 
Heartbeat CPU  0 instructions:  426000003 cycles:  597530648 heartbeat IPC: 0.62594 cumulative IPC: 0.59956 (Simulation time: 0 hr 19 min 19 sec) 
Heartbeat CPU  0 instructions:  427000000 cycles:  599094116 heartbeat IPC: 0.63960 cumulative IPC: 0.59967 (Simulation time: 0 hr 19 min 21 sec) 
Heartbeat CPU  0 instructions:  428000000 cycles:  600628968 heartbeat IPC: 0.65153 cumulative IPC: 0.59982 (Simulation time: 0 hr 19 min 24 sec) 
Heartbeat CPU  0 instructions:  429000001 cycles:  602124274 heartbeat IPC: 0.66876 cumulative IPC: 0.60001 (Simulation time: 0 hr 19 min 27 sec) 
Heartbeat CPU  0 instructions:  430000003 cycles:  603630112 heartbeat IPC: 0.66408 cumulative IPC: 0.60018 (Simulation time: 0 hr 19 min 30 sec) 
Heartbeat CPU  0 instructions:  431000002 cycles:  605165489 heartbeat IPC: 0.65131 cumulative IPC: 0.60033 (Simulation time: 0 hr 19 min 33 sec) 
Heartbeat CPU  0 instructions:  432000000 cycles:  606743585 heartbeat IPC: 0.63367 cumulative IPC: 0.60042 (Simulation time: 0 hr 19 min 35 sec) 
Heartbeat CPU  0 instructions:  433000003 cycles:  608322695 heartbeat IPC: 0.63327 cumulative IPC: 0.60051 (Simulation time: 0 hr 19 min 38 sec) 
Heartbeat CPU  0 instructions:  434000001 cycles:  609765003 heartbeat IPC: 0.69333 cumulative IPC: 0.60075 (Simulation time: 0 hr 19 min 41 sec) 
Heartbeat CPU  0 instructions:  435000003 cycles:  611486378 heartbeat IPC: 0.58093 cumulative IPC: 0.60069 (Simulation time: 0 hr 19 min 43 sec) 
Heartbeat CPU  0 instructions:  436000000 cycles:  613154104 heartbeat IPC: 0.59962 cumulative IPC: 0.60069 (Simulation time: 0 hr 19 min 46 sec) 
Heartbeat CPU  0 instructions:  437000001 cycles:  614743402 heartbeat IPC: 0.62921 cumulative IPC: 0.60077 (Simulation time: 0 hr 19 min 49 sec) 
Heartbeat CPU  0 instructions:  438000000 cycles:  616303023 heartbeat IPC: 0.64118 cumulative IPC: 0.60088 (Simulation time: 0 hr 19 min 52 sec) 
Heartbeat CPU  0 instructions:  439000003 cycles:  617833423 heartbeat IPC: 0.65343 cumulative IPC: 0.60103 (Simulation time: 0 hr 19 min 55 sec) 
Heartbeat CPU  0 instructions:  440000000 cycles:  619379911 heartbeat IPC: 0.64662 cumulative IPC: 0.60115 (Simulation time: 0 hr 19 min 57 sec) 
Heartbeat CPU  0 instructions:  441000001 cycles:  620936654 heartbeat IPC: 0.64237 cumulative IPC: 0.60126 (Simulation time: 0 hr 20 min 0 sec) 
Heartbeat CPU  0 instructions:  442000000 cycles:  622503612 heartbeat IPC: 0.63818 cumulative IPC: 0.60137 (Simulation time: 0 hr 20 min 3 sec) 
Heartbeat CPU  0 instructions:  443000003 cycles:  624076965 heartbeat IPC: 0.63559 cumulative IPC: 0.60146 (Simulation time: 0 hr 20 min 6 sec) 
Heartbeat CPU  0 instructions:  444000000 cycles:  625592684 heartbeat IPC: 0.65975 cumulative IPC: 0.60161 (Simulation time: 0 hr 20 min 9 sec) 
Heartbeat CPU  0 instructions:  445000000 cycles:  627184732 heartbeat IPC: 0.62812 cumulative IPC: 0.60169 (Simulation time: 0 hr 20 min 11 sec) 
Heartbeat CPU  0 instructions:  446000000 cycles:  628896462 heartbeat IPC: 0.58420 cumulative IPC: 0.60164 (Simulation time: 0 hr 20 min 14 sec) 
Heartbeat CPU  0 instructions:  447000001 cycles:  630501881 heartbeat IPC: 0.62289 cumulative IPC: 0.60169 (Simulation time: 0 hr 20 min 17 sec) 
Heartbeat CPU  0 instructions:  448000000 cycles:  632080729 heartbeat IPC: 0.63337 cumulative IPC: 0.60178 (Simulation time: 0 hr 20 min 20 sec) 
Heartbeat CPU  0 instructions:  449000001 cycles:  633659989 heartbeat IPC: 0.63321 cumulative IPC: 0.60187 (Simulation time: 0 hr 20 min 22 sec) 
Heartbeat CPU  0 instructions:  450000000 cycles:  635229903 heartbeat IPC: 0.63698 cumulative IPC: 0.60196 (Simulation time: 0 hr 20 min 25 sec) 
Heartbeat CPU  0 instructions:  451000000 cycles:  636818390 heartbeat IPC: 0.62953 cumulative IPC: 0.60204 (Simulation time: 0 hr 20 min 28 sec) 
Heartbeat CPU  0 instructions:  452000000 cycles:  638392029 heartbeat IPC: 0.63547 cumulative IPC: 0.60213 (Simulation time: 0 hr 20 min 31 sec) 
Heartbeat CPU  0 instructions:  453000002 cycles:  639958701 heartbeat IPC: 0.63830 cumulative IPC: 0.60222 (Simulation time: 0 hr 20 min 34 sec) 
Heartbeat CPU  0 instructions:  454000000 cycles:  641537338 heartbeat IPC: 0.63346 cumulative IPC: 0.60231 (Simulation time: 0 hr 20 min 36 sec) 
Heartbeat CPU  0 instructions:  455000002 cycles:  642996114 heartbeat IPC: 0.68551 cumulative IPC: 0.60251 (Simulation time: 0 hr 20 min 39 sec) 
Heartbeat CPU  0 instructions:  456000000 cycles:  644718663 heartbeat IPC: 0.58053 cumulative IPC: 0.60245 (Simulation time: 0 hr 20 min 42 sec) 
Heartbeat CPU  0 instructions:  457000002 cycles:  646352438 heartbeat IPC: 0.61208 cumulative IPC: 0.60248 (Simulation time: 0 hr 20 min 45 sec) 
Heartbeat CPU  0 instructions:  458000000 cycles:  647922885 heartbeat IPC: 0.63676 cumulative IPC: 0.60257 (Simulation time: 0 hr 20 min 48 sec) 
Heartbeat CPU  0 instructions:  459000000 cycles:  649504763 heartbeat IPC: 0.63216 cumulative IPC: 0.60265 (Simulation time: 0 hr 20 min 50 sec) 
Heartbeat CPU  0 instructions:  460000000 cycles:  651078324 heartbeat IPC: 0.63550 cumulative IPC: 0.60273 (Simulation time: 0 hr 20 min 53 sec) 
Heartbeat CPU  0 instructions:  461000000 cycles:  652652679 heartbeat IPC: 0.63518 cumulative IPC: 0.60282 (Simulation time: 0 hr 20 min 56 sec) 
Heartbeat CPU  0 instructions:  462000000 cycles:  654220132 heartbeat IPC: 0.63798 cumulative IPC: 0.60291 (Simulation time: 0 hr 20 min 59 sec) 
Heartbeat CPU  0 instructions:  463000003 cycles:  655799534 heartbeat IPC: 0.63315 cumulative IPC: 0.60299 (Simulation time: 0 hr 21 min 2 sec) 
Heartbeat CPU  0 instructions:  464000000 cycles:  657374159 heartbeat IPC: 0.63507 cumulative IPC: 0.60307 (Simulation time: 0 hr 21 min 4 sec) 
Heartbeat CPU  0 instructions:  465000001 cycles:  658849808 heartbeat IPC: 0.67767 cumulative IPC: 0.60325 (Simulation time: 0 hr 21 min 7 sec) 
Heartbeat CPU  0 instructions:  466000001 cycles:  660462119 heartbeat IPC: 0.62023 cumulative IPC: 0.60330 (Simulation time: 0 hr 21 min 10 sec) 
Heartbeat CPU  0 instructions:  467000001 cycles:  662145767 heartbeat IPC: 0.59395 cumulative IPC: 0.60327 (Simulation time: 0 hr 21 min 13 sec) 
Heartbeat CPU  0 instructions:  468000000 cycles:  663744450 heartbeat IPC: 0.62551 cumulative IPC: 0.60333 (Simulation time: 0 hr 21 min 15 sec) 
Heartbeat CPU  0 instructions:  469000002 cycles:  665321446 heartbeat IPC: 0.63412 cumulative IPC: 0.60341 (Simulation time: 0 hr 21 min 18 sec) 
Heartbeat CPU  0 instructions:  470000003 cycles:  666899787 heartbeat IPC: 0.63358 cumulative IPC: 0.60349 (Simulation time: 0 hr 21 min 21 sec) 
Heartbeat CPU  0 instructions:  471000001 cycles:  668469530 heartbeat IPC: 0.63705 cumulative IPC: 0.60357 (Simulation time: 0 hr 21 min 24 sec) 
Heartbeat CPU  0 instructions:  472000000 cycles:  670040384 heartbeat IPC: 0.63660 cumulative IPC: 0.60366 (Simulation time: 0 hr 21 min 26 sec) 
Heartbeat CPU  0 instructions:  473000000 cycles:  671609185 heartbeat IPC: 0.63743 cumulative IPC: 0.60374 (Simulation time: 0 hr 21 min 29 sec) 
Heartbeat CPU  0 instructions:  474000002 cycles:  673179905 heartbeat IPC: 0.63665 cumulative IPC: 0.60383 (Simulation time: 0 hr 21 min 32 sec) 
Heartbeat CPU  0 instructions:  475000000 cycles:  674751492 heartbeat IPC: 0.63630 cumulative IPC: 0.60391 (Simulation time: 0 hr 21 min 35 sec) 
Heartbeat CPU  0 instructions:  476000000 cycles:  676216954 heartbeat IPC: 0.68238 cumulative IPC: 0.60409 (Simulation time: 0 hr 21 min 38 sec) 
Heartbeat CPU  0 instructions:  477000003 cycles:  677918421 heartbeat IPC: 0.58773 cumulative IPC: 0.60405 (Simulation time: 0 hr 21 min 40 sec) 
Heartbeat CPU  0 instructions:  478000001 cycles:  679542151 heartbeat IPC: 0.61586 cumulative IPC: 0.60408 (Simulation time: 0 hr 21 min 43 sec) 
Heartbeat CPU  0 instructions:  479000000 cycles:  681136323 heartbeat IPC: 0.62728 cumulative IPC: 0.60414 (Simulation time: 0 hr 21 min 46 sec) 
Heartbeat CPU  0 instructions:  480000000 cycles:  682717992 heartbeat IPC: 0.63224 cumulative IPC: 0.60421 (Simulation time: 0 hr 21 min 49 sec) 
Heartbeat CPU  0 instructions:  481000001 cycles:  684295618 heartbeat IPC: 0.63386 cumulative IPC: 0.60428 (Simulation time: 0 hr 21 min 52 sec) 
Heartbeat CPU  0 instructions:  482000003 cycles:  685858409 heartbeat IPC: 0.63988 cumulative IPC: 0.60437 (Simulation time: 0 hr 21 min 54 sec) 
Heartbeat CPU  0 instructions:  483000002 cycles:  687436528 heartbeat IPC: 0.63367 cumulative IPC: 0.60445 (Simulation time: 0 hr 21 min 57 sec) 
Heartbeat CPU  0 instructions:  484000000 cycles:  689007826 heartbeat IPC: 0.63642 cumulative IPC: 0.60452 (Simulation time: 0 hr 22 min 0 sec) 
Heartbeat CPU  0 instructions:  485000001 cycles:  690583855 heartbeat IPC: 0.63451 cumulative IPC: 0.60460 (Simulation time: 0 hr 22 min 3 sec) 
Heartbeat CPU  0 instructions:  486000000 cycles:  692036061 heartbeat IPC: 0.68861 cumulative IPC: 0.60479 (Simulation time: 0 hr 22 min 5 sec) 
Heartbeat CPU  0 instructions:  487000002 cycles:  693670807 heartbeat IPC: 0.61172 cumulative IPC: 0.60481 (Simulation time: 0 hr 22 min 8 sec) 
Heartbeat CPU  0 instructions:  488000000 cycles:  695355568 heartbeat IPC: 0.59355 cumulative IPC: 0.60478 (Simulation time: 0 hr 22 min 11 sec) 
Heartbeat CPU  0 instructions:  489000000 cycles:  696950172 heartbeat IPC: 0.62711 cumulative IPC: 0.60483 (Simulation time: 0 hr 22 min 14 sec) 
Heartbeat CPU  0 instructions:  490000001 cycles:  698524484 heartbeat IPC: 0.63520 cumulative IPC: 0.60491 (Simulation time: 0 hr 22 min 17 sec) 
Heartbeat CPU  0 instructions:  491000001 cycles:  700084564 heartbeat IPC: 0.64099 cumulative IPC: 0.60499 (Simulation time: 0 hr 22 min 19 sec) 
Heartbeat CPU  0 instructions:  492000000 cycles:  701656065 heartbeat IPC: 0.63633 cumulative IPC: 0.60507 (Simulation time: 0 hr 22 min 22 sec) 
Heartbeat CPU  0 instructions:  493000000 cycles:  703222806 heartbeat IPC: 0.63827 cumulative IPC: 0.60515 (Simulation time: 0 hr 22 min 25 sec) 
Heartbeat CPU  0 instructions:  494000003 cycles:  704809381 heartbeat IPC: 0.63029 cumulative IPC: 0.60521 (Simulation time: 0 hr 22 min 28 sec) 
Heartbeat CPU  0 instructions:  495000001 cycles:  706375056 heartbeat IPC: 0.63870 cumulative IPC: 0.60529 (Simulation time: 0 hr 22 min 30 sec) 
Heartbeat CPU  0 instructions:  496000000 cycles:  707959397 heartbeat IPC: 0.63118 cumulative IPC: 0.60535 (Simulation time: 0 hr 22 min 33 sec) 
Heartbeat CPU  0 instructions:  497000003 cycles:  709429818 heartbeat IPC: 0.68008 cumulative IPC: 0.60552 (Simulation time: 0 hr 22 min 36 sec) 
Heartbeat CPU  0 instructions:  498000002 cycles:  711132048 heartbeat IPC: 0.58746 cumulative IPC: 0.60548 (Simulation time: 0 hr 22 min 39 sec) 
Heartbeat CPU  0 instructions:  499000001 cycles:  712732251 heartbeat IPC: 0.62492 cumulative IPC: 0.60552 (Simulation time: 0 hr 22 min 41 sec) 
Heartbeat CPU  0 instructions:  500000000 cycles:  714300272 heartbeat IPC: 0.63775 cumulative IPC: 0.60560 (Simulation time: 0 hr 22 min 44 sec) 
Heartbeat CPU  0 instructions:  501000003 cycles:  715869985 heartbeat IPC: 0.63706 cumulative IPC: 0.60567 (Simulation time: 0 hr 22 min 47 sec) 
Heartbeat CPU  0 instructions:  502000003 cycles:  717447516 heartbeat IPC: 0.63390 cumulative IPC: 0.60574 (Simulation time: 0 hr 22 min 50 sec) 
Heartbeat CPU  0 instructions:  503000002 cycles:  719013792 heartbeat IPC: 0.63846 cumulative IPC: 0.60582 (Simulation time: 0 hr 22 min 53 sec) 
Heartbeat CPU  0 instructions:  504000000 cycles:  720588408 heartbeat IPC: 0.63507 cumulative IPC: 0.60589 (Simulation time: 0 hr 22 min 55 sec) 
Heartbeat CPU  0 instructions:  505000000 cycles:  722155505 heartbeat IPC: 0.63812 cumulative IPC: 0.60596 (Simulation time: 0 hr 22 min 58 sec) 
Heartbeat CPU  0 instructions:  506000002 cycles:  723726340 heartbeat IPC: 0.63661 cumulative IPC: 0.60603 (Simulation time: 0 hr 23 min 1 sec) 
Heartbeat CPU  0 instructions:  507000001 cycles:  725170684 heartbeat IPC: 0.69236 cumulative IPC: 0.60622 (Simulation time: 0 hr 23 min 4 sec) 
Heartbeat CPU  0 instructions:  508000000 cycles:  726838097 heartbeat IPC: 0.59973 cumulative IPC: 0.60620 (Simulation time: 0 hr 23 min 6 sec) 
Heartbeat CPU  0 instructions:  509000002 cycles:  728488039 heartbeat IPC: 0.60608 cumulative IPC: 0.60620 (Simulation time: 0 hr 23 min 9 sec) 
Heartbeat CPU  0 instructions:  510000002 cycles:  730083538 heartbeat IPC: 0.62676 cumulative IPC: 0.60625 (Simulation time: 0 hr 23 min 12 sec) 
Heartbeat CPU  0 instructions:  511000002 cycles:  731663009 heartbeat IPC: 0.63312 cumulative IPC: 0.60632 (Simulation time: 0 hr 23 min 15 sec) 
Heartbeat CPU  0 instructions:  512000000 cycles:  733226869 heartbeat IPC: 0.63944 cumulative IPC: 0.60639 (Simulation time: 0 hr 23 min 17 sec) 
Heartbeat CPU  0 instructions:  513000002 cycles:  734792571 heartbeat IPC: 0.63869 cumulative IPC: 0.60647 (Simulation time: 0 hr 23 min 20 sec) 
Heartbeat CPU  0 instructions:  514000000 cycles:  736383019 heartbeat IPC: 0.62875 cumulative IPC: 0.60652 (Simulation time: 0 hr 23 min 23 sec) 
Heartbeat CPU  0 instructions:  515000000 cycles:  737967193 heartbeat IPC: 0.63124 cumulative IPC: 0.60657 (Simulation time: 0 hr 23 min 26 sec) 
Heartbeat CPU  0 instructions:  516000000 cycles:  739520714 heartbeat IPC: 0.64370 cumulative IPC: 0.60666 (Simulation time: 0 hr 23 min 29 sec) 
Heartbeat CPU  0 instructions:  517000002 cycles:  741064067 heartbeat IPC: 0.64794 cumulative IPC: 0.60675 (Simulation time: 0 hr 23 min 31 sec) 
Heartbeat CPU  0 instructions:  518000000 cycles:  742590576 heartbeat IPC: 0.65509 cumulative IPC: 0.60686 (Simulation time: 0 hr 23 min 34 sec) 
Heartbeat CPU  0 instructions:  519000001 cycles:  744324988 heartbeat IPC: 0.57656 cumulative IPC: 0.60678 (Simulation time: 0 hr 23 min 37 sec) 
Heartbeat CPU  0 instructions:  520000000 cycles:  745929342 heartbeat IPC: 0.62330 cumulative IPC: 0.60682 (Simulation time: 0 hr 23 min 40 sec) 
Heartbeat CPU  0 instructions:  521000000 cycles:  747509123 heartbeat IPC: 0.63300 cumulative IPC: 0.60688 (Simulation time: 0 hr 23 min 43 sec) 
Heartbeat CPU  0 instructions:  522000003 cycles:  749089531 heartbeat IPC: 0.63275 cumulative IPC: 0.60694 (Simulation time: 0 hr 23 min 45 sec) 
Heartbeat CPU  0 instructions:  523000001 cycles:  750668240 heartbeat IPC: 0.63343 cumulative IPC: 0.60700 (Simulation time: 0 hr 23 min 48 sec) 
Heartbeat CPU  0 instructions:  524000000 cycles:  752233595 heartbeat IPC: 0.63883 cumulative IPC: 0.60707 (Simulation time: 0 hr 23 min 51 sec) 
Heartbeat CPU  0 instructions:  525000002 cycles:  753796077 heartbeat IPC: 0.64001 cumulative IPC: 0.60714 (Simulation time: 0 hr 23 min 54 sec) 
Heartbeat CPU  0 instructions:  526000002 cycles:  755376833 heartbeat IPC: 0.63261 cumulative IPC: 0.60720 (Simulation time: 0 hr 23 min 57 sec) 
Heartbeat CPU  0 instructions:  527000000 cycles:  756949735 heartbeat IPC: 0.63577 cumulative IPC: 0.60727 (Simulation time: 0 hr 23 min 59 sec) 
Heartbeat CPU  0 instructions:  528000000 cycles:  758407556 heartbeat IPC: 0.68596 cumulative IPC: 0.60743 (Simulation time: 0 hr 24 min 2 sec) 
Heartbeat CPU  0 instructions:  529000003 cycles:  760117388 heartbeat IPC: 0.58485 cumulative IPC: 0.60737 (Simulation time: 0 hr 24 min 5 sec) 
Heartbeat CPU  0 instructions:  530000002 cycles:  761765756 heartbeat IPC: 0.60666 cumulative IPC: 0.60737 (Simulation time: 0 hr 24 min 8 sec) 
Heartbeat CPU  0 instructions:  531000002 cycles:  763356077 heartbeat IPC: 0.62880 cumulative IPC: 0.60742 (Simulation time: 0 hr 24 min 10 sec) 
Heartbeat CPU  0 instructions:  532000000 cycles:  764937293 heartbeat IPC: 0.63242 cumulative IPC: 0.60748 (Simulation time: 0 hr 24 min 13 sec) 
Heartbeat CPU  0 instructions:  533000001 cycles:  766506423 heartbeat IPC: 0.63730 cumulative IPC: 0.60754 (Simulation time: 0 hr 24 min 16 sec) 
Heartbeat CPU  0 instructions:  534000003 cycles:  768077743 heartbeat IPC: 0.63641 cumulative IPC: 0.60760 (Simulation time: 0 hr 24 min 19 sec) 
Heartbeat CPU  0 instructions:  535000000 cycles:  769647129 heartbeat IPC: 0.63719 cumulative IPC: 0.60767 (Simulation time: 0 hr 24 min 21 sec) 
Heartbeat CPU  0 instructions:  536000000 cycles:  771211302 heartbeat IPC: 0.63932 cumulative IPC: 0.60774 (Simulation time: 0 hr 24 min 24 sec) 
Heartbeat CPU  0 instructions:  537000002 cycles:  772778017 heartbeat IPC: 0.63828 cumulative IPC: 0.60781 (Simulation time: 0 hr 24 min 27 sec) 
Heartbeat CPU  0 instructions:  538000003 cycles:  774296438 heartbeat IPC: 0.65858 cumulative IPC: 0.60791 (Simulation time: 0 hr 24 min 30 sec) 
Heartbeat CPU  0 instructions:  539000001 cycles:  775881516 heartbeat IPC: 0.63088 cumulative IPC: 0.60796 (Simulation time: 0 hr 24 min 32 sec) 
Heartbeat CPU  0 instructions:  540000000 cycles:  777910208 heartbeat IPC: 0.49293 cumulative IPC: 0.60764 (Simulation time: 0 hr 24 min 35 sec) 
Heartbeat CPU  0 instructions:  541000002 cycles:  779878364 heartbeat IPC: 0.50809 cumulative IPC: 0.60737 (Simulation time: 0 hr 24 min 39 sec) 
Heartbeat CPU  0 instructions:  542000003 cycles:  781533346 heartbeat IPC: 0.60424 cumulative IPC: 0.60736 (Simulation time: 0 hr 24 min 41 sec) 
Heartbeat CPU  0 instructions:  543000002 cycles:  783185924 heartbeat IPC: 0.60511 cumulative IPC: 0.60736 (Simulation time: 0 hr 24 min 44 sec) 
Heartbeat CPU  0 instructions:  544000000 cycles:  784839960 heartbeat IPC: 0.60458 cumulative IPC: 0.60735 (Simulation time: 0 hr 24 min 47 sec) 
Heartbeat CPU  0 instructions:  545000000 cycles:  786494761 heartbeat IPC: 0.60430 cumulative IPC: 0.60735 (Simulation time: 0 hr 24 min 50 sec) 
Heartbeat CPU  0 instructions:  546000001 cycles:  788149961 heartbeat IPC: 0.60416 cumulative IPC: 0.60734 (Simulation time: 0 hr 24 min 53 sec) 
Heartbeat CPU  0 instructions:  547000002 cycles:  789810617 heartbeat IPC: 0.60217 cumulative IPC: 0.60733 (Simulation time: 0 hr 24 min 56 sec) 
Heartbeat CPU  0 instructions:  548000000 cycles:  791471334 heartbeat IPC: 0.60215 cumulative IPC: 0.60731 (Simulation time: 0 hr 24 min 59 sec) 
Heartbeat CPU  0 instructions:  549000003 cycles:  793127840 heartbeat IPC: 0.60368 cumulative IPC: 0.60731 (Simulation time: 0 hr 25 min 2 sec) 
Heartbeat CPU  0 instructions:  550000000 cycles:  794781814 heartbeat IPC: 0.60460 cumulative IPC: 0.60730 (Simulation time: 0 hr 25 min 5 sec) 
Heartbeat CPU  0 instructions:  551000002 cycles:  797176965 heartbeat IPC: 0.41751 cumulative IPC: 0.60669 (Simulation time: 0 hr 25 min 8 sec) 
Heartbeat CPU  0 instructions:  552000000 cycles:  798844034 heartbeat IPC: 0.59985 cumulative IPC: 0.60667 (Simulation time: 0 hr 25 min 11 sec) 
Heartbeat CPU  0 instructions:  553000000 cycles:  800497214 heartbeat IPC: 0.60489 cumulative IPC: 0.60667 (Simulation time: 0 hr 25 min 14 sec) 
Heartbeat CPU  0 instructions:  554000001 cycles:  802152352 heartbeat IPC: 0.60418 cumulative IPC: 0.60666 (Simulation time: 0 hr 25 min 17 sec) 
Heartbeat CPU  0 instructions:  555000001 cycles:  803806667 heartbeat IPC: 0.60448 cumulative IPC: 0.60666 (Simulation time: 0 hr 25 min 20 sec) 
Heartbeat CPU  0 instructions:  556000000 cycles:  805474219 heartbeat IPC: 0.59968 cumulative IPC: 0.60664 (Simulation time: 0 hr 25 min 22 sec) 
Heartbeat CPU  0 instructions:  557000001 cycles:  807160805 heartbeat IPC: 0.59291 cumulative IPC: 0.60661 (Simulation time: 0 hr 25 min 25 sec) 
Heartbeat CPU  0 instructions:  558000001 cycles:  808817168 heartbeat IPC: 0.60373 cumulative IPC: 0.60661 (Simulation time: 0 hr 25 min 28 sec) 
Heartbeat CPU  0 instructions:  559000000 cycles:  810461947 heartbeat IPC: 0.60798 cumulative IPC: 0.60661 (Simulation time: 0 hr 25 min 31 sec) 
Heartbeat CPU  0 instructions:  560000000 cycles:  812117000 heartbeat IPC: 0.60421 cumulative IPC: 0.60660 (Simulation time: 0 hr 25 min 34 sec) 
Heartbeat CPU  0 instructions:  561000000 cycles:  814275234 heartbeat IPC: 0.46334 cumulative IPC: 0.60620 (Simulation time: 0 hr 25 min 37 sec) 
Heartbeat CPU  0 instructions:  562000000 cycles:  816143543 heartbeat IPC: 0.53524 cumulative IPC: 0.60602 (Simulation time: 0 hr 25 min 40 sec) 
Heartbeat CPU  0 instructions:  563000003 cycles:  817828846 heartbeat IPC: 0.59337 cumulative IPC: 0.60600 (Simulation time: 0 hr 25 min 43 sec) 
Heartbeat CPU  0 instructions:  564000000 cycles:  819667121 heartbeat IPC: 0.54399 cumulative IPC: 0.60585 (Simulation time: 0 hr 25 min 46 sec) 
Heartbeat CPU  0 instructions:  565000000 cycles:  821332199 heartbeat IPC: 0.60057 cumulative IPC: 0.60584 (Simulation time: 0 hr 25 min 48 sec) 
Heartbeat CPU  0 instructions:  566000003 cycles:  822981455 heartbeat IPC: 0.60634 cumulative IPC: 0.60584 (Simulation time: 0 hr 25 min 51 sec) 
Heartbeat CPU  0 instructions:  567000001 cycles:  824636104 heartbeat IPC: 0.60436 cumulative IPC: 0.60583 (Simulation time: 0 hr 25 min 54 sec) 
Heartbeat CPU  0 instructions:  568000000 cycles:  826289544 heartbeat IPC: 0.60480 cumulative IPC: 0.60583 (Simulation time: 0 hr 25 min 57 sec) 
Heartbeat CPU  0 instructions:  569000000 cycles:  827944065 heartbeat IPC: 0.60440 cumulative IPC: 0.60583 (Simulation time: 0 hr 26 min 0 sec) 
Heartbeat CPU  0 instructions:  570000000 cycles:  829598586 heartbeat IPC: 0.60440 cumulative IPC: 0.60583 (Simulation time: 0 hr 26 min 3 sec) 
Heartbeat CPU  0 instructions:  571000000 cycles:  831373060 heartbeat IPC: 0.56355 cumulative IPC: 0.60573 (Simulation time: 0 hr 26 min 6 sec) 
Heartbeat CPU  0 instructions:  572000000 cycles:  833714073 heartbeat IPC: 0.42717 cumulative IPC: 0.60519 (Simulation time: 0 hr 26 min 9 sec) 
Heartbeat CPU  0 instructions:  573000002 cycles:  835376447 heartbeat IPC: 0.60155 cumulative IPC: 0.60519 (Simulation time: 0 hr 26 min 12 sec) 
Heartbeat CPU  0 instructions:  574000000 cycles:  837023050 heartbeat IPC: 0.60731 cumulative IPC: 0.60519 (Simulation time: 0 hr 26 min 14 sec) 
Heartbeat CPU  0 instructions:  575000003 cycles:  838677736 heartbeat IPC: 0.60435 cumulative IPC: 0.60519 (Simulation time: 0 hr 26 min 17 sec) 
Heartbeat CPU  0 instructions:  576000000 cycles:  840322621 heartbeat IPC: 0.60794 cumulative IPC: 0.60519 (Simulation time: 0 hr 26 min 20 sec) 
Heartbeat CPU  0 instructions:  577000002 cycles:  841977944 heartbeat IPC: 0.60411 cumulative IPC: 0.60519 (Simulation time: 0 hr 26 min 23 sec) 
Heartbeat CPU  0 instructions:  578000002 cycles:  843624223 heartbeat IPC: 0.60743 cumulative IPC: 0.60520 (Simulation time: 0 hr 26 min 26 sec) 
Heartbeat CPU  0 instructions:  579000001 cycles:  845278430 heartbeat IPC: 0.60452 cumulative IPC: 0.60519 (Simulation time: 0 hr 26 min 29 sec) 
Heartbeat CPU  0 instructions:  580000000 cycles:  846933277 heartbeat IPC: 0.60428 cumulative IPC: 0.60519 (Simulation time: 0 hr 26 min 31 sec) 
Heartbeat CPU  0 instructions:  581000000 cycles:  848588564 heartbeat IPC: 0.60412 cumulative IPC: 0.60519 (Simulation time: 0 hr 26 min 34 sec) 
Heartbeat CPU  0 instructions:  582000002 cycles:  850844390 heartbeat IPC: 0.44330 cumulative IPC: 0.60473 (Simulation time: 0 hr 26 min 37 sec) 
Heartbeat CPU  0 instructions:  583000000 cycles:  852620156 heartbeat IPC: 0.56314 cumulative IPC: 0.60464 (Simulation time: 0 hr 26 min 40 sec) 
Heartbeat CPU  0 instructions:  584000000 cycles:  854284652 heartbeat IPC: 0.60078 cumulative IPC: 0.60463 (Simulation time: 0 hr 26 min 43 sec) 
Heartbeat CPU  0 instructions:  585000001 cycles:  855945661 heartbeat IPC: 0.60204 cumulative IPC: 0.60463 (Simulation time: 0 hr 26 min 46 sec) 
Heartbeat CPU  0 instructions:  586000002 cycles:  857592951 heartbeat IPC: 0.60706 cumulative IPC: 0.60463 (Simulation time: 0 hr 26 min 49 sec) 
Heartbeat CPU  0 instructions:  587000002 cycles:  859247711 heartbeat IPC: 0.60432 cumulative IPC: 0.60463 (Simulation time: 0 hr 26 min 52 sec) 
Heartbeat CPU  0 instructions:  588000000 cycles:  860901580 heartbeat IPC: 0.60464 cumulative IPC: 0.60463 (Simulation time: 0 hr 26 min 55 sec) 
Heartbeat CPU  0 instructions:  589000002 cycles:  862556155 heartbeat IPC: 0.60439 cumulative IPC: 0.60463 (Simulation time: 0 hr 26 min 57 sec) 
Heartbeat CPU  0 instructions:  590000002 cycles:  864211488 heartbeat IPC: 0.60411 cumulative IPC: 0.60463 (Simulation time: 0 hr 27 min 0 sec) 
Heartbeat CPU  0 instructions:  591000001 cycles:  866040820 heartbeat IPC: 0.54665 cumulative IPC: 0.60450 (Simulation time: 0 hr 27 min 3 sec) 
Heartbeat CPU  0 instructions:  592000000 cycles:  868136554 heartbeat IPC: 0.47716 cumulative IPC: 0.60417 (Simulation time: 0 hr 27 min 6 sec) 
Heartbeat CPU  0 instructions:  593000003 cycles:  870840353 heartbeat IPC: 0.36985 cumulative IPC: 0.60340 (Simulation time: 0 hr 27 min 10 sec) 
Heartbeat CPU  0 instructions:  594000003 cycles:  873478159 heartbeat IPC: 0.37910 cumulative IPC: 0.60267 (Simulation time: 0 hr 27 min 13 sec) 
Heartbeat CPU  0 instructions:  595000000 cycles:  876049949 heartbeat IPC: 0.38883 cumulative IPC: 0.60201 (Simulation time: 0 hr 27 min 16 sec) 
Heartbeat CPU  0 instructions:  596000000 cycles:  878593421 heartbeat IPC: 0.39316 cumulative IPC: 0.60136 (Simulation time: 0 hr 27 min 19 sec) 
Heartbeat CPU  0 instructions:  597000003 cycles:  881172611 heartbeat IPC: 0.38772 cumulative IPC: 0.60070 (Simulation time: 0 hr 27 min 22 sec) 
Heartbeat CPU  0 instructions:  598000003 cycles:  883739306 heartbeat IPC: 0.38961 cumulative IPC: 0.60004 (Simulation time: 0 hr 27 min 25 sec) 
Heartbeat CPU  0 instructions:  599000003 cycles:  886357028 heartbeat IPC: 0.38201 cumulative IPC: 0.59936 (Simulation time: 0 hr 27 min 29 sec) 
Heartbeat CPU  0 instructions:  600000000 cycles:  888966786 heartbeat IPC: 0.38318 cumulative IPC: 0.59868 (Simulation time: 0 hr 27 min 32 sec) 
Finished CPU 0 instructions: 500000003 cycles: 835169149 cumulative IPC: 0.59868 (Simulation time: 0 hr 27 min 32 sec) 

ChampSim completed all CPUs

[ROI Statistics]
Core_0_instructions 500000003
Core_0_cycles 835169149
Core_0_IPC 0.59868

Core_0_branch_prediction_accuracy 99.13980
Core_0_branch_MPKI 0.20639
Core_0_average_ROB_occupancy_at_mispredict 243.56540

Core_0_L1D_total_access 145595813
Core_0_L1D_total_hit 140273919
Core_0_L1D_total_miss 5321894
Core_0_L1D_loads 132584118
Core_0_L1D_load_hit 128564352
Core_0_L1D_load_miss 4019766
Core_0_L1D_RFOs 13011695
Core_0_L1D_RFO_hit 11709567
Core_0_L1D_RFO_miss 1302128
Core_0_L1D_prefetches 0
Core_0_L1D_prefetch_hit 0
Core_0_L1D_prefetch_miss 0
Core_0_L1D_writebacks 0
Core_0_L1D_writeback_hit 0
Core_0_L1D_writeback_miss 0
Core_0_L1D_prefetch_requested 0
Core_0_L1D_prefetch_dropped 0
Core_0_L1D_prefetch_issued 0
Core_0_L1D_prefetch_filled 0
Core_0_L1D_prefetch_useful 0
Core_0_L1D_prefetch_useless 0
Core_0_L1D_prefetch_late 0
Core_0_L1D_average_miss_latency 169.64560

Core_0_L1D_rq_access 197253044
Core_0_L1D_rq_forward 0
Core_0_L1D_rq_merged 62080519
Core_0_L1D_rq_to_cache 135172525
Core_0_L1D_rq_full 0

Core_0_L1D_wq_access 16646357
Core_0_L1D_wq_forward 0
Core_0_L1D_wq_merged 0
Core_0_L1D_wq_to_cache 16646357
Core_0_L1D_wq_full 1451541

Core_0_L1D_pq_access 0
Core_0_L1D_pq_forward 0
Core_0_L1D_pq_merged 0
Core_0_L1D_pq_to_cache 0
Core_0_L1D_pq_full 0

Core_0_L1D_acc_epochs 863989
Core_0_L1D_acc_level_0 863989
Core_0_L1D_acc_level_1 0
Core_0_L1D_acc_level_2 0
Core_0_L1D_acc_level_3 0
Core_0_L1D_acc_level_4 0
Core_0_L1D_acc_level_5 0
Core_0_L1D_acc_level_6 0
Core_0_L1D_acc_level_7 0
Core_0_L1D_acc_level_8 0
Core_0_L1D_acc_level_9 0

Core_0_L1I_total_access 121168455
Core_0_L1I_total_hit 121168157
Core_0_L1I_total_miss 298
Core_0_L1I_loads 121168455
Core_0_L1I_load_hit 121168157
Core_0_L1I_load_miss 298
Core_0_L1I_RFOs 0
Core_0_L1I_RFO_hit 0
Core_0_L1I_RFO_miss 0
Core_0_L1I_prefetches 0
Core_0_L1I_prefetch_hit 0
Core_0_L1I_prefetch_miss 0
Core_0_L1I_writebacks 0
Core_0_L1I_writeback_hit 0
Core_0_L1I_writeback_miss 0
Core_0_L1I_prefetch_requested 0
Core_0_L1I_prefetch_dropped 0
Core_0_L1I_prefetch_issued 0
Core_0_L1I_prefetch_filled 0
Core_0_L1I_prefetch_useful 0
Core_0_L1I_prefetch_useless 0
Core_0_L1I_prefetch_late 0
Core_0_L1I_average_miss_latency 405.68456

Core_0_L1I_rq_access 500000208
Core_0_L1I_rq_forward 0
Core_0_L1I_rq_merged 378830699
Core_0_L1I_rq_to_cache 121169509
Core_0_L1I_rq_full 0

Core_0_L1I_wq_access 0
Core_0_L1I_wq_forward 0
Core_0_L1I_wq_merged 0
Core_0_L1I_wq_to_cache 0
Core_0_L1I_wq_full 0

Core_0_L1I_pq_access 0
Core_0_L1I_pq_forward 0
Core_0_L1I_pq_merged 0
Core_0_L1I_pq_to_cache 0
Core_0_L1I_pq_full 0

Core_0_L1I_acc_epochs 863989
Core_0_L1I_acc_level_0 863989
Core_0_L1I_acc_level_1 0
Core_0_L1I_acc_level_2 0
Core_0_L1I_acc_level_3 0
Core_0_L1I_acc_level_4 0
Core_0_L1I_acc_level_5 0
Core_0_L1I_acc_level_6 0
Core_0_L1I_acc_level_7 0
Core_0_L1I_acc_level_8 0
Core_0_L1I_acc_level_9 0

Core_0_L2C_total_access 6992824
Core_0_L2C_total_hit 3216322
Core_0_L2C_total_miss 3776502
Core_0_L2C_loads 4020021
Core_0_L2C_load_hit 1078966
Core_0_L2C_load_miss 2941055
Core_0_L2C_RFOs 1302006
Core_0_L2C_RFO_hit 466631
Core_0_L2C_RFO_miss 835375
Core_0_L2C_prefetches 0
Core_0_L2C_prefetch_hit 0
Core_0_L2C_prefetch_miss 0
Core_0_L2C_writebacks 1670797
Core_0_L2C_writeback_hit 1670725
Core_0_L2C_writeback_miss 72
Core_0_L2C_prefetch_requested 0
Core_0_L2C_prefetch_dropped 0
Core_0_L2C_prefetch_issued 0
Core_0_L2C_prefetch_filled 0
Core_0_L2C_prefetch_useful 0
Core_0_L2C_prefetch_useless 0
Core_0_L2C_prefetch_late 0
Core_0_L2C_average_miss_latency 219.24701

Core_0_L2C_rq_access 5322193
Core_0_L2C_rq_forward 0
Core_0_L2C_rq_merged 0
Core_0_L2C_rq_to_cache 5322028
Core_0_L2C_rq_full 0

Core_0_L2C_wq_access 1670797
Core_0_L2C_wq_forward 165
Core_0_L2C_wq_merged 0
Core_0_L2C_wq_to_cache 1670797
Core_0_L2C_wq_full 0

Core_0_L2C_pq_access 0
Core_0_L2C_pq_forward 0
Core_0_L2C_pq_merged 0
Core_0_L2C_pq_to_cache 0
Core_0_L2C_pq_full 0

Core_0_L2C_acc_epochs 863989
Core_0_L2C_acc_level_0 863989
Core_0_L2C_acc_level_1 0
Core_0_L2C_acc_level_2 0
Core_0_L2C_acc_level_3 0
Core_0_L2C_acc_level_4 0
Core_0_L2C_acc_level_5 0
Core_0_L2C_acc_level_6 0
Core_0_L2C_acc_level_7 0
Core_0_L2C_acc_level_8 0
Core_0_L2C_acc_level_9 0

Core_0_LLC_total_access 4743548
Core_0_LLC_total_hit 851408
Core_0_LLC_total_miss 3892140
Core_0_LLC_loads 2941055
Core_0_LLC_load_hit 430364
Core_0_LLC_load_miss 2510691
Core_0_LLC_RFOs 835375
Core_0_LLC_RFO_hit 122577
Core_0_LLC_RFO_miss 712798
Core_0_LLC_prefetches 0
Core_0_LLC_prefetch_hit 0
Core_0_LLC_prefetch_miss 0
Core_0_LLC_writebacks 967118
Core_0_LLC_writeback_hit 298467
Core_0_LLC_writeback_miss 668651
Core_0_LLC_prefetch_requested 0
Core_0_LLC_prefetch_dropped 0
Core_0_LLC_prefetch_issued 0
Core_0_LLC_prefetch_filled 0
Core_0_LLC_prefetch_useful 0
Core_0_LLC_prefetch_useless 0
Core_0_LLC_prefetch_late 0
Core_0_LLC_average_miss_latency 183.54613

Core_0_LLC_rq_access 3776431
Core_0_LLC_rq_forward 0
Core_0_LLC_rq_merged 0
Core_0_LLC_rq_to_cache 3776431
Core_0_LLC_rq_full 0

Core_0_LLC_wq_access 967118
Core_0_LLC_wq_forward 0
Core_0_LLC_wq_merged 0
Core_0_LLC_wq_to_cache 967118
Core_0_LLC_wq_full 0

Core_0_LLC_pq_access 0
Core_0_LLC_pq_forward 0
Core_0_LLC_pq_merged 0
Core_0_LLC_pq_to_cache 0
Core_0_LLC_pq_full 0

Core_0_LLC_acc_epochs 868132
Core_0_LLC_acc_level_0 868132
Core_0_LLC_acc_level_1 0
Core_0_LLC_acc_level_2 0
Core_0_LLC_acc_level_3 0
Core_0_LLC_acc_level_4 0
Core_0_LLC_acc_level_5 0
Core_0_LLC_acc_level_6 0
Core_0_LLC_acc_level_7 0
Core_0_LLC_acc_level_8 0
Core_0_LLC_acc_level_9 0

Core_0_major_page_fault 0
Core_0_minor_page_fault 14596

Channel_0_RQ_row_buffer_hit 761551
Channel_0_RQ_row_buffer_miss 2461938
Channel_0_WQ_row_buffer_hit 389988
Channel_0_WQ_row_buffer_miss 466717
Channel_0_WQ_full 0
Channel_0_dbus_congested 1124610

avg_congested_cycle 27

DRAM_bw_pochs 3472527
DRAM_bw_level_0 2014947
DRAM_bw_level_1 948987
DRAM_bw_level_2 353242
DRAM_bw_level_3 155351
