*************************************************
   ChampSim Multicore Out-of-Order Simulator
   Last compiled: Dec 11 2024 17:59:53
*************************************************
parsing config file: /home/functionmain/桌面/Pythia/config/pythia.ini

trace_0 /home/functionmain/桌面/Pythia/traces/437.leslie3d-232B.champsimtrace.xz
adding L2C_PREFETCHER: Scooby
Initialize SHIP state
warmup_instructions 100000000
simulation_instructions 500000000
champsim_seed 217
measure_ipc 0
measure_ipc_epoch 1000
measure_dram_bw 1
measure_dram_bw_epoch 256
measure_cache_acc 1
measure_cache_acc_epoch 1024
l1d_perfect 0
l2c_perfect 0
llc_perfect 0
l1d_semi_perfect 0
l2c_semi_perfect 0
llc_semi_perfect 0
semi_perfect_cache_page_buffer_size 64

num_cpus 1
cpu_freq 4000
dram_io_freq 150
page_size 4096
block_size 64
max_read_per_cycle 8
max_fill_per_cycle 1
dram_channels 1
log2_dram_channels 0
dram_ranks 1
dram_banks 8
dram_rows 65536
dram_columns 128
dram_row_size 8
dram_size 4096
dram_pages 1048576

fetch_width 6
decode_width 6
exec_width 4
lq_width 2
sq_width 2
retire_width 4
scheduler_size 128
branch_mispredict_penalty 20
rob_size 256
lq_size 72
sq_size 56
num_instr_destinations_sparc 4
num_instr_destinations 2
num_instr_sources 4

itlb_set 16
itlb_way 8
itlb_rq_size 16
itlb_wq_size 16
itlb_pq_size 0
itlb_mshr_size 8
itlb_latency 1

dtlb_set 16
dtlb_way 4
dtlb_rq_size 16
dtlb_wq_size 16
dtlb_pq_size 0
dtlb_mshr_size 8
dtlb_latency 1

stlb_set 128
stlb_way 12
stlb_rq_size 32
stlb_wq_size 32
stlb_pq_size 0
stlb_mshr_size 16
stlb_latency 8

l1i_size 32
l1i_set 64
l1i_way 8
l1i_rq_size 64
l1i_wq_size 64
l1i_pq_size 8
l1i_mshr_size 8
l1i_latency 1

l1d_size 32
l1d_set 64
l1d_way 8
l1d_rq_size 64
l1d_wq_size 64
l1d_pq_size 8
l1d_mshr_size 16
l1d_latency 4

l2c_size 256
l2c_set 512
l2c_way 8
l2c_rq_size 32
l2c_wq_size 32
l2c_pq_size 32
l2c_mshr_size 32
l2c_latency 10

llc_size 2048
llc_set 2048
llc_way 16
llc_rq_size 32
llc_wq_size 32
llc_pq_size 32
llc_mshr_size 64
llc_latency 20

dram_channel_width 8
dram_wq_size 64
dram_rq_size 64
tRP 15
tRCD 15
tCAS 12.5
dram_dbus_turn_around_time 30
dram_write_high_wm 56
dram_write_low_wm 48
min_dram_writes_per_switch 16
dram_mtps 150
dram_dbus_return_time 213

scooby_alpha 0.0065088
scooby_gamma 0.556301
scooby_epsilon 0.00182284
scooby_state_num_bits 10
scooby_max_states 1024
scooby_seed 200
scooby_policy EGreedy
scooby_learning_type SARSA
scooby_actions 1,3,4,5,10,11,12,22,23,30,32,-1,-3,-6,0,
scooby_max_actions 15
scooby_pt_size 256
scooby_st_size 64
scooby_max_pcs 5
scooby_max_offsets 5
scooby_max_deltas 5
scooby_reward_none -4
scooby_reward_incorrect -8
scooby_reward_correct_untimely 12
scooby_reward_correct_timely 20
scooby_brain_zero_init 0
scooby_enable_reward_all 0
scooby_enable_track_multiple 0
scooby_enable_reward_out_of_bounds 1
scooby_reward_out_of_bounds -12
scooby_state_type 1
scooby_state_hash_type 11
scooby_access_debug 0
scooby_print_access_debug 0
scooby_print_access_debug_pc deadbeef
scooby_print_access_debug_pc_count 0
scooby_print_trace 0
scooby_enable_state_action_stats 1
scooby_enable_reward_tracker_hit 0
scooby_reward_tracker_hit -2
scooby_enable_featurewise_engine 1
scooby_pref_degree 1
scooby_enable_dyn_degree 1
scooby_max_to_avg_q_thresholds 0.5,1,2,
scooby_dyn_degrees 1,2,4,4,
scooby_multi_deg_select_type 2
scooby_last_pref_offset_conf_thresholds 1,3,8,
scooby_dyn_degrees_type2 1,2,4,6,
scooby_action_tracker_size 2
scooby_high_bw_thresh 4
scooby_enable_hbw_reward 1
scooby_reward_hbw_correct_timely 20
scooby_reward_hbw_correct_untimely 12
scooby_reward_hbw_incorrect -14
scooby_reward_hbw_none -2
scooby_reward_hbw_out_of_bounds -12
scooby_reward_hbw_tracker_hit -2
scooby_last_pref_offset_conf_thresholds_hbw 1,3,8,
scooby_dyn_degrees_type2_hbw 1,2,4,6,

le_enable_trace 0
le_trace_interval 0
le_trace_file_name 
le_trace_state 0
le_enable_score_plot 0
le_plot_file_name 
le_plot_actions 
le_enable_action_trace 0
le_action_trace_interval 0
le_action_trace_name 
le_enable_action_plot 0

le_featurewise_active_features PC, PC_Delta
le_featurewise_num_tilings 3,3,
le_featurewise_num_tiles 128,128,
le_featurewise_hash_types 2,2,
le_featurewise_enable_tiling_offset 1,1,
le_featurewise_max_q_thresh 0.5
le_featurewise_enable_action_fallback 1
le_featurewise_feature_weights 1,1,
le_featurewise_enable_dynamic_weight 0
le_featurewise_weight_gradient 0.001
le_featurewise_disable_adjust_weight_all_features_align 1
le_featurewise_selective_update 0
le_featurewise_pooling_type 2
le_featurewise_enable_dyn_action_fallback 1
le_featurewise_bw_acc_check_level 1
le_featurewise_acc_thresh 2
le_featurewise_enable_trace 0
le_featurewise_trace_feature_type 0
le_featurewise_trace_feature 
le_featurewise_trace_interval 0
le_featurewise_trace_record_count 0
le_featurewise_trace_file_name 
le_featurewise_enable_score_plot 0
le_featurewise_plot_actions 
le_featurewise_plot_file_name 


Heartbeat CPU  0 instructions:    1000000 cycles:     488380 heartbeat IPC: 2.04759 cumulative IPC: 2.04759 (Simulation time: 0 hr 0 min 2 sec) 
Heartbeat CPU  0 instructions:    2000001 cycles:     996807 heartbeat IPC: 1.96685 cumulative IPC: 2.00641 (Simulation time: 0 hr 0 min 4 sec) 
Heartbeat CPU  0 instructions:    3000003 cycles:    1556287 heartbeat IPC: 1.78738 cumulative IPC: 1.92767 (Simulation time: 0 hr 0 min 6 sec) 
Heartbeat CPU  0 instructions:    4000000 cycles:    2081153 heartbeat IPC: 1.90524 cumulative IPC: 1.92201 (Simulation time: 0 hr 0 min 8 sec) 
Heartbeat CPU  0 instructions:    5000002 cycles:    2569368 heartbeat IPC: 2.04828 cumulative IPC: 1.94600 (Simulation time: 0 hr 0 min 10 sec) 
Heartbeat CPU  0 instructions:    6000003 cycles:    3057003 heartbeat IPC: 2.05072 cumulative IPC: 1.96271 (Simulation time: 0 hr 0 min 12 sec) 
Heartbeat CPU  0 instructions:    7000001 cycles:    3545036 heartbeat IPC: 2.04904 cumulative IPC: 1.97459 (Simulation time: 0 hr 0 min 14 sec) 
Heartbeat CPU  0 instructions:    8000000 cycles:    4033191 heartbeat IPC: 2.04853 cumulative IPC: 1.98354 (Simulation time: 0 hr 0 min 16 sec) 
Heartbeat CPU  0 instructions:    9000000 cycles:    4521750 heartbeat IPC: 2.04684 cumulative IPC: 1.99038 (Simulation time: 0 hr 0 min 18 sec) 
Heartbeat CPU  0 instructions:   10000003 cycles:    5010442 heartbeat IPC: 2.04628 cumulative IPC: 1.99583 (Simulation time: 0 hr 0 min 20 sec) 
Heartbeat CPU  0 instructions:   11000000 cycles:    5499247 heartbeat IPC: 2.04580 cumulative IPC: 2.00027 (Simulation time: 0 hr 0 min 22 sec) 
Heartbeat CPU  0 instructions:   12000000 cycles:    5987700 heartbeat IPC: 2.04728 cumulative IPC: 2.00411 (Simulation time: 0 hr 0 min 24 sec) 
Heartbeat CPU  0 instructions:   13000001 cycles:    6534617 heartbeat IPC: 1.82843 cumulative IPC: 1.98941 (Simulation time: 0 hr 0 min 26 sec) 
Heartbeat CPU  0 instructions:   14000001 cycles:    7090464 heartbeat IPC: 1.79906 cumulative IPC: 1.97448 (Simulation time: 0 hr 0 min 28 sec) 
Heartbeat CPU  0 instructions:   15000000 cycles:    7578645 heartbeat IPC: 2.04842 cumulative IPC: 1.97925 (Simulation time: 0 hr 0 min 30 sec) 
Heartbeat CPU  0 instructions:   16000000 cycles:    8066937 heartbeat IPC: 2.04795 cumulative IPC: 1.98340 (Simulation time: 0 hr 0 min 32 sec) 
Heartbeat CPU  0 instructions:   17000003 cycles:    8555182 heartbeat IPC: 2.04816 cumulative IPC: 1.98710 (Simulation time: 0 hr 0 min 34 sec) 
Heartbeat CPU  0 instructions:   18000003 cycles:    9043448 heartbeat IPC: 2.04806 cumulative IPC: 1.99039 (Simulation time: 0 hr 0 min 36 sec) 
Heartbeat CPU  0 instructions:   19000001 cycles:    9531852 heartbeat IPC: 2.04748 cumulative IPC: 1.99332 (Simulation time: 0 hr 0 min 38 sec) 
Heartbeat CPU  0 instructions:   20000000 cycles:   10020698 heartbeat IPC: 2.04563 cumulative IPC: 1.99587 (Simulation time: 0 hr 0 min 40 sec) 
Heartbeat CPU  0 instructions:   21000000 cycles:   10509625 heartbeat IPC: 2.04530 cumulative IPC: 1.99817 (Simulation time: 0 hr 0 min 43 sec) 
Heartbeat CPU  0 instructions:   22000002 cycles:   10997953 heartbeat IPC: 2.04781 cumulative IPC: 2.00037 (Simulation time: 0 hr 0 min 45 sec) 
Heartbeat CPU  0 instructions:   23000002 cycles:   11513254 heartbeat IPC: 1.94061 cumulative IPC: 1.99770 (Simulation time: 0 hr 0 min 47 sec) 
Heartbeat CPU  0 instructions:   24000000 cycles:   12072518 heartbeat IPC: 1.78806 cumulative IPC: 1.98799 (Simulation time: 0 hr 0 min 49 sec) 
Heartbeat CPU  0 instructions:   25000001 cycles:   12588256 heartbeat IPC: 1.93897 cumulative IPC: 1.98598 (Simulation time: 0 hr 0 min 51 sec) 
Heartbeat CPU  0 instructions:   26000001 cycles:   13076886 heartbeat IPC: 2.04654 cumulative IPC: 1.98824 (Simulation time: 0 hr 0 min 53 sec) 
Heartbeat CPU  0 instructions:   27000000 cycles:   13565350 heartbeat IPC: 2.04723 cumulative IPC: 1.99037 (Simulation time: 0 hr 0 min 55 sec) 
Heartbeat CPU  0 instructions:   28000000 cycles:   14054209 heartbeat IPC: 2.04558 cumulative IPC: 1.99229 (Simulation time: 0 hr 0 min 57 sec) 
Heartbeat CPU  0 instructions:   29000002 cycles:   14542753 heartbeat IPC: 2.04690 cumulative IPC: 1.99412 (Simulation time: 0 hr 0 min 59 sec) 
Heartbeat CPU  0 instructions:   30000001 cycles:   15031538 heartbeat IPC: 2.04589 cumulative IPC: 1.99580 (Simulation time: 0 hr 1 min 1 sec) 
Heartbeat CPU  0 instructions:   31000001 cycles:   15519520 heartbeat IPC: 2.04926 cumulative IPC: 1.99748 (Simulation time: 0 hr 1 min 3 sec) 
Heartbeat CPU  0 instructions:   32000000 cycles:   16007596 heartbeat IPC: 2.04886 cumulative IPC: 1.99905 (Simulation time: 0 hr 1 min 5 sec) 
Heartbeat CPU  0 instructions:   33000002 cycles:   16495884 heartbeat IPC: 2.04798 cumulative IPC: 2.00050 (Simulation time: 0 hr 1 min 7 sec) 
Heartbeat CPU  0 instructions:   34000001 cycles:   17051213 heartbeat IPC: 1.80073 cumulative IPC: 1.99399 (Simulation time: 0 hr 1 min 9 sec) 
Heartbeat CPU  0 instructions:   35000001 cycles:   17598146 heartbeat IPC: 1.82838 cumulative IPC: 1.98885 (Simulation time: 0 hr 1 min 11 sec) 
Heartbeat CPU  0 instructions:   36000000 cycles:   18086566 heartbeat IPC: 2.04742 cumulative IPC: 1.99043 (Simulation time: 0 hr 1 min 13 sec) 
Heartbeat CPU  0 instructions:   37000003 cycles:   18575594 heartbeat IPC: 2.04488 cumulative IPC: 1.99186 (Simulation time: 0 hr 1 min 15 sec) 
Heartbeat CPU  0 instructions:   38000001 cycles:   19064232 heartbeat IPC: 2.04650 cumulative IPC: 1.99326 (Simulation time: 0 hr 1 min 18 sec) 
Heartbeat CPU  0 instructions:   39000002 cycles:   19552821 heartbeat IPC: 2.04671 cumulative IPC: 1.99460 (Simulation time: 0 hr 1 min 20 sec) 
Heartbeat CPU  0 instructions:   40000000 cycles:   20040717 heartbeat IPC: 2.04961 cumulative IPC: 1.99594 (Simulation time: 0 hr 1 min 22 sec) 
Heartbeat CPU  0 instructions:   41000001 cycles:   20528548 heartbeat IPC: 2.04989 cumulative IPC: 1.99722 (Simulation time: 0 hr 1 min 24 sec) 
Heartbeat CPU  0 instructions:   42000001 cycles:   21016615 heartbeat IPC: 2.04890 cumulative IPC: 1.99842 (Simulation time: 0 hr 1 min 26 sec) 
Heartbeat CPU  0 instructions:   43000001 cycles:   21505111 heartbeat IPC: 2.04710 cumulative IPC: 1.99952 (Simulation time: 0 hr 1 min 28 sec) 
Heartbeat CPU  0 instructions:   44000000 cycles:   22029297 heartbeat IPC: 1.90772 cumulative IPC: 1.99734 (Simulation time: 0 hr 1 min 30 sec) 
Heartbeat CPU  0 instructions:   45000000 cycles:   22588958 heartbeat IPC: 1.78680 cumulative IPC: 1.99212 (Simulation time: 0 hr 1 min 32 sec) 
Heartbeat CPU  0 instructions:   46000002 cycles:   23097304 heartbeat IPC: 1.96717 cumulative IPC: 1.99157 (Simulation time: 0 hr 1 min 34 sec) 
Heartbeat CPU  0 instructions:   47000002 cycles:   23585970 heartbeat IPC: 2.04639 cumulative IPC: 1.99271 (Simulation time: 0 hr 1 min 36 sec) 
Heartbeat CPU  0 instructions:   48000000 cycles:   24074093 heartbeat IPC: 2.04866 cumulative IPC: 1.99384 (Simulation time: 0 hr 1 min 38 sec) 
Heartbeat CPU  0 instructions:   49000002 cycles:   24562191 heartbeat IPC: 2.04877 cumulative IPC: 1.99494 (Simulation time: 0 hr 1 min 40 sec) 
Heartbeat CPU  0 instructions:   50000000 cycles:   25050607 heartbeat IPC: 2.04743 cumulative IPC: 1.99596 (Simulation time: 0 hr 1 min 42 sec) 
Heartbeat CPU  0 instructions:   51000002 cycles:   25538807 heartbeat IPC: 2.04834 cumulative IPC: 1.99696 (Simulation time: 0 hr 1 min 44 sec) 
Heartbeat CPU  0 instructions:   52000000 cycles:   26027248 heartbeat IPC: 2.04733 cumulative IPC: 1.99791 (Simulation time: 0 hr 1 min 46 sec) 
Heartbeat CPU  0 instructions:   53000000 cycles:   26515554 heartbeat IPC: 2.04790 cumulative IPC: 1.99883 (Simulation time: 0 hr 1 min 48 sec) 
Heartbeat CPU  0 instructions:   54000000 cycles:   27008160 heartbeat IPC: 2.03002 cumulative IPC: 1.99940 (Simulation time: 0 hr 1 min 50 sec) 
Heartbeat CPU  0 instructions:   55000002 cycles:   27567379 heartbeat IPC: 1.78821 cumulative IPC: 1.99511 (Simulation time: 0 hr 1 min 52 sec) 
Heartbeat CPU  0 instructions:   56000000 cycles:   28107850 heartbeat IPC: 1.85023 cumulative IPC: 1.99233 (Simulation time: 0 hr 1 min 55 sec) 
Heartbeat CPU  0 instructions:   57000000 cycles:   28595897 heartbeat IPC: 2.04898 cumulative IPC: 1.99329 (Simulation time: 0 hr 1 min 57 sec) 
Heartbeat CPU  0 instructions:   58000003 cycles:   29083796 heartbeat IPC: 2.04961 cumulative IPC: 1.99424 (Simulation time: 0 hr 1 min 59 sec) 
Heartbeat CPU  0 instructions:   59000001 cycles:   29571839 heartbeat IPC: 2.04900 cumulative IPC: 1.99514 (Simulation time: 0 hr 2 min 1 sec) 
Heartbeat CPU  0 instructions:   60000000 cycles:   30060165 heartbeat IPC: 2.04781 cumulative IPC: 1.99600 (Simulation time: 0 hr 2 min 3 sec) 
Heartbeat CPU  0 instructions:   61000000 cycles:   30548712 heartbeat IPC: 2.04689 cumulative IPC: 1.99681 (Simulation time: 0 hr 2 min 5 sec) 
Heartbeat CPU  0 instructions:   62000000 cycles:   31037573 heartbeat IPC: 2.04557 cumulative IPC: 1.99758 (Simulation time: 0 hr 2 min 7 sec) 
Heartbeat CPU  0 instructions:   63000002 cycles:   31526143 heartbeat IPC: 2.04679 cumulative IPC: 1.99834 (Simulation time: 0 hr 2 min 9 sec) 
Heartbeat CPU  0 instructions:   64000000 cycles:   32014614 heartbeat IPC: 2.04720 cumulative IPC: 1.99909 (Simulation time: 0 hr 2 min 11 sec) 
Heartbeat CPU  0 instructions:   65000000 cycles:   32545750 heartbeat IPC: 1.88276 cumulative IPC: 1.99719 (Simulation time: 0 hr 2 min 13 sec) 
Heartbeat CPU  0 instructions:   66000001 cycles:   33105008 heartbeat IPC: 1.78809 cumulative IPC: 1.99366 (Simulation time: 0 hr 2 min 15 sec) 
Heartbeat CPU  0 instructions:   67000000 cycles:   33605225 heartbeat IPC: 1.99913 cumulative IPC: 1.99374 (Simulation time: 0 hr 2 min 17 sec) 
Heartbeat CPU  0 instructions:   68000000 cycles:   34093454 heartbeat IPC: 2.04822 cumulative IPC: 1.99452 (Simulation time: 0 hr 2 min 19 sec) 
Heartbeat CPU  0 instructions:   69000001 cycles:   34581913 heartbeat IPC: 2.04726 cumulative IPC: 1.99526 (Simulation time: 0 hr 2 min 21 sec) 
Heartbeat CPU  0 instructions:   70000001 cycles:   35070054 heartbeat IPC: 2.04859 cumulative IPC: 1.99600 (Simulation time: 0 hr 2 min 23 sec) 
Heartbeat CPU  0 instructions:   71000003 cycles:   35558815 heartbeat IPC: 2.04599 cumulative IPC: 1.99669 (Simulation time: 0 hr 2 min 25 sec) 
Heartbeat CPU  0 instructions:   72000000 cycles:   36047688 heartbeat IPC: 2.04551 cumulative IPC: 1.99735 (Simulation time: 0 hr 2 min 27 sec) 
Heartbeat CPU  0 instructions:   73000001 cycles:   36536607 heartbeat IPC: 2.04533 cumulative IPC: 1.99800 (Simulation time: 0 hr 2 min 29 sec) 
Heartbeat CPU  0 instructions:   74000000 cycles:   37024666 heartbeat IPC: 2.04893 cumulative IPC: 1.99867 (Simulation time: 0 hr 2 min 31 sec) 
Heartbeat CPU  0 instructions:   75000001 cycles:   37524338 heartbeat IPC: 2.00131 cumulative IPC: 1.99870 (Simulation time: 0 hr 2 min 34 sec) 
Heartbeat CPU  0 instructions:   76000000 cycles:   38083601 heartbeat IPC: 1.78807 cumulative IPC: 1.99561 (Simulation time: 0 hr 2 min 36 sec) 
Heartbeat CPU  0 instructions:   77000002 cycles:   38614659 heartbeat IPC: 1.88304 cumulative IPC: 1.99406 (Simulation time: 0 hr 2 min 38 sec) 
Heartbeat CPU  0 instructions:   78000001 cycles:   39103032 heartbeat IPC: 2.04761 cumulative IPC: 1.99473 (Simulation time: 0 hr 2 min 40 sec) 
Heartbeat CPU  0 instructions:   79000001 cycles:   39591882 heartbeat IPC: 2.04562 cumulative IPC: 1.99536 (Simulation time: 0 hr 2 min 42 sec) 
Heartbeat CPU  0 instructions:   80000000 cycles:   40080445 heartbeat IPC: 2.04682 cumulative IPC: 1.99599 (Simulation time: 0 hr 2 min 44 sec) 
Heartbeat CPU  0 instructions:   81000003 cycles:   40569152 heartbeat IPC: 2.04622 cumulative IPC: 1.99659 (Simulation time: 0 hr 2 min 46 sec) 
Heartbeat CPU  0 instructions:   82000001 cycles:   41057327 heartbeat IPC: 2.04844 cumulative IPC: 1.99721 (Simulation time: 0 hr 2 min 48 sec) 
Heartbeat CPU  0 instructions:   83000000 cycles:   41545334 heartbeat IPC: 2.04915 cumulative IPC: 1.99782 (Simulation time: 0 hr 2 min 50 sec) 
Heartbeat CPU  0 instructions:   84000000 cycles:   42033448 heartbeat IPC: 2.04870 cumulative IPC: 1.99841 (Simulation time: 0 hr 2 min 52 sec) 
Heartbeat CPU  0 instructions:   85000002 cycles:   42521772 heartbeat IPC: 2.04782 cumulative IPC: 1.99898 (Simulation time: 0 hr 2 min 54 sec) 
Heartbeat CPU  0 instructions:   86000000 cycles:   43062285 heartbeat IPC: 1.85009 cumulative IPC: 1.99711 (Simulation time: 0 hr 2 min 56 sec) 
Heartbeat CPU  0 instructions:   87000002 cycles:   43621772 heartbeat IPC: 1.78736 cumulative IPC: 1.99442 (Simulation time: 0 hr 2 min 58 sec) 
Heartbeat CPU  0 instructions:   88000000 cycles:   44133368 heartbeat IPC: 1.95466 cumulative IPC: 1.99396 (Simulation time: 0 hr 3 min 0 sec) 
Heartbeat CPU  0 instructions:   89000002 cycles:   44660742 heartbeat IPC: 1.89619 cumulative IPC: 1.99280 (Simulation time: 0 hr 3 min 2 sec) 
Heartbeat CPU  0 instructions:   90000002 cycles:   45187611 heartbeat IPC: 1.89801 cumulative IPC: 1.99170 (Simulation time: 0 hr 3 min 4 sec) 
Heartbeat CPU  0 instructions:   91000003 cycles:   45714824 heartbeat IPC: 1.89677 cumulative IPC: 1.99060 (Simulation time: 0 hr 3 min 6 sec) 
Heartbeat CPU  0 instructions:   92000000 cycles:   46241587 heartbeat IPC: 1.89838 cumulative IPC: 1.98955 (Simulation time: 0 hr 3 min 8 sec) 
Heartbeat CPU  0 instructions:   93000001 cycles:   46768535 heartbeat IPC: 1.89772 cumulative IPC: 1.98852 (Simulation time: 0 hr 3 min 10 sec) 
Heartbeat CPU  0 instructions:   94000003 cycles:   47296307 heartbeat IPC: 1.89476 cumulative IPC: 1.98747 (Simulation time: 0 hr 3 min 13 sec) 
Heartbeat CPU  0 instructions:   95000001 cycles:   47822932 heartbeat IPC: 1.89888 cumulative IPC: 1.98649 (Simulation time: 0 hr 3 min 15 sec) 
Heartbeat CPU  0 instructions:   96000000 cycles:   48349755 heartbeat IPC: 1.89817 cumulative IPC: 1.98553 (Simulation time: 0 hr 3 min 17 sec) 
Heartbeat CPU  0 instructions:   97000003 cycles:   48877261 heartbeat IPC: 1.89572 cumulative IPC: 1.98456 (Simulation time: 0 hr 3 min 19 sec) 
Heartbeat CPU  0 instructions:   98000002 cycles:   49403354 heartbeat IPC: 1.90080 cumulative IPC: 1.98367 (Simulation time: 0 hr 3 min 21 sec) 
Heartbeat CPU  0 instructions:   99000002 cycles:   49930041 heartbeat IPC: 1.89866 cumulative IPC: 1.98277 (Simulation time: 0 hr 3 min 23 sec) 
Heartbeat CPU  0 instructions:  100000000 cycles:   50457246 heartbeat IPC: 1.89679 cumulative IPC: 1.98188 (Simulation time: 0 hr 3 min 25 sec) 

Warmup complete CPU  0 instructions:  100000001 cycles:   50457247 (Simulation time: 0 hr 3 min 25 sec) 

Heartbeat CPU  0 instructions:  101000002 cycles:   52353795 heartbeat IPC: 0.52727 cumulative IPC: 0.52727 (Simulation time: 0 hr 3 min 28 sec) 
Heartbeat CPU  0 instructions:  102000002 cycles:   54218560 heartbeat IPC: 0.53626 cumulative IPC: 0.53173 (Simulation time: 0 hr 3 min 31 sec) 
Heartbeat CPU  0 instructions:  103000000 cycles:   55895319 heartbeat IPC: 0.59639 cumulative IPC: 0.55167 (Simulation time: 0 hr 3 min 34 sec) 
Heartbeat CPU  0 instructions:  104000000 cycles:   57682762 heartbeat IPC: 0.55946 cumulative IPC: 0.55359 (Simulation time: 0 hr 3 min 37 sec) 
Heartbeat CPU  0 instructions:  105000002 cycles:   59458552 heartbeat IPC: 0.56313 cumulative IPC: 0.55548 (Simulation time: 0 hr 3 min 40 sec) 
Heartbeat CPU  0 instructions:  106000000 cycles:   61310108 heartbeat IPC: 0.54009 cumulative IPC: 0.55285 (Simulation time: 0 hr 3 min 43 sec) 
Heartbeat CPU  0 instructions:  107000003 cycles:   63150010 heartbeat IPC: 0.54351 cumulative IPC: 0.55150 (Simulation time: 0 hr 3 min 46 sec) 
Heartbeat CPU  0 instructions:  108000000 cycles:   64908497 heartbeat IPC: 0.56867 cumulative IPC: 0.55359 (Simulation time: 0 hr 3 min 49 sec) 
Heartbeat CPU  0 instructions:  109000002 cycles:   67636727 heartbeat IPC: 0.36654 cumulative IPC: 0.52388 (Simulation time: 0 hr 3 min 52 sec) 
Heartbeat CPU  0 instructions:  110000000 cycles:   69441848 heartbeat IPC: 0.55398 cumulative IPC: 0.52674 (Simulation time: 0 hr 3 min 55 sec) 
Heartbeat CPU  0 instructions:  111000000 cycles:   71003859 heartbeat IPC: 0.64020 cumulative IPC: 0.53537 (Simulation time: 0 hr 3 min 58 sec) 
Heartbeat CPU  0 instructions:  112000000 cycles:   72659728 heartbeat IPC: 0.60391 cumulative IPC: 0.54048 (Simulation time: 0 hr 4 min 1 sec) 
Heartbeat CPU  0 instructions:  113000001 cycles:   74278248 heartbeat IPC: 0.61785 cumulative IPC: 0.54574 (Simulation time: 0 hr 4 min 4 sec) 
Heartbeat CPU  0 instructions:  114000000 cycles:   76052152 heartbeat IPC: 0.56373 cumulative IPC: 0.54698 (Simulation time: 0 hr 4 min 7 sec) 
Heartbeat CPU  0 instructions:  115000001 cycles:   77760602 heartbeat IPC: 0.58533 cumulative IPC: 0.54938 (Simulation time: 0 hr 4 min 10 sec) 
Heartbeat CPU  0 instructions:  116000000 cycles:   79495357 heartbeat IPC: 0.57645 cumulative IPC: 0.55100 (Simulation time: 0 hr 4 min 13 sec) 
Heartbeat CPU  0 instructions:  117000003 cycles:   81337650 heartbeat IPC: 0.54280 cumulative IPC: 0.55051 (Simulation time: 0 hr 4 min 16 sec) 
Heartbeat CPU  0 instructions:  118000000 cycles:   83268137 heartbeat IPC: 0.51800 cumulative IPC: 0.54860 (Simulation time: 0 hr 4 min 19 sec) 
Heartbeat CPU  0 instructions:  119000002 cycles:   85867972 heartbeat IPC: 0.38464 cumulative IPC: 0.53656 (Simulation time: 0 hr 4 min 22 sec) 
Heartbeat CPU  0 instructions:  120000000 cycles:   87938571 heartbeat IPC: 0.48295 cumulative IPC: 0.53360 (Simulation time: 0 hr 4 min 25 sec) 
Heartbeat CPU  0 instructions:  121000003 cycles:   89539855 heartbeat IPC: 0.62450 cumulative IPC: 0.53732 (Simulation time: 0 hr 4 min 28 sec) 
Heartbeat CPU  0 instructions:  122000003 cycles:   91172512 heartbeat IPC: 0.61250 cumulative IPC: 0.54034 (Simulation time: 0 hr 4 min 31 sec) 
Heartbeat CPU  0 instructions:  123000000 cycles:   92825566 heartbeat IPC: 0.60494 cumulative IPC: 0.54286 (Simulation time: 0 hr 4 min 34 sec) 
Heartbeat CPU  0 instructions:  124000000 cycles:   94684974 heartbeat IPC: 0.53781 cumulative IPC: 0.54265 (Simulation time: 0 hr 4 min 37 sec) 
Heartbeat CPU  0 instructions:  125000003 cycles:   96554331 heartbeat IPC: 0.53494 cumulative IPC: 0.54233 (Simulation time: 0 hr 4 min 40 sec) 
Heartbeat CPU  0 instructions:  126000000 cycles:   98242581 heartbeat IPC: 0.59233 cumulative IPC: 0.54410 (Simulation time: 0 hr 4 min 43 sec) 
Heartbeat CPU  0 instructions:  127000000 cycles:  100077904 heartbeat IPC: 0.54486 cumulative IPC: 0.54413 (Simulation time: 0 hr 4 min 46 sec) 
Heartbeat CPU  0 instructions:  128000000 cycles:  101937425 heartbeat IPC: 0.53777 cumulative IPC: 0.54390 (Simulation time: 0 hr 4 min 49 sec) 
Heartbeat CPU  0 instructions:  129000002 cycles:  103874650 heartbeat IPC: 0.51620 cumulative IPC: 0.54289 (Simulation time: 0 hr 4 min 52 sec) 
Heartbeat CPU  0 instructions:  130000001 cycles:  106605476 heartbeat IPC: 0.36619 cumulative IPC: 0.53430 (Simulation time: 0 hr 4 min 55 sec) 
Heartbeat CPU  0 instructions:  131000002 cycles:  108468116 heartbeat IPC: 0.53687 cumulative IPC: 0.53438 (Simulation time: 0 hr 4 min 58 sec) 
Heartbeat CPU  0 instructions:  132000000 cycles:  110154531 heartbeat IPC: 0.59297 cumulative IPC: 0.53604 (Simulation time: 0 hr 5 min 1 sec) 
Heartbeat CPU  0 instructions:  133000000 cycles:  112397752 heartbeat IPC: 0.44579 cumulative IPC: 0.53277 (Simulation time: 0 hr 5 min 4 sec) 
Heartbeat CPU  0 instructions:  134000001 cycles:  114171354 heartbeat IPC: 0.56382 cumulative IPC: 0.53363 (Simulation time: 0 hr 5 min 7 sec) 
Heartbeat CPU  0 instructions:  135000002 cycles:  115944931 heartbeat IPC: 0.56383 cumulative IPC: 0.53445 (Simulation time: 0 hr 5 min 10 sec) 
Heartbeat CPU  0 instructions:  136000000 cycles:  117702323 heartbeat IPC: 0.56902 cumulative IPC: 0.53536 (Simulation time: 0 hr 5 min 13 sec) 
Heartbeat CPU  0 instructions:  137000001 cycles:  119406080 heartbeat IPC: 0.58694 cumulative IPC: 0.53663 (Simulation time: 0 hr 5 min 16 sec) 
Heartbeat CPU  0 instructions:  138000003 cycles:  121137831 heartbeat IPC: 0.57745 cumulative IPC: 0.53763 (Simulation time: 0 hr 5 min 19 sec) 
Heartbeat CPU  0 instructions:  139000000 cycles:  122964686 heartbeat IPC: 0.54739 cumulative IPC: 0.53788 (Simulation time: 0 hr 5 min 22 sec) 
Heartbeat CPU  0 instructions:  140000000 cycles:  125969391 heartbeat IPC: 0.33281 cumulative IPC: 0.52972 (Simulation time: 0 hr 5 min 26 sec) 
Heartbeat CPU  0 instructions:  141000001 cycles:  129465579 heartbeat IPC: 0.28603 cumulative IPC: 0.51893 (Simulation time: 0 hr 5 min 29 sec) 
Heartbeat CPU  0 instructions:  142000001 cycles:  132612285 heartbeat IPC: 0.31779 cumulative IPC: 0.51123 (Simulation time: 0 hr 5 min 33 sec) 
Heartbeat CPU  0 instructions:  143000000 cycles:  135332562 heartbeat IPC: 0.36761 cumulative IPC: 0.50663 (Simulation time: 0 hr 5 min 36 sec) 
Heartbeat CPU  0 instructions:  144000000 cycles:  138087484 heartbeat IPC: 0.36299 cumulative IPC: 0.50211 (Simulation time: 0 hr 5 min 39 sec) 
Heartbeat CPU  0 instructions:  145000001 cycles:  140803429 heartbeat IPC: 0.36820 cumulative IPC: 0.49808 (Simulation time: 0 hr 5 min 42 sec) 
Heartbeat CPU  0 instructions:  146000001 cycles:  143572475 heartbeat IPC: 0.36114 cumulative IPC: 0.49401 (Simulation time: 0 hr 5 min 46 sec) 
Heartbeat CPU  0 instructions:  147000002 cycles:  146571326 heartbeat IPC: 0.33346 cumulative IPC: 0.48900 (Simulation time: 0 hr 5 min 49 sec) 
Heartbeat CPU  0 instructions:  148000000 cycles:  150383257 heartbeat IPC: 0.26233 cumulative IPC: 0.48036 (Simulation time: 0 hr 5 min 53 sec) 
Heartbeat CPU  0 instructions:  149000000 cycles:  154841941 heartbeat IPC: 0.22428 cumulative IPC: 0.46942 (Simulation time: 0 hr 5 min 57 sec) 
Heartbeat CPU  0 instructions:  150000001 cycles:  158036096 heartbeat IPC: 0.31307 cumulative IPC: 0.46478 (Simulation time: 0 hr 6 min 0 sec) 
Heartbeat CPU  0 instructions:  151000002 cycles:  161033089 heartbeat IPC: 0.33367 cumulative IPC: 0.46122 (Simulation time: 0 hr 6 min 3 sec) 
Heartbeat CPU  0 instructions:  152000000 cycles:  163820171 heartbeat IPC: 0.35880 cumulative IPC: 0.45870 (Simulation time: 0 hr 6 min 7 sec) 
Heartbeat CPU  0 instructions:  153000002 cycles:  166620665 heartbeat IPC: 0.35708 cumulative IPC: 0.45625 (Simulation time: 0 hr 6 min 10 sec) 
Heartbeat CPU  0 instructions:  154000000 cycles:  169413322 heartbeat IPC: 0.35808 cumulative IPC: 0.45395 (Simulation time: 0 hr 6 min 13 sec) 
Heartbeat CPU  0 instructions:  155000003 cycles:  172849103 heartbeat IPC: 0.29106 cumulative IPC: 0.44938 (Simulation time: 0 hr 6 min 16 sec) 
Heartbeat CPU  0 instructions:  156000000 cycles:  177152168 heartbeat IPC: 0.23239 cumulative IPC: 0.44201 (Simulation time: 0 hr 6 min 20 sec) 
Heartbeat CPU  0 instructions:  157000003 cycles:  181096693 heartbeat IPC: 0.25352 cumulative IPC: 0.43632 (Simulation time: 0 hr 6 min 24 sec) 
Heartbeat CPU  0 instructions:  158000003 cycles:  184462786 heartbeat IPC: 0.29708 cumulative IPC: 0.43282 (Simulation time: 0 hr 6 min 27 sec) 
Heartbeat CPU  0 instructions:  159000003 cycles:  187517633 heartbeat IPC: 0.32735 cumulative IPC: 0.43047 (Simulation time: 0 hr 6 min 31 sec) 
Heartbeat CPU  0 instructions:  160000000 cycles:  190434447 heartbeat IPC: 0.34284 cumulative IPC: 0.42864 (Simulation time: 0 hr 6 min 34 sec) 
Heartbeat CPU  0 instructions:  161000001 cycles:  193192424 heartbeat IPC: 0.36258 cumulative IPC: 0.42736 (Simulation time: 0 hr 6 min 37 sec) 
Heartbeat CPU  0 instructions:  162000001 cycles:  196111962 heartbeat IPC: 0.34252 cumulative IPC: 0.42566 (Simulation time: 0 hr 6 min 41 sec) 
Heartbeat CPU  0 instructions:  163000002 cycles:  199063273 heartbeat IPC: 0.33883 cumulative IPC: 0.42394 (Simulation time: 0 hr 6 min 44 sec) 
Heartbeat CPU  0 instructions:  164000000 cycles:  202681662 heartbeat IPC: 0.27637 cumulative IPC: 0.42043 (Simulation time: 0 hr 6 min 48 sec) 
Heartbeat CPU  0 instructions:  165000000 cycles:  205958054 heartbeat IPC: 0.30521 cumulative IPC: 0.41800 (Simulation time: 0 hr 6 min 52 sec) 
Heartbeat CPU  0 instructions:  166000002 cycles:  208152080 heartbeat IPC: 0.45578 cumulative IPC: 0.41853 (Simulation time: 0 hr 6 min 56 sec) 
Heartbeat CPU  0 instructions:  167000002 cycles:  210343752 heartbeat IPC: 0.45627 cumulative IPC: 0.41905 (Simulation time: 0 hr 6 min 59 sec) 
Heartbeat CPU  0 instructions:  168000000 cycles:  212491541 heartbeat IPC: 0.46559 cumulative IPC: 0.41966 (Simulation time: 0 hr 7 min 2 sec) 
Heartbeat CPU  0 instructions:  169000002 cycles:  214567784 heartbeat IPC: 0.48164 cumulative IPC: 0.42045 (Simulation time: 0 hr 7 min 6 sec) 
Heartbeat CPU  0 instructions:  170000002 cycles:  216710166 heartbeat IPC: 0.46677 cumulative IPC: 0.42105 (Simulation time: 0 hr 7 min 9 sec) 
Heartbeat CPU  0 instructions:  171000003 cycles:  218818128 heartbeat IPC: 0.47439 cumulative IPC: 0.42171 (Simulation time: 0 hr 7 min 12 sec) 
Heartbeat CPU  0 instructions:  172000000 cycles:  220857588 heartbeat IPC: 0.49032 cumulative IPC: 0.42253 (Simulation time: 0 hr 7 min 15 sec) 
Heartbeat CPU  0 instructions:  173000003 cycles:  222936798 heartbeat IPC: 0.48095 cumulative IPC: 0.42324 (Simulation time: 0 hr 7 min 19 sec) 
Heartbeat CPU  0 instructions:  174000000 cycles:  224975949 heartbeat IPC: 0.49040 cumulative IPC: 0.42402 (Simulation time: 0 hr 7 min 22 sec) 
Heartbeat CPU  0 instructions:  175000000 cycles:  227040775 heartbeat IPC: 0.48430 cumulative IPC: 0.42473 (Simulation time: 0 hr 7 min 25 sec) 
Heartbeat CPU  0 instructions:  176000000 cycles:  229107800 heartbeat IPC: 0.48379 cumulative IPC: 0.42541 (Simulation time: 0 hr 7 min 28 sec) 
Heartbeat CPU  0 instructions:  177000003 cycles:  231191974 heartbeat IPC: 0.47981 cumulative IPC: 0.42604 (Simulation time: 0 hr 7 min 32 sec) 
Heartbeat CPU  0 instructions:  178000001 cycles:  233208362 heartbeat IPC: 0.49594 cumulative IPC: 0.42681 (Simulation time: 0 hr 7 min 35 sec) 
Heartbeat CPU  0 instructions:  179000000 cycles:  235320087 heartbeat IPC: 0.47355 cumulative IPC: 0.42734 (Simulation time: 0 hr 7 min 38 sec) 
Heartbeat CPU  0 instructions:  180000000 cycles:  237397498 heartbeat IPC: 0.48137 cumulative IPC: 0.42794 (Simulation time: 0 hr 7 min 42 sec) 
Heartbeat CPU  0 instructions:  181000000 cycles:  239561362 heartbeat IPC: 0.46214 cumulative IPC: 0.42834 (Simulation time: 0 hr 7 min 45 sec) 
Heartbeat CPU  0 instructions:  182000001 cycles:  241831145 heartbeat IPC: 0.44057 cumulative IPC: 0.42848 (Simulation time: 0 hr 7 min 48 sec) 
Heartbeat CPU  0 instructions:  183000003 cycles:  244132755 heartbeat IPC: 0.43448 cumulative IPC: 0.42855 (Simulation time: 0 hr 7 min 52 sec) 
Heartbeat CPU  0 instructions:  184000000 cycles:  246409922 heartbeat IPC: 0.43914 cumulative IPC: 0.42867 (Simulation time: 0 hr 7 min 55 sec) 
Heartbeat CPU  0 instructions:  185000000 cycles:  248718591 heartbeat IPC: 0.43315 cumulative IPC: 0.42873 (Simulation time: 0 hr 7 min 58 sec) 
Heartbeat CPU  0 instructions:  186000002 cycles:  250972307 heartbeat IPC: 0.44371 cumulative IPC: 0.42890 (Simulation time: 0 hr 8 min 2 sec) 
Heartbeat CPU  0 instructions:  187000001 cycles:  253293645 heartbeat IPC: 0.43079 cumulative IPC: 0.42892 (Simulation time: 0 hr 8 min 5 sec) 
Heartbeat CPU  0 instructions:  188000000 cycles:  255570254 heartbeat IPC: 0.43925 cumulative IPC: 0.42903 (Simulation time: 0 hr 8 min 8 sec) 
Heartbeat CPU  0 instructions:  189000001 cycles:  257890024 heartbeat IPC: 0.43108 cumulative IPC: 0.42905 (Simulation time: 0 hr 8 min 12 sec) 
Heartbeat CPU  0 instructions:  190000002 cycles:  260196291 heartbeat IPC: 0.43360 cumulative IPC: 0.42910 (Simulation time: 0 hr 8 min 15 sec) 
Heartbeat CPU  0 instructions:  191000001 cycles:  262573566 heartbeat IPC: 0.42065 cumulative IPC: 0.42901 (Simulation time: 0 hr 8 min 19 sec) 
Heartbeat CPU  0 instructions:  192000000 cycles:  264908493 heartbeat IPC: 0.42828 cumulative IPC: 0.42900 (Simulation time: 0 hr 8 min 22 sec) 
Heartbeat CPU  0 instructions:  193000003 cycles:  267254565 heartbeat IPC: 0.42625 cumulative IPC: 0.42897 (Simulation time: 0 hr 8 min 25 sec) 
Heartbeat CPU  0 instructions:  194000002 cycles:  270136448 heartbeat IPC: 0.34699 cumulative IPC: 0.42790 (Simulation time: 0 hr 8 min 29 sec) 
Heartbeat CPU  0 instructions:  195000000 cycles:  272278468 heartbeat IPC: 0.46685 cumulative IPC: 0.42827 (Simulation time: 0 hr 8 min 32 sec) 
Heartbeat CPU  0 instructions:  196000000 cycles:  273905608 heartbeat IPC: 0.61458 cumulative IPC: 0.42963 (Simulation time: 0 hr 8 min 35 sec) 
Heartbeat CPU  0 instructions:  197000003 cycles:  275427924 heartbeat IPC: 0.65690 cumulative IPC: 0.43117 (Simulation time: 0 hr 8 min 38 sec) 
Heartbeat CPU  0 instructions:  198000000 cycles:  276880149 heartbeat IPC: 0.68860 cumulative IPC: 0.43282 (Simulation time: 0 hr 8 min 40 sec) 
Heartbeat CPU  0 instructions:  199000000 cycles:  278230661 heartbeat IPC: 0.74046 cumulative IPC: 0.43464 (Simulation time: 0 hr 8 min 43 sec) 
Heartbeat CPU  0 instructions:  200000000 cycles:  279808703 heartbeat IPC: 0.63370 cumulative IPC: 0.43601 (Simulation time: 0 hr 8 min 46 sec) 
Heartbeat CPU  0 instructions:  201000002 cycles:  281144748 heartbeat IPC: 0.74848 cumulative IPC: 0.43782 (Simulation time: 0 hr 8 min 49 sec) 
Heartbeat CPU  0 instructions:  202000000 cycles:  282312016 heartbeat IPC: 0.85670 cumulative IPC: 0.43993 (Simulation time: 0 hr 8 min 51 sec) 
Heartbeat CPU  0 instructions:  203000001 cycles:  283380501 heartbeat IPC: 0.93591 cumulative IPC: 0.44221 (Simulation time: 0 hr 8 min 54 sec) 
Heartbeat CPU  0 instructions:  204000000 cycles:  284549438 heartbeat IPC: 0.85548 cumulative IPC: 0.44427 (Simulation time: 0 hr 8 min 56 sec) 
Heartbeat CPU  0 instructions:  205000002 cycles:  285767924 heartbeat IPC: 0.82069 cumulative IPC: 0.44622 (Simulation time: 0 hr 8 min 59 sec) 
Heartbeat CPU  0 instructions:  206000003 cycles:  286929201 heartbeat IPC: 0.86112 cumulative IPC: 0.44826 (Simulation time: 0 hr 9 min 1 sec) 
Heartbeat CPU  0 instructions:  207000001 cycles:  288029135 heartbeat IPC: 0.90914 cumulative IPC: 0.45039 (Simulation time: 0 hr 9 min 4 sec) 
Heartbeat CPU  0 instructions:  208000000 cycles:  289146299 heartbeat IPC: 0.89512 cumulative IPC: 0.45247 (Simulation time: 0 hr 9 min 7 sec) 
Heartbeat CPU  0 instructions:  209000001 cycles:  290295145 heartbeat IPC: 0.87044 cumulative IPC: 0.45447 (Simulation time: 0 hr 9 min 9 sec) 
Heartbeat CPU  0 instructions:  210000003 cycles:  291492764 heartbeat IPC: 0.83499 cumulative IPC: 0.45636 (Simulation time: 0 hr 9 min 12 sec) 
Heartbeat CPU  0 instructions:  211000002 cycles:  292635331 heartbeat IPC: 0.87522 cumulative IPC: 0.45834 (Simulation time: 0 hr 9 min 14 sec) 
Heartbeat CPU  0 instructions:  212000000 cycles:  293674333 heartbeat IPC: 0.96246 cumulative IPC: 0.46049 (Simulation time: 0 hr 9 min 17 sec) 
Heartbeat CPU  0 instructions:  213000003 cycles:  294826874 heartbeat IPC: 0.86765 cumulative IPC: 0.46241 (Simulation time: 0 hr 9 min 19 sec) 
Heartbeat CPU  0 instructions:  214000001 cycles:  295975847 heartbeat IPC: 0.87034 cumulative IPC: 0.46432 (Simulation time: 0 hr 9 min 22 sec) 
Heartbeat CPU  0 instructions:  215000002 cycles:  297162752 heartbeat IPC: 0.84253 cumulative IPC: 0.46614 (Simulation time: 0 hr 9 min 24 sec) 
Heartbeat CPU  0 instructions:  216000000 cycles:  298289155 heartbeat IPC: 0.88778 cumulative IPC: 0.46806 (Simulation time: 0 hr 9 min 27 sec) 
Heartbeat CPU  0 instructions:  217000002 cycles:  299352529 heartbeat IPC: 0.94040 cumulative IPC: 0.47008 (Simulation time: 0 hr 9 min 29 sec) 
Heartbeat CPU  0 instructions:  218000000 cycles:  300541315 heartbeat IPC: 0.84119 cumulative IPC: 0.47184 (Simulation time: 0 hr 9 min 32 sec) 
Heartbeat CPU  0 instructions:  219000003 cycles:  301702692 heartbeat IPC: 0.86105 cumulative IPC: 0.47364 (Simulation time: 0 hr 9 min 35 sec) 
Heartbeat CPU  0 instructions:  220000000 cycles:  302853084 heartbeat IPC: 0.86927 cumulative IPC: 0.47544 (Simulation time: 0 hr 9 min 37 sec) 
Heartbeat CPU  0 instructions:  221000002 cycles:  303934736 heartbeat IPC: 0.92451 cumulative IPC: 0.47736 (Simulation time: 0 hr 9 min 40 sec) 
Heartbeat CPU  0 instructions:  222000001 cycles:  305060202 heartbeat IPC: 0.88852 cumulative IPC: 0.47918 (Simulation time: 0 hr 9 min 42 sec) 
Heartbeat CPU  0 instructions:  223000000 cycles:  306253104 heartbeat IPC: 0.83829 cumulative IPC: 0.48085 (Simulation time: 0 hr 9 min 45 sec) 
Heartbeat CPU  0 instructions:  224000000 cycles:  307436336 heartbeat IPC: 0.84514 cumulative IPC: 0.48253 (Simulation time: 0 hr 9 min 47 sec) 
Heartbeat CPU  0 instructions:  225000001 cycles:  308554811 heartbeat IPC: 0.89408 cumulative IPC: 0.48431 (Simulation time: 0 hr 9 min 50 sec) 
Heartbeat CPU  0 instructions:  226000003 cycles:  309646538 heartbeat IPC: 0.91598 cumulative IPC: 0.48613 (Simulation time: 0 hr 9 min 52 sec) 
Heartbeat CPU  0 instructions:  227000001 cycles:  310813306 heartbeat IPC: 0.85707 cumulative IPC: 0.48779 (Simulation time: 0 hr 9 min 55 sec) 
Heartbeat CPU  0 instructions:  228000000 cycles:  311955828 heartbeat IPC: 0.87526 cumulative IPC: 0.48949 (Simulation time: 0 hr 9 min 58 sec) 
Heartbeat CPU  0 instructions:  229000002 cycles:  313158188 heartbeat IPC: 0.83170 cumulative IPC: 0.49105 (Simulation time: 0 hr 10 min 0 sec) 
Heartbeat CPU  0 instructions:  230000002 cycles:  314179305 heartbeat IPC: 0.97932 cumulative IPC: 0.49294 (Simulation time: 0 hr 10 min 3 sec) 
Heartbeat CPU  0 instructions:  231000001 cycles:  315349361 heartbeat IPC: 0.85466 cumulative IPC: 0.49454 (Simulation time: 0 hr 10 min 5 sec) 
Heartbeat CPU  0 instructions:  232000000 cycles:  316527909 heartbeat IPC: 0.84850 cumulative IPC: 0.49611 (Simulation time: 0 hr 10 min 8 sec) 
Heartbeat CPU  0 instructions:  233000000 cycles:  317686898 heartbeat IPC: 0.86282 cumulative IPC: 0.49770 (Simulation time: 0 hr 10 min 11 sec) 
Heartbeat CPU  0 instructions:  234000001 cycles:  318823449 heartbeat IPC: 0.87986 cumulative IPC: 0.49932 (Simulation time: 0 hr 10 min 13 sec) 
Heartbeat CPU  0 instructions:  235000002 cycles:  319880557 heartbeat IPC: 0.94598 cumulative IPC: 0.50107 (Simulation time: 0 hr 10 min 16 sec) 
Heartbeat CPU  0 instructions:  236000000 cycles:  321032311 heartbeat IPC: 0.86824 cumulative IPC: 0.50263 (Simulation time: 0 hr 10 min 18 sec) 
Heartbeat CPU  0 instructions:  237000000 cycles:  322211804 heartbeat IPC: 0.84782 cumulative IPC: 0.50413 (Simulation time: 0 hr 10 min 21 sec) 
Heartbeat CPU  0 instructions:  238000001 cycles:  323337750 heartbeat IPC: 0.88814 cumulative IPC: 0.50572 (Simulation time: 0 hr 10 min 23 sec) 
Heartbeat CPU  0 instructions:  239000003 cycles:  324417818 heartbeat IPC: 0.92587 cumulative IPC: 0.50737 (Simulation time: 0 hr 10 min 26 sec) 
Heartbeat CPU  0 instructions:  240000000 cycles:  325553956 heartbeat IPC: 0.88017 cumulative IPC: 0.50891 (Simulation time: 0 hr 10 min 28 sec) 
Heartbeat CPU  0 instructions:  241000000 cycles:  326725983 heartbeat IPC: 0.85322 cumulative IPC: 0.51037 (Simulation time: 0 hr 10 min 31 sec) 
Heartbeat CPU  0 instructions:  242000000 cycles:  327906269 heartbeat IPC: 0.84725 cumulative IPC: 0.51181 (Simulation time: 0 hr 10 min 34 sec) 
Heartbeat CPU  0 instructions:  243000003 cycles:  329031382 heartbeat IPC: 0.88880 cumulative IPC: 0.51333 (Simulation time: 0 hr 10 min 36 sec) 
Heartbeat CPU  0 instructions:  244000000 cycles:  330112471 heartbeat IPC: 0.92499 cumulative IPC: 0.51492 (Simulation time: 0 hr 10 min 39 sec) 
Heartbeat CPU  0 instructions:  245000000 cycles:  331288440 heartbeat IPC: 0.85036 cumulative IPC: 0.51632 (Simulation time: 0 hr 10 min 41 sec) 
Heartbeat CPU  0 instructions:  246000002 cycles:  332458163 heartbeat IPC: 0.85490 cumulative IPC: 0.51773 (Simulation time: 0 hr 10 min 44 sec) 
Heartbeat CPU  0 instructions:  247000000 cycles:  333635348 heartbeat IPC: 0.84948 cumulative IPC: 0.51911 (Simulation time: 0 hr 10 min 46 sec) 
Heartbeat CPU  0 instructions:  248000000 cycles:  334694776 heartbeat IPC: 0.94391 cumulative IPC: 0.52069 (Simulation time: 0 hr 10 min 49 sec) 
Heartbeat CPU  0 instructions:  249000000 cycles:  335793104 heartbeat IPC: 0.91047 cumulative IPC: 0.52219 (Simulation time: 0 hr 10 min 51 sec) 
Heartbeat CPU  0 instructions:  250000001 cycles:  336958288 heartbeat IPC: 0.85823 cumulative IPC: 0.52356 (Simulation time: 0 hr 10 min 54 sec) 
Heartbeat CPU  0 instructions:  251000003 cycles:  338111159 heartbeat IPC: 0.86740 cumulative IPC: 0.52494 (Simulation time: 0 hr 10 min 57 sec) 
Heartbeat CPU  0 instructions:  252000000 cycles:  339309569 heartbeat IPC: 0.83444 cumulative IPC: 0.52622 (Simulation time: 0 hr 10 min 59 sec) 
Heartbeat CPU  0 instructions:  253000000 cycles:  340327364 heartbeat IPC: 0.98252 cumulative IPC: 0.52782 (Simulation time: 0 hr 11 min 2 sec) 
Heartbeat CPU  0 instructions:  254000000 cycles:  341470009 heartbeat IPC: 0.87516 cumulative IPC: 0.52919 (Simulation time: 0 hr 11 min 4 sec) 
Heartbeat CPU  0 instructions:  255000003 cycles:  342632615 heartbeat IPC: 0.86014 cumulative IPC: 0.53050 (Simulation time: 0 hr 11 min 7 sec) 
Heartbeat CPU  0 instructions:  256000000 cycles:  343777489 heartbeat IPC: 0.87346 cumulative IPC: 0.53184 (Simulation time: 0 hr 11 min 9 sec) 
Heartbeat CPU  0 instructions:  257000003 cycles:  344900259 heartbeat IPC: 0.89066 cumulative IPC: 0.53321 (Simulation time: 0 hr 11 min 12 sec) 
Heartbeat CPU  0 instructions:  258000000 cycles:  345985080 heartbeat IPC: 0.92181 cumulative IPC: 0.53464 (Simulation time: 0 hr 11 min 15 sec) 
Heartbeat CPU  0 instructions:  259000003 cycles:  347132313 heartbeat IPC: 0.87167 cumulative IPC: 0.53594 (Simulation time: 0 hr 11 min 17 sec) 
Heartbeat CPU  0 instructions:  260000000 cycles:  348296869 heartbeat IPC: 0.85869 cumulative IPC: 0.53720 (Simulation time: 0 hr 11 min 20 sec) 
Heartbeat CPU  0 instructions:  261000001 cycles:  349445538 heartbeat IPC: 0.87057 cumulative IPC: 0.53848 (Simulation time: 0 hr 11 min 22 sec) 
Heartbeat CPU  0 instructions:  262000000 cycles:  350517064 heartbeat IPC: 0.93325 cumulative IPC: 0.53989 (Simulation time: 0 hr 11 min 25 sec) 
Heartbeat CPU  0 instructions:  263000000 cycles:  351643011 heartbeat IPC: 0.88814 cumulative IPC: 0.54119 (Simulation time: 0 hr 11 min 27 sec) 
Heartbeat CPU  0 instructions:  264000000 cycles:  352807883 heartbeat IPC: 0.85846 cumulative IPC: 0.54242 (Simulation time: 0 hr 11 min 30 sec) 
Heartbeat CPU  0 instructions:  265000002 cycles:  353976316 heartbeat IPC: 0.85585 cumulative IPC: 0.54362 (Simulation time: 0 hr 11 min 32 sec) 
Heartbeat CPU  0 instructions:  266000001 cycles:  355098117 heartbeat IPC: 0.89142 cumulative IPC: 0.54490 (Simulation time: 0 hr 11 min 35 sec) 
Heartbeat CPU  0 instructions:  267000000 cycles:  356174524 heartbeat IPC: 0.92902 cumulative IPC: 0.54626 (Simulation time: 0 hr 11 min 38 sec) 
Heartbeat CPU  0 instructions:  268000000 cycles:  357350744 heartbeat IPC: 0.85018 cumulative IPC: 0.54742 (Simulation time: 0 hr 11 min 40 sec) 
Heartbeat CPU  0 instructions:  269000003 cycles:  358507816 heartbeat IPC: 0.86425 cumulative IPC: 0.54861 (Simulation time: 0 hr 11 min 43 sec) 
Heartbeat CPU  0 instructions:  270000002 cycles:  359695060 heartbeat IPC: 0.84229 cumulative IPC: 0.54974 (Simulation time: 0 hr 11 min 45 sec) 
Heartbeat CPU  0 instructions:  271000000 cycles:  360755325 heartbeat IPC: 0.94316 cumulative IPC: 0.55108 (Simulation time: 0 hr 11 min 48 sec) 
Heartbeat CPU  0 instructions:  272000000 cycles:  361908366 heartbeat IPC: 0.86727 cumulative IPC: 0.55225 (Simulation time: 0 hr 11 min 50 sec) 
Heartbeat CPU  0 instructions:  273000002 cycles:  363083238 heartbeat IPC: 0.85116 cumulative IPC: 0.55338 (Simulation time: 0 hr 11 min 53 sec) 
Heartbeat CPU  0 instructions:  274000002 cycles:  364208068 heartbeat IPC: 0.88902 cumulative IPC: 0.55458 (Simulation time: 0 hr 11 min 55 sec) 
Heartbeat CPU  0 instructions:  275000001 cycles:  365334789 heartbeat IPC: 0.88753 cumulative IPC: 0.55577 (Simulation time: 0 hr 11 min 58 sec) 
Heartbeat CPU  0 instructions:  276000000 cycles:  366422085 heartbeat IPC: 0.91971 cumulative IPC: 0.55702 (Simulation time: 0 hr 12 min 1 sec) 
Heartbeat CPU  0 instructions:  277000003 cycles:  367578503 heartbeat IPC: 0.86474 cumulative IPC: 0.55815 (Simulation time: 0 hr 12 min 3 sec) 
Heartbeat CPU  0 instructions:  278000003 cycles:  368755778 heartbeat IPC: 0.84942 cumulative IPC: 0.55922 (Simulation time: 0 hr 12 min 6 sec) 
Heartbeat CPU  0 instructions:  279000003 cycles:  369894695 heartbeat IPC: 0.87803 cumulative IPC: 0.56036 (Simulation time: 0 hr 12 min 8 sec) 
Heartbeat CPU  0 instructions:  280000000 cycles:  370983975 heartbeat IPC: 0.91803 cumulative IPC: 0.56158 (Simulation time: 0 hr 12 min 11 sec) 
Heartbeat CPU  0 instructions:  281000002 cycles:  372109641 heartbeat IPC: 0.88836 cumulative IPC: 0.56272 (Simulation time: 0 hr 12 min 13 sec) 
Heartbeat CPU  0 instructions:  282000001 cycles:  373260354 heartbeat IPC: 0.86903 cumulative IPC: 0.56381 (Simulation time: 0 hr 12 min 16 sec) 
Heartbeat CPU  0 instructions:  283000002 cycles:  374438532 heartbeat IPC: 0.84877 cumulative IPC: 0.56485 (Simulation time: 0 hr 12 min 18 sec) 
Heartbeat CPU  0 instructions:  284000000 cycles:  375584099 heartbeat IPC: 0.87293 cumulative IPC: 0.56593 (Simulation time: 0 hr 12 min 21 sec) 
Heartbeat CPU  0 instructions:  285000002 cycles:  376615330 heartbeat IPC: 0.96972 cumulative IPC: 0.56721 (Simulation time: 0 hr 12 min 23 sec) 
Heartbeat CPU  0 instructions:  286000000 cycles:  377787621 heartbeat IPC: 0.85303 cumulative IPC: 0.56823 (Simulation time: 0 hr 12 min 26 sec) 
Heartbeat CPU  0 instructions:  287000001 cycles:  378925091 heartbeat IPC: 0.87914 cumulative IPC: 0.56931 (Simulation time: 0 hr 12 min 29 sec) 
Heartbeat CPU  0 instructions:  288000000 cycles:  380110638 heartbeat IPC: 0.84349 cumulative IPC: 0.57030 (Simulation time: 0 hr 12 min 31 sec) 
Heartbeat CPU  0 instructions:  289000000 cycles:  381225728 heartbeat IPC: 0.89679 cumulative IPC: 0.57140 (Simulation time: 0 hr 12 min 34 sec) 
Heartbeat CPU  0 instructions:  290000000 cycles:  382330500 heartbeat IPC: 0.90516 cumulative IPC: 0.57251 (Simulation time: 0 hr 12 min 36 sec) 
Heartbeat CPU  0 instructions:  291000002 cycles:  383520500 heartbeat IPC: 0.84034 cumulative IPC: 0.57346 (Simulation time: 0 hr 12 min 39 sec) 
Heartbeat CPU  0 instructions:  292000000 cycles:  384695577 heartbeat IPC: 0.85101 cumulative IPC: 0.57444 (Simulation time: 0 hr 12 min 41 sec) 
Heartbeat CPU  0 instructions:  293000001 cycles:  385861143 heartbeat IPC: 0.85795 cumulative IPC: 0.57543 (Simulation time: 0 hr 12 min 44 sec) 
Heartbeat CPU  0 instructions:  294000002 cycles:  386908839 heartbeat IPC: 0.95448 cumulative IPC: 0.57661 (Simulation time: 0 hr 12 min 47 sec) 
Heartbeat CPU  0 instructions:  295000003 cycles:  388069512 heartbeat IPC: 0.86157 cumulative IPC: 0.57759 (Simulation time: 0 hr 12 min 49 sec) 
Heartbeat CPU  0 instructions:  296000000 cycles:  389273098 heartbeat IPC: 0.83085 cumulative IPC: 0.57849 (Simulation time: 0 hr 12 min 52 sec) 
Heartbeat CPU  0 instructions:  297000003 cycles:  390445120 heartbeat IPC: 0.85323 cumulative IPC: 0.57943 (Simulation time: 0 hr 12 min 54 sec) 
Heartbeat CPU  0 instructions:  298000002 cycles:  391548692 heartbeat IPC: 0.90615 cumulative IPC: 0.58049 (Simulation time: 0 hr 12 min 57 sec) 
Heartbeat CPU  0 instructions:  299000003 cycles:  392669962 heartbeat IPC: 0.89185 cumulative IPC: 0.58151 (Simulation time: 0 hr 12 min 59 sec) 
Heartbeat CPU  0 instructions:  300000000 cycles:  393827434 heartbeat IPC: 0.86395 cumulative IPC: 0.58246 (Simulation time: 0 hr 13 min 2 sec) 
Heartbeat CPU  0 instructions:  301000000 cycles:  394954045 heartbeat IPC: 0.88762 cumulative IPC: 0.58346 (Simulation time: 0 hr 13 min 4 sec) 
Heartbeat CPU  0 instructions:  302000003 cycles:  396114951 heartbeat IPC: 0.86140 cumulative IPC: 0.58439 (Simulation time: 0 hr 13 min 7 sec) 
Heartbeat CPU  0 instructions:  303000002 cycles:  397138093 heartbeat IPC: 0.97738 cumulative IPC: 0.58555 (Simulation time: 0 hr 13 min 10 sec) 
Heartbeat CPU  0 instructions:  304000000 cycles:  398312389 heartbeat IPC: 0.85157 cumulative IPC: 0.58645 (Simulation time: 0 hr 13 min 12 sec) 
Heartbeat CPU  0 instructions:  305000001 cycles:  399466361 heartbeat IPC: 0.86657 cumulative IPC: 0.58738 (Simulation time: 0 hr 13 min 15 sec) 
Heartbeat CPU  0 instructions:  306000003 cycles:  400607664 heartbeat IPC: 0.87619 cumulative IPC: 0.58832 (Simulation time: 0 hr 13 min 17 sec) 
Heartbeat CPU  0 instructions:  307000000 cycles:  401742079 heartbeat IPC: 0.88151 cumulative IPC: 0.58927 (Simulation time: 0 hr 13 min 20 sec) 
Heartbeat CPU  0 instructions:  308000000 cycles:  402811913 heartbeat IPC: 0.93472 cumulative IPC: 0.59031 (Simulation time: 0 hr 13 min 22 sec) 
Heartbeat CPU  0 instructions:  309000000 cycles:  403992513 heartbeat IPC: 0.84703 cumulative IPC: 0.59117 (Simulation time: 0 hr 13 min 25 sec) 
Heartbeat CPU  0 instructions:  310000003 cycles:  405155850 heartbeat IPC: 0.85960 cumulative IPC: 0.59205 (Simulation time: 0 hr 13 min 27 sec) 
Heartbeat CPU  0 instructions:  311000001 cycles:  406287293 heartbeat IPC: 0.88383 cumulative IPC: 0.59298 (Simulation time: 0 hr 13 min 30 sec) 
Heartbeat CPU  0 instructions:  312000000 cycles:  407363644 heartbeat IPC: 0.92906 cumulative IPC: 0.59399 (Simulation time: 0 hr 13 min 32 sec) 
Heartbeat CPU  0 instructions:  313000001 cycles:  408505352 heartbeat IPC: 0.87588 cumulative IPC: 0.59489 (Simulation time: 0 hr 13 min 35 sec) 
Heartbeat CPU  0 instructions:  314000000 cycles:  409676130 heartbeat IPC: 0.85413 cumulative IPC: 0.59574 (Simulation time: 0 hr 13 min 38 sec) 
Heartbeat CPU  0 instructions:  315000000 cycles:  410841580 heartbeat IPC: 0.85804 cumulative IPC: 0.59659 (Simulation time: 0 hr 13 min 40 sec) 
Heartbeat CPU  0 instructions:  316000000 cycles:  411962626 heartbeat IPC: 0.89202 cumulative IPC: 0.59750 (Simulation time: 0 hr 13 min 43 sec) 
Heartbeat CPU  0 instructions:  317000000 cycles:  413057487 heartbeat IPC: 0.91336 cumulative IPC: 0.59846 (Simulation time: 0 hr 13 min 45 sec) 
Heartbeat CPU  0 instructions:  318000000 cycles:  414216804 heartbeat IPC: 0.86258 cumulative IPC: 0.59930 (Simulation time: 0 hr 13 min 48 sec) 
Heartbeat CPU  0 instructions:  319000001 cycles:  415380038 heartbeat IPC: 0.85967 cumulative IPC: 0.60013 (Simulation time: 0 hr 13 min 50 sec) 
Heartbeat CPU  0 instructions:  320000000 cycles:  416559924 heartbeat IPC: 0.84754 cumulative IPC: 0.60092 (Simulation time: 0 hr 13 min 53 sec) 
Heartbeat CPU  0 instructions:  321000003 cycles:  417612032 heartbeat IPC: 0.95048 cumulative IPC: 0.60193 (Simulation time: 0 hr 13 min 55 sec) 
Heartbeat CPU  0 instructions:  322000003 cycles:  418745801 heartbeat IPC: 0.88201 cumulative IPC: 0.60279 (Simulation time: 0 hr 13 min 58 sec) 
Heartbeat CPU  0 instructions:  323000003 cycles:  419925309 heartbeat IPC: 0.84781 cumulative IPC: 0.60357 (Simulation time: 0 hr 14 min 1 sec) 
Heartbeat CPU  0 instructions:  324000000 cycles:  421093803 heartbeat IPC: 0.85580 cumulative IPC: 0.60437 (Simulation time: 0 hr 14 min 3 sec) 
Heartbeat CPU  0 instructions:  325000000 cycles:  422267944 heartbeat IPC: 0.85169 cumulative IPC: 0.60515 (Simulation time: 0 hr 14 min 6 sec) 
Heartbeat CPU  0 instructions:  326000001 cycles:  423275027 heartbeat IPC: 0.99297 cumulative IPC: 0.60619 (Simulation time: 0 hr 14 min 8 sec) 
Heartbeat CPU  0 instructions:  327000001 cycles:  424428538 heartbeat IPC: 0.86692 cumulative IPC: 0.60700 (Simulation time: 0 hr 14 min 11 sec) 
Heartbeat CPU  0 instructions:  328000000 cycles:  425589407 heartbeat IPC: 0.86142 cumulative IPC: 0.60779 (Simulation time: 0 hr 14 min 13 sec) 
Heartbeat CPU  0 instructions:  329000000 cycles:  426742923 heartbeat IPC: 0.86691 cumulative IPC: 0.60858 (Simulation time: 0 hr 14 min 16 sec) 
Heartbeat CPU  0 instructions:  330000000 cycles:  427862415 heartbeat IPC: 0.89326 cumulative IPC: 0.60942 (Simulation time: 0 hr 14 min 18 sec) 
Heartbeat CPU  0 instructions:  331000003 cycles:  428948897 heartbeat IPC: 0.92040 cumulative IPC: 0.61032 (Simulation time: 0 hr 14 min 21 sec) 
Heartbeat CPU  0 instructions:  332000000 cycles:  430121583 heartbeat IPC: 0.85274 cumulative IPC: 0.61107 (Simulation time: 0 hr 14 min 23 sec) 
Heartbeat CPU  0 instructions:  333000002 cycles:  431294670 heartbeat IPC: 0.85245 cumulative IPC: 0.61181 (Simulation time: 0 hr 14 min 26 sec) 
Heartbeat CPU  0 instructions:  334000003 cycles:  432457916 heartbeat IPC: 0.85966 cumulative IPC: 0.61256 (Simulation time: 0 hr 14 min 29 sec) 
Heartbeat CPU  0 instructions:  335000000 cycles:  433512176 heartbeat IPC: 0.94853 cumulative IPC: 0.61349 (Simulation time: 0 hr 14 min 31 sec) 
Heartbeat CPU  0 instructions:  336000000 cycles:  434661045 heartbeat IPC: 0.87042 cumulative IPC: 0.61426 (Simulation time: 0 hr 14 min 34 sec) 
Heartbeat CPU  0 instructions:  337000001 cycles:  435796902 heartbeat IPC: 0.88039 cumulative IPC: 0.61504 (Simulation time: 0 hr 14 min 36 sec) 
Heartbeat CPU  0 instructions:  338000003 cycles:  436964774 heartbeat IPC: 0.85626 cumulative IPC: 0.61577 (Simulation time: 0 hr 14 min 39 sec) 
Heartbeat CPU  0 instructions:  339000000 cycles:  438073306 heartbeat IPC: 0.90209 cumulative IPC: 0.61659 (Simulation time: 0 hr 14 min 41 sec) 
Heartbeat CPU  0 instructions:  340000000 cycles:  439184453 heartbeat IPC: 0.89997 cumulative IPC: 0.61740 (Simulation time: 0 hr 14 min 44 sec) 
Heartbeat CPU  0 instructions:  341000002 cycles:  440368184 heartbeat IPC: 0.84479 cumulative IPC: 0.61809 (Simulation time: 0 hr 14 min 46 sec) 
Heartbeat CPU  0 instructions:  342000001 cycles:  441504494 heartbeat IPC: 0.88004 cumulative IPC: 0.61885 (Simulation time: 0 hr 14 min 49 sec) 
Heartbeat CPU  0 instructions:  343000001 cycles:  442684986 heartbeat IPC: 0.84710 cumulative IPC: 0.61954 (Simulation time: 0 hr 14 min 52 sec) 
Heartbeat CPU  0 instructions:  344000000 cycles:  443727528 heartbeat IPC: 0.95919 cumulative IPC: 0.62044 (Simulation time: 0 hr 14 min 54 sec) 
Heartbeat CPU  0 instructions:  345000001 cycles:  444878187 heartbeat IPC: 0.86907 cumulative IPC: 0.62116 (Simulation time: 0 hr 14 min 57 sec) 
Heartbeat CPU  0 instructions:  346000001 cycles:  446053397 heartbeat IPC: 0.85091 cumulative IPC: 0.62185 (Simulation time: 0 hr 14 min 59 sec) 
Heartbeat CPU  0 instructions:  347000003 cycles:  448047523 heartbeat IPC: 0.50147 cumulative IPC: 0.62124 (Simulation time: 0 hr 15 min 2 sec) 
Heartbeat CPU  0 instructions:  348000000 cycles:  451802733 heartbeat IPC: 0.26630 cumulative IPC: 0.61792 (Simulation time: 0 hr 15 min 6 sec) 
Heartbeat CPU  0 instructions:  349000002 cycles:  455608302 heartbeat IPC: 0.26277 cumulative IPC: 0.61459 (Simulation time: 0 hr 15 min 10 sec) 
Heartbeat CPU  0 instructions:  350000000 cycles:  459054460 heartbeat IPC: 0.29018 cumulative IPC: 0.61185 (Simulation time: 0 hr 15 min 13 sec) 
Heartbeat CPU  0 instructions:  351000002 cycles:  462504084 heartbeat IPC: 0.28989 cumulative IPC: 0.60915 (Simulation time: 0 hr 15 min 17 sec) 
Heartbeat CPU  0 instructions:  352000000 cycles:  465919098 heartbeat IPC: 0.29282 cumulative IPC: 0.60655 (Simulation time: 0 hr 15 min 21 sec) 
Heartbeat CPU  0 instructions:  353000000 cycles:  469442090 heartbeat IPC: 0.28385 cumulative IPC: 0.60384 (Simulation time: 0 hr 15 min 24 sec) 
Heartbeat CPU  0 instructions:  354000000 cycles:  473136204 heartbeat IPC: 0.27070 cumulative IPC: 0.60093 (Simulation time: 0 hr 15 min 28 sec) 
Heartbeat CPU  0 instructions:  355000003 cycles:  476792303 heartbeat IPC: 0.27352 cumulative IPC: 0.59812 (Simulation time: 0 hr 15 min 32 sec) 
Heartbeat CPU  0 instructions:  356000000 cycles:  480767823 heartbeat IPC: 0.25154 cumulative IPC: 0.59492 (Simulation time: 0 hr 15 min 36 sec) 
Heartbeat CPU  0 instructions:  357000000 cycles:  484860845 heartbeat IPC: 0.24432 cumulative IPC: 0.59162 (Simulation time: 0 hr 15 min 40 sec) 
Heartbeat CPU  0 instructions:  358000000 cycles:  488927339 heartbeat IPC: 0.24591 cumulative IPC: 0.58841 (Simulation time: 0 hr 15 min 44 sec) 
Heartbeat CPU  0 instructions:  359000001 cycles:  493028687 heartbeat IPC: 0.24382 cumulative IPC: 0.58522 (Simulation time: 0 hr 15 min 48 sec) 
Heartbeat CPU  0 instructions:  360000000 cycles:  497206217 heartbeat IPC: 0.23938 cumulative IPC: 0.58198 (Simulation time: 0 hr 15 min 52 sec) 
Heartbeat CPU  0 instructions:  361000000 cycles:  501333311 heartbeat IPC: 0.24230 cumulative IPC: 0.57887 (Simulation time: 0 hr 15 min 56 sec) 
Heartbeat CPU  0 instructions:  362000001 cycles:  505448051 heartbeat IPC: 0.24303 cumulative IPC: 0.57584 (Simulation time: 0 hr 16 min 0 sec) 
Heartbeat CPU  0 instructions:  363000003 cycles:  509713457 heartbeat IPC: 0.23444 cumulative IPC: 0.57267 (Simulation time: 0 hr 16 min 4 sec) 
Heartbeat CPU  0 instructions:  364000000 cycles:  513917805 heartbeat IPC: 0.23785 cumulative IPC: 0.56963 (Simulation time: 0 hr 16 min 8 sec) 
Heartbeat CPU  0 instructions:  365000000 cycles:  518045707 heartbeat IPC: 0.24225 cumulative IPC: 0.56674 (Simulation time: 0 hr 16 min 12 sec) 
Heartbeat CPU  0 instructions:  366000000 cycles:  522292477 heartbeat IPC: 0.23547 cumulative IPC: 0.56376 (Simulation time: 0 hr 16 min 16 sec) 
Heartbeat CPU  0 instructions:  367000001 cycles:  526462166 heartbeat IPC: 0.23983 cumulative IPC: 0.56092 (Simulation time: 0 hr 16 min 20 sec) 
Heartbeat CPU  0 instructions:  368000000 cycles:  530630707 heartbeat IPC: 0.23989 cumulative IPC: 0.55813 (Simulation time: 0 hr 16 min 24 sec) 
Heartbeat CPU  0 instructions:  369000000 cycles:  534774585 heartbeat IPC: 0.24132 cumulative IPC: 0.55542 (Simulation time: 0 hr 16 min 28 sec) 
Heartbeat CPU  0 instructions:  370000002 cycles:  538975476 heartbeat IPC: 0.23805 cumulative IPC: 0.55269 (Simulation time: 0 hr 16 min 32 sec) 
Heartbeat CPU  0 instructions:  371000002 cycles:  543163280 heartbeat IPC: 0.23879 cumulative IPC: 0.55002 (Simulation time: 0 hr 16 min 36 sec) 
Heartbeat CPU  0 instructions:  372000000 cycles:  547354153 heartbeat IPC: 0.23861 cumulative IPC: 0.54740 (Simulation time: 0 hr 16 min 40 sec) 
Heartbeat CPU  0 instructions:  373000002 cycles:  551562397 heartbeat IPC: 0.23763 cumulative IPC: 0.54480 (Simulation time: 0 hr 16 min 45 sec) 
Heartbeat CPU  0 instructions:  374000003 cycles:  555698623 heartbeat IPC: 0.24177 cumulative IPC: 0.54232 (Simulation time: 0 hr 16 min 49 sec) 
Heartbeat CPU  0 instructions:  375000003 cycles:  559942747 heartbeat IPC: 0.23562 cumulative IPC: 0.53976 (Simulation time: 0 hr 16 min 53 sec) 
Heartbeat CPU  0 instructions:  376000000 cycles:  564069797 heartbeat IPC: 0.24230 cumulative IPC: 0.53737 (Simulation time: 0 hr 16 min 57 sec) 
Heartbeat CPU  0 instructions:  377000003 cycles:  568262989 heartbeat IPC: 0.23848 cumulative IPC: 0.53495 (Simulation time: 0 hr 17 min 1 sec) 
Heartbeat CPU  0 instructions:  378000003 cycles:  572454549 heartbeat IPC: 0.23857 cumulative IPC: 0.53257 (Simulation time: 0 hr 17 min 5 sec) 
Heartbeat CPU  0 instructions:  379000003 cycles:  576660835 heartbeat IPC: 0.23774 cumulative IPC: 0.53021 (Simulation time: 0 hr 17 min 9 sec) 
Heartbeat CPU  0 instructions:  380000000 cycles:  580749441 heartbeat IPC: 0.24458 cumulative IPC: 0.52801 (Simulation time: 0 hr 17 min 13 sec) 
Heartbeat CPU  0 instructions:  381000002 cycles:  585027700 heartbeat IPC: 0.23374 cumulative IPC: 0.52566 (Simulation time: 0 hr 17 min 17 sec) 
Heartbeat CPU  0 instructions:  382000001 cycles:  589207240 heartbeat IPC: 0.23926 cumulative IPC: 0.52343 (Simulation time: 0 hr 17 min 21 sec) 
Heartbeat CPU  0 instructions:  383000000 cycles:  593367958 heartbeat IPC: 0.24034 cumulative IPC: 0.52126 (Simulation time: 0 hr 17 min 25 sec) 
Heartbeat CPU  0 instructions:  384000000 cycles:  597567425 heartbeat IPC: 0.23813 cumulative IPC: 0.51909 (Simulation time: 0 hr 17 min 29 sec) 
Heartbeat CPU  0 instructions:  385000000 cycles:  601711073 heartbeat IPC: 0.24133 cumulative IPC: 0.51700 (Simulation time: 0 hr 17 min 33 sec) 
Heartbeat CPU  0 instructions:  386000001 cycles:  605916082 heartbeat IPC: 0.23781 cumulative IPC: 0.51489 (Simulation time: 0 hr 17 min 37 sec) 
Heartbeat CPU  0 instructions:  387000003 cycles:  610148293 heartbeat IPC: 0.23628 cumulative IPC: 0.51278 (Simulation time: 0 hr 17 min 41 sec) 
Heartbeat CPU  0 instructions:  388000000 cycles:  614303247 heartbeat IPC: 0.24068 cumulative IPC: 0.51078 (Simulation time: 0 hr 17 min 45 sec) 
Heartbeat CPU  0 instructions:  389000001 cycles:  618459039 heartbeat IPC: 0.24063 cumulative IPC: 0.50880 (Simulation time: 0 hr 17 min 49 sec) 
Heartbeat CPU  0 instructions:  390000000 cycles:  622705016 heartbeat IPC: 0.23552 cumulative IPC: 0.50677 (Simulation time: 0 hr 17 min 53 sec) 
Heartbeat CPU  0 instructions:  391000000 cycles:  626874311 heartbeat IPC: 0.23985 cumulative IPC: 0.50484 (Simulation time: 0 hr 17 min 57 sec) 
Heartbeat CPU  0 instructions:  392000000 cycles:  631108107 heartbeat IPC: 0.23619 cumulative IPC: 0.50288 (Simulation time: 0 hr 18 min 2 sec) 
Heartbeat CPU  0 instructions:  393000003 cycles:  639801855 heartbeat IPC: 0.11503 cumulative IPC: 0.49716 (Simulation time: 0 hr 18 min 8 sec) 
Heartbeat CPU  0 instructions:  394000001 cycles:  657282431 heartbeat IPC: 0.05721 cumulative IPC: 0.48449 (Simulation time: 0 hr 18 min 19 sec) 
Heartbeat CPU  0 instructions:  395000000 cycles:  669274979 heartbeat IPC: 0.08339 cumulative IPC: 0.47672 (Simulation time: 0 hr 18 min 27 sec) 
Heartbeat CPU  0 instructions:  396000000 cycles:  672986201 heartbeat IPC: 0.26945 cumulative IPC: 0.47548 (Simulation time: 0 hr 18 min 32 sec) 
Heartbeat CPU  0 instructions:  397000000 cycles:  677219642 heartbeat IPC: 0.23621 cumulative IPC: 0.47386 (Simulation time: 0 hr 18 min 36 sec) 
Heartbeat CPU  0 instructions:  398000001 cycles:  680874111 heartbeat IPC: 0.27364 cumulative IPC: 0.47270 (Simulation time: 0 hr 18 min 40 sec) 
Heartbeat CPU  0 instructions:  399000002 cycles:  684011512 heartbeat IPC: 0.31874 cumulative IPC: 0.47194 (Simulation time: 0 hr 18 min 44 sec) 
Heartbeat CPU  0 instructions:  400000000 cycles:  687074469 heartbeat IPC: 0.32648 cumulative IPC: 0.47124 (Simulation time: 0 hr 18 min 48 sec) 
Heartbeat CPU  0 instructions:  401000003 cycles:  690171217 heartbeat IPC: 0.32292 cumulative IPC: 0.47052 (Simulation time: 0 hr 18 min 52 sec) 
Heartbeat CPU  0 instructions:  402000002 cycles:  694039338 heartbeat IPC: 0.25852 cumulative IPC: 0.46925 (Simulation time: 0 hr 18 min 56 sec) 
Heartbeat CPU  0 instructions:  403000002 cycles:  698871363 heartbeat IPC: 0.20695 cumulative IPC: 0.46729 (Simulation time: 0 hr 19 min 1 sec) 
Heartbeat CPU  0 instructions:  404000000 cycles:  703672988 heartbeat IPC: 0.20826 cumulative IPC: 0.46539 (Simulation time: 0 hr 19 min 6 sec) 
Heartbeat CPU  0 instructions:  405000000 cycles:  707150111 heartbeat IPC: 0.28759 cumulative IPC: 0.46445 (Simulation time: 0 hr 19 min 10 sec) 
Heartbeat CPU  0 instructions:  406000000 cycles:  710429994 heartbeat IPC: 0.30489 cumulative IPC: 0.46366 (Simulation time: 0 hr 19 min 14 sec) 
Heartbeat CPU  0 instructions:  407000000 cycles:  713737535 heartbeat IPC: 0.30234 cumulative IPC: 0.46285 (Simulation time: 0 hr 19 min 17 sec) 
Heartbeat CPU  0 instructions:  408000000 cycles:  717538657 heartbeat IPC: 0.26308 cumulative IPC: 0.46171 (Simulation time: 0 hr 19 min 21 sec) 
Heartbeat CPU  0 instructions:  409000001 cycles:  724348033 heartbeat IPC: 0.14686 cumulative IPC: 0.45853 (Simulation time: 0 hr 19 min 27 sec) 
Heartbeat CPU  0 instructions:  410000003 cycles:  729036270 heartbeat IPC: 0.21330 cumulative IPC: 0.45684 (Simulation time: 0 hr 19 min 31 sec) 
Heartbeat CPU  0 instructions:  411000002 cycles:  732749267 heartbeat IPC: 0.26932 cumulative IPC: 0.45582 (Simulation time: 0 hr 19 min 35 sec) 
Heartbeat CPU  0 instructions:  412000000 cycles:  734340378 heartbeat IPC: 0.62849 cumulative IPC: 0.45622 (Simulation time: 0 hr 19 min 38 sec) 
Heartbeat CPU  0 instructions:  413000003 cycles:  735460323 heartbeat IPC: 0.89290 cumulative IPC: 0.45693 (Simulation time: 0 hr 19 min 40 sec) 
Heartbeat CPU  0 instructions:  414000002 cycles:  736590510 heartbeat IPC: 0.88481 cumulative IPC: 0.45764 (Simulation time: 0 hr 19 min 42 sec) 
Heartbeat CPU  0 instructions:  415000002 cycles:  737849373 heartbeat IPC: 0.79437 cumulative IPC: 0.45825 (Simulation time: 0 hr 19 min 45 sec) 
Heartbeat CPU  0 instructions:  416000000 cycles:  738985305 heartbeat IPC: 0.88033 cumulative IPC: 0.45895 (Simulation time: 0 hr 19 min 47 sec) 
Heartbeat CPU  0 instructions:  417000000 cycles:  740050309 heartbeat IPC: 0.93896 cumulative IPC: 0.45969 (Simulation time: 0 hr 19 min 50 sec) 
Heartbeat CPU  0 instructions:  418000001 cycles:  741119495 heartbeat IPC: 0.93529 cumulative IPC: 0.46043 (Simulation time: 0 hr 19 min 52 sec) 
Heartbeat CPU  0 instructions:  419000003 cycles:  742244804 heartbeat IPC: 0.88865 cumulative IPC: 0.46112 (Simulation time: 0 hr 19 min 55 sec) 
Heartbeat CPU  0 instructions:  420000000 cycles:  743353075 heartbeat IPC: 0.90230 cumulative IPC: 0.46183 (Simulation time: 0 hr 19 min 57 sec) 
Heartbeat CPU  0 instructions:  421000001 cycles:  744691365 heartbeat IPC: 0.74722 cumulative IPC: 0.46238 (Simulation time: 0 hr 19 min 59 sec) 
Heartbeat CPU  0 instructions:  422000000 cycles:  746013164 heartbeat IPC: 0.75654 cumulative IPC: 0.46294 (Simulation time: 0 hr 20 min 2 sec) 
Heartbeat CPU  0 instructions:  423000002 cycles:  747338261 heartbeat IPC: 0.75466 cumulative IPC: 0.46349 (Simulation time: 0 hr 20 min 4 sec) 
Heartbeat CPU  0 instructions:  424000000 cycles:  748726279 heartbeat IPC: 0.72045 cumulative IPC: 0.46400 (Simulation time: 0 hr 20 min 7 sec) 
Heartbeat CPU  0 instructions:  425000000 cycles:  750194434 heartbeat IPC: 0.68113 cumulative IPC: 0.46446 (Simulation time: 0 hr 20 min 10 sec) 
Heartbeat CPU  0 instructions:  426000003 cycles:  751640467 heartbeat IPC: 0.69155 cumulative IPC: 0.46493 (Simulation time: 0 hr 20 min 12 sec) 
Heartbeat CPU  0 instructions:  427000003 cycles:  753237651 heartbeat IPC: 0.62610 cumulative IPC: 0.46529 (Simulation time: 0 hr 20 min 15 sec) 
Heartbeat CPU  0 instructions:  428000000 cycles:  754838265 heartbeat IPC: 0.62476 cumulative IPC: 0.46566 (Simulation time: 0 hr 20 min 17 sec) 
Heartbeat CPU  0 instructions:  429000002 cycles:  756461689 heartbeat IPC: 0.61598 cumulative IPC: 0.46600 (Simulation time: 0 hr 20 min 20 sec) 
Heartbeat CPU  0 instructions:  430000002 cycles:  757759513 heartbeat IPC: 0.77052 cumulative IPC: 0.46656 (Simulation time: 0 hr 20 min 23 sec) 
Heartbeat CPU  0 instructions:  431000003 cycles:  759375938 heartbeat IPC: 0.61865 cumulative IPC: 0.46691 (Simulation time: 0 hr 20 min 25 sec) 
Heartbeat CPU  0 instructions:  432000000 cycles:  760754593 heartbeat IPC: 0.72534 cumulative IPC: 0.46741 (Simulation time: 0 hr 20 min 28 sec) 
Heartbeat CPU  0 instructions:  433000001 cycles:  762277183 heartbeat IPC: 0.65678 cumulative IPC: 0.46781 (Simulation time: 0 hr 20 min 30 sec) 
Heartbeat CPU  0 instructions:  434000001 cycles:  763848670 heartbeat IPC: 0.63634 cumulative IPC: 0.46819 (Simulation time: 0 hr 20 min 33 sec) 
Heartbeat CPU  0 instructions:  435000000 cycles:  765413072 heartbeat IPC: 0.63922 cumulative IPC: 0.46856 (Simulation time: 0 hr 20 min 36 sec) 
Heartbeat CPU  0 instructions:  436000000 cycles:  767029318 heartbeat IPC: 0.61872 cumulative IPC: 0.46890 (Simulation time: 0 hr 20 min 38 sec) 
Heartbeat CPU  0 instructions:  437000002 cycles:  768579598 heartbeat IPC: 0.64505 cumulative IPC: 0.46928 (Simulation time: 0 hr 20 min 41 sec) 
Heartbeat CPU  0 instructions:  438000000 cycles:  770127764 heartbeat IPC: 0.64592 cumulative IPC: 0.46966 (Simulation time: 0 hr 20 min 44 sec) 
Heartbeat CPU  0 instructions:  439000003 cycles:  771677159 heartbeat IPC: 0.64542 cumulative IPC: 0.47004 (Simulation time: 0 hr 20 min 46 sec) 
Heartbeat CPU  0 instructions:  440000000 cycles:  773223489 heartbeat IPC: 0.64669 cumulative IPC: 0.47041 (Simulation time: 0 hr 20 min 49 sec) 
Heartbeat CPU  0 instructions:  441000000 cycles:  774835379 heartbeat IPC: 0.62039 cumulative IPC: 0.47075 (Simulation time: 0 hr 20 min 52 sec) 
Heartbeat CPU  0 instructions:  442000003 cycles:  776352908 heartbeat IPC: 0.65897 cumulative IPC: 0.47114 (Simulation time: 0 hr 20 min 54 sec) 
Heartbeat CPU  0 instructions:  443000002 cycles:  778047853 heartbeat IPC: 0.58999 cumulative IPC: 0.47142 (Simulation time: 0 hr 20 min 57 sec) 
Heartbeat CPU  0 instructions:  444000000 cycles:  779523554 heartbeat IPC: 0.67764 cumulative IPC: 0.47184 (Simulation time: 0 hr 20 min 59 sec) 
Heartbeat CPU  0 instructions:  445000003 cycles:  781098496 heartbeat IPC: 0.63495 cumulative IPC: 0.47219 (Simulation time: 0 hr 21 min 2 sec) 
Heartbeat CPU  0 instructions:  446000002 cycles:  782491634 heartbeat IPC: 0.71780 cumulative IPC: 0.47266 (Simulation time: 0 hr 21 min 5 sec) 
Heartbeat CPU  0 instructions:  447000000 cycles:  784043269 heartbeat IPC: 0.64448 cumulative IPC: 0.47302 (Simulation time: 0 hr 21 min 7 sec) 
Heartbeat CPU  0 instructions:  448000000 cycles:  785563743 heartbeat IPC: 0.65769 cumulative IPC: 0.47340 (Simulation time: 0 hr 21 min 10 sec) 
Heartbeat CPU  0 instructions:  449000003 cycles:  787182669 heartbeat IPC: 0.61770 cumulative IPC: 0.47372 (Simulation time: 0 hr 21 min 12 sec) 
Heartbeat CPU  0 instructions:  450000001 cycles:  788693642 heartbeat IPC: 0.66182 cumulative IPC: 0.47410 (Simulation time: 0 hr 21 min 15 sec) 
Heartbeat CPU  0 instructions:  451000003 cycles:  790284305 heartbeat IPC: 0.62867 cumulative IPC: 0.47444 (Simulation time: 0 hr 21 min 18 sec) 
Heartbeat CPU  0 instructions:  452000000 cycles:  791857830 heartbeat IPC: 0.63551 cumulative IPC: 0.47478 (Simulation time: 0 hr 21 min 20 sec) 
Heartbeat CPU  0 instructions:  453000000 cycles:  793415043 heartbeat IPC: 0.64217 cumulative IPC: 0.47513 (Simulation time: 0 hr 21 min 23 sec) 
Heartbeat CPU  0 instructions:  454000000 cycles:  794968095 heartbeat IPC: 0.64389 cumulative IPC: 0.47548 (Simulation time: 0 hr 21 min 26 sec) 
Heartbeat CPU  0 instructions:  455000002 cycles:  796605070 heartbeat IPC: 0.61088 cumulative IPC: 0.47578 (Simulation time: 0 hr 21 min 28 sec) 
Heartbeat CPU  0 instructions:  456000000 cycles:  798290795 heartbeat IPC: 0.59322 cumulative IPC: 0.47604 (Simulation time: 0 hr 21 min 31 sec) 
Heartbeat CPU  0 instructions:  457000000 cycles:  799849264 heartbeat IPC: 0.64166 cumulative IPC: 0.47639 (Simulation time: 0 hr 21 min 34 sec) 
Heartbeat CPU  0 instructions:  458000002 cycles:  801461374 heartbeat IPC: 0.62031 cumulative IPC: 0.47670 (Simulation time: 0 hr 21 min 36 sec) 
Heartbeat CPU  0 instructions:  459000001 cycles:  803053969 heartbeat IPC: 0.62791 cumulative IPC: 0.47702 (Simulation time: 0 hr 21 min 39 sec) 
Heartbeat CPU  0 instructions:  460000000 cycles:  804534701 heartbeat IPC: 0.67534 cumulative IPC: 0.47740 (Simulation time: 0 hr 21 min 41 sec) 
Heartbeat CPU  0 instructions:  461000003 cycles:  806026392 heartbeat IPC: 0.67038 cumulative IPC: 0.47779 (Simulation time: 0 hr 21 min 44 sec) 
Heartbeat CPU  0 instructions:  462000002 cycles:  807589587 heartbeat IPC: 0.63971 cumulative IPC: 0.47812 (Simulation time: 0 hr 21 min 47 sec) 
Heartbeat CPU  0 instructions:  463000002 cycles:  809159450 heartbeat IPC: 0.63700 cumulative IPC: 0.47845 (Simulation time: 0 hr 21 min 49 sec) 
Heartbeat CPU  0 instructions:  464000000 cycles:  810689810 heartbeat IPC: 0.65344 cumulative IPC: 0.47880 (Simulation time: 0 hr 21 min 52 sec) 
Heartbeat CPU  0 instructions:  465000001 cycles:  812221670 heartbeat IPC: 0.65280 cumulative IPC: 0.47915 (Simulation time: 0 hr 21 min 54 sec) 
Heartbeat CPU  0 instructions:  466000001 cycles:  813871088 heartbeat IPC: 0.60627 cumulative IPC: 0.47943 (Simulation time: 0 hr 21 min 57 sec) 
Heartbeat CPU  0 instructions:  467000001 cycles:  815475561 heartbeat IPC: 0.62326 cumulative IPC: 0.47973 (Simulation time: 0 hr 22 min 0 sec) 
Heartbeat CPU  0 instructions:  468000000 cycles:  816957334 heartbeat IPC: 0.67487 cumulative IPC: 0.48010 (Simulation time: 0 hr 22 min 2 sec) 
Heartbeat CPU  0 instructions:  469000000 cycles:  818704536 heartbeat IPC: 0.57234 cumulative IPC: 0.48031 (Simulation time: 0 hr 22 min 5 sec) 
Heartbeat CPU  0 instructions:  470000003 cycles:  820292506 heartbeat IPC: 0.62974 cumulative IPC: 0.48062 (Simulation time: 0 hr 22 min 8 sec) 
Heartbeat CPU  0 instructions:  471000002 cycles:  821926348 heartbeat IPC: 0.61205 cumulative IPC: 0.48090 (Simulation time: 0 hr 22 min 10 sec) 
Heartbeat CPU  0 instructions:  472000000 cycles:  823259783 heartbeat IPC: 0.74994 cumulative IPC: 0.48136 (Simulation time: 0 hr 22 min 13 sec) 
Heartbeat CPU  0 instructions:  473000003 cycles:  824954034 heartbeat IPC: 0.59023 cumulative IPC: 0.48160 (Simulation time: 0 hr 22 min 16 sec) 
Heartbeat CPU  0 instructions:  474000002 cycles:  826473678 heartbeat IPC: 0.65805 cumulative IPC: 0.48195 (Simulation time: 0 hr 22 min 18 sec) 
Heartbeat CPU  0 instructions:  475000003 cycles:  828087627 heartbeat IPC: 0.61960 cumulative IPC: 0.48223 (Simulation time: 0 hr 22 min 21 sec) 
Heartbeat CPU  0 instructions:  476000000 cycles:  829634583 heartbeat IPC: 0.64643 cumulative IPC: 0.48256 (Simulation time: 0 hr 22 min 24 sec) 
Heartbeat CPU  0 instructions:  477000002 cycles:  831189265 heartbeat IPC: 0.64322 cumulative IPC: 0.48288 (Simulation time: 0 hr 22 min 26 sec) 
Heartbeat CPU  0 instructions:  478000002 cycles:  832808419 heartbeat IPC: 0.61761 cumulative IPC: 0.48316 (Simulation time: 0 hr 22 min 29 sec) 
Heartbeat CPU  0 instructions:  479000002 cycles:  834399798 heartbeat IPC: 0.62839 cumulative IPC: 0.48345 (Simulation time: 0 hr 22 min 32 sec) 
Heartbeat CPU  0 instructions:  480000000 cycles:  835972486 heartbeat IPC: 0.63585 cumulative IPC: 0.48376 (Simulation time: 0 hr 22 min 34 sec) 
Heartbeat CPU  0 instructions:  481000001 cycles:  837592339 heartbeat IPC: 0.61734 cumulative IPC: 0.48403 (Simulation time: 0 hr 22 min 37 sec) 
Heartbeat CPU  0 instructions:  482000000 cycles:  841377133 heartbeat IPC: 0.26421 cumulative IPC: 0.48298 (Simulation time: 0 hr 22 min 40 sec) 
Heartbeat CPU  0 instructions:  483000003 cycles:  846649569 heartbeat IPC: 0.18967 cumulative IPC: 0.48104 (Simulation time: 0 hr 22 min 45 sec) 
Heartbeat CPU  0 instructions:  484000000 cycles:  851437490 heartbeat IPC: 0.20886 cumulative IPC: 0.47941 (Simulation time: 0 hr 22 min 49 sec) 
Heartbeat CPU  0 instructions:  485000003 cycles:  854745687 heartbeat IPC: 0.30228 cumulative IPC: 0.47868 (Simulation time: 0 hr 22 min 52 sec) 
Heartbeat CPU  0 instructions:  486000002 cycles:  857717517 heartbeat IPC: 0.33649 cumulative IPC: 0.47816 (Simulation time: 0 hr 22 min 56 sec) 
Heartbeat CPU  0 instructions:  487000001 cycles:  860700619 heartbeat IPC: 0.33522 cumulative IPC: 0.47763 (Simulation time: 0 hr 22 min 59 sec) 
Heartbeat CPU  0 instructions:  488000000 cycles:  863746800 heartbeat IPC: 0.32828 cumulative IPC: 0.47707 (Simulation time: 0 hr 23 min 2 sec) 
Heartbeat CPU  0 instructions:  489000001 cycles:  866569569 heartbeat IPC: 0.35426 cumulative IPC: 0.47665 (Simulation time: 0 hr 23 min 5 sec) 
Heartbeat CPU  0 instructions:  490000001 cycles:  869523045 heartbeat IPC: 0.33858 cumulative IPC: 0.47615 (Simulation time: 0 hr 23 min 9 sec) 
Heartbeat CPU  0 instructions:  491000000 cycles:  873780528 heartbeat IPC: 0.23488 cumulative IPC: 0.47490 (Simulation time: 0 hr 23 min 13 sec) 
Heartbeat CPU  0 instructions:  492000000 cycles:  878599602 heartbeat IPC: 0.20751 cumulative IPC: 0.47335 (Simulation time: 0 hr 23 min 17 sec) 
Heartbeat CPU  0 instructions:  493000002 cycles:  882086707 heartbeat IPC: 0.28677 cumulative IPC: 0.47257 (Simulation time: 0 hr 23 min 20 sec) 
Heartbeat CPU  0 instructions:  494000001 cycles:  885293610 heartbeat IPC: 0.31183 cumulative IPC: 0.47195 (Simulation time: 0 hr 23 min 24 sec) 
Heartbeat CPU  0 instructions:  495000000 cycles:  888373234 heartbeat IPC: 0.32471 cumulative IPC: 0.47141 (Simulation time: 0 hr 23 min 27 sec) 
Heartbeat CPU  0 instructions:  496000000 cycles:  891181417 heartbeat IPC: 0.35610 cumulative IPC: 0.47102 (Simulation time: 0 hr 23 min 30 sec) 
Heartbeat CPU  0 instructions:  497000000 cycles:  894106142 heartbeat IPC: 0.34191 cumulative IPC: 0.47057 (Simulation time: 0 hr 23 min 33 sec) 
Heartbeat CPU  0 instructions:  498000001 cycles:  897045283 heartbeat IPC: 0.34024 cumulative IPC: 0.47012 (Simulation time: 0 hr 23 min 37 sec) 
Heartbeat CPU  0 instructions:  499000000 cycles:  900004045 heartbeat IPC: 0.33798 cumulative IPC: 0.46966 (Simulation time: 0 hr 23 min 40 sec) 
Heartbeat CPU  0 instructions:  500000000 cycles:  904386807 heartbeat IPC: 0.22817 cumulative IPC: 0.46842 (Simulation time: 0 hr 23 min 44 sec) 
Heartbeat CPU  0 instructions:  501000002 cycles:  909313182 heartbeat IPC: 0.20299 cumulative IPC: 0.46690 (Simulation time: 0 hr 23 min 48 sec) 
Heartbeat CPU  0 instructions:  502000003 cycles:  912384323 heartbeat IPC: 0.32561 cumulative IPC: 0.46640 (Simulation time: 0 hr 23 min 51 sec) 
Heartbeat CPU  0 instructions:  503000000 cycles:  915669379 heartbeat IPC: 0.30441 cumulative IPC: 0.46578 (Simulation time: 0 hr 23 min 55 sec) 
Heartbeat CPU  0 instructions:  504000000 cycles:  918671535 heartbeat IPC: 0.33309 cumulative IPC: 0.46532 (Simulation time: 0 hr 23 min 58 sec) 
Heartbeat CPU  0 instructions:  505000003 cycles:  921548129 heartbeat IPC: 0.34763 cumulative IPC: 0.46493 (Simulation time: 0 hr 24 min 1 sec) 
Heartbeat CPU  0 instructions:  506000002 cycles:  924403322 heartbeat IPC: 0.35024 cumulative IPC: 0.46456 (Simulation time: 0 hr 24 min 4 sec) 
Heartbeat CPU  0 instructions:  507000000 cycles:  927347552 heartbeat IPC: 0.33965 cumulative IPC: 0.46414 (Simulation time: 0 hr 24 min 8 sec) 
Heartbeat CPU  0 instructions:  508000000 cycles:  930213068 heartbeat IPC: 0.34898 cumulative IPC: 0.46377 (Simulation time: 0 hr 24 min 11 sec) 
Heartbeat CPU  0 instructions:  509000002 cycles:  933574249 heartbeat IPC: 0.29752 cumulative IPC: 0.46313 (Simulation time: 0 hr 24 min 15 sec) 
Heartbeat CPU  0 instructions:  510000002 cycles:  937420002 heartbeat IPC: 0.26003 cumulative IPC: 0.46225 (Simulation time: 0 hr 24 min 19 sec) 
Heartbeat CPU  0 instructions:  511000003 cycles:  941067777 heartbeat IPC: 0.27414 cumulative IPC: 0.46148 (Simulation time: 0 hr 24 min 23 sec) 
Heartbeat CPU  0 instructions:  512000000 cycles:  943327438 heartbeat IPC: 0.44254 cumulative IPC: 0.46143 (Simulation time: 0 hr 24 min 27 sec) 
[...]
scooby_state_40f88e|45|7 1,0,0,0,0,0,0,0,0,0,0,0,0,0,0,1,
scooby_state_4003ef|40|2 1,0,0,0,0,0,0,0,0,0,0,0,0,0,0,1,
scooby_state_40f276|39|32 1,0,0,0,0,0,0,0,0,0,0,0,0,0,0,1,
scooby_state_40f174|39|32 1,0,0,0,0,0,0,0,0,0,0,0,0,0,0,1,
scooby_state_40f84e|20|8 1,0,0,0,0,0,0,0,0,0,0,0,0,0,0,1,
scooby_state_40f8d0|61|28 1,0,0,0,0,0,0,0,0,0,0,0,0,0,0,1,
scooby_state_40f84e|24|8 1,0,0,0,0,0,0,0,0,0,0,0,0,0,0,1,
scooby_state_40fd30|39|-16 1,0,0,0,0,0,0,0,0,0,0,0,0,0,0,1,
scooby_state_40f736|24|-30 1,0,0,0,0,0,0,0,0,0,0,0,0,0,0,1,
scooby_state_40f88e|32|9 1,0,0,0,0,0,0,0,0,0,0,0,0,0,0,1,
scooby_state_40ed9d|45|-11 1,0,0,0,0,0,0,0,0,0,0,0,0,0,0,1,
scooby_state_40f84e|25|5 1,0,0,0,0,0,0,0,0,0,0,0,0,0,0,1,
scooby_state_40f88e|28|14 1,0,0,0,0,0,0,0,0,0,0,0,0,0,0,1,
scooby_state_4107b5|26|-7 1,0,0,0,0,0,0,0,0,0,0,0,0,0,0,1,
scooby_state_40f218|44|1 1,0,0,0,0,0,0,0,0,0,0,0,0,0,0,1,
scooby_state_40f84e|11|9 1,0,0,0,0,0,0,0,0,0,0,0,0,0,0,1,
scooby_state_40f578|10|-30 1,0,0,0,0,0,0,0,0,0,0,0,0,0,0,1,
scooby_state_453a81|31|15 1,0,0,0,0,0,0,0,0,0,0,0,0,0,0,1,
scooby_state_40d701|35|-26 1,0,0,0,0,0,0,0,0,0,0,0,0,0,0,1,
scooby_state_40fa87|42|0 1,0,0,0,0,0,0,0,0,0,0,0,0,0,0,1,
scooby_state_40db49|19|-14 1,0,0,0,0,0,0,0,0,0,0,0,0,0,0,1,
scooby_state_453a81|49|15 1,0,0,0,0,0,0,0,0,0,0,0,0,0,0,1,
scooby_state_457ac3|43|1 1,0,0,0,0,0,0,0,0,0,0,0,0,0,0,1,
scooby_state_453a81|34|0 1,0,0,0,0,0,0,0,0,0,0,0,0,0,0,1,
scooby_state_40d6e3|53|18 1,0,0,0,0,0,0,0,0,0,0,0,0,0,0,1,
scooby_state_440000|0|-5 1,0,0,0,0,0,0,0,0,0,0,0,0,0,0,1,
scooby_state_40f875|32|7 1,0,0,0,0,0,0,0,0,0,0,0,0,0,0,1,
scooby_state_410d80|23|15 1,0,0,0,0,0,0,0,0,0,0,0,0,0,0,1,
scooby_state_40f00b|55|-3 1,0,0,0,0,0,0,0,0,0,0,0,0,0,0,1,
scooby_state_40f00b|27|16 1,0,0,0,0,0,0,0,0,0,0,0,0,0,0,1,
scooby_state_40f88e|52|0 1,0,0,0,0,0,0,0,0,0,0,0,0,0,0,1,
scooby_state_40f826|36|31 1,0,0,0,0,0,0,0,0,0,0,0,0,0,0,1,
scooby_state_40f21d|15|-15 1,0,0,0,0,0,0,0,0,0,0,0,0,0,0,1,
scooby_state_40f8d0|19|5 1,0,0,0,0,0,0,0,0,0,0,0,0,0,0,1,
scooby_state_40f7fa|10|-53 1,0,0,0,0,0,0,0,0,0,0,0,0,0,0,1,
scooby_state_40f8d0|57|10 1,0,0,0,0,0,0,0,0,0,0,0,0,0,0,1,
scooby_state_40f875|18|3 1,0,0,0,0,0,0,0,0,0,0,0,0,0,0,1,
scooby_state_40db49|7|-14 1,0,0,0,0,0,0,0,0,0,0,0,0,0,0,1,
scooby_state_40f296|23|-32 1,0,0,0,0,0,0,0,0,0,0,0,0,0,0,1,
scooby_state_453a81|3|0 1,0,0,0,0,0,0,0,0,0,0,0,0,0,0,1,
scooby_state_40f826|40|31 1,0,0,0,0,0,0,0,0,0,0,0,0,0,0,1,
scooby_state_40f1f5|2|0 1,0,0,0,0,0,0,0,0,0,0,0,0,0,0,1,
scooby_state_410b1e|42|0 1,0,0,0,0,0,0,0,0,0,0,0,0,0,0,1,
scooby_state_40f7fa|6|-55 1,0,0,0,0,0,0,0,0,0,0,0,0,0,0,1,
scooby_state_40d9d5|15|-12 1,0,0,0,0,0,0,0,0,0,0,0,0,0,0,1,
scooby_state_453a05|40|-11 1,0,0,0,0,0,0,0,0,0,0,0,0,0,0,1,
scooby_state_40fc03|25|0 1,0,0,0,0,0,0,0,0,0,0,0,0,0,0,1,
scooby_state_40d6fc|38|-16 1,0,0,0,0,0,0,0,0,0,0,0,0,0,0,1,
scooby_state_40fc10|37|-16 1,0,0,0,0,0,0,0,0,0,0,0,0,0,0,1,
scooby_state_401a9b|32|0 1,0,0,0,0,0,0,0,0,0,0,0,0,0,0,1,
scooby_state_400771|32|0 1,0,0,0,0,0,0,0,0,0,0,0,0,0,0,1,
scooby_state_40d6da|22|1 1,0,0,0,0,0,0,0,0,0,0,0,0,0,0,1,
scooby_state_40f578|7|-30 1,0,0,0,0,0,0,0,0,0,0,0,0,0,0,1,
scooby_state_40f8d0|29|10 1,0,0,0,0,0,0,0,0,0,0,0,0,0,0,1,
scooby_state_403208|41|0 0,0,0,0,0,0,0,0,0,0,1,0,0,0,0,1,
scooby_state_40fc03|22|0 1,0,0,0,0,0,0,0,0,0,0,0,0,0,0,1,
scooby_state_410d97|31|1 1,0,0,0,0,0,0,0,0,0,0,0,0,0,0,1,
scooby_state_4008c7|35|1 1,0,0,0,0,0,0,0,0,0,0,0,0,0,0,1,
scooby_state_40f8a8|37|33 1,0,0,0,0,0,0,0,0,0,0,0,0,0,0,1,
scooby_state_454c07|48|18 1,0,0,0,0,0,0,0,0,0,0,0,0,0,0,1,
scooby_state_40d6e3|46|18 1,0,0,0,0,0,0,0,0,0,0,0,0,0,0,1,
scooby_state_40f578|12|0 1,0,0,0,0,0,0,0,0,0,0,0,0,0,0,1,
scooby_state_40f88e|17|11 1,0,0,0,0,0,0,0,0,0,0,0,0,0,0,1,
scooby_state_40d4e0|40|-14 1,0,0,0,0,0,0,0,0,0,0,0,0,0,0,1,
scooby_state_40f585|30|15 1,0,0,0,0,0,0,0,0,0,0,0,0,0,0,1,
scooby_state_44f480|27|0 1,0,0,0,0,0,0,0,0,0,0,0,0,0,0,1,
scooby_state_40db8d|18|5 1,0,0,0,0,0,0,0,0,0,0,0,0,0,0,1,
scooby_state_40f21d|61|12 1,0,0,0,0,0,0,0,0,0,0,0,0,0,0,1,
scooby_state_40daea|16|2 1,0,0,0,0,0,0,0,0,0,0,0,0,0,0,1,
scooby_state_4257c2|31|1 1,0,0,0,0,0,0,0,0,0,0,0,0,0,0,1,
scooby_state_40f8d0|27|10 1,0,0,0,0,0,0,0,0,0,0,0,0,0,0,1,
scooby_state_40f21d|63|7 1,0,0,0,0,0,0,0,0,0,0,0,0,0,0,1,
scooby_state_40f314|54|3 1,0,0,0,0,0,0,0,0,0,0,0,0,0,0,1,
scooby_state_40f276|53|32 1,0,0,0,0,0,0,0,0,0,0,0,0,0,0,1,
scooby_state_40f174|2|0 1,0,0,0,0,0,0,0,0,0,0,0,0,0,0,1,
scooby_state_40f00b|14|14 1,0,0,0,0,0,0,0,0,0,0,0,0,0,0,1,
scooby_state_410c7b|58|17 1,0,0,0,0,0,0,0,0,0,0,0,0,0,0,1,
scooby_state_41b638|24|8 1,0,0,0,0,0,0,0,0,0,0,0,0,0,0,1,
scooby_state_40d5fe|8|-48 1,0,0,0,0,0,0,0,0,0,0,0,0,0,0,1,
scooby_state_475049|1|-25 1,0,0,0,0,0,0,0,0,0,0,0,0,0,0,1,
scooby_state_40f84e|52|14 1,0,0,0,0,0,0,0,0,0,0,0,0,0,0,1,
scooby_state_410ac2|43|1 1,0,0,0,0,0,0,0,0,0,0,0,0,0,0,1,
scooby_state_40d4e0|26|-2 1,0,0,0,0,0,0,0,0,0,0,0,0,0,0,1,
scooby_state_403685|61|1 1,0,0,0,0,0,0,0,0,0,0,0,0,0,0,1,
scooby_state_40d65f|62|-1 1,0,0,0,0,0,0,0,0,0,0,0,0,0,0,1,
scooby_state_4008ac|32|0 1,0,0,0,0,0,0,0,0,0,0,0,0,0,0,1,
scooby_state_40db9a|40|7 1,0,0,0,0,0,0,0,0,0,0,0,0,0,0,1,
scooby_state_400382|14|1 1,0,0,0,0,0,0,0,0,0,0,0,0,0,0,1,
scooby_state_40d4e0|27|-9 1,0,0,0,0,0,0,0,0,0,0,0,0,0,0,1,
scooby_state_4003ef|4|2 1,0,0,0,0,0,0,0,0,0,0,0,0,0,0,1,
scooby_state_40f218|33|1 1,0,0,0,0,0,0,0,0,0,0,0,0,0,0,1,
scooby_state_40f174|34|32 1,0,0,0,0,0,0,0,0,0,0,0,0,0,0,1,
scooby_state_40db9a|34|10 1,0,0,0,0,0,0,0,0,0,0,0,0,0,0,1,
scooby_state_40f218|35|1 1,0,0,0,0,0,0,0,0,0,0,0,0,0,0,1,
scooby_state_404313|56|3 1,0,0,0,0,0,0,0,0,0,0,0,0,0,0,1,
scooby_state_40f314|58|3 1,0,0,0,0,0,0,0,0,0,0,0,0,0,0,1,
scooby_state_403d80|54|1 1,0,0,0,0,0,0,0,0,0,0,0,0,0,0,1,
scooby_state_40d65f|62|62 1,0,0,0,0,0,0,0,0,0,0,0,0,0,0,1,
scooby_state_41123c|28|0 1,0,0,0,0,0,0,0,0,0,0,0,0,0,0,1,
scooby_state_405040|1|1 1,0,0,0,0,0,0,0,0,0,0,0,0,0,0,1,
scooby_state_404313|54|3 1,0,0,0,0,0,0,0,0,0,0,0,0,0,0,1,
scooby_state_402745|29|1 1,0,0,0,0,0,0,0,0,0,0,0,0,0,0,1,
scooby_state_401a41|41|1 1,0,0,0,0,0,0,0,0,0,0,0,0,0,0,1,
scooby_state_40f875|40|13 1,0,0,0,0,0,0,0,0,0,0,0,0,0,0,1,
scooby_state_410cfc|22|0 1,0,0,0,0,0,0,0,0,0,0,0,0,0,0,1,
scooby_state_40f690|23|-30 1,0,0,0,0,0,0,0,0,0,0,0,0,0,0,1,
scooby_state_401821|32|-1 1,0,0,0,0,0,0,0,0,0,0,0,0,0,0,1,
scooby_state_40daf2|57|34 1,0,0,0,0,0,0,0,0,0,0,0,0,0,0,1,
scooby_state_40fc6c|22|0 1,0,0,0,0,0,0,0,0,0,0,0,0,0,0,1,
scooby_state_40fd30|40|1 1,0,0,0,0,0,0,0,0,0,0,0,0,0,0,1,
scooby_state_40db39|15|2 1,0,0,0,0,0,0,0,0,0,0,0,0,0,0,1,
scooby_state_4003ef|53|0 1,0,0,0,0,0,0,0,0,0,0,0,0,0,0,1,
scooby_state_41f8c3|35|1 1,0,0,0,0,0,0,0,0,0,0,0,0,0,0,1,
scooby_state_40f291|62|17 1,0,0,0,0,0,0,0,0,0,0,0,0,0,0,1,
scooby_state_4015cd|48|0 1,0,0,0,0,0,0,0,0,0,0,0,0,0,0,1,
scooby_state_400662|45|2 1,0,0,0,0,0,0,0,0,0,0,0,0,0,0,1,
scooby_state_40f291|40|17 1,0,0,0,0,0,0,0,0,0,0,0,0,0,0,1,
scooby_state_40f826|37|2 1,0,0,0,0,0,0,0,0,0,0,0,0,0,0,1,
scooby_state_41c6c0|27|1 1,0,0,0,0,0,0,0,0,0,0,0,0,0,0,1,
scooby_state_410aa0|16|2 0,0,0,0,0,0,0,0,0,0,0,0,0,0,1,1,
scooby_state_401587|22|1 1,0,0,0,0,0,0,0,0,0,0,0,0,0,0,1,
scooby_state_474dc3|55|1 1,0,0,0,0,0,0,0,0,0,0,0,0,0,0,1,
scooby_state_410d13|48|48 1,0,0,0,0,0,0,0,0,0,0,0,0,0,0,1,
scooby_state_40db8d|9|-10 1,0,0,0,0,0,0,0,0,0,0,0,0,0,0,1,
scooby_state_40f750|0|-10 1,0,0,0,0,0,0,0,0,0,0,0,0,0,0,1,
scooby_state_453cc3|51|1 1,0,0,0,0,0,0,0,0,0,0,0,0,0,0,1,
scooby_state_41ae81|58|1 1,0,0,0,0,0,0,0,0,0,0,0,0,0,0,1,
scooby_state_4561c2|7|1 1,0,0,0,0,0,0,0,0,0,0,0,0,0,0,1,
scooby_state_40fc10|38|-16 1,0,0,0,0,0,0,0,0,0,0,0,0,0,0,1,
scooby_state_40f39f|15|1 1,0,0,0,0,0,0,0,0,0,0,0,0,0,0,1,
scooby_state_40fc71|38|-16 1,0,0,0,0,0,0,0,0,0,0,0,0,0,0,1,
scooby_state_40f585|37|-15 1,0,0,0,0,0,0,0,0,0,0,0,0,0,0,1,
scooby_state_410d97|49|1 1,0,0,0,0,0,0,0,0,0,0,0,0,0,0,1,
scooby_state_4003ef|34|2 1,0,0,0,0,0,0,0,0,0,0,0,0,0,0,1,
scooby_state_4044db|3|0 1,0,0,0,0,0,0,0,0,0,0,0,0,0,0,1,
scooby_state_402a9f|63|0 1,0,0,0,0,0,0,0,0,0,0,0,0,0,0,1,
scooby_state_40f314|13|-32 1,0,0,0,0,0,0,0,0,0,0,0,0,0,0,1,
scooby_state_40fd30|38|-16 1,0,0,0,0,0,0,0,0,0,0,0,0,0,0,1,
scooby_state_40cd41|53|1 1,0,0,0,0,0,0,0,0,0,0,0,0,0,0,1,
scooby_state_410ee8|18|0 1,0,0,0,0,0,0,0,0,0,0,0,0,0,0,1,
scooby_state_40430c|21|3 1,0,0,0,0,0,0,0,0,0,0,0,0,0,0,1,
scooby_state_40ef83|62|1 1,0,0,0,0,0,0,0,0,0,0,0,0,0,0,1,
scooby_state_40f218|43|1 1,0,0,0,0,0,0,0,0,0,0,0,0,0,0,1,
scooby_state_410d80|35|0 1,0,0,0,0,0,0,0,0,0,0,0,0,0,0,1,
scooby_state_4110c7|3|1 1,0,0,0,0,0,0,0,0,0,0,0,0,0,0,1,
scooby_state_4106d0|29|0 1,0,0,0,0,0,0,0,0,0,0,0,0,0,0,1,
scooby_state_40f6f6|12|-2 1,0,0,0,0,0,0,0,0,0,0,0,0,0,0,1,
scooby_state_41123c|30|0 1,0,0,0,0,0,0,0,0,0,0,0,0,0,0,1,
scooby_state_4015fa|15|0 1,0,0,0,0,0,0,0,0,0,0,0,0,0,0,1,
scooby_state_40dafa|20|2 1,0,0,0,0,0,0,0,0,0,0,0,0,0,0,1,
scooby_state_425b90|46|46 1,0,0,0,0,0,0,0,0,0,0,0,0,0,0,1,
scooby_state_410807|4|-30 1,0,0,0,0,0,0,0,0,0,0,0,0,0,0,1,
scooby_state_40f690|48|-14 1,0,0,0,0,0,0,0,0,0,0,0,0,0,0,1,
scooby_state_40f276|2|0 1,0,0,0,0,0,0,0,0,0,0,0,0,0,0,1,
scooby_state_40f218|36|17 1,0,0,0,0,0,0,0,0,0,0,0,0,0,0,1,
scooby_state_40ed53|46|16 1,0,0,0,0,0,0,0,0,0,0,0,0,0,0,1,
scooby_state_40f296|63|2 1,0,0,0,0,0,0,0,0,0,0,0,0,0,0,1,
scooby_state_40f291|41|17 1,0,0,0,0,0,0,0,0,0,0,0,0,0,0,1,
scooby_state_4007dc|50|0 1,0,0,0,0,0,0,0,0,0,0,0,0,0,0,1,
scooby_state_40f8a8|39|4 1,0,0,0,0,0,0,0,0,0,0,0,0,0,0,1,
scooby_state_40f826|43|-19 1,0,0,0,0,0,0,0,0,0,0,0,0,0,0,1,
scooby_state_40f83a|62|2 1,0,0,0,0,0,0,0,0,0,0,0,0,0,0,1,
scooby_state_402f9e|18|0 1,0,0,0,0,0,0,0,0,0,0,0,0,0,0,1,
scooby_state_40d4e0|40|8 1,0,0,0,0,0,0,0,0,0,0,0,0,0,0,1,
scooby_state_40f875|37|14 1,0,0,0,0,0,0,0,0,0,0,0,0,0,0,1,
scooby_state_40f750|13|-3 1,0,0,0,0,0,0,0,0,0,0,0,0,0,0,1,
scooby_state_40f826|31|-30 1,0,0,0,0,0,0,0,0,0,0,0,0,0,0,1,
scooby_state_454439|16|-21 1,0,0,0,0,0,0,0,0,0,0,0,0,0,0,1,
scooby_state_40db49|32|-10 1,0,0,0,0,0,0,0,0,0,0,0,0,0,0,1,
scooby_state_453a81|54|15 1,0,0,0,0,0,0,0,0,0,0,0,0,0,0,1,
scooby_state_40f750|13|-6 1,0,0,0,0,0,0,0,0,0,0,0,0,0,0,1,
scooby_state_400662|41|0 1,0,0,0,0,0,0,0,0,0,0,0,0,0,0,1,
scooby_state_40f314|4|-15 1,0,0,0,0,0,0,0,0,0,0,0,0,0,0,1,
scooby_state_40daea|11|-11 1,0,0,0,0,0,0,0,0,0,0,0,0,0,0,1,
scooby_state_40fc71|8|1 1,0,0,0,0,0,0,0,0,0,0,0,0,0,0,1,
scooby_state_40fc10|7|-16 1,0,0,0,0,0,0,0,0,0,0,0,0,0,0,1,
scooby_state_410d97|44|-16 1,0,0,0,0,0,0,0,0,0,0,0,0,0,0,1,
scooby_state_40ed53|24|6 1,0,0,0,0,0,0,0,0,0,0,0,0,0,0,1,
scooby_state_40f276|56|0 1,0,0,0,0,0,0,0,0,0,0,0,0,0,0,1,
scooby_state_40f8d0|42|13 1,0,0,0,0,0,0,0,0,0,0,0,0,0,0,1,
scooby_state_40f84e|56|10 1,0,0,0,0,0,0,0,0,0,0,0,0,0,0,1,
scooby_state_40db8d|37|8 1,0,0,0,0,0,0,0,0,0,0,0,0,0,0,1,
scooby_state_40d5dd|42|17 1,0,0,0,0,0,0,0,0,0,0,0,0,0,0,1,
scooby_state_40fb51|18|3 1,0,0,0,0,0,0,0,0,0,0,0,0,0,0,1,
scooby_state_404e80|58|1 1,0,0,0,0,0,0,0,0,0,0,0,0,0,0,1,
scooby_state_40f218|20|17 1,0,0,0,0,0,0,0,0,0,0,0,0,0,0,1,
scooby_state_40d924|49|-1 1,0,0,0,0,0,0,0,0,0,0,0,0,0,0,1,
scooby_state_40517c|19|0 1,0,0,0,0,0,0,0,0,0,0,0,0,0,0,1,
scooby_state_40db49|27|-13 1,0,0,0,0,0,0,0,0,0,0,0,0,0,0,1,
scooby_state_40f7e3|46|6 1,0,0,0,0,0,0,0,0,0,0,0,0,0,0,1,
scooby_state_40f88e|27|6 1,0,0,0,0,0,0,0,0,0,0,0,0,0,0,1,
scooby_state_403363|62|0 1,0,0,0,0,0,0,0,0,0,0,0,0,0,0,1,
scooby_state_40f291|29|17 1,0,0,0,0,0,0,0,0,0,0,0,0,0,0,1,
scooby_state_404313|5|3 1,0,0,0,0,0,0,0,0,0,0,0,0,0,0,1,
scooby_state_400771|62|2 1,0,0,0,0,0,0,0,0,0,0,0,0,0,0,1,
scooby_state_402780|30|1 1,0,0,0,0,0,0,0,0,0,0,0,0,0,0,1,
scooby_state_40d5dd|48|15 1,0,0,0,0,0,0,0,0,0,0,0,0,0,0,1,
scooby_state_40f21d|4|1 1,0,0,0,0,0,0,0,0,0,0,0,0,0,0,1,
scooby_state_40f30f|34|1 1,0,0,0,0,0,0,0,0,0,0,0,0,0,0,1,
scooby_state_40f314|3|-32 1,0,0,0,0,0,0,0,0,0,0,0,0,0,0,1,
scooby_state_40f786|30|1 1,0,0,0,0,0,0,0,0,0,0,0,0,0,0,1,
scooby_state_400ac0|43|1 1,0,0,0,0,0,0,0,0,0,0,0,0,0,0,1,
scooby_state_40d6da|2|-45 1,0,0,0,0,0,0,0,0,0,0,0,0,0,0,1,
scooby_state_40fc6c|25|1 1,0,0,0,0,0,0,0,0,0,0,0,0,0,0,1,
scooby_state_40f276|24|17 1,0,0,0,0,0,0,0,0,0,0,0,0,0,0,1,
scooby_state_40fc10|39|1 1,0,0,0,0,0,0,0,0,0,0,0,0,0,0,1,
scooby_state_4041c0|7|1 1,0,0,0,0,0,0,0,0,0,0,0,0,0,0,1,
scooby_state_402906|36|1 1,0,0,0,0,0,0,0,0,0,0,0,0,0,0,1,
scooby_state_41ad84|54|12 1,0,0,0,0,0,0,0,0,0,0,0,0,0,0,1,
scooby_state_40ef03|60|1 1,0,0,0,0,0,0,0,0,0,0,0,0,0,0,1,
scooby_state_40d6da|2|-37 1,0,0,0,0,0,0,0,0,0,0,0,0,0,0,1,
scooby_state_40cbc0|47|1 1,0,0,0,0,0,0,0,0,0,0,0,0,0,0,1,
scooby_state_400424|12|-1 1,0,0,0,0,0,0,0,0,0,0,0,0,0,0,1,
scooby_state_40f083|2|1 1,0,0,0,0,0,0,0,0,0,0,0,0,0,0,1,
scooby_state_404e47|23|1 1,0,0,0,0,0,0,0,0,0,0,0,0,0,0,1,
scooby_state_475b40|39|-16 1,0,0,0,0,0,0,0,0,0,0,0,0,0,0,1,
scooby_state_40f6e9|38|-14 1,0,0,0,0,0,0,0,0,0,0,0,0,0,0,1,

scooby_action_0_deg_dist 0,2526,0,0,0,0,0,0,0,0,0,0,0,0,0,0,
scooby_action_12_deg_dist 0,1784,3,0,0,0,0,0,0,0,0,0,0,0,0,0,
scooby_action_3_deg_dist 0,2043,0,0,0,0,0,0,0,0,0,0,0,0,0,0,
scooby_action_32_deg_dist 0,4337,0,0,0,0,0,0,0,0,0,0,0,0,0,0,
scooby_action_5_deg_dist 0,1889,0,0,0,0,0,0,0,0,0,0,0,0,0,0,
scooby_action_1_deg_dist 0,370996,225042,0,545380,0,4112379,0,0,0,0,0,0,0,0,0,
scooby_action_30_deg_dist 0,1552,0,0,0,0,0,0,0,0,0,0,0,0,0,0,
scooby_action_4_deg_dist 0,1980,0,0,0,0,0,0,0,0,0,0,0,0,0,0,
scooby_action_-3_deg_dist 0,1586,0,0,0,0,0,0,0,0,0,0,0,0,0,0,
scooby_action_10_deg_dist 0,1902,0,0,0,0,0,0,0,0,0,0,0,0,0,0,
scooby_action_-1_deg_dist 0,1596,0,0,0,0,0,0,0,0,0,0,0,0,0,0,
scooby_action_23_deg_dist 0,1652,0,0,0,0,0,0,0,0,0,0,0,0,0,0,
scooby_action_-6_deg_dist 0,1577,0,0,0,0,0,0,0,0,0,0,0,0,0,0,
scooby_action_11_deg_dist 0,1791,0,0,0,0,0,0,0,0,0,0,0,0,0,0,
scooby_action_22_deg_dist 0,1593,0,0,0,0,0,0,0,0,0,0,0,0,0,0,

scooby_track_called 5281608
scooby_track_same_address 310165
scooby_track_evict 4971187

scooby_reward_demand_called 5281608
scooby_reward_demand_pt_not_found 386439
scooby_reward_demand_pt_found 4895169
scooby_reward_demand_pt_found_total 4895169
scooby_reward_demand_has_reward 285982
scooby_reward_train_called 273817
scooby_reward_assign_reward_called 4971411
scooby_reward_no_pref 2526
scooby_reward_incorrect 271291
scooby_reward_correct_untimely 4097034
scooby_reward_correct_timely 512153
scooby_reward_out_of_bounds 88407
scooby_reward_tracker_hit 0

scooby_reward_none_low_bw 2526
scooby_reward_none_high_bw 0
scooby_reward_incorrect_low_bw 271291
scooby_reward_incorrect_high_bw 0
scooby_reward_correct_untimely_low_bw 4097034
scooby_reward_correct_untimely_high_bw 0
scooby_reward_correct_timely_low_bw 512153
scooby_reward_correct_timely_high_bw 0
scooby_reward_out_of_bounds_low_bw 88407
scooby_reward_out_of_bounds_high_bw 0
scooby_reward_tracker_hit_low_bw 0
scooby_reward_tracker_hit_high_bw 0

scooby_reward_1 0,256749,4095940,509176,83466,0,
scooby_reward_3 0,1402,401,134,70,0,
scooby_reward_4 0,1324,300,187,138,0,
scooby_reward_5 0,1244,239,202,185,0,
scooby_reward_10 0,1194,42,300,317,0,
scooby_reward_11 0,1136,34,255,331,0,
scooby_reward_12 0,1073,24,250,409,0,
scooby_reward_22 0,801,12,163,607,0,
scooby_reward_23 0,873,16,151,602,0,
scooby_reward_30 0,611,5,108,815,0,
scooby_reward_32 0,1819,9,1212,1286,0,
scooby_reward_-1 0,1015,3,2,13,0,
scooby_reward_-3 0,1036,2,9,57,0,
scooby_reward_-6 0,1014,7,4,111,0,
scooby_reward_0 2526,0,0,0,0,0,

scooby_train_called 4971186
scooby_train_compute_reward 273817

scooby_register_fill_called 3415847
scooby_register_fill_set 578172
scooby_register_fill_set_total 578172

scooby_register_prefetch_hit_called 15060846
scooby_register_prefetch_hit_set 4102685
scooby_register_prefetch_hit_set_total 4102685

scooby_pref_issue_scooby 24482099

learning_engine_featurewise.action.called 5281608
learning_engine_featurewise.action.explore 9600
learning_engine_featurewise.action.exploit 5272008
learning_engine_featurewise.action.fallback 0
learning_engine_featurewise.action.dyn_fallback_saved_bw 0
learning_engine_featurewise.action.dyn_fallback_saved_bw_acc 496315
learning_engine_featurewise.action.index_1_explored 657
learning_engine_featurewise.action.index_1_exploited 5253140
learning_engine_featurewise.action.index_3_explored 660
learning_engine_featurewise.action.index_3_exploited 1383
learning_engine_featurewise.action.index_4_explored 640
learning_engine_featurewise.action.index_4_exploited 1340
learning_engine_featurewise.action.index_5_explored 613
learning_engine_featurewise.action.index_5_exploited 1276
learning_engine_featurewise.action.index_10_explored 685
learning_engine_featurewise.action.index_10_exploited 1217
learning_engine_featurewise.action.index_11_explored 650
learning_engine_featurewise.action.index_11_exploited 1141
learning_engine_featurewise.action.index_12_explored 674
learning_engine_featurewise.action.index_12_exploited 1113
learning_engine_featurewise.action.index_22_explored 638
learning_engine_featurewise.action.index_22_exploited 955
learning_engine_featurewise.action.index_23_explored 647
learning_engine_featurewise.action.index_23_exploited 1005
learning_engine_featurewise.action.index_30_explored 629
learning_engine_featurewise.action.index_30_exploited 923
learning_engine_featurewise.action.index_32_explored 586
learning_engine_featurewise.action.index_32_exploited 3751
learning_engine_featurewise.action.index_-1_explored 637
learning_engine_featurewise.action.index_-1_exploited 959
learning_engine_featurewise.action.index_-3_explored 623
learning_engine_featurewise.action.index_-3_exploited 963
learning_engine_featurewise.action.index_-6_explored 629
learning_engine_featurewise.action.index_-6_exploited 948
learning_engine_featurewise.action.index_0_explored 632
learning_engine_featurewise.action.index_0_exploited 1894
learning_engine_featurewise.learn.called 4971186
learning_engine_featurewise.learn.su_skip_PC 0
learning_engine_featurewise.learn.su_skip_PC_Delta 0

learning_engine_featurewise.q_value_histogram.bucket_0 0
learning_engine_featurewise.q_value_histogram.bucket_1 0
learning_engine_featurewise.q_value_histogram.bucket_2 2826
learning_engine_featurewise.q_value_histogram.bucket_3 10057
learning_engine_featurewise.q_value_histogram.bucket_4 11694
learning_engine_featurewise.q_value_histogram.bucket_5 11442
learning_engine_featurewise.q_value_histogram.bucket_6 5235989
learning_engine_featurewise.q_value_histogram.bucket_7 0

learning_engine_featurewise.consensus.total 5272008
learning_engine_featurewise.consensus.feature_align_PC 5201955
learning_engine_featurewise.consensus.feature_align_PC_ratio 0.99
learning_engine_featurewise.consensus.feature_align_PC_Delta 5268541
learning_engine_featurewise.consensus.feature_align_PC_Delta_ratio 1.00
learning_engine_featurewise.consensus.feature_align_all 5198488
learning_engine_featurewise.consensus.feature_align_all_ratio 0.99

learning_engine_featurewise.feature_PC_min_weight 1000000.00000000
learning_engine_featurewise.feature_PC_max_weight 0.00000000
learning_engine_featurewise.feature_PC_Delta_min_weight 1000000.00000000
learning_engine_featurewise.feature_PC_Delta_max_weight 0.00000000
unique_pcs 1613
unique_pages 18993
unique_trigger_pcs 424
total_bitmaps_seen 0
unique_bitmaps_seen 0

scooby_bw_epochs 4267934
scooby_bw_level_0 2118804
scooby_bw_level_1 0
scooby_bw_level_2 0
scooby_bw_level_3 2149130

scooby_ipc_epochs 0
scooby_ipc_level_0 0
scooby_ipc_level_1 0
scooby_ipc_level_2 0
scooby_ipc_level_3 0

scooby_cache_acc_epochs 1060849
scooby_cache_acc_level_0 166141
scooby_cache_acc_level_1 81232
scooby_cache_acc_level_2 74552
scooby_cache_acc_level_3 64373
scooby_cache_acc_level_4 55608
scooby_cache_acc_level_5 77232
scooby_cache_acc_level_6 65282
scooby_cache_acc_level_7 60199
scooby_cache_acc_level_8 58466
scooby_cache_acc_level_9 357764

Channel_0_RQ_row_buffer_hit 982868
Channel_0_RQ_row_buffer_miss 2596926
Channel_0_WQ_row_buffer_hit 153005
Channel_0_WQ_row_buffer_miss 1012653
Channel_0_WQ_full 0
Channel_0_dbus_congested 4840367

avg_congested_cycle 201

DRAM_bw_pochs 4267934
DRAM_bw_level_0 2118804
DRAM_bw_level_1 0
DRAM_bw_level_2 0
DRAM_bw_level_3 2149130
