*************************************************
   ChampSim Multicore Out-of-Order Simulator
   Last compiled: Dec 11 2024 17:59:53
*************************************************
parsing config file: /home/functionmain/桌面/Pythia/config/bingo.ini

trace_0 /home/functionmain/桌面/Pythia/traces/437.leslie3d-265B.champsimtrace.xz
adding L2C_PREFETCHER: Bingo
Initialize SHIP state
warmup_instructions 100000000
simulation_instructions 500000000
champsim_seed 223
measure_ipc 0
measure_ipc_epoch 1000
measure_dram_bw 1
measure_dram_bw_epoch 256
measure_cache_acc 1
measure_cache_acc_epoch 1024
l1d_perfect 0
l2c_perfect 0
llc_perfect 0
l1d_semi_perfect 0
l2c_semi_perfect 0
llc_semi_perfect 0
semi_perfect_cache_page_buffer_size 64

num_cpus 1
cpu_freq 4000
dram_io_freq 300
page_size 4096
block_size 64
max_read_per_cycle 8
max_fill_per_cycle 1
dram_channels 1
log2_dram_channels 0
dram_ranks 1
dram_banks 8
dram_rows 65536
dram_columns 128
dram_row_size 8
dram_size 4096
dram_pages 1048576

fetch_width 6
decode_width 6
exec_width 4
lq_width 2
sq_width 2
retire_width 4
scheduler_size 128
branch_mispredict_penalty 20
rob_size 256
lq_size 72
sq_size 56
num_instr_destinations_sparc 4
num_instr_destinations 2
num_instr_sources 4

itlb_set 16
itlb_way 8
itlb_rq_size 16
itlb_wq_size 16
itlb_pq_size 0
itlb_mshr_size 8
itlb_latency 1

dtlb_set 16
dtlb_way 4
dtlb_rq_size 16
dtlb_wq_size 16
dtlb_pq_size 0
dtlb_mshr_size 8
dtlb_latency 1

stlb_set 128
stlb_way 12
stlb_rq_size 32
stlb_wq_size 32
stlb_pq_size 0
stlb_mshr_size 16
stlb_latency 8

l1i_size 32
l1i_set 64
l1i_way 8
l1i_rq_size 64
l1i_wq_size 64
l1i_pq_size 8
l1i_mshr_size 8
l1i_latency 1

l1d_size 32
l1d_set 64
l1d_way 8
l1d_rq_size 64
l1d_wq_size 64
l1d_pq_size 8
l1d_mshr_size 16
l1d_latency 4

l2c_size 256
l2c_set 512
l2c_way 8
l2c_rq_size 32
l2c_wq_size 32
l2c_pq_size 32
l2c_mshr_size 32
l2c_latency 10

llc_size 2048
llc_set 2048
llc_way 16
llc_rq_size 32
llc_wq_size 32
llc_pq_size 32
llc_mshr_size 64
llc_latency 20

dram_channel_width 8
dram_wq_size 64
dram_rq_size 64
tRP 15
tRCD 15
tCAS 12.5
dram_dbus_turn_around_time 30
dram_write_high_wm 56
dram_write_low_wm 48
min_dram_writes_per_switch 16
dram_mtps 300
dram_dbus_return_time 106

bingo_region_size 2048
bingo_pattern_len 32
bingo_pc_width 16
bingo_min_addr_width 5
bingo_max_addr_width 16
bingo_ft_size 64
bingo_at_size 128
bingo_pht_size 4096
bingo_pht_ways 16
bingo_pf_streamer_size 128
bingo_debug_level 0
bingo_l1d_thresh 1.01
bingo_l2c_thresh 0.8
bingo_llc_thresh 0.05
bingo_pc_address_fill_level L2


Heartbeat CPU  0 instructions:    1000003 cycles:     500957 heartbeat IPC: 1.99619 cumulative IPC: 1.99619 (Simulation time: 0 hr 0 min 2 sec) 
Heartbeat CPU  0 instructions:    2000001 cycles:    1000298 heartbeat IPC: 2.00264 cumulative IPC: 1.99941 (Simulation time: 0 hr 0 min 3 sec) 
Heartbeat CPU  0 instructions:    3000001 cycles:    1500104 heartbeat IPC: 2.00078 cumulative IPC: 1.99986 (Simulation time: 0 hr 0 min 5 sec) 
Heartbeat CPU  0 instructions:    4000000 cycles:    1999955 heartbeat IPC: 2.00059 cumulative IPC: 2.00005 (Simulation time: 0 hr 0 min 7 sec) 
Heartbeat CPU  0 instructions:    5000003 cycles:    2498926 heartbeat IPC: 2.00413 cumulative IPC: 2.00086 (Simulation time: 0 hr 0 min 9 sec) 
Heartbeat CPU  0 instructions:    6000001 cycles:    2999090 heartbeat IPC: 1.99934 cumulative IPC: 2.00061 (Simulation time: 0 hr 0 min 10 sec) 
Heartbeat CPU  0 instructions:    7000002 cycles:    3497066 heartbeat IPC: 2.00813 cumulative IPC: 2.00168 (Simulation time: 0 hr 0 min 12 sec) 
Heartbeat CPU  0 instructions:    8000000 cycles:    3997302 heartbeat IPC: 1.99905 cumulative IPC: 2.00135 (Simulation time: 0 hr 0 min 14 sec) 
Heartbeat CPU  0 instructions:    9000003 cycles:    4495120 heartbeat IPC: 2.00877 cumulative IPC: 2.00217 (Simulation time: 0 hr 0 min 15 sec) 
Heartbeat CPU  0 instructions:   10000001 cycles:    4995150 heartbeat IPC: 1.99988 cumulative IPC: 2.00194 (Simulation time: 0 hr 0 min 17 sec) 
Heartbeat CPU  0 instructions:   11000002 cycles:    5492426 heartbeat IPC: 2.01096 cumulative IPC: 2.00276 (Simulation time: 0 hr 0 min 19 sec) 
Heartbeat CPU  0 instructions:   12000000 cycles:    5993364 heartbeat IPC: 1.99625 cumulative IPC: 2.00221 (Simulation time: 0 hr 0 min 21 sec) 
Heartbeat CPU  0 instructions:   13000002 cycles:    6490693 heartbeat IPC: 2.01075 cumulative IPC: 2.00287 (Simulation time: 0 hr 0 min 22 sec) 
Heartbeat CPU  0 instructions:   14000002 cycles:    6991364 heartbeat IPC: 1.99732 cumulative IPC: 2.00247 (Simulation time: 0 hr 0 min 24 sec) 
Heartbeat CPU  0 instructions:   15000000 cycles:    7488909 heartbeat IPC: 2.00986 cumulative IPC: 2.00296 (Simulation time: 0 hr 0 min 26 sec) 
Heartbeat CPU  0 instructions:   16000000 cycles:    7988639 heartbeat IPC: 2.00108 cumulative IPC: 2.00284 (Simulation time: 0 hr 0 min 28 sec) 
Heartbeat CPU  0 instructions:   17000003 cycles:    8487260 heartbeat IPC: 2.00554 cumulative IPC: 2.00300 (Simulation time: 0 hr 0 min 29 sec) 
Heartbeat CPU  0 instructions:   18000003 cycles:    8986866 heartbeat IPC: 2.00158 cumulative IPC: 2.00292 (Simulation time: 0 hr 0 min 31 sec) 
Heartbeat CPU  0 instructions:   19000003 cycles:    9486399 heartbeat IPC: 2.00187 cumulative IPC: 2.00287 (Simulation time: 0 hr 0 min 33 sec) 
Heartbeat CPU  0 instructions:   20000000 cycles:    9985332 heartbeat IPC: 2.00427 cumulative IPC: 2.00294 (Simulation time: 0 hr 0 min 34 sec) 
Heartbeat CPU  0 instructions:   21000000 cycles:   10485713 heartbeat IPC: 1.99848 cumulative IPC: 2.00273 (Simulation time: 0 hr 0 min 36 sec) 
Heartbeat CPU  0 instructions:   22000003 cycles:   10983854 heartbeat IPC: 2.00747 cumulative IPC: 2.00294 (Simulation time: 0 hr 0 min 38 sec) 
Heartbeat CPU  0 instructions:   23000003 cycles:   11484581 heartbeat IPC: 1.99710 cumulative IPC: 2.00269 (Simulation time: 0 hr 0 min 40 sec) 
Heartbeat CPU  0 instructions:   24000000 cycles:   11982844 heartbeat IPC: 2.00697 cumulative IPC: 2.00286 (Simulation time: 0 hr 0 min 41 sec) 
Heartbeat CPU  0 instructions:   25000002 cycles:   12483898 heartbeat IPC: 1.99580 cumulative IPC: 2.00258 (Simulation time: 0 hr 0 min 43 sec) 
Heartbeat CPU  0 instructions:   26000000 cycles:   12982014 heartbeat IPC: 2.00756 cumulative IPC: 2.00277 (Simulation time: 0 hr 0 min 45 sec) 
Heartbeat CPU  0 instructions:   27000000 cycles:   13483701 heartbeat IPC: 1.99327 cumulative IPC: 2.00242 (Simulation time: 0 hr 0 min 47 sec) 
Heartbeat CPU  0 instructions:   28000000 cycles:   13981001 heartbeat IPC: 2.01086 cumulative IPC: 2.00272 (Simulation time: 0 hr 0 min 48 sec) 
Heartbeat CPU  0 instructions:   29000000 cycles:   14481734 heartbeat IPC: 1.99707 cumulative IPC: 2.00252 (Simulation time: 0 hr 0 min 50 sec) 
Heartbeat CPU  0 instructions:   30000000 cycles:   14979456 heartbeat IPC: 2.00915 cumulative IPC: 2.00274 (Simulation time: 0 hr 0 min 52 sec) 
Heartbeat CPU  0 instructions:   31000002 cycles:   15479180 heartbeat IPC: 2.00111 cumulative IPC: 2.00269 (Simulation time: 0 hr 0 min 54 sec) 
Heartbeat CPU  0 instructions:   32000000 cycles:   15977548 heartbeat IPC: 2.00655 cumulative IPC: 2.00281 (Simulation time: 0 hr 0 min 55 sec) 
Heartbeat CPU  0 instructions:   33000000 cycles:   16476560 heartbeat IPC: 2.00396 cumulative IPC: 2.00285 (Simulation time: 0 hr 0 min 57 sec) 
Heartbeat CPU  0 instructions:   34000002 cycles:   16975683 heartbeat IPC: 2.00352 cumulative IPC: 2.00287 (Simulation time: 0 hr 0 min 59 sec) 
Heartbeat CPU  0 instructions:   35000002 cycles:   17473999 heartbeat IPC: 2.00676 cumulative IPC: 2.00298 (Simulation time: 0 hr 1 min 0 sec) 
Heartbeat CPU  0 instructions:   36000000 cycles:   17973746 heartbeat IPC: 2.00101 cumulative IPC: 2.00292 (Simulation time: 0 hr 1 min 2 sec) 
Heartbeat CPU  0 instructions:   37000000 cycles:   18471362 heartbeat IPC: 2.00958 cumulative IPC: 2.00310 (Simulation time: 0 hr 1 min 4 sec) 
Heartbeat CPU  0 instructions:   38000000 cycles:   18971904 heartbeat IPC: 1.99783 cumulative IPC: 2.00296 (Simulation time: 0 hr 1 min 6 sec) 
Heartbeat CPU  0 instructions:   39000000 cycles:   19470147 heartbeat IPC: 2.00705 cumulative IPC: 2.00307 (Simulation time: 0 hr 1 min 7 sec) 
Heartbeat CPU  0 instructions:   40000000 cycles:   19971025 heartbeat IPC: 1.99649 cumulative IPC: 2.00290 (Simulation time: 0 hr 1 min 9 sec) 
Heartbeat CPU  0 instructions:   41000000 cycles:   20469029 heartbeat IPC: 2.00802 cumulative IPC: 2.00303 (Simulation time: 0 hr 1 min 11 sec) 
Heartbeat CPU  0 instructions:   42000000 cycles:   20970662 heartbeat IPC: 1.99349 cumulative IPC: 2.00280 (Simulation time: 0 hr 1 min 13 sec) 
Heartbeat CPU  0 instructions:   43000003 cycles:   21468241 heartbeat IPC: 2.00974 cumulative IPC: 2.00296 (Simulation time: 0 hr 1 min 14 sec) 
Heartbeat CPU  0 instructions:   44000000 cycles:   21969333 heartbeat IPC: 1.99564 cumulative IPC: 2.00279 (Simulation time: 0 hr 1 min 16 sec) 
Heartbeat CPU  0 instructions:   45000003 cycles:   22467582 heartbeat IPC: 2.00703 cumulative IPC: 2.00289 (Simulation time: 0 hr 1 min 18 sec) 
Heartbeat CPU  0 instructions:   46000003 cycles:   22967674 heartbeat IPC: 1.99963 cumulative IPC: 2.00282 (Simulation time: 0 hr 1 min 20 sec) 
Heartbeat CPU  0 instructions:   47000001 cycles:   23466708 heartbeat IPC: 2.00387 cumulative IPC: 2.00284 (Simulation time: 0 hr 1 min 21 sec) 
Heartbeat CPU  0 instructions:   48000000 cycles:   23966387 heartbeat IPC: 2.00128 cumulative IPC: 2.00280 (Simulation time: 0 hr 1 min 23 sec) 
Heartbeat CPU  0 instructions:   49000000 cycles:   24465775 heartbeat IPC: 2.00245 cumulative IPC: 2.00280 (Simulation time: 0 hr 1 min 25 sec) 
Heartbeat CPU  0 instructions:   50000000 cycles:   24964205 heartbeat IPC: 2.00630 cumulative IPC: 2.00287 (Simulation time: 0 hr 1 min 26 sec) 
Heartbeat CPU  0 instructions:   51000003 cycles:   25463965 heartbeat IPC: 2.00097 cumulative IPC: 2.00283 (Simulation time: 0 hr 1 min 28 sec) 
Heartbeat CPU  0 instructions:   52000000 cycles:   25961489 heartbeat IPC: 2.00995 cumulative IPC: 2.00297 (Simulation time: 0 hr 1 min 30 sec) 
Heartbeat CPU  0 instructions:   53000001 cycles:   26461872 heartbeat IPC: 1.99847 cumulative IPC: 2.00288 (Simulation time: 0 hr 1 min 32 sec) 
Heartbeat CPU  0 instructions:   54000002 cycles:   26959763 heartbeat IPC: 2.00847 cumulative IPC: 2.00299 (Simulation time: 0 hr 1 min 33 sec) 
Heartbeat CPU  0 instructions:   55000001 cycles:   27460372 heartbeat IPC: 1.99756 cumulative IPC: 2.00289 (Simulation time: 0 hr 1 min 35 sec) 
Heartbeat CPU  0 instructions:   56000000 cycles:   27957900 heartbeat IPC: 2.00994 cumulative IPC: 2.00301 (Simulation time: 0 hr 1 min 37 sec) 
Heartbeat CPU  0 instructions:   57000002 cycles:   28458933 heartbeat IPC: 1.99588 cumulative IPC: 2.00289 (Simulation time: 0 hr 1 min 39 sec) 
Heartbeat CPU  0 instructions:   58000001 cycles:   28955821 heartbeat IPC: 2.01252 cumulative IPC: 2.00305 (Simulation time: 0 hr 1 min 40 sec) 
Heartbeat CPU  0 instructions:   59000003 cycles:   29456606 heartbeat IPC: 1.99687 cumulative IPC: 2.00295 (Simulation time: 0 hr 1 min 42 sec) 
Heartbeat CPU  0 instructions:   60000000 cycles:   29954801 heartbeat IPC: 2.00724 cumulative IPC: 2.00302 (Simulation time: 0 hr 1 min 44 sec) 
Heartbeat CPU  0 instructions:   61000003 cycles:   30455132 heartbeat IPC: 1.99868 cumulative IPC: 2.00295 (Simulation time: 0 hr 1 min 45 sec) 
Heartbeat CPU  0 instructions:   62000001 cycles:   30954181 heartbeat IPC: 2.00381 cumulative IPC: 2.00296 (Simulation time: 0 hr 1 min 47 sec) 
Heartbeat CPU  0 instructions:   63000003 cycles:   31453766 heartbeat IPC: 2.00167 cumulative IPC: 2.00294 (Simulation time: 0 hr 1 min 49 sec) 
Heartbeat CPU  0 instructions:   64000000 cycles:   31953412 heartbeat IPC: 2.00141 cumulative IPC: 2.00292 (Simulation time: 0 hr 1 min 51 sec) 
Heartbeat CPU  0 instructions:   65000001 cycles:   32452275 heartbeat IPC: 2.00456 cumulative IPC: 2.00294 (Simulation time: 0 hr 1 min 52 sec) 
Heartbeat CPU  0 instructions:   66000000 cycles:   32952710 heartbeat IPC: 1.99826 cumulative IPC: 2.00287 (Simulation time: 0 hr 1 min 54 sec) 
Heartbeat CPU  0 instructions:   67000003 cycles:   33451029 heartbeat IPC: 2.00675 cumulative IPC: 2.00293 (Simulation time: 0 hr 1 min 56 sec) 
Heartbeat CPU  0 instructions:   68000000 cycles:   33952134 heartbeat IPC: 1.99558 cumulative IPC: 2.00282 (Simulation time: 0 hr 1 min 58 sec) 
Heartbeat CPU  0 instructions:   69000002 cycles:   34450849 heartbeat IPC: 2.00516 cumulative IPC: 2.00285 (Simulation time: 0 hr 1 min 59 sec) 
Heartbeat CPU  0 instructions:   70000003 cycles:   34951378 heartbeat IPC: 1.99789 cumulative IPC: 2.00278 (Simulation time: 0 hr 2 min 1 sec) 
Heartbeat CPU  0 instructions:   71000001 cycles:   35449023 heartbeat IPC: 2.00946 cumulative IPC: 2.00288 (Simulation time: 0 hr 2 min 3 sec) 
Heartbeat CPU  0 instructions:   72000000 cycles:   35950055 heartbeat IPC: 1.99588 cumulative IPC: 2.00278 (Simulation time: 0 hr 2 min 5 sec) 
Heartbeat CPU  0 instructions:   73000001 cycles:   36447078 heartbeat IPC: 2.01198 cumulative IPC: 2.00290 (Simulation time: 0 hr 2 min 6 sec) 
Heartbeat CPU  0 instructions:   74000002 cycles:   36947351 heartbeat IPC: 1.99891 cumulative IPC: 2.00285 (Simulation time: 0 hr 2 min 8 sec) 
Heartbeat CPU  0 instructions:   75000000 cycles:   37445018 heartbeat IPC: 2.00937 cumulative IPC: 2.00294 (Simulation time: 0 hr 2 min 10 sec) 
Heartbeat CPU  0 instructions:   76000000 cycles:   37944593 heartbeat IPC: 2.00170 cumulative IPC: 2.00292 (Simulation time: 0 hr 2 min 11 sec) 
Heartbeat CPU  0 instructions:   77000003 cycles:   38443043 heartbeat IPC: 2.00623 cumulative IPC: 2.00296 (Simulation time: 0 hr 2 min 13 sec) 
Heartbeat CPU  0 instructions:   78000000 cycles:   38941874 heartbeat IPC: 2.00468 cumulative IPC: 2.00299 (Simulation time: 0 hr 2 min 15 sec) 
Heartbeat CPU  0 instructions:   79000002 cycles:   39441002 heartbeat IPC: 2.00350 cumulative IPC: 2.00299 (Simulation time: 0 hr 2 min 17 sec) 
Heartbeat CPU  0 instructions:   80000000 cycles:   39939736 heartbeat IPC: 2.00507 cumulative IPC: 2.00302 (Simulation time: 0 hr 2 min 18 sec) 
Heartbeat CPU  0 instructions:   81000002 cycles:   40440068 heartbeat IPC: 1.99868 cumulative IPC: 2.00296 (Simulation time: 0 hr 2 min 20 sec) 
Heartbeat CPU  0 instructions:   82000002 cycles:   40938175 heartbeat IPC: 2.00760 cumulative IPC: 2.00302 (Simulation time: 0 hr 2 min 22 sec) 
Heartbeat CPU  0 instructions:   83000000 cycles:   41439211 heartbeat IPC: 1.99586 cumulative IPC: 2.00293 (Simulation time: 0 hr 2 min 24 sec) 
Heartbeat CPU  0 instructions:   84000000 cycles:   41937808 heartbeat IPC: 2.00563 cumulative IPC: 2.00297 (Simulation time: 0 hr 2 min 25 sec) 
Heartbeat CPU  0 instructions:   85000000 cycles:   42439087 heartbeat IPC: 1.99490 cumulative IPC: 2.00287 (Simulation time: 0 hr 2 min 27 sec) 
Heartbeat CPU  0 instructions:   86000003 cycles:   42936960 heartbeat IPC: 2.00855 cumulative IPC: 2.00294 (Simulation time: 0 hr 2 min 29 sec) 
Heartbeat CPU  0 instructions:   87000000 cycles:   43438354 heartbeat IPC: 1.99443 cumulative IPC: 2.00284 (Simulation time: 0 hr 2 min 30 sec) 
Heartbeat CPU  0 instructions:   88000000 cycles:   43935700 heartbeat IPC: 2.01067 cumulative IPC: 2.00293 (Simulation time: 0 hr 2 min 32 sec) 
Heartbeat CPU  0 instructions:   89000003 cycles:   44436647 heartbeat IPC: 1.99623 cumulative IPC: 2.00285 (Simulation time: 0 hr 2 min 34 sec) 
Heartbeat CPU  0 instructions:   90000000 cycles:   44934759 heartbeat IPC: 2.00757 cumulative IPC: 2.00290 (Simulation time: 0 hr 2 min 36 sec) 
Heartbeat CPU  0 instructions:   91000000 cycles:   45434313 heartbeat IPC: 2.00179 cumulative IPC: 2.00289 (Simulation time: 0 hr 2 min 37 sec) 
Heartbeat CPU  0 instructions:   92000000 cycles:   45932869 heartbeat IPC: 2.00579 cumulative IPC: 2.00292 (Simulation time: 0 hr 2 min 39 sec) 
Heartbeat CPU  0 instructions:   93000000 cycles:   46431939 heartbeat IPC: 2.00373 cumulative IPC: 2.00293 (Simulation time: 0 hr 2 min 41 sec) 
Heartbeat CPU  0 instructions:   94000000 cycles:   46931068 heartbeat IPC: 2.00349 cumulative IPC: 2.00294 (Simulation time: 0 hr 2 min 43 sec) 
Heartbeat CPU  0 instructions:   95000000 cycles:   47429222 heartbeat IPC: 2.00741 cumulative IPC: 2.00298 (Simulation time: 0 hr 2 min 44 sec) 
Heartbeat CPU  0 instructions:   96000000 cycles:   47929143 heartbeat IPC: 2.00032 cumulative IPC: 2.00296 (Simulation time: 0 hr 2 min 46 sec) 
Heartbeat CPU  0 instructions:   97000000 cycles:   48427146 heartbeat IPC: 2.00802 cumulative IPC: 2.00301 (Simulation time: 0 hr 2 min 48 sec) 
Heartbeat CPU  0 instructions:   98000001 cycles:   48927811 heartbeat IPC: 1.99735 cumulative IPC: 2.00295 (Simulation time: 0 hr 2 min 49 sec) 
Heartbeat CPU  0 instructions:   99000001 cycles:   49425583 heartbeat IPC: 2.00895 cumulative IPC: 2.00301 (Simulation time: 0 hr 2 min 51 sec) 
Heartbeat CPU  0 instructions:  100000000 cycles:   49925971 heartbeat IPC: 1.99845 cumulative IPC: 2.00297 (Simulation time: 0 hr 2 min 53 sec) 

Warmup complete CPU  0 instructions:  100000001 cycles:   49925972 (Simulation time: 0 hr 2 min 53 sec) 

Heartbeat CPU  0 instructions:  101000003 cycles:   51127157 heartbeat IPC: 0.83251 cumulative IPC: 0.83251 (Simulation time: 0 hr 2 min 55 sec) 
Heartbeat CPU  0 instructions:  102000001 cycles:   52247723 heartbeat IPC: 0.89240 cumulative IPC: 0.86142 (Simulation time: 0 hr 2 min 57 sec) 
Heartbeat CPU  0 instructions:  103000002 cycles:   53346388 heartbeat IPC: 0.91020 cumulative IPC: 0.87709 (Simulation time: 0 hr 3 min 0 sec) 
Heartbeat CPU  0 instructions:  104000000 cycles:   54482843 heartbeat IPC: 0.87993 cumulative IPC: 0.87780 (Simulation time: 0 hr 3 min 2 sec) 
Heartbeat CPU  0 instructions:  105000002 cycles:   55599860 heartbeat IPC: 0.89524 cumulative IPC: 0.88123 (Simulation time: 0 hr 3 min 4 sec) 
Heartbeat CPU  0 instructions:  106000003 cycles:   56731028 heartbeat IPC: 0.88404 cumulative IPC: 0.88170 (Simulation time: 0 hr 3 min 6 sec) 
Heartbeat CPU  0 instructions:  107000000 cycles:   57870779 heartbeat IPC: 0.87738 cumulative IPC: 0.88108 (Simulation time: 0 hr 3 min 8 sec) 
Heartbeat CPU  0 instructions:  108000000 cycles:   58960865 heartbeat IPC: 0.91736 cumulative IPC: 0.88546 (Simulation time: 0 hr 3 min 11 sec) 
Heartbeat CPU  0 instructions:  109000000 cycles:   60085402 heartbeat IPC: 0.88925 cumulative IPC: 0.88588 (Simulation time: 0 hr 3 min 13 sec) 
Heartbeat CPU  0 instructions:  110000001 cycles:   61215315 heartbeat IPC: 0.88502 cumulative IPC: 0.88579 (Simulation time: 0 hr 3 min 15 sec) 
Heartbeat CPU  0 instructions:  111000001 cycles:   62370081 heartbeat IPC: 0.86598 cumulative IPC: 0.88395 (Simulation time: 0 hr 3 min 17 sec) 
Heartbeat CPU  0 instructions:  112000000 cycles:   63510845 heartbeat IPC: 0.87660 cumulative IPC: 0.88334 (Simulation time: 0 hr 3 min 19 sec) 
Heartbeat CPU  0 instructions:  113000003 cycles:   64606696 heartbeat IPC: 0.91254 cumulative IPC: 0.88552 (Simulation time: 0 hr 3 min 22 sec) 
Heartbeat CPU  0 instructions:  114000001 cycles:   65713376 heartbeat IPC: 0.90360 cumulative IPC: 0.88678 (Simulation time: 0 hr 3 min 24 sec) 
Heartbeat CPU  0 instructions:  115000003 cycles:   66838412 heartbeat IPC: 0.88886 cumulative IPC: 0.88692 (Simulation time: 0 hr 3 min 26 sec) 
Heartbeat CPU  0 instructions:  116000000 cycles:   67941502 heartbeat IPC: 0.90654 cumulative IPC: 0.88812 (Simulation time: 0 hr 3 min 28 sec) 
Heartbeat CPU  0 instructions:  117000000 cycles:   69070943 heartbeat IPC: 0.88539 cumulative IPC: 0.88796 (Simulation time: 0 hr 3 min 30 sec) 
Heartbeat CPU  0 instructions:  118000003 cycles:   70208389 heartbeat IPC: 0.87917 cumulative IPC: 0.88747 (Simulation time: 0 hr 3 min 33 sec) 
Heartbeat CPU  0 instructions:  119000000 cycles:   71288744 heartbeat IPC: 0.92562 cumulative IPC: 0.88940 (Simulation time: 0 hr 3 min 35 sec) 
Heartbeat CPU  0 instructions:  120000000 cycles:   72425735 heartbeat IPC: 0.87951 cumulative IPC: 0.88890 (Simulation time: 0 hr 3 min 37 sec) 
Heartbeat CPU  0 instructions:  121000000 cycles:   73557831 heartbeat IPC: 0.88332 cumulative IPC: 0.88863 (Simulation time: 0 hr 3 min 39 sec) 
Heartbeat CPU  0 instructions:  122000000 cycles:   74711345 heartbeat IPC: 0.86692 cumulative IPC: 0.88762 (Simulation time: 0 hr 3 min 42 sec) 
Heartbeat CPU  0 instructions:  123000001 cycles:   75847192 heartbeat IPC: 0.88040 cumulative IPC: 0.88730 (Simulation time: 0 hr 3 min 44 sec) 
Heartbeat CPU  0 instructions:  124000000 cycles:   76928312 heartbeat IPC: 0.92497 cumulative IPC: 0.88881 (Simulation time: 0 hr 3 min 46 sec) 
Heartbeat CPU  0 instructions:  125000001 cycles:   78037688 heartbeat IPC: 0.90141 cumulative IPC: 0.88931 (Simulation time: 0 hr 3 min 48 sec) 
Heartbeat CPU  0 instructions:  126000002 cycles:   79177037 heartbeat IPC: 0.87770 cumulative IPC: 0.88886 (Simulation time: 0 hr 3 min 50 sec) 
Heartbeat CPU  0 instructions:  127000000 cycles:   80321510 heartbeat IPC: 0.87376 cumulative IPC: 0.88829 (Simulation time: 0 hr 3 min 53 sec) 
Heartbeat CPU  0 instructions:  128000000 cycles:   81426951 heartbeat IPC: 0.90462 cumulative IPC: 0.88886 (Simulation time: 0 hr 3 min 55 sec) 
Heartbeat CPU  0 instructions:  129000003 cycles:   82546812 heartbeat IPC: 0.89297 cumulative IPC: 0.88900 (Simulation time: 0 hr 3 min 57 sec) 
Heartbeat CPU  0 instructions:  130000000 cycles:   83614613 heartbeat IPC: 0.93650 cumulative IPC: 0.89051 (Simulation time: 0 hr 3 min 59 sec) 
Heartbeat CPU  0 instructions:  131000003 cycles:   84744655 heartbeat IPC: 0.88493 cumulative IPC: 0.89033 (Simulation time: 0 hr 4 min 1 sec) 
Heartbeat CPU  0 instructions:  132000000 cycles:   86745768 heartbeat IPC: 0.49972 cumulative IPC: 0.86910 (Simulation time: 0 hr 4 min 4 sec) 
Heartbeat CPU  0 instructions:  133000001 cycles:   89573076 heartbeat IPC: 0.35369 cumulative IPC: 0.83234 (Simulation time: 0 hr 4 min 7 sec) 
Heartbeat CPU  0 instructions:  134000003 cycles:   91042839 heartbeat IPC: 0.68038 cumulative IPC: 0.82691 (Simulation time: 0 hr 4 min 9 sec) 
Heartbeat CPU  0 instructions:  135000000 cycles:   92118317 heartbeat IPC: 0.92982 cumulative IPC: 0.82953 (Simulation time: 0 hr 4 min 12 sec) 
Heartbeat CPU  0 instructions:  136000000 cycles:   93239867 heartbeat IPC: 0.89162 cumulative IPC: 0.83114 (Simulation time: 0 hr 4 min 14 sec) 
Heartbeat CPU  0 instructions:  137000001 cycles:   94371248 heartbeat IPC: 0.88388 cumulative IPC: 0.83248 (Simulation time: 0 hr 4 min 16 sec) 
Heartbeat CPU  0 instructions:  138000003 cycles:   95386108 heartbeat IPC: 0.98536 cumulative IPC: 0.83590 (Simulation time: 0 hr 4 min 18 sec) 
Heartbeat CPU  0 instructions:  139000000 cycles:   96425751 heartbeat IPC: 0.96187 cumulative IPC: 0.83871 (Simulation time: 0 hr 4 min 21 sec) 
Heartbeat CPU  0 instructions:  140000000 cycles:   97490163 heartbeat IPC: 0.93949 cumulative IPC: 0.84097 (Simulation time: 0 hr 4 min 23 sec) 
Heartbeat CPU  0 instructions:  141000001 cycles:   98565042 heartbeat IPC: 0.93034 cumulative IPC: 0.84294 (Simulation time: 0 hr 4 min 25 sec) 
Heartbeat CPU  0 instructions:  142000003 cycles:   99613803 heartbeat IPC: 0.95351 cumulative IPC: 0.84528 (Simulation time: 0 hr 4 min 28 sec) 
Heartbeat CPU  0 instructions:  143000000 cycles:  100672608 heartbeat IPC: 0.94446 cumulative IPC: 0.84735 (Simulation time: 0 hr 4 min 30 sec) 
Heartbeat CPU  0 instructions:  144000000 cycles:  101688095 heartbeat IPC: 0.98475 cumulative IPC: 0.85004 (Simulation time: 0 hr 4 min 32 sec) 
Heartbeat CPU  0 instructions:  145000001 cycles:  102687264 heartbeat IPC: 1.00083 cumulative IPC: 0.85290 (Simulation time: 0 hr 4 min 34 sec) 
Heartbeat CPU  0 instructions:  146000002 cycles:  103660648 heartbeat IPC: 1.02734 cumulative IPC: 0.85606 (Simulation time: 0 hr 4 min 36 sec) 
Heartbeat CPU  0 instructions:  147000002 cycles:  104667330 heartbeat IPC: 0.99336 cumulative IPC: 0.85858 (Simulation time: 0 hr 4 min 39 sec) 
Heartbeat CPU  0 instructions:  148000000 cycles:  105705043 heartbeat IPC: 0.96366 cumulative IPC: 0.86054 (Simulation time: 0 hr 4 min 41 sec) 
Heartbeat CPU  0 instructions:  149000001 cycles:  106806289 heartbeat IPC: 0.90806 cumulative IPC: 0.86146 (Simulation time: 0 hr 4 min 43 sec) 
Heartbeat CPU  0 instructions:  150000002 cycles:  107879292 heartbeat IPC: 0.93196 cumulative IPC: 0.86276 (Simulation time: 0 hr 4 min 46 sec) 
Heartbeat CPU  0 instructions:  151000002 cycles:  108961261 heartbeat IPC: 0.92424 cumulative IPC: 0.86389 (Simulation time: 0 hr 4 min 48 sec) 
Heartbeat CPU  0 instructions:  152000000 cycles:  110040881 heartbeat IPC: 0.92625 cumulative IPC: 0.86501 (Simulation time: 0 hr 4 min 50 sec) 
Heartbeat CPU  0 instructions:  153000002 cycles:  111114039 heartbeat IPC: 0.93183 cumulative IPC: 0.86618 (Simulation time: 0 hr 4 min 52 sec) 
Heartbeat CPU  0 instructions:  154000002 cycles:  112237562 heartbeat IPC: 0.89006 cumulative IPC: 0.86661 (Simulation time: 0 hr 4 min 55 sec) 
Heartbeat CPU  0 instructions:  155000001 cycles:  113323500 heartbeat IPC: 0.92086 cumulative IPC: 0.86754 (Simulation time: 0 hr 4 min 57 sec) 
Heartbeat CPU  0 instructions:  156000000 cycles:  114404049 heartbeat IPC: 0.92545 cumulative IPC: 0.86851 (Simulation time: 0 hr 4 min 59 sec) 
Heartbeat CPU  0 instructions:  157000002 cycles:  115423191 heartbeat IPC: 0.98122 cumulative IPC: 0.87027 (Simulation time: 0 hr 5 min 2 sec) 
Heartbeat CPU  0 instructions:  158000000 cycles:  116411417 heartbeat IPC: 1.01191 cumulative IPC: 0.87237 (Simulation time: 0 hr 5 min 4 sec) 
Heartbeat CPU  0 instructions:  159000003 cycles:  117382675 heartbeat IPC: 1.02960 cumulative IPC: 0.87464 (Simulation time: 0 hr 5 min 6 sec) 
Heartbeat CPU  0 instructions:  160000000 cycles:  118438120 heartbeat IPC: 0.94746 cumulative IPC: 0.87576 (Simulation time: 0 hr 5 min 8 sec) 
Heartbeat CPU  0 instructions:  161000000 cycles:  119548878 heartbeat IPC: 0.90029 cumulative IPC: 0.87615 (Simulation time: 0 hr 5 min 11 sec) 
Heartbeat CPU  0 instructions:  162000001 cycles:  120619590 heartbeat IPC: 0.93396 cumulative IPC: 0.87702 (Simulation time: 0 hr 5 min 13 sec) 
Heartbeat CPU  0 instructions:  163000001 cycles:  121693677 heartbeat IPC: 0.93102 cumulative IPC: 0.87783 (Simulation time: 0 hr 5 min 15 sec) 
Heartbeat CPU  0 instructions:  164000000 cycles:  122768785 heartbeat IPC: 0.93014 cumulative IPC: 0.87860 (Simulation time: 0 hr 5 min 18 sec) 
Heartbeat CPU  0 instructions:  165000000 cycles:  123862787 heartbeat IPC: 0.91408 cumulative IPC: 0.87913 (Simulation time: 0 hr 5 min 20 sec) 
Heartbeat CPU  0 instructions:  166000001 cycles:  124946693 heartbeat IPC: 0.92259 cumulative IPC: 0.87976 (Simulation time: 0 hr 5 min 22 sec) 
Heartbeat CPU  0 instructions:  167000003 cycles:  126042148 heartbeat IPC: 0.91286 cumulative IPC: 0.88023 (Simulation time: 0 hr 5 min 24 sec) 
Heartbeat CPU  0 instructions:  168000000 cycles:  127127779 heartbeat IPC: 0.92112 cumulative IPC: 0.88081 (Simulation time: 0 hr 5 min 27 sec) 
Heartbeat CPU  0 instructions:  169000001 cycles:  128202844 heartbeat IPC: 0.93018 cumulative IPC: 0.88149 (Simulation time: 0 hr 5 min 29 sec) 
Heartbeat CPU  0 instructions:  170000001 cycles:  129201158 heartbeat IPC: 1.00169 cumulative IPC: 0.88300 (Simulation time: 0 hr 5 min 31 sec) 
Heartbeat CPU  0 instructions:  171000001 cycles:  130181455 heartbeat IPC: 1.02010 cumulative IPC: 0.88467 (Simulation time: 0 hr 5 min 33 sec) 
Heartbeat CPU  0 instructions:  172000000 cycles:  131161698 heartbeat IPC: 1.02015 cumulative IPC: 0.88631 (Simulation time: 0 hr 5 min 36 sec) 
Heartbeat CPU  0 instructions:  173000000 cycles:  132268902 heartbeat IPC: 0.90318 cumulative IPC: 0.88654 (Simulation time: 0 hr 5 min 38 sec) 
Heartbeat CPU  0 instructions:  174000001 cycles:  133357914 heartbeat IPC: 0.91826 cumulative IPC: 0.88695 (Simulation time: 0 hr 5 min 40 sec) 
Heartbeat CPU  0 instructions:  175000002 cycles:  134442536 heartbeat IPC: 0.92198 cumulative IPC: 0.88740 (Simulation time: 0 hr 5 min 42 sec) 
Heartbeat CPU  0 instructions:  176000000 cycles:  135539949 heartbeat IPC: 0.91123 cumulative IPC: 0.88771 (Simulation time: 0 hr 5 min 45 sec) 
Heartbeat CPU  0 instructions:  177000001 cycles:  136605939 heartbeat IPC: 0.93810 cumulative IPC: 0.88833 (Simulation time: 0 hr 5 min 47 sec) 
Heartbeat CPU  0 instructions:  178000001 cycles:  137700519 heartbeat IPC: 0.91359 cumulative IPC: 0.88864 (Simulation time: 0 hr 5 min 49 sec) 
Heartbeat CPU  0 instructions:  179000002 cycles:  138786296 heartbeat IPC: 0.92100 cumulative IPC: 0.88904 (Simulation time: 0 hr 5 min 52 sec) 
Heartbeat CPU  0 instructions:  180000000 cycles:  139886457 heartbeat IPC: 0.90896 cumulative IPC: 0.88928 (Simulation time: 0 hr 5 min 54 sec) 
Heartbeat CPU  0 instructions:  181000000 cycles:  140959812 heartbeat IPC: 0.93166 cumulative IPC: 0.88978 (Simulation time: 0 hr 5 min 56 sec) 
Heartbeat CPU  0 instructions:  182000002 cycles:  142010751 heartbeat IPC: 0.95153 cumulative IPC: 0.89048 (Simulation time: 0 hr 5 min 59 sec) 
Heartbeat CPU  0 instructions:  183000002 cycles:  143062290 heartbeat IPC: 0.95099 cumulative IPC: 0.89117 (Simulation time: 0 hr 6 min 1 sec) 
Heartbeat CPU  0 instructions:  184000000 cycles:  144115275 heartbeat IPC: 0.94968 cumulative IPC: 0.89182 (Simulation time: 0 hr 6 min 3 sec) 
Heartbeat CPU  0 instructions:  185000003 cycles:  145190892 heartbeat IPC: 0.92970 cumulative IPC: 0.89225 (Simulation time: 0 hr 6 min 5 sec) 
Heartbeat CPU  0 instructions:  186000000 cycles:  146261268 heartbeat IPC: 0.93425 cumulative IPC: 0.89272 (Simulation time: 0 hr 6 min 8 sec) 
Heartbeat CPU  0 instructions:  187000000 cycles:  147394569 heartbeat IPC: 0.88238 cumulative IPC: 0.89260 (Simulation time: 0 hr 6 min 10 sec) 
Heartbeat CPU  0 instructions:  188000000 cycles:  148483207 heartbeat IPC: 0.91858 cumulative IPC: 0.89288 (Simulation time: 0 hr 6 min 12 sec) 
Heartbeat CPU  0 instructions:  189000003 cycles:  149590100 heartbeat IPC: 0.90343 cumulative IPC: 0.89300 (Simulation time: 0 hr 6 min 15 sec) 
Heartbeat CPU  0 instructions:  190000000 cycles:  150680630 heartbeat IPC: 0.91698 cumulative IPC: 0.89326 (Simulation time: 0 hr 6 min 17 sec) 
Heartbeat CPU  0 instructions:  191000000 cycles:  151788892 heartbeat IPC: 0.90231 cumulative IPC: 0.89336 (Simulation time: 0 hr 6 min 19 sec) 
Heartbeat CPU  0 instructions:  192000000 cycles:  152884247 heartbeat IPC: 0.91295 cumulative IPC: 0.89357 (Simulation time: 0 hr 6 min 21 sec) 
Heartbeat CPU  0 instructions:  193000000 cycles:  153986285 heartbeat IPC: 0.90741 cumulative IPC: 0.89371 (Simulation time: 0 hr 6 min 24 sec) 
Heartbeat CPU  0 instructions:  194000000 cycles:  155050747 heartbeat IPC: 0.93944 cumulative IPC: 0.89418 (Simulation time: 0 hr 6 min 26 sec) 
Heartbeat CPU  0 instructions:  195000003 cycles:  157280085 heartbeat IPC: 0.44857 cumulative IPC: 0.88492 (Simulation time: 0 hr 6 min 29 sec) 
Heartbeat CPU  0 instructions:  196000000 cycles:  159174438 heartbeat IPC: 0.52788 cumulative IPC: 0.87873 (Simulation time: 0 hr 6 min 31 sec) 
Heartbeat CPU  0 instructions:  197000000 cycles:  160925683 heartbeat IPC: 0.57102 cumulative IPC: 0.87388 (Simulation time: 0 hr 6 min 34 sec) 
Heartbeat CPU  0 instructions:  198000000 cycles:  162569130 heartbeat IPC: 0.60848 cumulative IPC: 0.87000 (Simulation time: 0 hr 6 min 36 sec) 
Heartbeat CPU  0 instructions:  199000000 cycles:  164311455 heartbeat IPC: 0.57395 cumulative IPC: 0.86549 (Simulation time: 0 hr 6 min 38 sec) 
Heartbeat CPU  0 instructions:  200000000 cycles:  166101662 heartbeat IPC: 0.55859 cumulative IPC: 0.86077 (Simulation time: 0 hr 6 min 41 sec) 
Heartbeat CPU  0 instructions:  201000002 cycles:  167817037 heartbeat IPC: 0.58296 cumulative IPC: 0.85672 (Simulation time: 0 hr 6 min 43 sec) 
Heartbeat CPU  0 instructions:  202000002 cycles:  169540446 heartbeat IPC: 0.58025 cumulative IPC: 0.85274 (Simulation time: 0 hr 6 min 46 sec) 
Heartbeat CPU  0 instructions:  203000003 cycles:  171222795 heartbeat IPC: 0.59441 cumulative IPC: 0.84916 (Simulation time: 0 hr 6 min 48 sec) 
Heartbeat CPU  0 instructions:  204000000 cycles:  173624561 heartbeat IPC: 0.41636 cumulative IPC: 0.84075 (Simulation time: 0 hr 6 min 51 sec) 
Heartbeat CPU  0 instructions:  205000001 cycles:  175432862 heartbeat IPC: 0.55301 cumulative IPC: 0.83661 (Simulation time: 0 hr 6 min 53 sec) 
Heartbeat CPU  0 instructions:  206000003 cycles:  176976890 heartbeat IPC: 0.64766 cumulative IPC: 0.83431 (Simulation time: 0 hr 6 min 56 sec) 
Heartbeat CPU  0 instructions:  207000003 cycles:  178694223 heartbeat IPC: 0.58230 cumulative IPC: 0.83095 (Simulation time: 0 hr 6 min 58 sec) 
Heartbeat CPU  0 instructions:  208000000 cycles:  180399810 heartbeat IPC: 0.58631 cumulative IPC: 0.82775 (Simulation time: 0 hr 7 min 0 sec) 
Heartbeat CPU  0 instructions:  209000000 cycles:  182082617 heartbeat IPC: 0.59425 cumulative IPC: 0.82478 (Simulation time: 0 hr 7 min 3 sec) 
Heartbeat CPU  0 instructions:  210000003 cycles:  183735668 heartbeat IPC: 0.60494 cumulative IPC: 0.82206 (Simulation time: 0 hr 7 min 5 sec) 
Heartbeat CPU  0 instructions:  211000002 cycles:  185323628 heartbeat IPC: 0.62974 cumulative IPC: 0.81981 (Simulation time: 0 hr 7 min 8 sec) 
Heartbeat CPU  0 instructions:  212000000 cycles:  186974375 heartbeat IPC: 0.60579 cumulative IPC: 0.81723 (Simulation time: 0 hr 7 min 10 sec) 
Heartbeat CPU  0 instructions:  213000001 cycles:  189329569 heartbeat IPC: 0.42459 cumulative IPC: 0.81060 (Simulation time: 0 hr 7 min 13 sec) 
Heartbeat CPU  0 instructions:  214000001 cycles:  190999574 heartbeat IPC: 0.59880 cumulative IPC: 0.80809 (Simulation time: 0 hr 7 min 15 sec) 
Heartbeat CPU  0 instructions:  215000002 cycles:  192753761 heartbeat IPC: 0.57007 cumulative IPC: 0.80517 (Simulation time: 0 hr 7 min 17 sec) 
Heartbeat CPU  0 instructions:  216000000 cycles:  194531571 heartbeat IPC: 0.56249 cumulative IPC: 0.80218 (Simulation time: 0 hr 7 min 20 sec) 
Heartbeat CPU  0 instructions:  217000003 cycles:  196308835 heartbeat IPC: 0.56266 cumulative IPC: 0.79927 (Simulation time: 0 hr 7 min 22 sec) 
Heartbeat CPU  0 instructions:  218000003 cycles:  198053156 heartbeat IPC: 0.57329 cumulative IPC: 0.79661 (Simulation time: 0 hr 7 min 25 sec) 
Heartbeat CPU  0 instructions:  219000003 cycles:  199784260 heartbeat IPC: 0.57767 cumulative IPC: 0.79408 (Simulation time: 0 hr 7 min 27 sec) 
Heartbeat CPU  0 instructions:  220000000 cycles:  201469955 heartbeat IPC: 0.59323 cumulative IPC: 0.79185 (Simulation time: 0 hr 7 min 29 sec) 
Heartbeat CPU  0 instructions:  221000003 cycles:  203370861 heartbeat IPC: 0.52607 cumulative IPC: 0.78856 (Simulation time: 0 hr 7 min 32 sec) 
Heartbeat CPU  0 instructions:  222000002 cycles:  205372311 heartbeat IPC: 0.49964 cumulative IPC: 0.78484 (Simulation time: 0 hr 7 min 35 sec) 
Heartbeat CPU  0 instructions:  223000002 cycles:  207147374 heartbeat IPC: 0.56336 cumulative IPC: 0.78234 (Simulation time: 0 hr 7 min 37 sec) 
Heartbeat CPU  0 instructions:  224000000 cycles:  208958792 heartbeat IPC: 0.55205 cumulative IPC: 0.77971 (Simulation time: 0 hr 7 min 40 sec) 
Heartbeat CPU  0 instructions:  225000000 cycles:  210754973 heartbeat IPC: 0.55674 cumulative IPC: 0.77722 (Simulation time: 0 hr 7 min 43 sec) 
Heartbeat CPU  0 instructions:  226000003 cycles:  212545758 heartbeat IPC: 0.55842 cumulative IPC: 0.77481 (Simulation time: 0 hr 7 min 45 sec) 
Heartbeat CPU  0 instructions:  227000001 cycles:  214345906 heartbeat IPC: 0.55551 cumulative IPC: 0.77241 (Simulation time: 0 hr 7 min 48 sec) 
Heartbeat CPU  0 instructions:  228000000 cycles:  216137964 heartbeat IPC: 0.55802 cumulative IPC: 0.77010 (Simulation time: 0 hr 7 min 51 sec) 
Heartbeat CPU  0 instructions:  229000000 cycles:  217903750 heartbeat IPC: 0.56632 cumulative IPC: 0.76796 (Simulation time: 0 hr 7 min 54 sec) 
Heartbeat CPU  0 instructions:  230000000 cycles:  219719072 heartbeat IPC: 0.55087 cumulative IPC: 0.76564 (Simulation time: 0 hr 7 min 56 sec) 
Heartbeat CPU  0 instructions:  231000000 cycles:  221513072 heartbeat IPC: 0.55741 cumulative IPC: 0.76346 (Simulation time: 0 hr 7 min 59 sec) 
Heartbeat CPU  0 instructions:  232000000 cycles:  223313943 heartbeat IPC: 0.55529 cumulative IPC: 0.76130 (Simulation time: 0 hr 8 min 2 sec) 
Heartbeat CPU  0 instructions:  233000000 cycles:  225095412 heartbeat IPC: 0.56133 cumulative IPC: 0.75926 (Simulation time: 0 hr 8 min 4 sec) 
Heartbeat CPU  0 instructions:  234000000 cycles:  226909514 heartbeat IPC: 0.55124 cumulative IPC: 0.75713 (Simulation time: 0 hr 8 min 7 sec) 
Heartbeat CPU  0 instructions:  235000003 cycles:  228695116 heartbeat IPC: 0.56004 cumulative IPC: 0.75516 (Simulation time: 0 hr 8 min 10 sec) 
Heartbeat CPU  0 instructions:  236000000 cycles:  230484620 heartbeat IPC: 0.55881 cumulative IPC: 0.75322 (Simulation time: 0 hr 8 min 12 sec) 
Heartbeat CPU  0 instructions:  237000000 cycles:  232282481 heartbeat IPC: 0.55622 cumulative IPC: 0.75128 (Simulation time: 0 hr 8 min 15 sec) 
Heartbeat CPU  0 instructions:  238000002 cycles:  234081610 heartbeat IPC: 0.55583 cumulative IPC: 0.74937 (Simulation time: 0 hr 8 min 18 sec) 
Heartbeat CPU  0 instructions:  239000000 cycles:  235859910 heartbeat IPC: 0.56233 cumulative IPC: 0.74758 (Simulation time: 0 hr 8 min 21 sec) 
Heartbeat CPU  0 instructions:  240000000 cycles:  237660995 heartbeat IPC: 0.55522 cumulative IPC: 0.74573 (Simulation time: 0 hr 8 min 23 sec) 
Heartbeat CPU  0 instructions:  241000002 cycles:  239455068 heartbeat IPC: 0.55739 cumulative IPC: 0.74395 (Simulation time: 0 hr 8 min 26 sec) 
Heartbeat CPU  0 instructions:  242000002 cycles:  241257491 heartbeat IPC: 0.55481 cumulative IPC: 0.74217 (Simulation time: 0 hr 8 min 29 sec) 
Heartbeat CPU  0 instructions:  243000001 cycles:  243036734 heartbeat IPC: 0.56204 cumulative IPC: 0.74051 (Simulation time: 0 hr 8 min 31 sec) 
Heartbeat CPU  0 instructions:  244000000 cycles:  244838362 heartbeat IPC: 0.55505 cumulative IPC: 0.73879 (Simulation time: 0 hr 8 min 34 sec) 
Heartbeat CPU  0 instructions:  245000002 cycles:  246631731 heartbeat IPC: 0.55761 cumulative IPC: 0.73714 (Simulation time: 0 hr 8 min 37 sec) 
Heartbeat CPU  0 instructions:  246000003 cycles:  248440483 heartbeat IPC: 0.55287 cumulative IPC: 0.73546 (Simulation time: 0 hr 8 min 39 sec) 
Heartbeat CPU  0 instructions:  247000002 cycles:  250228144 heartbeat IPC: 0.55939 cumulative IPC: 0.73389 (Simulation time: 0 hr 8 min 42 sec) 
Heartbeat CPU  0 instructions:  248000000 cycles:  252019900 heartbeat IPC: 0.55811 cumulative IPC: 0.73233 (Simulation time: 0 hr 8 min 45 sec) 
Heartbeat CPU  0 instructions:  249000000 cycles:  253819511 heartbeat IPC: 0.55568 cumulative IPC: 0.73077 (Simulation time: 0 hr 8 min 47 sec) 
Heartbeat CPU  0 instructions:  250000000 cycles:  255637019 heartbeat IPC: 0.55020 cumulative IPC: 0.72918 (Simulation time: 0 hr 8 min 50 sec) 
Heartbeat CPU  0 instructions:  251000002 cycles:  257422606 heartbeat IPC: 0.56004 cumulative IPC: 0.72772 (Simulation time: 0 hr 8 min 53 sec) 
Heartbeat CPU  0 instructions:  252000000 cycles:  259237796 heartbeat IPC: 0.55091 cumulative IPC: 0.72619 (Simulation time: 0 hr 8 min 56 sec) 
Heartbeat CPU  0 instructions:  253000001 cycles:  261032591 heartbeat IPC: 0.55717 cumulative IPC: 0.72475 (Simulation time: 0 hr 8 min 58 sec) 
Heartbeat CPU  0 instructions:  254000002 cycles:  262835012 heartbeat IPC: 0.55481 cumulative IPC: 0.72331 (Simulation time: 0 hr 9 min 1 sec) 
Heartbeat CPU  0 instructions:  255000003 cycles:  264640778 heartbeat IPC: 0.55378 cumulative IPC: 0.72189 (Simulation time: 0 hr 9 min 4 sec) 
Heartbeat CPU  0 instructions:  256000000 cycles:  266417538 heartbeat IPC: 0.56282 cumulative IPC: 0.72058 (Simulation time: 0 hr 9 min 6 sec) 
Heartbeat CPU  0 instructions:  257000001 cycles:  268212167 heartbeat IPC: 0.55722 cumulative IPC: 0.71924 (Simulation time: 0 hr 9 min 9 sec) 
Heartbeat CPU  0 instructions:  258000001 cycles:  270006154 heartbeat IPC: 0.55742 cumulative IPC: 0.71792 (Simulation time: 0 hr 9 min 12 sec) 
Heartbeat CPU  0 instructions:  259000000 cycles:  271939997 heartbeat IPC: 0.51710 cumulative IPC: 0.71617 (Simulation time: 0 hr 9 min 14 sec) 
Heartbeat CPU  0 instructions:  260000000 cycles:  273236804 heartbeat IPC: 0.77112 cumulative IPC: 0.71649 (Simulation time: 0 hr 9 min 17 sec) 
Heartbeat CPU  0 instructions:  261000000 cycles:  274497003 heartbeat IPC: 0.79353 cumulative IPC: 0.71692 (Simulation time: 0 hr 9 min 19 sec) 
Heartbeat CPU  0 instructions:  262000000 cycles:  275762360 heartbeat IPC: 0.79029 cumulative IPC: 0.71733 (Simulation time: 0 hr 9 min 21 sec) 
Heartbeat CPU  0 instructions:  263000001 cycles:  277013838 heartbeat IPC: 0.79906 cumulative IPC: 0.71778 (Simulation time: 0 hr 9 min 24 sec) 
Heartbeat CPU  0 instructions:  264000000 cycles:  278264254 heartbeat IPC: 0.79973 cumulative IPC: 0.71823 (Simulation time: 0 hr 9 min 26 sec) 
Heartbeat CPU  0 instructions:  265000001 cycles:  279506499 heartbeat IPC: 0.80500 cumulative IPC: 0.71870 (Simulation time: 0 hr 9 min 28 sec) 
Heartbeat CPU  0 instructions:  266000001 cycles:  280752987 heartbeat IPC: 0.80225 cumulative IPC: 0.71915 (Simulation time: 0 hr 9 min 31 sec) 
Heartbeat CPU  0 instructions:  267000002 cycles:  281980406 heartbeat IPC: 0.81472 cumulative IPC: 0.71966 (Simulation time: 0 hr 9 min 33 sec) 
Heartbeat CPU  0 instructions:  268000000 cycles:  283264481 heartbeat IPC: 0.77877 cumulative IPC: 0.71998 (Simulation time: 0 hr 9 min 35 sec) 
Heartbeat CPU  0 instructions:  269000001 cycles:  284628390 heartbeat IPC: 0.73319 cumulative IPC: 0.72006 (Simulation time: 0 hr 9 min 37 sec) 
Heartbeat CPU  0 instructions:  270000000 cycles:  285791278 heartbeat IPC: 0.85993 cumulative IPC: 0.72075 (Simulation time: 0 hr 9 min 40 sec) 
Heartbeat CPU  0 instructions:  271000002 cycles:  287003079 heartbeat IPC: 0.82522 cumulative IPC: 0.72128 (Simulation time: 0 hr 9 min 42 sec) 
Heartbeat CPU  0 instructions:  272000000 cycles:  288212998 heartbeat IPC: 0.82650 cumulative IPC: 0.72182 (Simulation time: 0 hr 9 min 44 sec) 
Heartbeat CPU  0 instructions:  273000003 cycles:  289406743 heartbeat IPC: 0.83770 cumulative IPC: 0.72240 (Simulation time: 0 hr 9 min 46 sec) 
Heartbeat CPU  0 instructions:  274000002 cycles:  290569410 heartbeat IPC: 0.86009 cumulative IPC: 0.72306 (Simulation time: 0 hr 9 min 49 sec) 
Heartbeat CPU  0 instructions:  275000000 cycles:  291761730 heartbeat IPC: 0.83870 cumulative IPC: 0.72363 (Simulation time: 0 hr 9 min 51 sec) 
Heartbeat CPU  0 instructions:  276000000 cycles:  292956549 heartbeat IPC: 0.83695 cumulative IPC: 0.72419 (Simulation time: 0 hr 9 min 53 sec) 
Heartbeat CPU  0 instructions:  277000001 cycles:  294130734 heartbeat IPC: 0.85166 cumulative IPC: 0.72480 (Simulation time: 0 hr 9 min 55 sec) 
Heartbeat CPU  0 instructions:  278000001 cycles:  295096444 heartbeat IPC: 1.03551 cumulative IPC: 0.72603 (Simulation time: 0 hr 9 min 58 sec) 
Heartbeat CPU  0 instructions:  279000003 cycles:  296208492 heartbeat IPC: 0.89924 cumulative IPC: 0.72681 (Simulation time: 0 hr 10 min 0 sec) 
Heartbeat CPU  0 instructions:  280000000 cycles:  297406984 heartbeat IPC: 0.83438 cumulative IPC: 0.72733 (Simulation time: 0 hr 10 min 2 sec) 
Heartbeat CPU  0 instructions:  281000000 cycles:  298589354 heartbeat IPC: 0.84576 cumulative IPC: 0.72789 (Simulation time: 0 hr 10 min 4 sec) 
Heartbeat CPU  0 instructions:  282000002 cycles:  299740274 heartbeat IPC: 0.86887 cumulative IPC: 0.72854 (Simulation time: 0 hr 10 min 7 sec) 
Heartbeat CPU  0 instructions:  283000003 cycles:  300925839 heartbeat IPC: 0.84348 cumulative IPC: 0.72908 (Simulation time: 0 hr 10 min 9 sec) 
Heartbeat CPU  0 instructions:  284000000 cycles:  302080542 heartbeat IPC: 0.86602 cumulative IPC: 0.72971 (Simulation time: 0 hr 10 min 11 sec) 
Heartbeat CPU  0 instructions:  285000001 cycles:  303268610 heartbeat IPC: 0.84170 cumulative IPC: 0.73024 (Simulation time: 0 hr 10 min 13 sec) 
Heartbeat CPU  0 instructions:  286000001 cycles:  304433022 heartbeat IPC: 0.85880 cumulative IPC: 0.73082 (Simulation time: 0 hr 10 min 16 sec) 
Heartbeat CPU  0 instructions:  287000003 cycles:  305619931 heartbeat IPC: 0.84253 cumulative IPC: 0.73134 (Simulation time: 0 hr 10 min 18 sec) 
Heartbeat CPU  0 instructions:  288000000 cycles:  306758659 heartbeat IPC: 0.87817 cumulative IPC: 0.73199 (Simulation time: 0 hr 10 min 20 sec) 
Heartbeat CPU  0 instructions:  289000000 cycles:  307705927 heartbeat IPC: 1.05567 cumulative IPC: 0.73318 (Simulation time: 0 hr 10 min 22 sec) 
Heartbeat CPU  0 instructions:  290000003 cycles:  308911725 heartbeat IPC: 0.82933 cumulative IPC: 0.73363 (Simulation time: 0 hr 10 min 24 sec) 
Heartbeat CPU  0 instructions:  291000002 cycles:  310049042 heartbeat IPC: 0.87926 cumulative IPC: 0.73427 (Simulation time: 0 hr 10 min 27 sec) 
Heartbeat CPU  0 instructions:  292000000 cycles:  311194139 heartbeat IPC: 0.87329 cumulative IPC: 0.73488 (Simulation time: 0 hr 10 min 29 sec) 
Heartbeat CPU  0 instructions:  293000003 cycles:  312362005 heartbeat IPC: 0.85627 cumulative IPC: 0.73542 (Simulation time: 0 hr 10 min 31 sec) 
Heartbeat CPU  0 instructions:  294000000 cycles:  313545899 heartbeat IPC: 0.84467 cumulative IPC: 0.73591 (Simulation time: 0 hr 10 min 34 sec) 
Heartbeat CPU  0 instructions:  295000000 cycles:  314700575 heartbeat IPC: 0.86604 cumulative IPC: 0.73648 (Simulation time: 0 hr 10 min 36 sec) 
Heartbeat CPU  0 instructions:  296000000 cycles:  315886023 heartbeat IPC: 0.84356 cumulative IPC: 0.73695 (Simulation time: 0 hr 10 min 38 sec) 
Heartbeat CPU  0 instructions:  297000000 cycles:  317081475 heartbeat IPC: 0.83650 cumulative IPC: 0.73740 (Simulation time: 0 hr 10 min 40 sec) 
Heartbeat CPU  0 instructions:  298000000 cycles:  318293147 heartbeat IPC: 0.82531 cumulative IPC: 0.73780 (Simulation time: 0 hr 10 min 43 sec) 
Heartbeat CPU  0 instructions:  299000002 cycles:  319262775 heartbeat IPC: 1.03133 cumulative IPC: 0.73885 (Simulation time: 0 hr 10 min 45 sec) 
Heartbeat CPU  0 instructions:  300000000 cycles:  320360755 heartbeat IPC: 0.91076 cumulative IPC: 0.73955 (Simulation time: 0 hr 10 min 47 sec) 
Heartbeat CPU  0 instructions:  301000003 cycles:  321599800 heartbeat IPC: 0.80708 cumulative IPC: 0.73986 (Simulation time: 0 hr 10 min 49 sec) 
Heartbeat CPU  0 instructions:  302000002 cycles:  322770763 heartbeat IPC: 0.85400 cumulative IPC: 0.74035 (Simulation time: 0 hr 10 min 52 sec) 
Heartbeat CPU  0 instructions:  303000000 cycles:  323922129 heartbeat IPC: 0.86853 cumulative IPC: 0.74089 (Simulation time: 0 hr 10 min 54 sec) 
Heartbeat CPU  0 instructions:  304000000 cycles:  325123608 heartbeat IPC: 0.83231 cumulative IPC: 0.74129 (Simulation time: 0 hr 10 min 56 sec) 
Heartbeat CPU  0 instructions:  305000001 cycles:  326296688 heartbeat IPC: 0.85246 cumulative IPC: 0.74176 (Simulation time: 0 hr 10 min 58 sec) 
Heartbeat CPU  0 instructions:  306000000 cycles:  327459551 heartbeat IPC: 0.85995 cumulative IPC: 0.74225 (Simulation time: 0 hr 11 min 1 sec) 
Heartbeat CPU  0 instructions:  307000003 cycles:  328652608 heartbeat IPC: 0.83819 cumulative IPC: 0.74266 (Simulation time: 0 hr 11 min 3 sec) 
Heartbeat CPU  0 instructions:  308000000 cycles:  329841986 heartbeat IPC: 0.84077 cumulative IPC: 0.74308 (Simulation time: 0 hr 11 min 5 sec) 
Heartbeat CPU  0 instructions:  309000000 cycles:  330930629 heartbeat IPC: 0.91857 cumulative IPC: 0.74376 (Simulation time: 0 hr 11 min 7 sec) 
Heartbeat CPU  0 instructions:  310000001 cycles:  331903049 heartbeat IPC: 1.02836 cumulative IPC: 0.74474 (Simulation time: 0 hr 11 min 9 sec) 
Heartbeat CPU  0 instructions:  311000000 cycles:  333191756 heartbeat IPC: 0.77597 cumulative IPC: 0.74488 (Simulation time: 0 hr 11 min 12 sec) 
Heartbeat CPU  0 instructions:  312000000 cycles:  334367193 heartbeat IPC: 0.85075 cumulative IPC: 0.74532 (Simulation time: 0 hr 11 min 14 sec) 
Heartbeat CPU  0 instructions:  313000000 cycles:  335547859 heartbeat IPC: 0.84698 cumulative IPC: 0.74574 (Simulation time: 0 hr 11 min 16 sec) 
Heartbeat CPU  0 instructions:  314000003 cycles:  336737546 heartbeat IPC: 0.84056 cumulative IPC: 0.74613 (Simulation time: 0 hr 11 min 18 sec) 
Heartbeat CPU  0 instructions:  315000000 cycles:  337920945 heartbeat IPC: 0.84502 cumulative IPC: 0.74654 (Simulation time: 0 hr 11 min 21 sec) 
Heartbeat CPU  0 instructions:  316000000 cycles:  339088667 heartbeat IPC: 0.85637 cumulative IPC: 0.74698 (Simulation time: 0 hr 11 min 23 sec) 
Heartbeat CPU  0 instructions:  317000000 cycles:  340274896 heartbeat IPC: 0.84301 cumulative IPC: 0.74738 (Simulation time: 0 hr 11 min 25 sec) 
Heartbeat CPU  0 instructions:  318000003 cycles:  341467538 heartbeat IPC: 0.83848 cumulative IPC: 0.74775 (Simulation time: 0 hr 11 min 27 sec) 
Heartbeat CPU  0 instructions:  319000000 cycles:  342668205 heartbeat IPC: 0.83287 cumulative IPC: 0.74810 (Simulation time: 0 hr 11 min 30 sec) 
Heartbeat CPU  0 instructions:  320000000 cycles:  343587317 heartbeat IPC: 1.08801 cumulative IPC: 0.74916 (Simulation time: 0 hr 11 min 32 sec) 
Heartbeat CPU  0 instructions:  321000003 cycles:  344725734 heartbeat IPC: 0.87842 cumulative IPC: 0.74966 (Simulation time: 0 hr 11 min 34 sec) 
Heartbeat CPU  0 instructions:  322000002 cycles:  345931396 heartbeat IPC: 0.82942 cumulative IPC: 0.74999 (Simulation time: 0 hr 11 min 36 sec) 
Heartbeat CPU  0 instructions:  323000000 cycles:  347115555 heartbeat IPC: 0.84448 cumulative IPC: 0.75036 (Simulation time: 0 hr 11 min 39 sec) 
Heartbeat CPU  0 instructions:  324000000 cycles:  348290306 heartbeat IPC: 0.85124 cumulative IPC: 0.75076 (Simulation time: 0 hr 11 min 41 sec) 
Heartbeat CPU  0 instructions:  325000000 cycles:  349487478 heartbeat IPC: 0.83530 cumulative IPC: 0.75110 (Simulation time: 0 hr 11 min 43 sec) 
Heartbeat CPU  0 instructions:  326000002 cycles:  350687590 heartbeat IPC: 0.83326 cumulative IPC: 0.75143 (Simulation time: 0 hr 11 min 45 sec) 
Heartbeat CPU  0 instructions:  327000000 cycles:  351832628 heartbeat IPC: 0.87333 cumulative IPC: 0.75189 (Simulation time: 0 hr 11 min 48 sec) 
Heartbeat CPU  0 instructions:  328000000 cycles:  353027249 heartbeat IPC: 0.83709 cumulative IPC: 0.75222 (Simulation time: 0 hr 11 min 50 sec) 
Heartbeat CPU  0 instructions:  329000003 cycles:  354224362 heartbeat IPC: 0.83535 cumulative IPC: 0.75255 (Simulation time: 0 hr 11 min 52 sec) 
Heartbeat CPU  0 instructions:  330000000 cycles:  355258163 heartbeat IPC: 0.96730 cumulative IPC: 0.75328 (Simulation time: 0 hr 11 min 54 sec) 
Heartbeat CPU  0 instructions:  331000002 cycles:  356275758 heartbeat IPC: 0.98271 cumulative IPC: 0.75404 (Simulation time: 0 hr 11 min 56 sec) 
Heartbeat CPU  0 instructions:  332000000 cycles:  357517027 heartbeat IPC: 0.80563 cumulative IPC: 0.75425 (Simulation time: 0 hr 11 min 59 sec) 
Heartbeat CPU  0 instructions:  333000002 cycles:  358676009 heartbeat IPC: 0.86283 cumulative IPC: 0.75466 (Simulation time: 0 hr 12 min 1 sec) 
Heartbeat CPU  0 instructions:  334000001 cycles:  359837405 heartbeat IPC: 0.86103 cumulative IPC: 0.75505 (Simulation time: 0 hr 12 min 3 sec) 
Heartbeat CPU  0 instructions:  335000003 cycles:  361026364 heartbeat IPC: 0.84107 cumulative IPC: 0.75538 (Simulation time: 0 hr 12 min 6 sec) 
Heartbeat CPU  0 instructions:  336000000 cycles:  362205767 heartbeat IPC: 0.84788 cumulative IPC: 0.75573 (Simulation time: 0 hr 12 min 8 sec) 
Heartbeat CPU  0 instructions:  337000001 cycles:  363358581 heartbeat IPC: 0.86744 cumulative IPC: 0.75614 (Simulation time: 0 hr 12 min 10 sec) 
Heartbeat CPU  0 instructions:  338000000 cycles:  364552099 heartbeat IPC: 0.83786 cumulative IPC: 0.75645 (Simulation time: 0 hr 12 min 13 sec) 
Heartbeat CPU  0 instructions:  339000000 cycles:  365743734 heartbeat IPC: 0.83918 cumulative IPC: 0.75677 (Simulation time: 0 hr 12 min 15 sec) 
Heartbeat CPU  0 instructions:  340000000 cycles:  366952560 heartbeat IPC: 0.82725 cumulative IPC: 0.75703 (Simulation time: 0 hr 12 min 17 sec) 
Heartbeat CPU  0 instructions:  341000003 cycles:  367842711 heartbeat IPC: 1.12341 cumulative IPC: 0.75806 (Simulation time: 0 hr 12 min 19 sec) 
Heartbeat CPU  0 instructions:  342000001 cycles:  369020738 heartbeat IPC: 0.84888 cumulative IPC: 0.75840 (Simulation time: 0 hr 12 min 21 sec) 
Heartbeat CPU  0 instructions:  343000002 cycles:  370249670 heartbeat IPC: 0.81372 cumulative IPC: 0.75861 (Simulation time: 0 hr 12 min 24 sec) 
Heartbeat CPU  0 instructions:  344000000 cycles:  371435251 heartbeat IPC: 0.84347 cumulative IPC: 0.75892 (Simulation time: 0 hr 12 min 26 sec) 
Heartbeat CPU  0 instructions:  345000003 cycles:  372610363 heartbeat IPC: 0.85099 cumulative IPC: 0.75926 (Simulation time: 0 hr 12 min 28 sec) 
Heartbeat CPU  0 instructions:  346000000 cycles:  373765814 heartbeat IPC: 0.86546 cumulative IPC: 0.75963 (Simulation time: 0 hr 12 min 30 sec) 
Heartbeat CPU  0 instructions:  347000000 cycles:  374950511 heartbeat IPC: 0.84410 cumulative IPC: 0.75994 (Simulation time: 0 hr 12 min 33 sec) 
Heartbeat CPU  0 instructions:  348000000 cycles:  376138101 heartbeat IPC: 0.84204 cumulative IPC: 0.76024 (Simulation time: 0 hr 12 min 35 sec) 
Heartbeat CPU  0 instructions:  349000001 cycles:  377330931 heartbeat IPC: 0.83834 cumulative IPC: 0.76053 (Simulation time: 0 hr 12 min 37 sec) 
Heartbeat CPU  0 instructions:  350000002 cycles:  378528517 heartbeat IPC: 0.83501 cumulative IPC: 0.76080 (Simulation time: 0 hr 12 min 39 sec) 
Heartbeat CPU  0 instructions:  351000001 cycles:  379505854 heartbeat IPC: 1.02319 cumulative IPC: 0.76158 (Simulation time: 0 hr 12 min 41 sec) 
Heartbeat CPU  0 instructions:  352000000 cycles:  380564387 heartbeat IPC: 0.94470 cumulative IPC: 0.76216 (Simulation time: 0 hr 12 min 44 sec) 
Heartbeat CPU  0 instructions:  353000002 cycles:  381842485 heartbeat IPC: 0.78241 cumulative IPC: 0.76224 (Simulation time: 0 hr 12 min 46 sec) 
Heartbeat CPU  0 instructions:  354000002 cycles:  383015640 heartbeat IPC: 0.85240 cumulative IPC: 0.76256 (Simulation time: 0 hr 12 min 48 sec) 
Heartbeat CPU  0 instructions:  355000003 cycles:  384141733 heartbeat IPC: 0.88803 cumulative IPC: 0.76298 (Simulation time: 0 hr 12 min 50 sec) 
Heartbeat CPU  0 instructions:  356000000 cycles:  385308360 heartbeat IPC: 0.85717 cumulative IPC: 0.76331 (Simulation time: 0 hr 12 min 53 sec) 
Heartbeat CPU  0 instructions:  357000002 cycles:  386488464 heartbeat IPC: 0.84738 cumulative IPC: 0.76360 (Simulation time: 0 hr 12 min 55 sec) 
Heartbeat CPU  0 instructions:  358000003 cycles:  387686078 heartbeat IPC: 0.83499 cumulative IPC: 0.76386 (Simulation time: 0 hr 12 min 57 sec) 
Heartbeat CPU  0 instructions:  359000001 cycles:  388870550 heartbeat IPC: 0.84426 cumulative IPC: 0.76414 (Simulation time: 0 hr 12 min 59 sec) 
Heartbeat CPU  0 instructions:  360000000 cycles:  390071279 heartbeat IPC: 0.83283 cumulative IPC: 0.76438 (Simulation time: 0 hr 13 min 2 sec) 
Heartbeat CPU  0 instructions:  361000003 cycles:  391201239 heartbeat IPC: 0.88499 cumulative IPC: 0.76478 (Simulation time: 0 hr 13 min 4 sec) 
Heartbeat CPU  0 instructions:  362000000 cycles:  392124031 heartbeat IPC: 1.08366 cumulative IPC: 0.76564 (Simulation time: 0 hr 13 min 6 sec) 
Heartbeat CPU  0 instructions:  363000000 cycles:  393413360 heartbeat IPC: 0.77560 cumulative IPC: 0.76568 (Simulation time: 0 hr 13 min 8 sec) 
Heartbeat CPU  0 instructions:  364000000 cycles:  394591240 heartbeat IPC: 0.84898 cumulative IPC: 0.76596 (Simulation time: 0 hr 13 min 11 sec) 
Heartbeat CPU  0 instructions:  365000000 cycles:  395718002 heartbeat IPC: 0.88750 cumulative IPC: 0.76636 (Simulation time: 0 hr 13 min 13 sec) 
Heartbeat CPU  0 instructions:  366000001 cycles:  396887013 heartbeat IPC: 0.85542 cumulative IPC: 0.76666 (Simulation time: 0 hr 13 min 15 sec) 
Heartbeat CPU  0 instructions:  367000002 cycles:  398081041 heartbeat IPC: 0.83750 cumulative IPC: 0.76690 (Simulation time: 0 hr 13 min 17 sec) 
Heartbeat CPU  0 instructions:  368000000 cycles:  399274586 heartbeat IPC: 0.83784 cumulative IPC: 0.76714 (Simulation time: 0 hr 13 min 20 sec) 
Heartbeat CPU  0 instructions:  369000001 cycles:  400467125 heartbeat IPC: 0.83855 cumulative IPC: 0.76738 (Simulation time: 0 hr 13 min 22 sec) 
Heartbeat CPU  0 instructions:  370000002 cycles:  401666182 heartbeat IPC: 0.83399 cumulative IPC: 0.76761 (Simulation time: 0 hr 13 min 24 sec) 
Heartbeat CPU  0 instructions:  371000000 cycles:  402836739 heartbeat IPC: 0.85429 cumulative IPC: 0.76790 (Simulation time: 0 hr 13 min 26 sec) 
Heartbeat CPU  0 instructions:  372000000 cycles:  403775913 heartbeat IPC: 1.06477 cumulative IPC: 0.76869 (Simulation time: 0 hr 13 min 28 sec) 
Heartbeat CPU  0 instructions:  373000003 cycles:  404816375 heartbeat IPC: 0.96111 cumulative IPC: 0.76925 (Simulation time: 0 hr 13 min 31 sec) 
Heartbeat CPU  0 instructions:  374000003 cycles:  406174935 heartbeat IPC: 0.73607 cumulative IPC: 0.76913 (Simulation time: 0 hr 13 min 33 sec) 
Heartbeat CPU  0 instructions:  375000001 cycles:  407306706 heartbeat IPC: 0.88357 cumulative IPC: 0.76949 (Simulation time: 0 hr 13 min 35 sec) 
Heartbeat CPU  0 instructions:  376000000 cycles:  408454786 heartbeat IPC: 0.87102 cumulative IPC: 0.76981 (Simulation time: 0 hr 13 min 37 sec) 
Heartbeat CPU  0 instructions:  377000001 cycles:  409643169 heartbeat IPC: 0.84148 cumulative IPC: 0.77005 (Simulation time: 0 hr 13 min 40 sec) 
Heartbeat CPU  0 instructions:  378000002 cycles:  410839427 heartbeat IPC: 0.83594 cumulative IPC: 0.77027 (Simulation time: 0 hr 13 min 42 sec) 
Heartbeat CPU  0 instructions:  379000001 cycles:  412039101 heartbeat IPC: 0.83356 cumulative IPC: 0.77048 (Simulation time: 0 hr 13 min 44 sec) 
Heartbeat CPU  0 instructions:  380000000 cycles:  413229823 heartbeat IPC: 0.83983 cumulative IPC: 0.77070 (Simulation time: 0 hr 13 min 46 sec) 
Heartbeat CPU  0 instructions:  381000000 cycles:  414393853 heartbeat IPC: 0.85908 cumulative IPC: 0.77099 (Simulation time: 0 hr 13 min 49 sec) 
Heartbeat CPU  0 instructions:  382000003 cycles:  415512718 heartbeat IPC: 0.89377 cumulative IPC: 0.77136 (Simulation time: 0 hr 13 min 51 sec) 
Heartbeat CPU  0 instructions:  383000001 cycles:  416420364 heartbeat IPC: 1.10175 cumulative IPC: 0.77218 (Simulation time: 0 hr 13 min 53 sec) 
Heartbeat CPU  0 instructions:  384000000 cycles:  417720590 heartbeat IPC: 0.76910 cumulative IPC: 0.77217 (Simulation time: 0 hr 13 min 55 sec) 
Heartbeat CPU  0 instructions:  385000000 cycles:  418897994 heartbeat IPC: 0.84933 cumulative IPC: 0.77242 (Simulation time: 0 hr 13 min 57 sec) 
Heartbeat CPU  0 instructions:  386000001 cycles:  420018074 heartbeat IPC: 0.89279 cumulative IPC: 0.77278 (Simulation time: 0 hr 14 min 0 sec) 
Heartbeat CPU  0 instructions:  387000000 cycles:  421195789 heartbeat IPC: 0.84910 cumulative IPC: 0.77302 (Simulation time: 0 hr 14 min 2 sec) 
Heartbeat CPU  0 instructions:  388000000 cycles:  422390949 heartbeat IPC: 0.83671 cumulative IPC: 0.77323 (Simulation time: 0 hr 14 min 4 sec) 
Heartbeat CPU  0 instructions:  389000001 cycles:  423587658 heartbeat IPC: 0.83563 cumulative IPC: 0.77343 (Simulation time: 0 hr 14 min 6 sec) 
Heartbeat CPU  0 instructions:  390000000 cycles:  424748631 heartbeat IPC: 0.86135 cumulative IPC: 0.77370 (Simulation time: 0 hr 14 min 9 sec) 
Heartbeat CPU  0 instructions:  391000003 cycles:  425915304 heartbeat IPC: 0.85714 cumulative IPC: 0.77396 (Simulation time: 0 hr 14 min 11 sec) 
Heartbeat CPU  0 instructions:  392000000 cycles:  427098858 heartbeat IPC: 0.84491 cumulative IPC: 0.77418 (Simulation time: 0 hr 14 min 13 sec) 
Heartbeat CPU  0 instructions:  393000002 cycles:  428088229 heartbeat IPC: 1.01075 cumulative IPC: 0.77480 (Simulation time: 0 hr 14 min 15 sec) 
Heartbeat CPU  0 instructions:  394000000 cycles:  429094113 heartbeat IPC: 0.99415 cumulative IPC: 0.77538 (Simulation time: 0 hr 14 min 17 sec) 
Heartbeat CPU  0 instructions:  395000002 cycles:  430468273 heartbeat IPC: 0.72772 cumulative IPC: 0.77521 (Simulation time: 0 hr 14 min 20 sec) 
Heartbeat CPU  0 instructions:  396000000 cycles:  431612294 heartbeat IPC: 0.87411 cumulative IPC: 0.77551 (Simulation time: 0 hr 14 min 22 sec) 
Heartbeat CPU  0 instructions:  397000003 cycles:  432762293 heartbeat IPC: 0.86957 cumulative IPC: 0.77579 (Simulation time: 0 hr 14 min 24 sec) 
Heartbeat CPU  0 instructions:  398000001 cycles:  433945943 heartbeat IPC: 0.84484 cumulative IPC: 0.77600 (Simulation time: 0 hr 14 min 26 sec) 
Heartbeat CPU  0 instructions:  399000000 cycles:  435140276 heartbeat IPC: 0.83729 cumulative IPC: 0.77619 (Simulation time: 0 hr 14 min 29 sec) 
Heartbeat CPU  0 instructions:  400000000 cycles:  436337308 heartbeat IPC: 0.83540 cumulative IPC: 0.77637 (Simulation time: 0 hr 14 min 31 sec) 
Heartbeat CPU  0 instructions:  401000002 cycles:  437498930 heartbeat IPC: 0.86087 cumulative IPC: 0.77663 (Simulation time: 0 hr 14 min 33 sec) 
Heartbeat CPU  0 instructions:  402000000 cycles:  438693148 heartbeat IPC: 0.83737 cumulative IPC: 0.77681 (Simulation time: 0 hr 14 min 36 sec) 
Heartbeat CPU  0 instructions:  403000000 cycles:  439782012 heartbeat IPC: 0.91839 cumulative IPC: 0.77721 (Simulation time: 0 hr 14 min 38 sec) 
Heartbeat CPU  0 instructions:  404000000 cycles:  440756314 heartbeat IPC: 1.02638 cumulative IPC: 0.77783 (Simulation time: 0 hr 14 min 40 sec) 
Heartbeat CPU  0 instructions:  405000003 cycles:  442707856 heartbeat IPC: 0.51242 cumulative IPC: 0.77651 (Simulation time: 0 hr 14 min 42 sec) 
Heartbeat CPU  0 instructions:  406000003 cycles:  444202460 heartbeat IPC: 0.66907 cumulative IPC: 0.77611 (Simulation time: 0 hr 14 min 45 sec) 
Heartbeat CPU  0 instructions:  407000000 cycles:  445698681 heartbeat IPC: 0.66835 cumulative IPC: 0.77570 (Simulation time: 0 hr 14 min 47 sec) 
Heartbeat CPU  0 instructions:  408000000 cycles:  446978420 heartbeat IPC: 0.78141 cumulative IPC: 0.77572 (Simulation time: 0 hr 14 min 50 sec) 
Heartbeat CPU  0 instructions:  409000003 cycles:  448215440 heartbeat IPC: 0.80840 cumulative IPC: 0.77582 (Simulation time: 0 hr 14 min 52 sec) 
Heartbeat CPU  0 instructions:  410000000 cycles:  449475428 heartbeat IPC: 0.79366 cumulative IPC: 0.77587 (Simulation time: 0 hr 14 min 55 sec) 
Heartbeat CPU  0 instructions:  411000000 cycles:  450730822 heartbeat IPC: 0.79656 cumulative IPC: 0.77594 (Simulation time: 0 hr 14 min 57 sec) 
Heartbeat CPU  0 instructions:  412000000 cycles:  451977515 heartbeat IPC: 0.80212 cumulative IPC: 0.77602 (Simulation time: 0 hr 14 min 59 sec) 
Heartbeat CPU  0 instructions:  413000003 cycles:  453214337 heartbeat IPC: 0.80853 cumulative IPC: 0.77612 (Simulation time: 0 hr 15 min 2 sec) 
Heartbeat CPU  0 instructions:  414000000 cycles:  454413878 heartbeat IPC: 0.83365 cumulative IPC: 0.77629 (Simulation time: 0 hr 15 min 4 sec) 
Heartbeat CPU  0 instructions:  415000003 cycles:  455519850 heartbeat IPC: 0.90418 cumulative IPC: 0.77664 (Simulation time: 0 hr 15 min 6 sec) 
Heartbeat CPU  0 instructions:  416000000 cycles:  457201581 heartbeat IPC: 0.59462 cumulative IPC: 0.77589 (Simulation time: 0 hr 15 min 9 sec) 
Heartbeat CPU  0 instructions:  417000001 cycles:  458250993 heartbeat IPC: 0.95292 cumulative IPC: 0.77634 (Simulation time: 0 hr 15 min 11 sec) 
Heartbeat CPU  0 instructions:  418000003 cycles:  459315508 heartbeat IPC: 0.93940 cumulative IPC: 0.77677 (Simulation time: 0 hr 15 min 14 sec) 
Heartbeat CPU  0 instructions:  419000002 cycles:  460329881 heartbeat IPC: 0.98583 cumulative IPC: 0.77728 (Simulation time: 0 hr 15 min 16 sec) 
Heartbeat CPU  0 instructions:  420000000 cycles:  461368375 heartbeat IPC: 0.96293 cumulative IPC: 0.77775 (Simulation time: 0 hr 15 min 18 sec) 
Heartbeat CPU  0 instructions:  421000003 cycles:  462450359 heartbeat IPC: 0.92423 cumulative IPC: 0.77814 (Simulation time: 0 hr 15 min 20 sec) 
Heartbeat CPU  0 instructions:  422000003 cycles:  463553522 heartbeat IPC: 0.90648 cumulative IPC: 0.77848 (Simulation time: 0 hr 15 min 23 sec) 
Heartbeat CPU  0 instructions:  423000002 cycles:  464626866 heartbeat IPC: 0.93167 cumulative IPC: 0.77887 (Simulation time: 0 hr 15 min 25 sec) 
Heartbeat CPU  0 instructions:  424000000 cycles:  465693634 heartbeat IPC: 0.93741 cumulative IPC: 0.77928 (Simulation time: 0 hr 15 min 27 sec) 
Heartbeat CPU  0 instructions:  425000003 cycles:  466784836 heartbeat IPC: 0.91642 cumulative IPC: 0.77964 (Simulation time: 0 hr 15 min 30 sec) 
Heartbeat CPU  0 instructions:  426000001 cycles:  468284679 heartbeat IPC: 0.66674 cumulative IPC: 0.77924 (Simulation time: 0 hr 15 min 32 sec) 
Heartbeat CPU  0 instructions:  427000003 cycles:  469580090 heartbeat IPC: 0.77196 cumulative IPC: 0.77921 (Simulation time: 0 hr 15 min 35 sec) 
Heartbeat CPU  0 instructions:  428000000 cycles:  470657306 heartbeat IPC: 0.92832 cumulative IPC: 0.77959 (Simulation time: 0 hr 15 min 37 sec) 
Heartbeat CPU  0 instructions:  429000000 cycles:  471730317 heartbeat IPC: 0.93196 cumulative IPC: 0.77998 (Simulation time: 0 hr 15 min 39 sec) 
Heartbeat CPU  0 instructions:  430000003 cycles:  472789579 heartbeat IPC: 0.94406 cumulative IPC: 0.78039 (Simulation time: 0 hr 15 min 41 sec) 
Heartbeat CPU  0 instructions:  431000002 cycles:  473872449 heartbeat IPC: 0.92347 cumulative IPC: 0.78076 (Simulation time: 0 hr 15 min 44 sec) 
Heartbeat CPU  0 instructions:  432000000 cycles:  474966814 heartbeat IPC: 0.91377 cumulative IPC: 0.78110 (Simulation time: 0 hr 15 min 46 sec) 
Heartbeat CPU  0 instructions:  433000001 cycles:  476062414 heartbeat IPC: 0.91274 cumulative IPC: 0.78144 (Simulation time: 0 hr 15 min 48 sec) 
Heartbeat CPU  0 instructions:  434000001 cycles:  477154984 heartbeat IPC: 0.91527 cumulative IPC: 0.78178 (Simulation time: 0 hr 15 min 51 sec) 
Heartbeat CPU  0 instructions:  435000002 cycles:  478255137 heartbeat IPC: 0.90897 cumulative IPC: 0.78211 (Simulation time: 0 hr 15 min 53 sec) 
Heartbeat CPU  0 instructions:  436000000 cycles:  479411771 heartbeat IPC: 0.86458 cumulative IPC: 0.78233 (Simulation time: 0 hr 15 min 55 sec) 
Heartbeat CPU  0 instructions:  437000001 cycles:  480897242 heartbeat IPC: 0.67319 cumulative IPC: 0.78195 (Simulation time: 0 hr 15 min 58 sec) 
Heartbeat CPU  0 instructions:  438000002 cycles:  481933106 heartbeat IPC: 0.96538 cumulative IPC: 0.78239 (Simulation time: 0 hr 16 min 0 sec) 
Heartbeat CPU  0 instructions:  439000003 cycles:  482976757 heartbeat IPC: 0.95818 cumulative IPC: 0.78282 (Simulation time: 0 hr 16 min 2 sec) 
Heartbeat CPU  0 instructions:  440000000 cycles:  484003876 heartbeat IPC: 0.97359 cumulative IPC: 0.78327 (Simulation time: 0 hr 16 min 5 sec) 
Heartbeat CPU  0 instructions:  441000000 cycles:  485083720 heartbeat IPC: 0.92606 cumulative IPC: 0.78362 (Simulation time: 0 hr 16 min 7 sec) 
Heartbeat CPU  0 instructions:  442000003 cycles:  486197036 heartbeat IPC: 0.89822 cumulative IPC: 0.78392 (Simulation time: 0 hr 16 min 9 sec) 
Heartbeat CPU  0 instructions:  443000003 cycles:  487296013 heartbeat IPC: 0.90994 cumulative IPC: 0.78423 (Simulation time: 0 hr 16 min 12 sec) 
Heartbeat CPU  0 instructions:  444000000 cycles:  488386331 heartbeat IPC: 0.91716 cumulative IPC: 0.78456 (Simulation time: 0 hr 16 min 14 sec) 
Heartbeat CPU  0 instructions:  445000000 cycles:  489470525 heartbeat IPC: 0.92234 cumulative IPC: 0.78490 (Simulation time: 0 hr 16 min 16 sec) 
Heartbeat CPU  0 instructions:  446000001 cycles:  490576185 heartbeat IPC: 0.90444 cumulative IPC: 0.78520 (Simulation time: 0 hr 16 min 19 sec) 
Heartbeat CPU  0 instructions:  447000000 cycles:  492138865 heartbeat IPC: 0.63993 cumulative IPC: 0.78469 (Simulation time: 0 hr 16 min 21 sec) 
Heartbeat CPU  0 instructions:  448000000 cycles:  493225516 heartbeat IPC: 0.92026 cumulative IPC: 0.78502 (Simulation time: 0 hr 16 min 23 sec) 
Heartbeat CPU  0 instructions:  449000002 cycles:  494277557 heartbeat IPC: 0.95054 cumulative IPC: 0.78541 (Simulation time: 0 hr 16 min 26 sec) 
Heartbeat CPU  0 instructions:  450000000 cycles:  495325328 heartbeat IPC: 0.95441 cumulative IPC: 0.78581 (Simulation time: 0 hr 16 min 28 sec) 
Heartbeat CPU  0 instructions:  451000003 cycles:  496386928 heartbeat IPC: 0.94198 cumulative IPC: 0.78618 (Simulation time: 0 hr 16 min 30 sec) 
Heartbeat CPU  0 instructions:  452000000 cycles:  497449331 heartbeat IPC: 0.94126 cumulative IPC: 0.78655 (Simulation time: 0 hr 16 min 33 sec) 
Heartbeat CPU  0 instructions:  453000002 cycles:  498535241 heartbeat IPC: 0.92089 cumulative IPC: 0.78688 (Simulation time: 0 hr 16 min 35 sec) 
Heartbeat CPU  0 instructions:  454000003 cycles:  499625140 heartbeat IPC: 0.91752 cumulative IPC: 0.78719 (Simulation time: 0 hr 16 min 37 sec) 
Heartbeat CPU  0 instructions:  455000001 cycles:  500711128 heartbeat IPC: 0.92082 cumulative IPC: 0.78751 (Simulation time: 0 hr 16 min 40 sec) 
Heartbeat CPU  0 instructions:  456000000 cycles:  501773924 heartbeat IPC: 0.94091 cumulative IPC: 0.78788 (Simulation time: 0 hr 16 min 42 sec) 
Heartbeat CPU  0 instructions:  457000002 cycles:  503209047 heartbeat IPC: 0.69681 cumulative IPC: 0.78759 (Simulation time: 0 hr 16 min 44 sec) 
Heartbeat CPU  0 instructions:  458000002 cycles:  505345409 heartbeat IPC: 0.46809 cumulative IPC: 0.78609 (Simulation time: 0 hr 16 min 47 sec) 
Heartbeat CPU  0 instructions:  459000002 cycles:  506947282 heartbeat IPC: 0.62427 cumulative IPC: 0.78552 (Simulation time: 0 hr 16 min 49 sec) 
Heartbeat CPU  0 instructions:  460000000 cycles:  508312388 heartbeat IPC: 0.73254 cumulative IPC: 0.78536 (Simulation time: 0 hr 16 min 52 sec) 
Heartbeat CPU  0 instructions:  461000002 cycles:  509743078 heartbeat IPC: 0.69896 cumulative IPC: 0.78509 (Simulation time: 0 hr 16 min 54 sec) 
Heartbeat CPU  0 instructions:  462000002 cycles:  511162949 heartbeat IPC: 0.70429 cumulative IPC: 0.78485 (Simulation time: 0 hr 16 min 56 sec) 
Heartbeat CPU  0 instructions:  463000002 cycles:  512572483 heartbeat IPC: 0.70945 cumulative IPC: 0.78462 (Simulation time: 0 hr 16 min 59 sec) 
Heartbeat CPU  0 instructions:  464000000 cycles:  514029256 heartbeat IPC: 0.68645 cumulative IPC: 0.78431 (Simulation time: 0 hr 17 min 1 sec) 
Heartbeat CPU  0 instructions:  465000000 cycles:  516287428 heartbeat IPC: 0.44284 cumulative IPC: 0.78265 (Simulation time: 0 hr 17 min 4 sec) 
Heartbeat CPU  0 instructions:  466000001 cycles:  517817110 heartbeat IPC: 0.65373 cumulative IPC: 0.78223 (Simulation time: 0 hr 17 min 6 sec) 
Heartbeat CPU  0 instructions:  467000000 cycles:  519331668 heartbeat IPC: 0.66026 cumulative IPC: 0.78184 (Simulation time: 0 hr 17 min 8 sec) 
Heartbeat CPU  0 instructions:  468000000 cycles:  520971820 heartbeat IPC: 0.60970 cumulative IPC: 0.78124 (Simulation time: 0 hr 17 min 11 sec) 
Heartbeat CPU  0 instructions:  469000003 cycles:  522547789 heartbeat IPC: 0.63453 cumulative IPC: 0.78075 (Simulation time: 0 hr 17 min 13 sec) 
Heartbeat CPU  0 instructions:  470000001 cycles:  524129111 heartbeat IPC: 0.63238 cumulative IPC: 0.78026 (Simulation time: 0 hr 17 min 15 sec) 
Heartbeat CPU  0 instructions:  471000003 cycles:  525697747 heartbeat IPC: 0.63750 cumulative IPC: 0.77979 (Simulation time: 0 hr 17 min 18 sec) 
Heartbeat CPU  0 instructions:  472000000 cycles:  527663057 heartbeat IPC: 0.50882 cumulative IPC: 0.77867 (Simulation time: 0 hr 17 min 20 sec) 
Heartbeat CPU  0 instructions:  473000000 cycles:  529561206 heartbeat IPC: 0.52683 cumulative IPC: 0.77767 (Simulation time: 0 hr 17 min 23 sec) 
Heartbeat CPU  0 instructions:  474000000 cycles:  531196953 heartbeat IPC: 0.61134 cumulative IPC: 0.77711 (Simulation time: 0 hr 17 min 25 sec) 
Heartbeat CPU  0 instructions:  475000002 cycles:  532963025 heartbeat IPC: 0.56623 cumulative IPC: 0.77634 (Simulation time: 0 hr 17 min 27 sec) 
Heartbeat CPU  0 instructions:  476000000 cycles:  534757179 heartbeat IPC: 0.55736 cumulative IPC: 0.77553 (Simulation time: 0 hr 17 min 30 sec) 
Heartbeat CPU  0 instructions:  477000002 cycles:  536553857 heartbeat IPC: 0.55658 cumulative IPC: 0.77472 (Simulation time: 0 hr 17 min 32 sec) 
Heartbeat CPU  0 instructions:  478000002 cycles:  538289491 heartbeat IPC: 0.57616 cumulative IPC: 0.77401 (Simulation time: 0 hr 17 min 35 sec) 
Heartbeat CPU  0 instructions:  479000002 cycles:  540026625 heartbeat IPC: 0.57566 cumulative IPC: 0.77331 (Simulation time: 0 hr 17 min 37 sec) 
Heartbeat CPU  0 instructions:  480000000 cycles:  542073821 heartbeat IPC: 0.48847 cumulative IPC: 0.77213 (Simulation time: 0 hr 17 min 40 sec) 
Heartbeat CPU  0 instructions:  481000002 cycles:  543795527 heartbeat IPC: 0.58082 cumulative IPC: 0.77146 (Simulation time: 0 hr 17 min 43 sec) 
Heartbeat CPU  0 instructions:  482000003 cycles:  545585349 heartbeat IPC: 0.55872 cumulative IPC: 0.77069 (Simulation time: 0 hr 17 min 45 sec) 
Heartbeat CPU  0 instructions:  483000000 cycles:  547354667 heartbeat IPC: 0.56519 cumulative IPC: 0.76996 (Simulation time: 0 hr 17 min 48 sec) 
Heartbeat CPU  0 instructions:  484000000 cycles:  549138873 heartbeat IPC: 0.56047 cumulative IPC: 0.76921 (Simulation time: 0 hr 17 min 51 sec) 
Heartbeat CPU  0 instructions:  485000003 cycles:  550905337 heartbeat IPC: 0.56610 cumulative IPC: 0.76849 (Simulation time: 0 hr 17 min 53 sec) 
Heartbeat CPU  0 instructions:  486000003 cycles:  552686020 heartbeat IPC: 0.56158 cumulative IPC: 0.76776 (Simulation time: 0 hr 17 min 56 sec) 
Heartbeat CPU  0 instructions:  487000000 cycles:  554488645 heartbeat IPC: 0.55474 cumulative IPC: 0.76700 (Simulation time: 0 hr 17 min 59 sec) 
Heartbeat CPU  0 instructions:  488000000 cycles:  556281252 heartbeat IPC: 0.55785 cumulative IPC: 0.76626 (Simulation time: 0 hr 18 min 1 sec) 
Heartbeat CPU  0 instructions:  489000000 cycles:  558065073 heartbeat IPC: 0.56059 cumulative IPC: 0.76554 (Simulation time: 0 hr 18 min 4 sec) 
Heartbeat CPU  0 instructions:  490000000 cycles:  559889649 heartbeat IPC: 0.54807 cumulative IPC: 0.76476 (Simulation time: 0 hr 18 min 7 sec) 
Heartbeat CPU  0 instructions:  491000001 cycles:  561683835 heartbeat IPC: 0.55736 cumulative IPC: 0.76403 (Simulation time: 0 hr 18 min 10 sec) 
Heartbeat CPU  0 instructions:  492000000 cycles:  563492793 heartbeat IPC: 0.55280 cumulative IPC: 0.76329 (Simulation time: 0 hr 18 min 12 sec) 
Heartbeat CPU  0 instructions:  493000001 cycles:  565277509 heartbeat IPC: 0.56031 cumulative IPC: 0.76259 (Simulation time: 0 hr 18 min 15 sec) 
Heartbeat CPU  0 instructions:  494000000 cycles:  567089392 heartbeat IPC: 0.55191 cumulative IPC: 0.76185 (Simulation time: 0 hr 18 min 18 sec) 
Heartbeat CPU  0 instructions:  495000001 cycles:  568877356 heartbeat IPC: 0.55930 cumulative IPC: 0.76115 (Simulation time: 0 hr 18 min 20 sec) 
Heartbeat CPU  0 instructions:  496000000 cycles:  570676092 heartbeat IPC: 0.55595 cumulative IPC: 0.76044 (Simulation time: 0 hr 18 min 23 sec) 
Heartbeat CPU  0 instructions:  497000001 cycles:  572478048 heartbeat IPC: 0.55495 cumulative IPC: 0.75973 (Simulation time: 0 hr 18 min 26 sec) 
Heartbeat CPU  0 instructions:  498000001 cycles:  574277280 heartbeat IPC: 0.55579 cumulative IPC: 0.75903 (Simulation time: 0 hr 18 min 28 sec) 
Heartbeat CPU  0 instructions:  499000002 cycles:  576073986 heartbeat IPC: 0.55657 cumulative IPC: 0.75834 (Simulation time: 0 hr 18 min 31 sec) 
Heartbeat CPU  0 instructions:  500000000 cycles:  577869468 heartbeat IPC: 0.55695 cumulative IPC: 0.75766 (Simulation time: 0 hr 18 min 34 sec) 
Heartbeat CPU  0 instructions:  501000002 cycles:  579667986 heartbeat IPC: 0.55601 cumulative IPC: 0.75697 (Simulation time: 0 hr 18 min 36 sec) 
Heartbeat CPU  0 instructions:  502000003 cycles:  581464466 heartbeat IPC: 0.55664 cumulative IPC: 0.75630 (Simulation time: 0 hr 18 min 39 sec) 
Heartbeat CPU  0 instructions:  503000000 cycles:  583277424 heartbeat IPC: 0.55158 cumulative IPC: 0.75560 (Simulation time: 0 hr 18 min 42 sec) 
Heartbeat CPU  0 instructions:  504000000 cycles:  585065644 heartbeat IPC: 0.55922 cumulative IPC: 0.75494 (Simulation time: 0 hr 18 min 44 sec) 
Heartbeat CPU  0 instructions:  505000001 cycles:  586868411 heartbeat IPC: 0.55470 cumulative IPC: 0.75427 (Simulation time: 0 hr 18 min 47 sec) 
Heartbeat CPU  0 instructions:  506000000 cycles:  588679305 heartbeat IPC: 0.55221 cumulative IPC: 0.75359 (Simulation time: 0 hr 18 min 50 sec) 
Heartbeat CPU  0 instructions:  507000003 cycles:  590486606 heartbeat IPC: 0.55331 cumulative IPC: 0.75292 (Simulation time: 0 hr 18 min 53 sec) 
Heartbeat CPU  0 instructions:  508000000 cycles:  592294667 heartbeat IPC: 0.55308 cumulative IPC: 0.75226 (Simulation time: 0 hr 18 min 55 sec) 
Heartbeat CPU  0 instructions:  509000003 cycles:  594094548 heartbeat IPC: 0.55559 cumulative IPC: 0.75161 (Simulation time: 0 hr 18 min 58 sec) 
Heartbeat CPU  0 instructions:  510000000 cycles:  595895720 heartbeat IPC: 0.55519 cumulative IPC: 0.75096 (Simulation time: 0 hr 19 min 1 sec) 
Heartbeat CPU  0 instructions:  511000002 cycles:  597699409 heartbeat IPC: 0.55442 cumulative IPC: 0.75031 (Simulation time: 0 hr 19 min 3 sec) 
Heartbeat CPU  0 instructions:  512000000 cycles:  599249041 heartbeat IPC: 0.64531 cumulative IPC: 0.75001 (Simulation time: 0 hr 19 min 6 sec) 
Heartbeat CPU  0 instructions:  513000000 cycles:  600668119 heartbeat IPC: 0.70468 cumulative IPC: 0.74990 (Simulation time: 0 hr 19 min 8 sec) 
Heartbeat CPU  0 instructions:  514000003 cycles:  601806592 heartbeat IPC: 0.87837 cumulative IPC: 0.75016 (Simulation time: 0 hr 19 min 10 sec) 
Heartbeat CPU  0 instructions:  515000002 cycles:  602892860 heartbeat IPC: 0.92058 cumulative IPC: 0.75050 (Simulation time: 0 hr 19 min 13 sec) 
Heartbeat CPU  0 instructions:  516000000 cycles:  604013246 heartbeat IPC: 0.89255 cumulative IPC: 0.75078 (Simulation time: 0 hr 19 min 15 sec) 
Heartbeat CPU  0 instructions:  517000001 cycles:  605174204 heartbeat IPC: 0.86136 cumulative IPC: 0.75102 (Simulation time: 0 hr 19 min 17 sec) 
Heartbeat CPU  0 instructions:  518000003 cycles:  606150646 heartbeat IPC: 1.02413 cumulative IPC: 0.75149 (Simulation time: 0 hr 19 min 19 sec) 
Heartbeat CPU  0 instructions:  519000001 cycles:  607249152 heartbeat IPC: 0.91033 cumulative IPC: 0.75181 (Simulation time: 0 hr 19 min 21 sec) 
Heartbeat CPU  0 instructions:  520000000 cycles:  608287818 heartbeat IPC: 0.96277 cumulative IPC: 0.75220 (Simulation time: 0 hr 19 min 24 sec) 
Heartbeat CPU  0 instructions:  521000002 cycles:  609249654 heartbeat IPC: 1.03968 cumulative IPC: 0.75269 (Simulation time: 0 hr 19 min 26 sec) 
Heartbeat CPU  0 instructions:  522000002 cycles:  610366323 heartbeat IPC: 0.89552 cumulative IPC: 0.75298 (Simulation time: 0 hr 19 min 28 sec) 
Heartbeat CPU  0 instructions:  523000000 cycles:  611290465 heartbeat IPC: 1.08208 cumulative IPC: 0.75352 (Simulation time: 0 hr 19 min 30 sec) 
Heartbeat CPU  0 instructions:  524000000 cycles:  612338677 heartbeat IPC: 0.95401 cumulative IPC: 0.75389 (Simulation time: 0 hr 19 min 32 sec) 
Heartbeat CPU  0 instructions:  525000003 cycles:  613415130 heartbeat IPC: 0.92898 cumulative IPC: 0.75423 (Simulation time: 0 hr 19 min 34 sec) 
Heartbeat CPU  0 instructions:  526000000 cycles:  614364966 heartbeat IPC: 1.05281 cumulative IPC: 0.75473 (Simulation time: 0 hr 19 min 36 sec) 
Heartbeat CPU  0 instructions:  527000003 cycles:  615439539 heartbeat IPC: 0.93060 cumulative IPC: 0.75507 (Simulation time: 0 hr 19 min 39 sec) 
Heartbeat CPU  0 instructions:  528000000 cycles:  616428339 heartbeat IPC: 1.01132 cumulative IPC: 0.75551 (Simulation time: 0 hr 19 min 41 sec) 
Heartbeat CPU  0 instructions:  529000003 cycles:  617448771 heartbeat IPC: 0.97998 cumulative IPC: 0.75592 (Simulation time: 0 hr 19 min 43 sec) 
Heartbeat CPU  0 instructions:  530000001 cycles:  618535769 heartbeat IPC: 0.91996 cumulative IPC: 0.75623 (Simulation time: 0 hr 19 min 45 sec) 
Heartbeat CPU  0 instructions:  531000000 cycles:  619513101 heartbeat IPC: 1.02319 cumulative IPC: 0.75669 (Simulation time: 0 hr 19 min 47 sec) 
Heartbeat CPU  0 instructions:  532000000 cycles:  620564694 heartbeat IPC: 0.95094 cumulative IPC: 0.75705 (Simulation time: 0 hr 19 min 49 sec) 
Heartbeat CPU  0 instructions:  533000001 cycles:  621578822 heartbeat IPC: 0.98607 cumulative IPC: 0.75745 (Simulation time: 0 hr 19 min 51 sec) 
Heartbeat CPU  0 instructions:  534000002 cycles:  622552553 heartbeat IPC: 1.02698 cumulative IPC: 0.75791 (Simulation time: 0 hr 19 min 53 sec) 
Heartbeat CPU  0 instructions:  535000000 cycles:  623621967 heartbeat IPC: 0.93509 cumulative IPC: 0.75824 (Simulation time: 0 hr 19 min 56 sec) 
Heartbeat CPU  0 instructions:  536000000 cycles:  624604444 heartbeat IPC: 1.01784 cumulative IPC: 0.75869 (Simulation time: 0 hr 19 min 58 sec) 
Heartbeat CPU  0 instructions:  537000002 cycles:  625631392 heartbeat IPC: 0.97376 cumulative IPC: 0.75907 (Simulation time: 0 hr 20 min 0 sec) 
Heartbeat CPU  0 instructions:  538000002 cycles:  626677924 heartbeat IPC: 0.95554 cumulative IPC: 0.75943 (Simulation time: 0 hr 20 min 2 sec) 
Heartbeat CPU  0 instructions:  539000000 cycles:  627649712 heartbeat IPC: 1.02903 cumulative IPC: 0.75988 (Simulation time: 0 hr 20 min 4 sec) 
Heartbeat CPU  0 instructions:  540000000 cycles:  628700760 heartbeat IPC: 0.95143 cumulative IPC: 0.76023 (Simulation time: 0 hr 20 min 6 sec) 
Heartbeat CPU  0 instructions:  541000000 cycles:  629689313 heartbeat IPC: 1.01158 cumulative IPC: 0.76066 (Simulation time: 0 hr 20 min 8 sec) 
Heartbeat CPU  0 instructions:  542000002 cycles:  630689847 heartbeat IPC: 0.99947 cumulative IPC: 0.76107 (Simulation time: 0 hr 20 min 11 sec) 
Heartbeat CPU  0 instructions:  543000003 cycles:  631738655 heartbeat IPC: 0.95346 cumulative IPC: 0.76141 (Simulation time: 0 hr 20 min 13 sec) 
Heartbeat CPU  0 instructions:  544000000 cycles:  632739332 heartbeat IPC: 0.99932 cumulative IPC: 0.76182 (Simulation time: 0 hr 20 min 15 sec) 
Heartbeat CPU  0 instructions:  545000001 cycles:  633731984 heartbeat IPC: 1.00740 cumulative IPC: 0.76224 (Simulation time: 0 hr 20 min 17 sec) 
Heartbeat CPU  0 instructions:  546000003 cycles:  634758860 heartbeat IPC: 0.97383 cumulative IPC: 0.76261 (Simulation time: 0 hr 20 min 19 sec) 
Heartbeat CPU  0 instructions:  547000000 cycles:  635748364 heartbeat IPC: 1.01060 cumulative IPC: 0.76303 (Simulation time: 0 hr 20 min 21 sec) 
Heartbeat CPU  0 instructions:  548000000 cycles:  636782658 heartbeat IPC: 0.96684 cumulative IPC: 0.76339 (Simulation time: 0 hr 20 min 23 sec) 
Heartbeat CPU  0 instructions:  549000001 cycles:  637791416 heartbeat IPC: 0.99132 cumulative IPC: 0.76378 (Simulation time: 0 hr 20 min 26 sec) 
Heartbeat CPU  0 instructions:  550000001 cycles:  638744228 heartbeat IPC: 1.04953 cumulative IPC: 0.76424 (Simulation time: 0 hr 20 min 28 sec) 
Heartbeat CPU  0 instructions:  551000002 cycles:  639795077 heartbeat IPC: 0.95161 cumulative IPC: 0.76458 (Simulation time: 0 hr 20 min 30 sec) 
Heartbeat CPU  0 instructions:  552000000 cycles:  640779872 heartbeat IPC: 1.01544 cumulative IPC: 0.76499 (Simulation time: 0 hr 20 min 32 sec) 
Heartbeat CPU  0 instructions:  553000002 cycles:  641798457 heartbeat IPC: 0.98176 cumulative IPC: 0.76537 (Simulation time: 0 hr 20 min 34 sec) 
Heartbeat CPU  0 instructions:  554000002 cycles:  642822208 heartbeat IPC: 0.97680 cumulative IPC: 0.76573 (Simulation time: 0 hr 20 min 36 sec) 
Heartbeat CPU  0 instructions:  555000001 cycles:  643773073 heartbeat IPC: 1.05167 cumulative IPC: 0.76619 (Simulation time: 0 hr 20 min 38 sec) 
Heartbeat CPU  0 instructions:  556000000 cycles:  644808553 heartbeat IPC: 0.96573 cumulative IPC: 0.76654 (Simulation time: 0 hr 20 min 40 sec) 
Heartbeat CPU  0 instructions:  557000003 cycles:  645811560 heartbeat IPC: 0.99700 cumulative IPC: 0.76693 (Simulation time: 0 hr 20 min 43 sec) 
Heartbeat CPU  0 instructions:  558000001 cycles:  646828496 heartbeat IPC: 0.98334 cumulative IPC: 0.76729 (Simulation time: 0 hr 20 min 45 sec) 
Heartbeat CPU  0 instructions:  559000001 cycles:  647831048 heartbeat IPC: 0.99745 cumulative IPC: 0.76768 (Simulation time: 0 hr 20 min 47 sec) 
Heartbeat CPU  0 instructions:  560000000 cycles:  648788702 heartbeat IPC: 1.04422 cumulative IPC: 0.76812 (Simulation time: 0 hr 20 min 49 sec) 
Heartbeat CPU  0 instructions:  561000003 cycles:  649832937 heartbeat IPC: 0.95764 cumulative IPC: 0.76845 (Simulation time: 0 hr 20 min 51 sec) 
Heartbeat CPU  0 instructions:  562000001 cycles:  650832289 heartbeat IPC: 1.00065 cumulative IPC: 0.76884 (Simulation time: 0 hr 20 min 53 sec) 
Heartbeat CPU  0 instructions:  563000003 cycles:  651840731 heartbeat IPC: 0.99163 cumulative IPC: 0.76921 (Simulation time: 0 hr 20 min 55 sec) 
Heartbeat CPU  0 instructions:  564000000 cycles:  652861273 heartbeat IPC: 0.97987 cumulative IPC: 0.76957 (Simulation time: 0 hr 20 min 58 sec) 
Heartbeat CPU  0 instructions:  565000002 cycles:  653825177 heartbeat IPC: 1.03745 cumulative IPC: 0.77000 (Simulation time: 0 hr 21 min 0 sec) 
Heartbeat CPU  0 instructions:  566000002 cycles:  654865910 heartbeat IPC: 0.96086 cumulative IPC: 0.77032 (Simulation time: 0 hr 21 min 2 sec) 
Heartbeat CPU  0 instructions:  567000000 cycles:  655867405 heartbeat IPC: 0.99851 cumulative IPC: 0.77070 (Simulation time: 0 hr 21 min 4 sec) 
Heartbeat CPU  0 instructions:  568000000 cycles:  656832560 heartbeat IPC: 1.03610 cumulative IPC: 0.77112 (Simulation time: 0 hr 21 min 6 sec) 
Heartbeat CPU  0 instructions:  569000002 cycles:  657892248 heartbeat IPC: 0.94368 cumulative IPC: 0.77142 (Simulation time: 0 hr 21 min 8 sec) 
Heartbeat CPU  0 instructions:  570000001 cycles:  658853428 heartbeat IPC: 1.04039 cumulative IPC: 0.77185 (Simulation time: 0 hr 21 min 10 sec) 
Heartbeat CPU  0 instructions:  571000000 cycles:  659894073 heartbeat IPC: 0.96094 cumulative IPC: 0.77217 (Simulation time: 0 hr 21 min 12 sec) 
Heartbeat CPU  0 instructions:  572000000 cycles:  660921844 heartbeat IPC: 0.97298 cumulative IPC: 0.77251 (Simulation time: 0 hr 21 min 15 sec) 
Heartbeat CPU  0 instructions:  573000002 cycles:  661860200 heartbeat IPC: 1.06570 cumulative IPC: 0.77296 (Simulation time: 0 hr 21 min 17 sec) 
Heartbeat CPU  0 instructions:  574000002 cycles:  662930348 heartbeat IPC: 0.93445 cumulative IPC: 0.77324 (Simulation time: 0 hr 21 min 19 sec) 
Heartbeat CPU  0 instructions:  575000000 cycles:  663899904 heartbeat IPC: 1.03140 cumulative IPC: 0.77365 (Simulation time: 0 hr 21 min 21 sec) 
Heartbeat CPU  0 instructions:  576000000 cycles:  664915979 heartbeat IPC: 0.98418 cumulative IPC: 0.77400 (Simulation time: 0 hr 21 min 23 sec) 
Heartbeat CPU  0 instructions:  577000002 cycles:  665940499 heartbeat IPC: 0.97607 cumulative IPC: 0.77433 (Simulation time: 0 hr 21 min 25 sec) 
Heartbeat CPU  0 instructions:  578000002 cycles:  666900415 heartbeat IPC: 1.04176 cumulative IPC: 0.77475 (Simulation time: 0 hr 21 min 28 sec) 
Heartbeat CPU  0 instructions:  579000003 cycles:  667966460 heartbeat IPC: 0.93805 cumulative IPC: 0.77503 (Simulation time: 0 hr 21 min 30 sec) 
Heartbeat CPU  0 instructions:  580000000 cycles:  668954782 heartbeat IPC: 1.01181 cumulative IPC: 0.77541 (Simulation time: 0 hr 21 min 32 sec) 
Heartbeat CPU  0 instructions:  581000002 cycles:  669942608 heartbeat IPC: 1.01233 cumulative IPC: 0.77579 (Simulation time: 0 hr 21 min 34 sec) 
Heartbeat CPU  0 instructions:  582000003 cycles:  670991162 heartbeat IPC: 0.95370 cumulative IPC: 0.77609 (Simulation time: 0 hr 21 min 36 sec) 
Heartbeat CPU  0 instructions:  583000002 cycles:  671953814 heartbeat IPC: 1.03880 cumulative IPC: 0.77649 (Simulation time: 0 hr 21 min 38 sec) 
Heartbeat CPU  0 instructions:  584000000 cycles:  673016590 heartbeat IPC: 0.94093 cumulative IPC: 0.77677 (Simulation time: 0 hr 21 min 40 sec) 
Heartbeat CPU  0 instructions:  585000003 cycles:  674041116 heartbeat IPC: 0.97606 cumulative IPC: 0.77710 (Simulation time: 0 hr 21 min 43 sec) 
Heartbeat CPU  0 instructions:  586000000 cycles:  674979869 heartbeat IPC: 1.06524 cumulative IPC: 0.77753 (Simulation time: 0 hr 21 min 45 sec) 
Heartbeat CPU  0 instructions:  587000002 cycles:  676060436 heartbeat IPC: 0.92544 cumulative IPC: 0.77779 (Simulation time: 0 hr 21 min 47 sec) 
Heartbeat CPU  0 instructions:  588000000 cycles:  677055694 heartbeat IPC: 1.00476 cumulative IPC: 0.77815 (Simulation time: 0 hr 21 min 49 sec) 
Heartbeat CPU  0 instructions:  589000003 cycles:  678099541 heartbeat IPC: 0.95800 cumulative IPC: 0.77845 (Simulation time: 0 hr 21 min 51 sec) 
Heartbeat CPU  0 instructions:  590000001 cycles:  679193076 heartbeat IPC: 0.91446 cumulative IPC: 0.77868 (Simulation time: 0 hr 21 min 53 sec) 
Heartbeat CPU  0 instructions:  591000003 cycles:  680119019 heartbeat IPC: 1.07998 cumulative IPC: 0.77913 (Simulation time: 0 hr 21 min 55 sec) 
Heartbeat CPU  0 instructions:  592000000 cycles:  681209626 heartbeat IPC: 0.91692 cumulative IPC: 0.77936 (Simulation time: 0 hr 21 min 58 sec) 
Heartbeat CPU  0 instructions:  593000002 cycles:  682226658 heartbeat IPC: 0.98326 cumulative IPC: 0.77969 (Simulation time: 0 hr 22 min 0 sec) 
Heartbeat CPU  0 instructions:  594000003 cycles:  683245890 heartbeat IPC: 0.98113 cumulative IPC: 0.78002 (Simulation time: 0 hr 22 min 2 sec) 
Heartbeat CPU  0 instructions:  595000001 cycles:  684352588 heartbeat IPC: 0.90359 cumulative IPC: 0.78023 (Simulation time: 0 hr 22 min 4 sec) 
Heartbeat CPU  0 instructions:  596000000 cycles:  685289511 heartbeat IPC: 1.06732 cumulative IPC: 0.78066 (Simulation time: 0 hr 22 min 6 sec) 
Heartbeat CPU  0 instructions:  597000000 cycles:  686360356 heartbeat IPC: 0.93384 cumulative IPC: 0.78091 (Simulation time: 0 hr 22 min 8 sec) 
Heartbeat CPU  0 instructions:  598000001 cycles:  687400702 heartbeat IPC: 0.96122 cumulative IPC: 0.78121 (Simulation time: 0 hr 22 min 10 sec) 
Heartbeat CPU  0 instructions:  599000003 cycles:  688366991 heartbeat IPC: 1.03489 cumulative IPC: 0.78159 (Simulation time: 0 hr 22 min 13 sec) 
Heartbeat CPU  0 instructions:  600000000 cycles:  689483746 heartbeat IPC: 0.89545 cumulative IPC: 0.78179 (Simulation time: 0 hr 22 min 15 sec) 
Finished CPU 0 instructions: 500000002 cycles: 639557782 cumulative IPC: 0.78179 (Simulation time: 0 hr 22 min 15 sec) 

ChampSim completed all CPUs

[ROI Statistics]
Core_0_instructions 500000002
Core_0_cycles 639557782
Core_0_IPC 0.78179

Core_0_branch_prediction_accuracy 99.14890
Core_0_branch_MPKI 0.20164
Core_0_average_ROB_occupancy_at_mispredict 245.11607

Core_0_L1D_total_access 146962537
Core_0_L1D_total_hit 141333253
Core_0_L1D_total_miss 5629284
Core_0_L1D_loads 135437911
Core_0_L1D_load_hit 131139015
Core_0_L1D_load_miss 4298896
Core_0_L1D_RFOs 11524626
Core_0_L1D_RFO_hit 10194238
Core_0_L1D_RFO_miss 1330388
Core_0_L1D_prefetches 0
Core_0_L1D_prefetch_hit 0
Core_0_L1D_prefetch_miss 0
Core_0_L1D_writebacks 0
Core_0_L1D_writeback_hit 0
Core_0_L1D_writeback_miss 0
Core_0_L1D_prefetch_requested 0
Core_0_L1D_prefetch_dropped 0
Core_0_L1D_prefetch_issued 0
Core_0_L1D_prefetch_filled 0
Core_0_L1D_prefetch_useful 0
Core_0_L1D_prefetch_useless 0
Core_0_L1D_prefetch_late 0
Core_0_L1D_average_miss_latency 233.07759

Core_0_L1D_rq_access 199065127
Core_0_L1D_rq_forward 0
Core_0_L1D_rq_merged 62563500
Core_0_L1D_rq_to_cache 136501627
Core_0_L1D_rq_full 0

Core_0_L1D_wq_access 15945109
Core_0_L1D_wq_forward 0
Core_0_L1D_wq_merged 0
Core_0_L1D_wq_to_cache 15945109
Core_0_L1D_wq_full 2721486

Core_0_L1D_pq_access 0
Core_0_L1D_pq_forward 0
Core_0_L1D_pq_merged 0
Core_0_L1D_pq_to_cache 0
Core_0_L1D_pq_full 0

Core_0_L1D_acc_epochs 668996
Core_0_L1D_acc_level_0 668996
Core_0_L1D_acc_level_1 0
Core_0_L1D_acc_level_2 0
Core_0_L1D_acc_level_3 0
Core_0_L1D_acc_level_4 0
Core_0_L1D_acc_level_5 0
Core_0_L1D_acc_level_6 0
Core_0_L1D_acc_level_7 0
Core_0_L1D_acc_level_8 0
Core_0_L1D_acc_level_9 0

Core_0_L1I_total_access 121345408
Core_0_L1I_total_hit 121345082
Core_0_L1I_total_miss 326
Core_0_L1I_loads 121345408
Core_0_L1I_load_hit 121345082
Core_0_L1I_load_miss 326
Core_0_L1I_RFOs 0
Core_0_L1I_RFO_hit 0
Core_0_L1I_RFO_miss 0
Core_0_L1I_prefetches 0
Core_0_L1I_prefetch_hit 0
Core_0_L1I_prefetch_miss 0
Core_0_L1I_writebacks 0
Core_0_L1I_writeback_hit 0
Core_0_L1I_writeback_miss 0
Core_0_L1I_prefetch_requested 0
Core_0_L1I_prefetch_dropped 0
Core_0_L1I_prefetch_issued 0
Core_0_L1I_prefetch_filled 0
Core_0_L1I_prefetch_useful 0
Core_0_L1I_prefetch_useless 0
Core_0_L1I_prefetch_late 0
Core_0_L1I_average_miss_latency 842.57975

Core_0_L1I_rq_access 500000003
Core_0_L1I_rq_forward 0
Core_0_L1I_rq_merged 378653504
Core_0_L1I_rq_to_cache 121346499
Core_0_L1I_rq_full 0

Core_0_L1I_wq_access 0
Core_0_L1I_wq_forward 0
Core_0_L1I_wq_merged 0
Core_0_L1I_wq_to_cache 0
Core_0_L1I_wq_full 0

Core_0_L1I_pq_access 0
Core_0_L1I_pq_forward 0
Core_0_L1I_pq_merged 0
Core_0_L1I_pq_to_cache 0
Core_0_L1I_pq_full 0

Core_0_L1I_acc_epochs 668996
Core_0_L1I_acc_level_0 668996
Core_0_L1I_acc_level_1 0
Core_0_L1I_acc_level_2 0
Core_0_L1I_acc_level_3 0
Core_0_L1I_acc_level_4 0
Core_0_L1I_acc_level_5 0
Core_0_L1I_acc_level_6 0
Core_0_L1I_acc_level_7 0
Core_0_L1I_acc_level_8 0
Core_0_L1I_acc_level_9 0

Core_0_L2C_total_access 10327723
Core_0_L2C_total_hit 6284206
Core_0_L2C_total_miss 4043517
Core_0_L2C_loads 4299168
Core_0_L2C_load_hit 3936149
Core_0_L2C_load_miss 363019
Core_0_L2C_RFOs 1330189
Core_0_L2C_RFO_hit 522040
Core_0_L2C_RFO_miss 808149
Core_0_L2C_prefetches 2958187
Core_0_L2C_prefetch_hit 86971
Core_0_L2C_prefetch_miss 2871216
Core_0_L2C_writebacks 1740179
Core_0_L2C_writeback_hit 1739046
Core_0_L2C_writeback_miss 1133
Core_0_L2C_prefetch_requested 3566970
Core_0_L2C_prefetch_dropped 0
Core_0_L2C_prefetch_issued 3566970
Core_0_L2C_prefetch_filled 3321408
Core_0_L2C_prefetch_useful 3289225
Core_0_L2C_prefetch_useless 32105
Core_0_L2C_prefetch_late 35904
Core_0_L2C_average_miss_latency 1442.66190

Core_0_L2C_rq_access 5629610
Core_0_L2C_rq_forward 0
Core_0_L2C_rq_merged 0
Core_0_L2C_rq_to_cache 5629357
Core_0_L2C_rq_full 0

Core_0_L2C_wq_access 1740179
Core_0_L2C_wq_forward 258
Core_0_L2C_wq_merged 0
Core_0_L2C_wq_to_cache 1740179
Core_0_L2C_wq_full 0

Core_0_L2C_pq_access 3566970
Core_0_L2C_pq_forward 0
Core_0_L2C_pq_merged 0
Core_0_L2C_pq_to_cache 3566965
Core_0_L2C_pq_full 0

Core_0_L2C_acc_epochs 668996
Core_0_L2C_acc_level_0 289142
Core_0_L2C_acc_level_1 73896
Core_0_L2C_acc_level_2 53363
Core_0_L2C_acc_level_3 31037
Core_0_L2C_acc_level_4 23775
Core_0_L2C_acc_level_5 28432
Core_0_L2C_acc_level_6 17826
Core_0_L2C_acc_level_7 15774
Core_0_L2C_acc_level_8 16523
Core_0_L2C_acc_level_9 119228

Core_0_LLC_total_access 5248061
Core_0_LLC_total_hit 1372467
Core_0_LLC_total_miss 3875594
Core_0_LLC_loads 327116
Core_0_LLC_load_hit 128766
Core_0_LLC_load_miss 198350
Core_0_LLC_RFOs 808149
Core_0_LLC_RFO_hit 125944
Core_0_LLC_RFO_miss 682205
Core_0_LLC_prefetches 3019352
Core_0_LLC_prefetch_hit 673614
Core_0_LLC_prefetch_miss 2345738
Core_0_LLC_writebacks 1093444
Core_0_LLC_writeback_hit 444143
Core_0_LLC_writeback_miss 649301
Core_0_LLC_prefetch_requested 0
Core_0_LLC_prefetch_dropped 0
Core_0_LLC_prefetch_issued 0
Core_0_LLC_prefetch_filled 2770642
Core_0_LLC_prefetch_useful 85384
Core_0_LLC_prefetch_useless 2664156
Core_0_LLC_prefetch_late 125
Core_0_LLC_average_miss_latency 1529.31672

Core_0_LLC_rq_access 1135265
Core_0_LLC_rq_forward 0
Core_0_LLC_rq_merged 0
Core_0_LLC_rq_to_cache 1135265
Core_0_LLC_rq_full 0

Core_0_LLC_wq_access 1093444
Core_0_LLC_wq_forward 1
Core_0_LLC_wq_merged 0
Core_0_LLC_wq_to_cache 1093444
Core_0_LLC_wq_full 1217

Core_0_LLC_pq_access 3470647
Core_0_LLC_pq_forward 0
Core_0_LLC_pq_merged 0
Core_0_LLC_pq_to_cache 3470646
Core_0_LLC_pq_full 0

Core_0_LLC_acc_epochs 673324
Core_0_LLC_acc_level_0 648130
Core_0_LLC_acc_level_1 9776
Core_0_LLC_acc_level_2 5320
Core_0_LLC_acc_level_3 2617
Core_0_LLC_acc_level_4 1476
Core_0_LLC_acc_level_5 1729
Core_0_LLC_acc_level_6 819
Core_0_LLC_acc_level_7 624
Core_0_LLC_acc_level_8 545
Core_0_LLC_acc_level_9 2288

Core_0_major_page_fault 0
Core_0_minor_page_fault 14851

[Bingo] PHT Access: 142483
[Bingo] PHT Hit PC+Addr: 5579
[Bingo] PHT Hit PC+Offs: 130815
[Bingo] PHT Miss: 6089
[Bingo] Prefetch PC+Addr: 0
[Bingo] Prefetch PC+Offs: 0
[Bingo] Useful PC+Addr: 0
[Bingo] Useful PC+Offs: 0
[Bingo] Useless PC+Addr: 0
[Bingo] Useless PC+Offs: 0
[Bingo] L1 Prefetch per Region: 0.00000
[Bingo] L2 Prefetch per Region: 26.55585
[Bingo] L3 Prefetch per Region: 0.92195
[Bingo] No Prefetch per Region: 4.52220
[Bingo] Number of Voters Mean: 13.95013
[Bingo] Number of Voters SD: 4.02669

Channel_0_RQ_row_buffer_hit 1837271
Channel_0_RQ_row_buffer_miss 1389021
Channel_0_WQ_row_buffer_hit 285204
Channel_0_WQ_row_buffer_miss 626283
Channel_0_WQ_full 236894
Channel_0_dbus_congested 3782016

avg_congested_cycle 102

DRAM_bw_pochs 2693296
DRAM_bw_level_0 1530545
DRAM_bw_level_1 496713
DRAM_bw_level_2 0
DRAM_bw_level_3 666038
