*************************************************
   ChampSim Multicore Out-of-Order Simulator
   Last compiled: Dec 11 2024 17:59:53
*************************************************
parsing config file: /home/functionmain/桌面/Pythia/config/mlop.ini

trace_0 /home/functionmain/桌面/Pythia/traces/437.leslie3d-149B.champsimtrace.xz
adding L2C_PREFETCHER: MLOP
Initialize SHIP state
warmup_instructions 100000000
simulation_instructions 500000000
champsim_seed 224
measure_ipc 0
measure_ipc_epoch 1000
measure_dram_bw 1
measure_dram_bw_epoch 256
measure_cache_acc 1
measure_cache_acc_epoch 1024
l1d_perfect 0
l2c_perfect 0
llc_perfect 0
l1d_semi_perfect 0
l2c_semi_perfect 0
llc_semi_perfect 0
semi_perfect_cache_page_buffer_size 64

num_cpus 1
cpu_freq 4000
dram_io_freq 600
page_size 4096
block_size 64
max_read_per_cycle 8
max_fill_per_cycle 1
dram_channels 1
log2_dram_channels 0
dram_ranks 1
dram_banks 8
dram_rows 65536
dram_columns 128
dram_row_size 8
dram_size 4096
dram_pages 1048576

fetch_width 6
decode_width 6
exec_width 4
lq_width 2
sq_width 2
retire_width 4
scheduler_size 128
branch_mispredict_penalty 20
rob_size 256
lq_size 72
sq_size 56
num_instr_destinations_sparc 4
num_instr_destinations 2
num_instr_sources 4

itlb_set 16
itlb_way 8
itlb_rq_size 16
itlb_wq_size 16
itlb_pq_size 0
itlb_mshr_size 8
itlb_latency 1

dtlb_set 16
dtlb_way 4
dtlb_rq_size 16
dtlb_wq_size 16
dtlb_pq_size 0
dtlb_mshr_size 8
dtlb_latency 1

stlb_set 128
stlb_way 12
stlb_rq_size 32
stlb_wq_size 32
stlb_pq_size 0
stlb_mshr_size 16
stlb_latency 8

l1i_size 32
l1i_set 64
l1i_way 8
l1i_rq_size 64
l1i_wq_size 64
l1i_pq_size 8
l1i_mshr_size 8
l1i_latency 1

l1d_size 32
l1d_set 64
l1d_way 8
l1d_rq_size 64
l1d_wq_size 64
l1d_pq_size 8
l1d_mshr_size 16
l1d_latency 4

l2c_size 256
l2c_set 512
l2c_way 8
l2c_rq_size 32
l2c_wq_size 32
l2c_pq_size 32
l2c_mshr_size 32
l2c_latency 10

llc_size 2048
llc_set 2048
llc_way 16
llc_rq_size 32
llc_wq_size 32
llc_pq_size 32
llc_mshr_size 64
llc_latency 20

dram_channel_width 8
dram_wq_size 64
dram_rq_size 64
tRP 15
tRCD 15
tCAS 12.5
dram_dbus_turn_around_time 30
dram_write_high_wm 56
dram_write_low_wm 48
min_dram_writes_per_switch 16
dram_mtps 600
dram_dbus_return_time 53

mlop_pref_degree 16
mlop_num_updates 500
mlop_l1d_thresh 2
mlop_l2c_thresh 0.75
mlop_llc_thresh 0.3
mlop_debug_level 0
mlop_blocks_in_cache 4096
mlop_blocks_in_zone 64
mlop_amt_size 2048
mlop_PF_DEGREE 16
mlop_NUM_UPDATES 500
mlop_L1D_THRESH 1000
mlop_L2C_THRESH 375
mlop_LLC_THRESH 150
mlop_ORIGIN 63
mlop_MAX_OFFSET 63
mlop_MIN_OFFSET -63
mlop_ORIGIN 63
mlop_NUM_OFFSETS 127


Heartbeat CPU  0 instructions:    1000002 cycles:     502917 heartbeat IPC: 1.98840 cumulative IPC: 1.98840 (Simulation time: 0 hr 0 min 1 sec) 
Heartbeat CPU  0 instructions:    2000001 cycles:     991178 heartbeat IPC: 2.04808 cumulative IPC: 2.01780 (Simulation time: 0 hr 0 min 3 sec) 
Heartbeat CPU  0 instructions:    3000003 cycles:    1493319 heartbeat IPC: 1.99148 cumulative IPC: 2.00895 (Simulation time: 0 hr 0 min 5 sec) 
Heartbeat CPU  0 instructions:    4000000 cycles:    1995187 heartbeat IPC: 1.99255 cumulative IPC: 2.00482 (Simulation time: 0 hr 0 min 7 sec) 
Heartbeat CPU  0 instructions:    5000000 cycles:    2497528 heartbeat IPC: 1.99068 cumulative IPC: 2.00198 (Simulation time: 0 hr 0 min 9 sec) 
Heartbeat CPU  0 instructions:    6000001 cycles:    2997467 heartbeat IPC: 2.00025 cumulative IPC: 2.00169 (Simulation time: 0 hr 0 min 10 sec) 
Heartbeat CPU  0 instructions:    7000000 cycles:    3487670 heartbeat IPC: 2.03997 cumulative IPC: 2.00707 (Simulation time: 0 hr 0 min 12 sec) 
Heartbeat CPU  0 instructions:    8000000 cycles:    3990780 heartbeat IPC: 1.98764 cumulative IPC: 2.00462 (Simulation time: 0 hr 0 min 14 sec) 
Heartbeat CPU  0 instructions:    9000002 cycles:    4492720 heartbeat IPC: 1.99227 cumulative IPC: 2.00324 (Simulation time: 0 hr 0 min 16 sec) 
Heartbeat CPU  0 instructions:   10000000 cycles:    4994706 heartbeat IPC: 1.99208 cumulative IPC: 2.00212 (Simulation time: 0 hr 0 min 17 sec) 
Heartbeat CPU  0 instructions:   11000002 cycles:    5485785 heartbeat IPC: 2.03634 cumulative IPC: 2.00518 (Simulation time: 0 hr 0 min 19 sec) 
Heartbeat CPU  0 instructions:   12000000 cycles:    5984786 heartbeat IPC: 2.00400 cumulative IPC: 2.00508 (Simulation time: 0 hr 0 min 21 sec) 
Heartbeat CPU  0 instructions:   13000002 cycles:    6487299 heartbeat IPC: 1.99000 cumulative IPC: 2.00392 (Simulation time: 0 hr 0 min 23 sec) 
Heartbeat CPU  0 instructions:   14000003 cycles:    6989761 heartbeat IPC: 1.99020 cumulative IPC: 2.00293 (Simulation time: 0 hr 0 min 24 sec) 
Heartbeat CPU  0 instructions:   15000002 cycles:    7491998 heartbeat IPC: 1.99109 cumulative IPC: 2.00214 (Simulation time: 0 hr 0 min 26 sec) 
Heartbeat CPU  0 instructions:   16000000 cycles:    7979632 heartbeat IPC: 2.05071 cumulative IPC: 2.00511 (Simulation time: 0 hr 0 min 28 sec) 
Heartbeat CPU  0 instructions:   17000001 cycles:    8482462 heartbeat IPC: 1.98875 cumulative IPC: 2.00414 (Simulation time: 0 hr 0 min 30 sec) 
Heartbeat CPU  0 instructions:   18000003 cycles:    8985644 heartbeat IPC: 1.98736 cumulative IPC: 2.00320 (Simulation time: 0 hr 0 min 31 sec) 
Heartbeat CPU  0 instructions:   19000003 cycles:    9487962 heartbeat IPC: 1.99077 cumulative IPC: 2.00254 (Simulation time: 0 hr 0 min 33 sec) 
Heartbeat CPU  0 instructions:   20000000 cycles:    9980074 heartbeat IPC: 2.03205 cumulative IPC: 2.00399 (Simulation time: 0 hr 0 min 35 sec) 
Heartbeat CPU  0 instructions:   21000003 cycles:   10477474 heartbeat IPC: 2.01046 cumulative IPC: 2.00430 (Simulation time: 0 hr 0 min 37 sec) 
Heartbeat CPU  0 instructions:   22000001 cycles:   10980217 heartbeat IPC: 1.98908 cumulative IPC: 2.00360 (Simulation time: 0 hr 0 min 38 sec) 
Heartbeat CPU  0 instructions:   23000002 cycles:   11482920 heartbeat IPC: 1.98925 cumulative IPC: 2.00297 (Simulation time: 0 hr 0 min 40 sec) 
Heartbeat CPU  0 instructions:   24000000 cycles:   11984996 heartbeat IPC: 1.99173 cumulative IPC: 2.00250 (Simulation time: 0 hr 0 min 42 sec) 
Heartbeat CPU  0 instructions:   25000002 cycles:   12472585 heartbeat IPC: 2.05091 cumulative IPC: 2.00440 (Simulation time: 0 hr 0 min 44 sec) 
Heartbeat CPU  0 instructions:   26000002 cycles:   12974433 heartbeat IPC: 1.99264 cumulative IPC: 2.00394 (Simulation time: 0 hr 0 min 46 sec) 
Heartbeat CPU  0 instructions:   27000001 cycles:   13476807 heartbeat IPC: 1.99055 cumulative IPC: 2.00344 (Simulation time: 0 hr 0 min 47 sec) 
Heartbeat CPU  0 instructions:   28000000 cycles:   13979427 heartbeat IPC: 1.98957 cumulative IPC: 2.00294 (Simulation time: 0 hr 0 min 49 sec) 
Heartbeat CPU  0 instructions:   29000003 cycles:   14474460 heartbeat IPC: 2.02007 cumulative IPC: 2.00353 (Simulation time: 0 hr 0 min 51 sec) 
Heartbeat CPU  0 instructions:   30000003 cycles:   14969142 heartbeat IPC: 2.02150 cumulative IPC: 2.00412 (Simulation time: 0 hr 0 min 53 sec) 
Heartbeat CPU  0 instructions:   31000001 cycles:   15471296 heartbeat IPC: 1.99142 cumulative IPC: 2.00371 (Simulation time: 0 hr 0 min 54 sec) 
Heartbeat CPU  0 instructions:   32000000 cycles:   15973641 heartbeat IPC: 1.99066 cumulative IPC: 2.00330 (Simulation time: 0 hr 0 min 56 sec) 
Heartbeat CPU  0 instructions:   33000000 cycles:   16476150 heartbeat IPC: 1.99001 cumulative IPC: 2.00290 (Simulation time: 0 hr 0 min 58 sec) 
Heartbeat CPU  0 instructions:   34000003 cycles:   16963966 heartbeat IPC: 2.04996 cumulative IPC: 2.00425 (Simulation time: 0 hr 1 min 0 sec) 
Heartbeat CPU  0 instructions:   35000003 cycles:   17466026 heartbeat IPC: 1.99179 cumulative IPC: 2.00389 (Simulation time: 0 hr 1 min 1 sec) 
Heartbeat CPU  0 instructions:   36000000 cycles:   17968002 heartbeat IPC: 1.99212 cumulative IPC: 2.00356 (Simulation time: 0 hr 1 min 3 sec) 
Heartbeat CPU  0 instructions:   37000001 cycles:   18471045 heartbeat IPC: 1.98790 cumulative IPC: 2.00314 (Simulation time: 0 hr 1 min 5 sec) 
Heartbeat CPU  0 instructions:   38000003 cycles:   18968700 heartbeat IPC: 2.00943 cumulative IPC: 2.00330 (Simulation time: 0 hr 1 min 7 sec) 
Heartbeat CPU  0 instructions:   39000001 cycles:   19461372 heartbeat IPC: 2.02974 cumulative IPC: 2.00397 (Simulation time: 0 hr 1 min 8 sec) 
Heartbeat CPU  0 instructions:   40000000 cycles:   19963600 heartbeat IPC: 1.99113 cumulative IPC: 2.00365 (Simulation time: 0 hr 1 min 10 sec) 
Heartbeat CPU  0 instructions:   41000002 cycles:   20466024 heartbeat IPC: 1.99035 cumulative IPC: 2.00332 (Simulation time: 0 hr 1 min 12 sec) 
Heartbeat CPU  0 instructions:   42000000 cycles:   20968700 heartbeat IPC: 1.98935 cumulative IPC: 2.00299 (Simulation time: 0 hr 1 min 14 sec) 
Heartbeat CPU  0 instructions:   43000000 cycles:   21456825 heartbeat IPC: 2.04866 cumulative IPC: 2.00402 (Simulation time: 0 hr 1 min 15 sec) 
Heartbeat CPU  0 instructions:   44000000 cycles:   21959114 heartbeat IPC: 1.99089 cumulative IPC: 2.00372 (Simulation time: 0 hr 1 min 17 sec) 
Heartbeat CPU  0 instructions:   45000002 cycles:   22461791 heartbeat IPC: 1.98935 cumulative IPC: 2.00340 (Simulation time: 0 hr 1 min 19 sec) 
Heartbeat CPU  0 instructions:   46000003 cycles:   22963718 heartbeat IPC: 1.99232 cumulative IPC: 2.00316 (Simulation time: 0 hr 1 min 21 sec) 
Heartbeat CPU  0 instructions:   47000000 cycles:   23462742 heartbeat IPC: 2.00391 cumulative IPC: 2.00318 (Simulation time: 0 hr 1 min 22 sec) 
Heartbeat CPU  0 instructions:   48000000 cycles:   23953728 heartbeat IPC: 2.03672 cumulative IPC: 2.00386 (Simulation time: 0 hr 1 min 24 sec) 
Heartbeat CPU  0 instructions:   49000002 cycles:   24456589 heartbeat IPC: 1.98863 cumulative IPC: 2.00355 (Simulation time: 0 hr 1 min 26 sec) 
Heartbeat CPU  0 instructions:   50000003 cycles:   24958942 heartbeat IPC: 1.99063 cumulative IPC: 2.00329 (Simulation time: 0 hr 1 min 28 sec) 
Heartbeat CPU  0 instructions:   51000001 cycles:   25460994 heartbeat IPC: 1.99182 cumulative IPC: 2.00306 (Simulation time: 0 hr 1 min 29 sec) 
Heartbeat CPU  0 instructions:   52000000 cycles:   25951122 heartbeat IPC: 2.04028 cumulative IPC: 2.00377 (Simulation time: 0 hr 1 min 31 sec) 
Heartbeat CPU  0 instructions:   53000003 cycles:   26450957 heartbeat IPC: 2.00067 cumulative IPC: 2.00371 (Simulation time: 0 hr 1 min 33 sec) 
Heartbeat CPU  0 instructions:   54000003 cycles:   26962397 heartbeat IPC: 1.95526 cumulative IPC: 2.00279 (Simulation time: 0 hr 1 min 35 sec) 
Heartbeat CPU  0 instructions:   55000001 cycles:   27481526 heartbeat IPC: 1.92630 cumulative IPC: 2.00134 (Simulation time: 0 hr 1 min 36 sec) 
Heartbeat CPU  0 instructions:   56000000 cycles:   27993987 heartbeat IPC: 1.95137 cumulative IPC: 2.00043 (Simulation time: 0 hr 1 min 38 sec) 
Heartbeat CPU  0 instructions:   57000000 cycles:   28505879 heartbeat IPC: 1.95354 cumulative IPC: 1.99959 (Simulation time: 0 hr 1 min 40 sec) 
Heartbeat CPU  0 instructions:   58000002 cycles:   29019797 heartbeat IPC: 1.94584 cumulative IPC: 1.99864 (Simulation time: 0 hr 1 min 41 sec) 
Heartbeat CPU  0 instructions:   59000003 cycles:   29531182 heartbeat IPC: 1.95548 cumulative IPC: 1.99789 (Simulation time: 0 hr 1 min 43 sec) 
Heartbeat CPU  0 instructions:   60000000 cycles:   30041726 heartbeat IPC: 1.95869 cumulative IPC: 1.99722 (Simulation time: 0 hr 1 min 45 sec) 
Heartbeat CPU  0 instructions:   61000001 cycles:   30554220 heartbeat IPC: 1.95124 cumulative IPC: 1.99645 (Simulation time: 0 hr 1 min 46 sec) 
Heartbeat CPU  0 instructions:   62000003 cycles:   31066800 heartbeat IPC: 1.95092 cumulative IPC: 1.99570 (Simulation time: 0 hr 1 min 48 sec) 
Heartbeat CPU  0 instructions:   63000001 cycles:   31578645 heartbeat IPC: 1.95371 cumulative IPC: 1.99502 (Simulation time: 0 hr 1 min 49 sec) 
Heartbeat CPU  0 instructions:   64000000 cycles:   32091967 heartbeat IPC: 1.94809 cumulative IPC: 1.99427 (Simulation time: 0 hr 1 min 51 sec) 
Heartbeat CPU  0 instructions:   65000000 cycles:   32605326 heartbeat IPC: 1.94795 cumulative IPC: 1.99354 (Simulation time: 0 hr 1 min 53 sec) 
Heartbeat CPU  0 instructions:   66000002 cycles:   33117184 heartbeat IPC: 1.95367 cumulative IPC: 1.99292 (Simulation time: 0 hr 1 min 54 sec) 
Heartbeat CPU  0 instructions:   67000002 cycles:   33630502 heartbeat IPC: 1.94811 cumulative IPC: 1.99224 (Simulation time: 0 hr 1 min 56 sec) 
Heartbeat CPU  0 instructions:   68000000 cycles:   34143709 heartbeat IPC: 1.94853 cumulative IPC: 1.99158 (Simulation time: 0 hr 1 min 58 sec) 
Heartbeat CPU  0 instructions:   69000001 cycles:   34655272 heartbeat IPC: 1.95480 cumulative IPC: 1.99104 (Simulation time: 0 hr 1 min 59 sec) 
Heartbeat CPU  0 instructions:   70000003 cycles:   35168163 heartbeat IPC: 1.94974 cumulative IPC: 1.99044 (Simulation time: 0 hr 2 min 1 sec) 
Heartbeat CPU  0 instructions:   71000002 cycles:   35680939 heartbeat IPC: 1.95017 cumulative IPC: 1.98986 (Simulation time: 0 hr 2 min 2 sec) 
Heartbeat CPU  0 instructions:   72000000 cycles:   36192366 heartbeat IPC: 1.95531 cumulative IPC: 1.98937 (Simulation time: 0 hr 2 min 4 sec) 
Heartbeat CPU  0 instructions:   73000003 cycles:   36704766 heartbeat IPC: 1.95161 cumulative IPC: 1.98884 (Simulation time: 0 hr 2 min 6 sec) 
Heartbeat CPU  0 instructions:   74000001 cycles:   37217385 heartbeat IPC: 1.95076 cumulative IPC: 1.98832 (Simulation time: 0 hr 2 min 7 sec) 
Heartbeat CPU  0 instructions:   75000001 cycles:   37729318 heartbeat IPC: 1.95338 cumulative IPC: 1.98784 (Simulation time: 0 hr 2 min 9 sec) 
Heartbeat CPU  0 instructions:   76000000 cycles:   38242079 heartbeat IPC: 1.95022 cumulative IPC: 1.98734 (Simulation time: 0 hr 2 min 11 sec) 
Heartbeat CPU  0 instructions:   77000001 cycles:   38755556 heartbeat IPC: 1.94751 cumulative IPC: 1.98681 (Simulation time: 0 hr 2 min 12 sec) 
Heartbeat CPU  0 instructions:   78000003 cycles:   39267551 heartbeat IPC: 1.95315 cumulative IPC: 1.98637 (Simulation time: 0 hr 2 min 14 sec) 
Heartbeat CPU  0 instructions:   79000000 cycles:   39780141 heartbeat IPC: 1.95087 cumulative IPC: 1.98592 (Simulation time: 0 hr 2 min 15 sec) 
Heartbeat CPU  0 instructions:   80000000 cycles:   40293512 heartbeat IPC: 1.94791 cumulative IPC: 1.98543 (Simulation time: 0 hr 2 min 17 sec) 
Heartbeat CPU  0 instructions:   81000000 cycles:   40805492 heartbeat IPC: 1.95320 cumulative IPC: 1.98503 (Simulation time: 0 hr 2 min 19 sec) 
Heartbeat CPU  0 instructions:   82000001 cycles:   41317748 heartbeat IPC: 1.95215 cumulative IPC: 1.98462 (Simulation time: 0 hr 2 min 20 sec) 
Heartbeat CPU  0 instructions:   83000001 cycles:   41831362 heartbeat IPC: 1.94699 cumulative IPC: 1.98416 (Simulation time: 0 hr 2 min 22 sec) 
Heartbeat CPU  0 instructions:   84000000 cycles:   42343247 heartbeat IPC: 1.95356 cumulative IPC: 1.98379 (Simulation time: 0 hr 2 min 24 sec) 
Heartbeat CPU  0 instructions:   85000001 cycles:   42855341 heartbeat IPC: 1.95277 cumulative IPC: 1.98342 (Simulation time: 0 hr 2 min 25 sec) 
Heartbeat CPU  0 instructions:   86000002 cycles:   43368828 heartbeat IPC: 1.94747 cumulative IPC: 1.98299 (Simulation time: 0 hr 2 min 27 sec) 
Heartbeat CPU  0 instructions:   87000003 cycles:   43880660 heartbeat IPC: 1.95377 cumulative IPC: 1.98265 (Simulation time: 0 hr 2 min 29 sec) 
Heartbeat CPU  0 instructions:   88000000 cycles:   44392792 heartbeat IPC: 1.95262 cumulative IPC: 1.98230 (Simulation time: 0 hr 2 min 30 sec) 
Heartbeat CPU  0 instructions:   89000002 cycles:   44906519 heartbeat IPC: 1.94656 cumulative IPC: 1.98189 (Simulation time: 0 hr 2 min 32 sec) 
Heartbeat CPU  0 instructions:   90000003 cycles:   45418620 heartbeat IPC: 1.95274 cumulative IPC: 1.98157 (Simulation time: 0 hr 2 min 33 sec) 
Heartbeat CPU  0 instructions:   91000002 cycles:   45929365 heartbeat IPC: 1.95792 cumulative IPC: 1.98130 (Simulation time: 0 hr 2 min 35 sec) 
Heartbeat CPU  0 instructions:   92000000 cycles:   46441957 heartbeat IPC: 1.95087 cumulative IPC: 1.98097 (Simulation time: 0 hr 2 min 37 sec) 
Heartbeat CPU  0 instructions:   93000001 cycles:   46953122 heartbeat IPC: 1.95632 cumulative IPC: 1.98070 (Simulation time: 0 hr 2 min 38 sec) 
Heartbeat CPU  0 instructions:   94000003 cycles:   47464662 heartbeat IPC: 1.95489 cumulative IPC: 1.98042 (Simulation time: 0 hr 2 min 40 sec) 
Heartbeat CPU  0 instructions:   95000003 cycles:   47978486 heartbeat IPC: 1.94619 cumulative IPC: 1.98005 (Simulation time: 0 hr 2 min 42 sec) 
Heartbeat CPU  0 instructions:   96000000 cycles:   48490863 heartbeat IPC: 1.95168 cumulative IPC: 1.97975 (Simulation time: 0 hr 2 min 43 sec) 
Heartbeat CPU  0 instructions:   97000002 cycles:   49002330 heartbeat IPC: 1.95516 cumulative IPC: 1.97950 (Simulation time: 0 hr 2 min 45 sec) 
Heartbeat CPU  0 instructions:   98000000 cycles:   49515417 heartbeat IPC: 1.94898 cumulative IPC: 1.97918 (Simulation time: 0 hr 2 min 46 sec) 
Heartbeat CPU  0 instructions:   99000000 cycles:   50027393 heartbeat IPC: 1.95322 cumulative IPC: 1.97892 (Simulation time: 0 hr 2 min 48 sec) 
Heartbeat CPU  0 instructions:  100000000 cycles:   50563799 heartbeat IPC: 1.86426 cumulative IPC: 1.97770 (Simulation time: 0 hr 2 min 50 sec) 

Warmup complete CPU  0 instructions:  100000001 cycles:   50563820 (Simulation time: 0 hr 2 min 50 sec) 

Heartbeat CPU  0 instructions:  101000003 cycles:   52797155 heartbeat IPC: 0.44776 cumulative IPC: 0.44776 (Simulation time: 0 hr 2 min 53 sec) 
Heartbeat CPU  0 instructions:  102000001 cycles:   57307811 heartbeat IPC: 0.22170 cumulative IPC: 0.29656 (Simulation time: 0 hr 2 min 57 sec) 
Heartbeat CPU  0 instructions:  103000002 cycles:   60406756 heartbeat IPC: 0.32269 cumulative IPC: 0.30479 (Simulation time: 0 hr 3 min 0 sec) 
Heartbeat CPU  0 instructions:  104000000 cycles:   61425503 heartbeat IPC: 0.98160 cumulative IPC: 0.36827 (Simulation time: 0 hr 3 min 3 sec) 
Heartbeat CPU  0 instructions:  105000002 cycles:   62530124 heartbeat IPC: 0.90529 cumulative IPC: 0.41784 (Simulation time: 0 hr 3 min 5 sec) 
Heartbeat CPU  0 instructions:  106000003 cycles:   63557892 heartbeat IPC: 0.97298 cumulative IPC: 0.46175 (Simulation time: 0 hr 3 min 7 sec) 
Heartbeat CPU  0 instructions:  107000000 cycles:   64598721 heartbeat IPC: 0.96077 cumulative IPC: 0.49876 (Simulation time: 0 hr 3 min 10 sec) 
Heartbeat CPU  0 instructions:  108000000 cycles:   65602644 heartbeat IPC: 0.99609 cumulative IPC: 0.53196 (Simulation time: 0 hr 3 min 12 sec) 
Heartbeat CPU  0 instructions:  109000001 cycles:   66654130 heartbeat IPC: 0.95104 cumulative IPC: 0.55934 (Simulation time: 0 hr 3 min 14 sec) 
Heartbeat CPU  0 instructions:  110000001 cycles:   67855215 heartbeat IPC: 0.83258 cumulative IPC: 0.57832 (Simulation time: 0 hr 3 min 17 sec) 
Heartbeat CPU  0 instructions:  111000001 cycles:   68960852 heartbeat IPC: 0.90446 cumulative IPC: 0.59792 (Simulation time: 0 hr 3 min 19 sec) 
Heartbeat CPU  0 instructions:  112000000 cycles:   70113919 heartbeat IPC: 0.86725 cumulative IPC: 0.61381 (Simulation time: 0 hr 3 min 21 sec) 
Heartbeat CPU  0 instructions:  113000003 cycles:   71216784 heartbeat IPC: 0.90673 cumulative IPC: 0.62945 (Simulation time: 0 hr 3 min 24 sec) 
Heartbeat CPU  0 instructions:  114000001 cycles:   72322192 heartbeat IPC: 0.90464 cumulative IPC: 0.64343 (Simulation time: 0 hr 3 min 26 sec) 
Heartbeat CPU  0 instructions:  115000001 cycles:   73461571 heartbeat IPC: 0.87767 cumulative IPC: 0.65509 (Simulation time: 0 hr 3 min 28 sec) 
Heartbeat CPU  0 instructions:  116000000 cycles:   74600233 heartbeat IPC: 0.87822 cumulative IPC: 0.66566 (Simulation time: 0 hr 3 min 30 sec) 
Heartbeat CPU  0 instructions:  117000000 cycles:   75400576 heartbeat IPC: 1.24946 cumulative IPC: 0.68447 (Simulation time: 0 hr 3 min 33 sec) 
Heartbeat CPU  0 instructions:  118000003 cycles:   76356706 heartbeat IPC: 1.04589 cumulative IPC: 0.69787 (Simulation time: 0 hr 3 min 35 sec) 
Heartbeat CPU  0 instructions:  119000000 cycles:   77436395 heartbeat IPC: 0.92619 cumulative IPC: 0.70704 (Simulation time: 0 hr 3 min 37 sec) 
Heartbeat CPU  0 instructions:  120000000 cycles:   78242203 heartbeat IPC: 1.24099 cumulative IPC: 0.72259 (Simulation time: 0 hr 3 min 39 sec) 
Heartbeat CPU  0 instructions:  121000001 cycles:   79049004 heartbeat IPC: 1.23946 cumulative IPC: 0.73723 (Simulation time: 0 hr 3 min 41 sec) 
Heartbeat CPU  0 instructions:  122000002 cycles:   79855075 heartbeat IPC: 1.24059 cumulative IPC: 0.75108 (Simulation time: 0 hr 3 min 43 sec) 
Heartbeat CPU  0 instructions:  123000000 cycles:   80662474 heartbeat IPC: 1.23854 cumulative IPC: 0.76415 (Simulation time: 0 hr 3 min 45 sec) 
Heartbeat CPU  0 instructions:  124000000 cycles:   81468472 heartbeat IPC: 1.24070 cumulative IPC: 0.77658 (Simulation time: 0 hr 3 min 47 sec) 
Heartbeat CPU  0 instructions:  125000002 cycles:   82274318 heartbeat IPC: 1.24093 cumulative IPC: 0.78838 (Simulation time: 0 hr 3 min 49 sec) 
Heartbeat CPU  0 instructions:  126000001 cycles:   83086758 heartbeat IPC: 1.23086 cumulative IPC: 0.79944 (Simulation time: 0 hr 3 min 51 sec) 
Heartbeat CPU  0 instructions:  127000003 cycles:   83968829 heartbeat IPC: 1.13370 cumulative IPC: 0.80826 (Simulation time: 0 hr 3 min 53 sec) 
Heartbeat CPU  0 instructions:  128000000 cycles:   85017302 heartbeat IPC: 0.95377 cumulative IPC: 0.81269 (Simulation time: 0 hr 3 min 55 sec) 
Heartbeat CPU  0 instructions:  129000001 cycles:   85926592 heartbeat IPC: 1.09976 cumulative IPC: 0.82007 (Simulation time: 0 hr 3 min 58 sec) 
Heartbeat CPU  0 instructions:  130000003 cycles:   86740838 heartbeat IPC: 1.22813 cumulative IPC: 0.82926 (Simulation time: 0 hr 4 min 0 sec) 
Heartbeat CPU  0 instructions:  131000000 cycles:   87547566 heartbeat IPC: 1.23957 cumulative IPC: 0.83821 (Simulation time: 0 hr 4 min 2 sec) 
Heartbeat CPU  0 instructions:  132000000 cycles:   88471707 heartbeat IPC: 1.08209 cumulative IPC: 0.84415 (Simulation time: 0 hr 4 min 4 sec) 
Heartbeat CPU  0 instructions:  133000000 cycles:   89530390 heartbeat IPC: 0.94457 cumulative IPC: 0.84688 (Simulation time: 0 hr 4 min 6 sec) 
Heartbeat CPU  0 instructions:  134000003 cycles:   90360069 heartbeat IPC: 1.20529 cumulative IPC: 0.85435 (Simulation time: 0 hr 4 min 8 sec) 
Heartbeat CPU  0 instructions:  135000003 cycles:   91167091 heartbeat IPC: 1.23912 cumulative IPC: 0.86200 (Simulation time: 0 hr 4 min 10 sec) 
Heartbeat CPU  0 instructions:  136000000 cycles:   91972626 heartbeat IPC: 1.24141 cumulative IPC: 0.86938 (Simulation time: 0 hr 4 min 12 sec) 
Heartbeat CPU  0 instructions:  137000003 cycles:   92779964 heartbeat IPC: 1.23864 cumulative IPC: 0.87644 (Simulation time: 0 hr 4 min 14 sec) 
Heartbeat CPU  0 instructions:  138000002 cycles:   93587396 heartbeat IPC: 1.23849 cumulative IPC: 0.88324 (Simulation time: 0 hr 4 min 16 sec) 
Heartbeat CPU  0 instructions:  139000002 cycles:   94395204 heartbeat IPC: 1.23792 cumulative IPC: 0.88977 (Simulation time: 0 hr 4 min 18 sec) 
Heartbeat CPU  0 instructions:  140000000 cycles:   95201319 heartbeat IPC: 1.24052 cumulative IPC: 0.89611 (Simulation time: 0 hr 4 min 20 sec) 
Heartbeat CPU  0 instructions:  141000000 cycles:   96015071 heartbeat IPC: 1.22888 cumulative IPC: 0.90207 (Simulation time: 0 hr 4 min 22 sec) 
Heartbeat CPU  0 instructions:  142000000 cycles:   97086290 heartbeat IPC: 0.93352 cumulative IPC: 0.90279 (Simulation time: 0 hr 4 min 24 sec) 
Heartbeat CPU  0 instructions:  143000003 cycles:   98024854 heartbeat IPC: 1.06546 cumulative IPC: 0.90601 (Simulation time: 0 hr 4 min 27 sec) 
Heartbeat CPU  0 instructions:  144000000 cycles:   98836980 heartbeat IPC: 1.23133 cumulative IPC: 0.91148 (Simulation time: 0 hr 4 min 29 sec) 
Heartbeat CPU  0 instructions:  145000001 cycles:   99644328 heartbeat IPC: 1.23862 cumulative IPC: 0.91686 (Simulation time: 0 hr 4 min 31 sec) 
Heartbeat CPU  0 instructions:  146000003 cycles:  100494976 heartbeat IPC: 1.17558 cumulative IPC: 0.92127 (Simulation time: 0 hr 4 min 33 sec) 
Heartbeat CPU  0 instructions:  147000000 cycles:  101463231 heartbeat IPC: 1.03278 cumulative IPC: 0.92339 (Simulation time: 0 hr 4 min 35 sec) 
Heartbeat CPU  0 instructions:  148000000 cycles:  102299596 heartbeat IPC: 1.19565 cumulative IPC: 0.92779 (Simulation time: 0 hr 4 min 37 sec) 
Heartbeat CPU  0 instructions:  149000003 cycles:  103106875 heartbeat IPC: 1.23873 cumulative IPC: 0.93257 (Simulation time: 0 hr 4 min 39 sec) 
Heartbeat CPU  0 instructions:  150000003 cycles:  103913293 heartbeat IPC: 1.24005 cumulative IPC: 0.93722 (Simulation time: 0 hr 4 min 41 sec) 
Heartbeat CPU  0 instructions:  151000000 cycles:  104718862 heartbeat IPC: 1.24135 cumulative IPC: 0.94174 (Simulation time: 0 hr 4 min 43 sec) 
Heartbeat CPU  0 instructions:  152000000 cycles:  105524871 heartbeat IPC: 1.24068 cumulative IPC: 0.94612 (Simulation time: 0 hr 4 min 45 sec) 
Heartbeat CPU  0 instructions:  153000002 cycles:  106332927 heartbeat IPC: 1.23754 cumulative IPC: 0.95035 (Simulation time: 0 hr 4 min 47 sec) 
Heartbeat CPU  0 instructions:  154000002 cycles:  107139346 heartbeat IPC: 1.24005 cumulative IPC: 0.95448 (Simulation time: 0 hr 4 min 49 sec) 
Heartbeat CPU  0 instructions:  155000001 cycles:  107947077 heartbeat IPC: 1.23803 cumulative IPC: 0.95847 (Simulation time: 0 hr 4 min 51 sec) 
Heartbeat CPU  0 instructions:  156000000 cycles:  108880828 heartbeat IPC: 1.07095 cumulative IPC: 0.96027 (Simulation time: 0 hr 4 min 54 sec) 
Heartbeat CPU  0 instructions:  157000000 cycles:  109789546 heartbeat IPC: 1.10045 cumulative IPC: 0.96242 (Simulation time: 0 hr 4 min 56 sec) 
Heartbeat CPU  0 instructions:  158000001 cycles:  110597162 heartbeat IPC: 1.23821 cumulative IPC: 0.96613 (Simulation time: 0 hr 4 min 58 sec) 
Heartbeat CPU  0 instructions:  159000003 cycles:  111405319 heartbeat IPC: 1.23739 cumulative IPC: 0.96973 (Simulation time: 0 hr 5 min 0 sec) 
Heartbeat CPU  0 instructions:  160000000 cycles:  112211329 heartbeat IPC: 1.24068 cumulative IPC: 0.97328 (Simulation time: 0 hr 5 min 2 sec) 
Heartbeat CPU  0 instructions:  161000001 cycles:  113079005 heartbeat IPC: 1.15251 cumulative IPC: 0.97576 (Simulation time: 0 hr 5 min 4 sec) 
Heartbeat CPU  0 instructions:  162000000 cycles:  113911579 heartbeat IPC: 1.20109 cumulative IPC: 0.97872 (Simulation time: 0 hr 5 min 6 sec) 
Heartbeat CPU  0 instructions:  163000003 cycles:  114723326 heartbeat IPC: 1.23191 cumulative IPC: 0.98193 (Simulation time: 0 hr 5 min 8 sec) 
Heartbeat CPU  0 instructions:  164000000 cycles:  115534601 heartbeat IPC: 1.23262 cumulative IPC: 0.98506 (Simulation time: 0 hr 5 min 10 sec) 
Heartbeat CPU  0 instructions:  165000000 cycles:  116341731 heartbeat IPC: 1.23896 cumulative IPC: 0.98817 (Simulation time: 0 hr 5 min 12 sec) 
Heartbeat CPU  0 instructions:  166000000 cycles:  117148568 heartbeat IPC: 1.23941 cumulative IPC: 0.99122 (Simulation time: 0 hr 5 min 14 sec) 
Heartbeat CPU  0 instructions:  167000003 cycles:  117954983 heartbeat IPC: 1.24006 cumulative IPC: 0.99420 (Simulation time: 0 hr 5 min 16 sec) 
Heartbeat CPU  0 instructions:  168000000 cycles:  118763171 heartbeat IPC: 1.23733 cumulative IPC: 0.99708 (Simulation time: 0 hr 5 min 18 sec) 
Heartbeat CPU  0 instructions:  169000003 cycles:  119573507 heartbeat IPC: 1.23406 cumulative IPC: 0.99986 (Simulation time: 0 hr 5 min 20 sec) 
Heartbeat CPU  0 instructions:  170000001 cycles:  120402191 heartbeat IPC: 1.20673 cumulative IPC: 1.00231 (Simulation time: 0 hr 5 min 23 sec) 
Heartbeat CPU  0 instructions:  171000002 cycles:  121247836 heartbeat IPC: 1.18253 cumulative IPC: 1.00447 (Simulation time: 0 hr 5 min 25 sec) 
Heartbeat CPU  0 instructions:  172000000 cycles:  122053385 heartbeat IPC: 1.24139 cumulative IPC: 1.00714 (Simulation time: 0 hr 5 min 27 sec) 
Heartbeat CPU  0 instructions:  173000002 cycles:  122860403 heartbeat IPC: 1.23913 cumulative IPC: 1.00973 (Simulation time: 0 hr 5 min 29 sec) 
Heartbeat CPU  0 instructions:  174000000 cycles:  123675676 heartbeat IPC: 1.22658 cumulative IPC: 1.01215 (Simulation time: 0 hr 5 min 31 sec) 
Heartbeat CPU  0 instructions:  175000001 cycles:  124494357 heartbeat IPC: 1.22148 cumulative IPC: 1.01447 (Simulation time: 0 hr 5 min 33 sec) 
Heartbeat CPU  0 instructions:  176000000 cycles:  125316509 heartbeat IPC: 1.21632 cumulative IPC: 1.01669 (Simulation time: 0 hr 5 min 35 sec) 
Heartbeat CPU  0 instructions:  177000000 cycles:  126124528 heartbeat IPC: 1.23759 cumulative IPC: 1.01905 (Simulation time: 0 hr 5 min 37 sec) 
Heartbeat CPU  0 instructions:  178000003 cycles:  126931798 heartbeat IPC: 1.23875 cumulative IPC: 1.02137 (Simulation time: 0 hr 5 min 39 sec) 
Heartbeat CPU  0 instructions:  179000000 cycles:  127742899 heartbeat IPC: 1.23289 cumulative IPC: 1.02359 (Simulation time: 0 hr 5 min 41 sec) 
Heartbeat CPU  0 instructions:  180000000 cycles:  128549223 heartbeat IPC: 1.24020 cumulative IPC: 1.02583 (Simulation time: 0 hr 5 min 43 sec) 
Heartbeat CPU  0 instructions:  181000003 cycles:  129356360 heartbeat IPC: 1.23895 cumulative IPC: 1.02802 (Simulation time: 0 hr 5 min 45 sec) 
Heartbeat CPU  0 instructions:  182000003 cycles:  130162862 heartbeat IPC: 1.23992 cumulative IPC: 1.03016 (Simulation time: 0 hr 5 min 47 sec) 
Heartbeat CPU  0 instructions:  183000003 cycles:  130969721 heartbeat IPC: 1.23937 cumulative IPC: 1.03226 (Simulation time: 0 hr 5 min 49 sec) 
Heartbeat CPU  0 instructions:  184000000 cycles:  131777843 heartbeat IPC: 1.23743 cumulative IPC: 1.03430 (Simulation time: 0 hr 5 min 51 sec) 
Heartbeat CPU  0 instructions:  185000002 cycles:  132610044 heartbeat IPC: 1.20164 cumulative IPC: 1.03600 (Simulation time: 0 hr 5 min 54 sec) 
Heartbeat CPU  0 instructions:  186000002 cycles:  133416615 heartbeat IPC: 1.23982 cumulative IPC: 1.03799 (Simulation time: 0 hr 5 min 56 sec) 
Heartbeat CPU  0 instructions:  187000001 cycles:  134489288 heartbeat IPC: 0.93225 cumulative IPC: 1.03663 (Simulation time: 0 hr 5 min 58 sec) 
Heartbeat CPU  0 instructions:  188000000 cycles:  135499426 heartbeat IPC: 0.98996 cumulative IPC: 1.03608 (Simulation time: 0 hr 6 min 0 sec) 
Heartbeat CPU  0 instructions:  189000000 cycles:  136487139 heartbeat IPC: 1.01244 cumulative IPC: 1.03581 (Simulation time: 0 hr 6 min 2 sec) 
Heartbeat CPU  0 instructions:  190000000 cycles:  137490620 heartbeat IPC: 0.99653 cumulative IPC: 1.03535 (Simulation time: 0 hr 6 min 4 sec) 
Heartbeat CPU  0 instructions:  191000003 cycles:  138504928 heartbeat IPC: 0.98590 cumulative IPC: 1.03478 (Simulation time: 0 hr 6 min 6 sec) 
Heartbeat CPU  0 instructions:  192000000 cycles:  139515133 heartbeat IPC: 0.98990 cumulative IPC: 1.03427 (Simulation time: 0 hr 6 min 8 sec) 
Heartbeat CPU  0 instructions:  193000003 cycles:  140541400 heartbeat IPC: 0.97441 cumulative IPC: 1.03359 (Simulation time: 0 hr 6 min 10 sec) 
Heartbeat CPU  0 instructions:  194000001 cycles:  141561674 heartbeat IPC: 0.98013 cumulative IPC: 1.03299 (Simulation time: 0 hr 6 min 13 sec) 
Heartbeat CPU  0 instructions:  195000003 cycles:  142541748 heartbeat IPC: 1.02033 cumulative IPC: 1.03286 (Simulation time: 0 hr 6 min 15 sec) 
Heartbeat CPU  0 instructions:  196000000 cycles:  143778745 heartbeat IPC: 0.80841 cumulative IPC: 1.02988 (Simulation time: 0 hr 6 min 17 sec) 
Heartbeat CPU  0 instructions:  197000000 cycles:  145097248 heartbeat IPC: 0.75844 cumulative IPC: 1.02609 (Simulation time: 0 hr 6 min 19 sec) 
Heartbeat CPU  0 instructions:  198000002 cycles:  146388877 heartbeat IPC: 0.77422 cumulative IPC: 1.02270 (Simulation time: 0 hr 6 min 21 sec) 
Heartbeat CPU  0 instructions:  199000001 cycles:  147630304 heartbeat IPC: 0.80552 cumulative IPC: 1.01992 (Simulation time: 0 hr 6 min 23 sec) 
Heartbeat CPU  0 instructions:  200000000 cycles:  148881821 heartbeat IPC: 0.79903 cumulative IPC: 1.01711 (Simulation time: 0 hr 6 min 26 sec) 
Heartbeat CPU  0 instructions:  201000001 cycles:  150125788 heartbeat IPC: 0.80388 cumulative IPC: 1.01444 (Simulation time: 0 hr 6 min 28 sec) 
Heartbeat CPU  0 instructions:  202000002 cycles:  151358039 heartbeat IPC: 0.81152 cumulative IPC: 1.01196 (Simulation time: 0 hr 6 min 30 sec) 
Heartbeat CPU  0 instructions:  203000002 cycles:  152539013 heartbeat IPC: 0.84676 cumulative IPC: 1.01005 (Simulation time: 0 hr 6 min 32 sec) 
Heartbeat CPU  0 instructions:  204000000 cycles:  153764869 heartbeat IPC: 0.81575 cumulative IPC: 1.00774 (Simulation time: 0 hr 6 min 34 sec) 
Heartbeat CPU  0 instructions:  205000003 cycles:  155229203 heartbeat IPC: 0.68291 cumulative IPC: 1.00320 (Simulation time: 0 hr 6 min 37 sec) 
Heartbeat CPU  0 instructions:  206000000 cycles:  156640440 heartbeat IPC: 0.70860 cumulative IPC: 0.99928 (Simulation time: 0 hr 6 min 39 sec) 
Heartbeat CPU  0 instructions:  207000001 cycles:  157921203 heartbeat IPC: 0.78079 cumulative IPC: 0.99667 (Simulation time: 0 hr 6 min 41 sec) 
Heartbeat CPU  0 instructions:  208000000 cycles:  159209083 heartbeat IPC: 0.77647 cumulative IPC: 0.99406 (Simulation time: 0 hr 6 min 43 sec) 
Heartbeat CPU  0 instructions:  209000001 cycles:  160535371 heartbeat IPC: 0.75398 cumulative IPC: 0.99117 (Simulation time: 0 hr 6 min 45 sec) 
Heartbeat CPU  0 instructions:  210000003 cycles:  161844950 heartbeat IPC: 0.76361 cumulative IPC: 0.98849 (Simulation time: 0 hr 6 min 48 sec) 
Heartbeat CPU  0 instructions:  211000001 cycles:  163223329 heartbeat IPC: 0.72549 cumulative IPC: 0.98527 (Simulation time: 0 hr 6 min 50 sec) 
Heartbeat CPU  0 instructions:  212000000 cycles:  164363688 heartbeat IPC: 0.87692 cumulative IPC: 0.98418 (Simulation time: 0 hr 6 min 52 sec) 
Heartbeat CPU  0 instructions:  213000001 cycles:  165829235 heartbeat IPC: 0.68234 cumulative IPC: 0.98035 (Simulation time: 0 hr 6 min 54 sec) 
Heartbeat CPU  0 instructions:  214000002 cycles:  167480219 heartbeat IPC: 0.60570 cumulative IPC: 0.97506 (Simulation time: 0 hr 6 min 57 sec) 
Heartbeat CPU  0 instructions:  215000002 cycles:  169143274 heartbeat IPC: 0.60130 cumulative IPC: 0.96981 (Simulation time: 0 hr 7 min 0 sec) 
Heartbeat CPU  0 instructions:  216000000 cycles:  170762309 heartbeat IPC: 0.61765 cumulative IPC: 0.96507 (Simulation time: 0 hr 7 min 2 sec) 
Heartbeat CPU  0 instructions:  217000002 cycles:  172354605 heartbeat IPC: 0.62803 cumulative IPC: 0.96066 (Simulation time: 0 hr 7 min 5 sec) 
Heartbeat CPU  0 instructions:  218000003 cycles:  174039109 heartbeat IPC: 0.59365 cumulative IPC: 0.95566 (Simulation time: 0 hr 7 min 8 sec) 
Heartbeat CPU  0 instructions:  219000000 cycles:  175609675 heartbeat IPC: 0.63671 cumulative IPC: 0.95165 (Simulation time: 0 hr 7 min 10 sec) 
Heartbeat CPU  0 instructions:  220000000 cycles:  177235184 heartbeat IPC: 0.61519 cumulative IPC: 0.94733 (Simulation time: 0 hr 7 min 13 sec) 
Heartbeat CPU  0 instructions:  221000000 cycles:  178808878 heartbeat IPC: 0.63545 cumulative IPC: 0.94351 (Simulation time: 0 hr 7 min 16 sec) 
Heartbeat CPU  0 instructions:  222000001 cycles:  180439885 heartbeat IPC: 0.61312 cumulative IPC: 0.93936 (Simulation time: 0 hr 7 min 18 sec) 
Heartbeat CPU  0 instructions:  223000000 cycles:  181962674 heartbeat IPC: 0.65669 cumulative IPC: 0.93608 (Simulation time: 0 hr 7 min 21 sec) 
Heartbeat CPU  0 instructions:  224000000 cycles:  183620701 heartbeat IPC: 0.60313 cumulative IPC: 0.93193 (Simulation time: 0 hr 7 min 24 sec) 
Heartbeat CPU  0 instructions:  225000002 cycles:  185200088 heartbeat IPC: 0.63316 cumulative IPC: 0.92843 (Simulation time: 0 hr 7 min 26 sec) 
Heartbeat CPU  0 instructions:  226000003 cycles:  186842266 heartbeat IPC: 0.60895 cumulative IPC: 0.92458 (Simulation time: 0 hr 7 min 29 sec) 
Heartbeat CPU  0 instructions:  227000002 cycles:  188416780 heartbeat IPC: 0.63512 cumulative IPC: 0.92127 (Simulation time: 0 hr 7 min 32 sec) 
Heartbeat CPU  0 instructions:  228000000 cycles:  190005079 heartbeat IPC: 0.62960 cumulative IPC: 0.91795 (Simulation time: 0 hr 7 min 34 sec) 
Heartbeat CPU  0 instructions:  229000002 cycles:  191577445 heartbeat IPC: 0.63599 cumulative IPC: 0.91481 (Simulation time: 0 hr 7 min 37 sec) 
Heartbeat CPU  0 instructions:  230000000 cycles:  193168303 heartbeat IPC: 0.62859 cumulative IPC: 0.91161 (Simulation time: 0 hr 7 min 40 sec) 
Heartbeat CPU  0 instructions:  231000001 cycles:  194769808 heartbeat IPC: 0.62441 cumulative IPC: 0.90842 (Simulation time: 0 hr 7 min 42 sec) 
Heartbeat CPU  0 instructions:  232000000 cycles:  196358772 heartbeat IPC: 0.62934 cumulative IPC: 0.90538 (Simulation time: 0 hr 7 min 45 sec) 
Heartbeat CPU  0 instructions:  233000001 cycles:  197952318 heartbeat IPC: 0.62753 cumulative IPC: 0.90238 (Simulation time: 0 hr 7 min 48 sec) 
Heartbeat CPU  0 instructions:  234000002 cycles:  199517354 heartbeat IPC: 0.63896 cumulative IPC: 0.89961 (Simulation time: 0 hr 7 min 50 sec) 
Heartbeat CPU  0 instructions:  235000002 cycles:  201135338 heartbeat IPC: 0.61805 cumulative IPC: 0.89658 (Simulation time: 0 hr 7 min 53 sec) 
Heartbeat CPU  0 instructions:  236000000 cycles:  202679241 heartbeat IPC: 0.64771 cumulative IPC: 0.89406 (Simulation time: 0 hr 7 min 56 sec) 
Heartbeat CPU  0 instructions:  237000003 cycles:  204315933 heartbeat IPC: 0.61099 cumulative IPC: 0.89104 (Simulation time: 0 hr 7 min 58 sec) 
Heartbeat CPU  0 instructions:  238000003 cycles:  205840858 heartbeat IPC: 0.65577 cumulative IPC: 0.88873 (Simulation time: 0 hr 8 min 1 sec) 
Heartbeat CPU  0 instructions:  239000000 cycles:  207466843 heartbeat IPC: 0.61501 cumulative IPC: 0.88590 (Simulation time: 0 hr 8 min 4 sec) 
Heartbeat CPU  0 instructions:  240000000 cycles:  209004055 heartbeat IPC: 0.65053 cumulative IPC: 0.88361 (Simulation time: 0 hr 8 min 6 sec) 
Heartbeat CPU  0 instructions:  241000000 cycles:  210646562 heartbeat IPC: 0.60883 cumulative IPC: 0.88079 (Simulation time: 0 hr 8 min 9 sec) 
Heartbeat CPU  0 instructions:  242000001 cycles:  212214015 heartbeat IPC: 0.63798 cumulative IPC: 0.87844 (Simulation time: 0 hr 8 min 11 sec) 
Heartbeat CPU  0 instructions:  243000000 cycles:  213836344 heartbeat IPC: 0.61640 cumulative IPC: 0.87584 (Simulation time: 0 hr 8 min 14 sec) 
Heartbeat CPU  0 instructions:  244000000 cycles:  215396690 heartbeat IPC: 0.64088 cumulative IPC: 0.87361 (Simulation time: 0 hr 8 min 17 sec) 
Heartbeat CPU  0 instructions:  245000002 cycles:  217009355 heartbeat IPC: 0.62009 cumulative IPC: 0.87116 (Simulation time: 0 hr 8 min 19 sec) 
Heartbeat CPU  0 instructions:  246000003 cycles:  218578364 heartbeat IPC: 0.63735 cumulative IPC: 0.86897 (Simulation time: 0 hr 8 min 22 sec) 
Heartbeat CPU  0 instructions:  247000003 cycles:  220180120 heartbeat IPC: 0.62431 cumulative IPC: 0.86666 (Simulation time: 0 hr 8 min 25 sec) 
Heartbeat CPU  0 instructions:  248000000 cycles:  221814023 heartbeat IPC: 0.61203 cumulative IPC: 0.86423 (Simulation time: 0 hr 8 min 28 sec) 
Heartbeat CPU  0 instructions:  249000003 cycles:  223453118 heartbeat IPC: 0.61009 cumulative IPC: 0.86182 (Simulation time: 0 hr 8 min 30 sec) 
Heartbeat CPU  0 instructions:  250000000 cycles:  225089887 heartbeat IPC: 0.61096 cumulative IPC: 0.85947 (Simulation time: 0 hr 8 min 33 sec) 
Heartbeat CPU  0 instructions:  251000000 cycles:  226398041 heartbeat IPC: 0.76444 cumulative IPC: 0.85876 (Simulation time: 0 hr 8 min 35 sec) 
Heartbeat CPU  0 instructions:  252000000 cycles:  227254696 heartbeat IPC: 1.16733 cumulative IPC: 0.86026 (Simulation time: 0 hr 8 min 38 sec) 
Heartbeat CPU  0 instructions:  253000002 cycles:  228128961 heartbeat IPC: 1.14382 cumulative IPC: 0.86166 (Simulation time: 0 hr 8 min 40 sec) 
Heartbeat CPU  0 instructions:  254000003 cycles:  229002250 heartbeat IPC: 1.14510 cumulative IPC: 0.86304 (Simulation time: 0 hr 8 min 42 sec) 
Heartbeat CPU  0 instructions:  255000000 cycles:  229879972 heartbeat IPC: 1.13931 cumulative IPC: 0.86440 (Simulation time: 0 hr 8 min 44 sec) 
Heartbeat CPU  0 instructions:  256000000 cycles:  230742095 heartbeat IPC: 1.15993 cumulative IPC: 0.86581 (Simulation time: 0 hr 8 min 46 sec) 
Heartbeat CPU  0 instructions:  257000000 cycles:  231591239 heartbeat IPC: 1.17766 cumulative IPC: 0.86727 (Simulation time: 0 hr 8 min 48 sec) 
Heartbeat CPU  0 instructions:  258000002 cycles:  232451337 heartbeat IPC: 1.16266 cumulative IPC: 0.86867 (Simulation time: 0 hr 8 min 50 sec) 
Heartbeat CPU  0 instructions:  259000000 cycles:  233313989 heartbeat IPC: 1.15921 cumulative IPC: 0.87004 (Simulation time: 0 hr 8 min 53 sec) 
Heartbeat CPU  0 instructions:  260000000 cycles:  234179763 heartbeat IPC: 1.15504 cumulative IPC: 0.87138 (Simulation time: 0 hr 8 min 55 sec) 
Heartbeat CPU  0 instructions:  261000001 cycles:  235047387 heartbeat IPC: 1.15257 cumulative IPC: 0.87271 (Simulation time: 0 hr 8 min 57 sec) 
Heartbeat CPU  0 instructions:  262000000 cycles:  235961632 heartbeat IPC: 1.09380 cumulative IPC: 0.87380 (Simulation time: 0 hr 8 min 59 sec) 
Heartbeat CPU  0 instructions:  263000002 cycles:  236880222 heartbeat IPC: 1.08863 cumulative IPC: 0.87486 (Simulation time: 0 hr 9 min 1 sec) 
Heartbeat CPU  0 instructions:  264000000 cycles:  237803854 heartbeat IPC: 1.08268 cumulative IPC: 0.87588 (Simulation time: 0 hr 9 min 3 sec) 
Heartbeat CPU  0 instructions:  265000002 cycles:  238729585 heartbeat IPC: 1.08023 cumulative IPC: 0.87689 (Simulation time: 0 hr 9 min 5 sec) 
Heartbeat CPU  0 instructions:  266000000 cycles:  239682177 heartbeat IPC: 1.04977 cumulative IPC: 0.87776 (Simulation time: 0 hr 9 min 8 sec) 
Heartbeat CPU  0 instructions:  267000000 cycles:  240587523 heartbeat IPC: 1.10455 cumulative IPC: 0.87884 (Simulation time: 0 hr 9 min 10 sec) 
Heartbeat CPU  0 instructions:  268000000 cycles:  241503073 heartbeat IPC: 1.09224 cumulative IPC: 0.87986 (Simulation time: 0 hr 9 min 12 sec) 
Heartbeat CPU  0 instructions:  269000000 cycles:  242405442 heartbeat IPC: 1.10819 cumulative IPC: 0.88094 (Simulation time: 0 hr 9 min 14 sec) 
Heartbeat CPU  0 instructions:  270000003 cycles:  243318279 heartbeat IPC: 1.09549 cumulative IPC: 0.88195 (Simulation time: 0 hr 9 min 16 sec) 
Heartbeat CPU  0 instructions:  271000000 cycles:  244213188 heartbeat IPC: 1.11743 cumulative IPC: 0.88304 (Simulation time: 0 hr 9 min 18 sec) 
Heartbeat CPU  0 instructions:  272000000 cycles:  245134067 heartbeat IPC: 1.08592 cumulative IPC: 0.88400 (Simulation time: 0 hr 9 min 20 sec) 
Heartbeat CPU  0 instructions:  273000000 cycles:  246091213 heartbeat IPC: 1.04477 cumulative IPC: 0.88479 (Simulation time: 0 hr 9 min 22 sec) 
Heartbeat CPU  0 instructions:  274000002 cycles:  246988001 heartbeat IPC: 1.11509 cumulative IPC: 0.88584 (Simulation time: 0 hr 9 min 25 sec) 
Heartbeat CPU  0 instructions:  275000000 cycles:  247896523 heartbeat IPC: 1.10069 cumulative IPC: 0.88683 (Simulation time: 0 hr 9 min 27 sec) 
Heartbeat CPU  0 instructions:  276000000 cycles:  248793022 heartbeat IPC: 1.11545 cumulative IPC: 0.88786 (Simulation time: 0 hr 9 min 29 sec) 
Heartbeat CPU  0 instructions:  277000002 cycles:  249751504 heartbeat IPC: 1.04332 cumulative IPC: 0.88861 (Simulation time: 0 hr 9 min 31 sec) 
Heartbeat CPU  0 instructions:  278000002 cycles:  250644790 heartbeat IPC: 1.11946 cumulative IPC: 0.88964 (Simulation time: 0 hr 9 min 33 sec) 
Heartbeat CPU  0 instructions:  279000000 cycles:  251558923 heartbeat IPC: 1.09393 cumulative IPC: 0.89057 (Simulation time: 0 hr 9 min 35 sec) 
Heartbeat CPU  0 instructions:  280000000 cycles:  252469073 heartbeat IPC: 1.09872 cumulative IPC: 0.89151 (Simulation time: 0 hr 9 min 37 sec) 
Heartbeat CPU  0 instructions:  281000002 cycles:  253378487 heartbeat IPC: 1.09961 cumulative IPC: 0.89244 (Simulation time: 0 hr 9 min 40 sec) 
Heartbeat CPU  0 instructions:  282000002 cycles:  254302314 heartbeat IPC: 1.08245 cumulative IPC: 0.89330 (Simulation time: 0 hr 9 min 42 sec) 
Heartbeat CPU  0 instructions:  283000001 cycles:  255249399 heartbeat IPC: 1.05587 cumulative IPC: 0.89405 (Simulation time: 0 hr 9 min 44 sec) 
Heartbeat CPU  0 instructions:  284000000 cycles:  256191817 heartbeat IPC: 1.06110 cumulative IPC: 0.89482 (Simulation time: 0 hr 9 min 46 sec) 
Heartbeat CPU  0 instructions:  285000003 cycles:  257120225 heartbeat IPC: 1.07712 cumulative IPC: 0.89564 (Simulation time: 0 hr 9 min 48 sec) 
Heartbeat CPU  0 instructions:  286000003 cycles:  258049513 heartbeat IPC: 1.07609 cumulative IPC: 0.89645 (Simulation time: 0 hr 9 min 50 sec) 
Heartbeat CPU  0 instructions:  287000003 cycles:  258981776 heartbeat IPC: 1.07266 cumulative IPC: 0.89724 (Simulation time: 0 hr 9 min 52 sec) 
Heartbeat CPU  0 instructions:  288000000 cycles:  259903134 heartbeat IPC: 1.08535 cumulative IPC: 0.89806 (Simulation time: 0 hr 9 min 55 sec) 
Heartbeat CPU  0 instructions:  289000001 cycles:  260816656 heartbeat IPC: 1.09467 cumulative IPC: 0.89892 (Simulation time: 0 hr 9 min 57 sec) 
Heartbeat CPU  0 instructions:  290000003 cycles:  261742946 heartbeat IPC: 1.07958 cumulative IPC: 0.89971 (Simulation time: 0 hr 9 min 59 sec) 
Heartbeat CPU  0 instructions:  291000003 cycles:  262637989 heartbeat IPC: 1.11726 cumulative IPC: 0.90063 (Simulation time: 0 hr 10 min 1 sec) 
Heartbeat CPU  0 instructions:  292000000 cycles:  263560322 heartbeat IPC: 1.08420 cumulative IPC: 0.90142 (Simulation time: 0 hr 10 min 3 sec) 
Heartbeat CPU  0 instructions:  293000002 cycles:  264506474 heartbeat IPC: 1.05691 cumulative IPC: 0.90211 (Simulation time: 0 hr 10 min 5 sec) 
Heartbeat CPU  0 instructions:  294000002 cycles:  265476773 heartbeat IPC: 1.03061 cumulative IPC: 0.90269 (Simulation time: 0 hr 10 min 7 sec) 
Heartbeat CPU  0 instructions:  295000001 cycles:  266414393 heartbeat IPC: 1.06653 cumulative IPC: 0.90340 (Simulation time: 0 hr 10 min 9 sec) 
Heartbeat CPU  0 instructions:  296000000 cycles:  267356056 heartbeat IPC: 1.06195 cumulative IPC: 0.90409 (Simulation time: 0 hr 10 min 12 sec) 
Heartbeat CPU  0 instructions:  297000003 cycles:  268278177 heartbeat IPC: 1.08446 cumulative IPC: 0.90486 (Simulation time: 0 hr 10 min 14 sec) 
Heartbeat CPU  0 instructions:  298000002 cycles:  269204281 heartbeat IPC: 1.07979 cumulative IPC: 0.90560 (Simulation time: 0 hr 10 min 16 sec) 
Heartbeat CPU  0 instructions:  299000003 cycles:  270134219 heartbeat IPC: 1.07534 cumulative IPC: 0.90632 (Simulation time: 0 hr 10 min 18 sec) 
Heartbeat CPU  0 instructions:  300000000 cycles:  271062607 heartbeat IPC: 1.07713 cumulative IPC: 0.90703 (Simulation time: 0 hr 10 min 20 sec) 
Heartbeat CPU  0 instructions:  301000000 cycles:  271972392 heartbeat IPC: 1.09916 cumulative IPC: 0.90782 (Simulation time: 0 hr 10 min 22 sec) 
Heartbeat CPU  0 instructions:  302000003 cycles:  272877240 heartbeat IPC: 1.10516 cumulative IPC: 0.90863 (Simulation time: 0 hr 10 min 24 sec) 
Heartbeat CPU  0 instructions:  303000002 cycles:  273813095 heartbeat IPC: 1.06854 cumulative IPC: 0.90930 (Simulation time: 0 hr 10 min 27 sec) 
Heartbeat CPU  0 instructions:  304000000 cycles:  274762293 heartbeat IPC: 1.05352 cumulative IPC: 0.90991 (Simulation time: 0 hr 10 min 29 sec) 
Heartbeat CPU  0 instructions:  305000003 cycles:  275677905 heartbeat IPC: 1.09217 cumulative IPC: 0.91065 (Simulation time: 0 hr 10 min 31 sec) 
Heartbeat CPU  0 instructions:  306000001 cycles:  276599949 heartbeat IPC: 1.08454 cumulative IPC: 0.91136 (Simulation time: 0 hr 10 min 33 sec) 
Heartbeat CPU  0 instructions:  307000001 cycles:  277539386 heartbeat IPC: 1.06447 cumulative IPC: 0.91199 (Simulation time: 0 hr 10 min 35 sec) 
Heartbeat CPU  0 instructions:  308000000 cycles:  278478993 heartbeat IPC: 1.06427 cumulative IPC: 0.91262 (Simulation time: 0 hr 10 min 37 sec) 
Heartbeat CPU  0 instructions:  309000001 cycles:  279429671 heartbeat IPC: 1.05188 cumulative IPC: 0.91320 (Simulation time: 0 hr 10 min 39 sec) 
Heartbeat CPU  0 instructions:  310000000 cycles:  280342140 heartbeat IPC: 1.09593 cumulative IPC: 0.91392 (Simulation time: 0 hr 10 min 41 sec) 
Heartbeat CPU  0 instructions:  311000000 cycles:  281263848 heartbeat IPC: 1.08494 cumulative IPC: 0.91461 (Simulation time: 0 hr 10 min 44 sec) 
Heartbeat CPU  0 instructions:  312000000 cycles:  282162071 heartbeat IPC: 1.11331 cumulative IPC: 0.91538 (Simulation time: 0 hr 10 min 46 sec) 
Heartbeat CPU  0 instructions:  313000003 cycles:  283083281 heartbeat IPC: 1.08553 cumulative IPC: 0.91605 (Simulation time: 0 hr 10 min 48 sec) 
Heartbeat CPU  0 instructions:  314000001 cycles:  284017533 heartbeat IPC: 1.07037 cumulative IPC: 0.91667 (Simulation time: 0 hr 10 min 50 sec) 
Heartbeat CPU  0 instructions:  315000000 cycles:  284957157 heartbeat IPC: 1.06425 cumulative IPC: 0.91726 (Simulation time: 0 hr 10 min 52 sec) 
Heartbeat CPU  0 instructions:  316000000 cycles:  285900383 heartbeat IPC: 1.06019 cumulative IPC: 0.91783 (Simulation time: 0 hr 10 min 54 sec) 
Heartbeat CPU  0 instructions:  317000003 cycles:  286828042 heartbeat IPC: 1.07799 cumulative IPC: 0.91846 (Simulation time: 0 hr 10 min 56 sec) 
Heartbeat CPU  0 instructions:  318000002 cycles:  287777949 heartbeat IPC: 1.05273 cumulative IPC: 0.91900 (Simulation time: 0 hr 10 min 59 sec) 
Heartbeat CPU  0 instructions:  319000002 cycles:  288729993 heartbeat IPC: 1.05037 cumulative IPC: 0.91953 (Simulation time: 0 hr 11 min 1 sec) 
Heartbeat CPU  0 instructions:  320000000 cycles:  289658976 heartbeat IPC: 1.07644 cumulative IPC: 0.92014 (Simulation time: 0 hr 11 min 3 sec) 
Heartbeat CPU  0 instructions:  321000002 cycles:  290566926 heartbeat IPC: 1.10138 cumulative IPC: 0.92082 (Simulation time: 0 hr 11 min 5 sec) 
Heartbeat CPU  0 instructions:  322000002 cycles:  291487609 heartbeat IPC: 1.08615 cumulative IPC: 0.92145 (Simulation time: 0 hr 11 min 7 sec) 
Heartbeat CPU  0 instructions:  323000002 cycles:  292397122 heartbeat IPC: 1.09949 cumulative IPC: 0.92212 (Simulation time: 0 hr 11 min 9 sec) 
Heartbeat CPU  0 instructions:  324000000 cycles:  293325504 heartbeat IPC: 1.07714 cumulative IPC: 0.92272 (Simulation time: 0 hr 11 min 11 sec) 
Heartbeat CPU  0 instructions:  325000002 cycles:  294294948 heartbeat IPC: 1.03152 cumulative IPC: 0.92315 (Simulation time: 0 hr 11 min 14 sec) 
Heartbeat CPU  0 instructions:  326000000 cycles:  295224637 heartbeat IPC: 1.07563 cumulative IPC: 0.92373 (Simulation time: 0 hr 11 min 16 sec) 
Heartbeat CPU  0 instructions:  327000002 cycles:  296151581 heartbeat IPC: 1.07882 cumulative IPC: 0.92431 (Simulation time: 0 hr 11 min 18 sec) 
Heartbeat CPU  0 instructions:  328000000 cycles:  297072859 heartbeat IPC: 1.08545 cumulative IPC: 0.92492 (Simulation time: 0 hr 11 min 20 sec) 
Heartbeat CPU  0 instructions:  329000001 cycles:  298042441 heartbeat IPC: 1.03137 cumulative IPC: 0.92533 (Simulation time: 0 hr 11 min 22 sec) 
Heartbeat CPU  0 instructions:  330000001 cycles:  298982385 heartbeat IPC: 1.06389 cumulative IPC: 0.92586 (Simulation time: 0 hr 11 min 24 sec) 
Heartbeat CPU  0 instructions:  331000001 cycles:  299905635 heartbeat IPC: 1.08313 cumulative IPC: 0.92644 (Simulation time: 0 hr 11 min 26 sec) 
Heartbeat CPU  0 instructions:  332000000 cycles:  300801126 heartbeat IPC: 1.11670 cumulative IPC: 0.92712 (Simulation time: 0 hr 11 min 28 sec) 
Heartbeat CPU  0 instructions:  333000001 cycles:  301720846 heartbeat IPC: 1.08729 cumulative IPC: 0.92771 (Simulation time: 0 hr 11 min 31 sec) 
Heartbeat CPU  0 instructions:  334000003 cycles:  302628008 heartbeat IPC: 1.10234 cumulative IPC: 0.92833 (Simulation time: 0 hr 11 min 33 sec) 
Heartbeat CPU  0 instructions:  335000002 cycles:  303600813 heartbeat IPC: 1.02795 cumulative IPC: 0.92872 (Simulation time: 0 hr 11 min 35 sec) 
Heartbeat CPU  0 instructions:  336000000 cycles:  304528462 heartbeat IPC: 1.07799 cumulative IPC: 0.92926 (Simulation time: 0 hr 11 min 37 sec) 
Heartbeat CPU  0 instructions:  337000002 cycles:  305464662 heartbeat IPC: 1.06815 cumulative IPC: 0.92977 (Simulation time: 0 hr 11 min 39 sec) 
Heartbeat CPU  0 instructions:  338000002 cycles:  306387740 heartbeat IPC: 1.08333 cumulative IPC: 0.93033 (Simulation time: 0 hr 11 min 41 sec) 
Heartbeat CPU  0 instructions:  339000002 cycles:  307314050 heartbeat IPC: 1.07955 cumulative IPC: 0.93087 (Simulation time: 0 hr 11 min 43 sec) 
Heartbeat CPU  0 instructions:  340000000 cycles:  308237494 heartbeat IPC: 1.08290 cumulative IPC: 0.93141 (Simulation time: 0 hr 11 min 46 sec) 
Heartbeat CPU  0 instructions:  341000001 cycles:  309149507 heartbeat IPC: 1.09648 cumulative IPC: 0.93199 (Simulation time: 0 hr 11 min 48 sec) 
Heartbeat CPU  0 instructions:  342000003 cycles:  310047022 heartbeat IPC: 1.11419 cumulative IPC: 0.93262 (Simulation time: 0 hr 11 min 50 sec) 
Heartbeat CPU  0 instructions:  343000003 cycles:  310963418 heartbeat IPC: 1.09123 cumulative IPC: 0.93318 (Simulation time: 0 hr 11 min 52 sec) 
Heartbeat CPU  0 instructions:  344000000 cycles:  311884011 heartbeat IPC: 1.08625 cumulative IPC: 0.93372 (Simulation time: 0 hr 11 min 54 sec) 
Heartbeat CPU  0 instructions:  345000002 cycles:  312801726 heartbeat IPC: 1.08967 cumulative IPC: 0.93427 (Simulation time: 0 hr 11 min 56 sec) 
Heartbeat CPU  0 instructions:  346000003 cycles:  313745904 heartbeat IPC: 1.05912 cumulative IPC: 0.93471 (Simulation time: 0 hr 11 min 58 sec) 
Heartbeat CPU  0 instructions:  347000003 cycles:  314691188 heartbeat IPC: 1.05788 cumulative IPC: 0.93515 (Simulation time: 0 hr 12 min 0 sec) 
Heartbeat CPU  0 instructions:  348000000 cycles:  315616487 heartbeat IPC: 1.08073 cumulative IPC: 0.93566 (Simulation time: 0 hr 12 min 3 sec) 
Heartbeat CPU  0 instructions:  349000000 cycles:  316547540 heartbeat IPC: 1.07405 cumulative IPC: 0.93615 (Simulation time: 0 hr 12 min 5 sec) 
Heartbeat CPU  0 instructions:  350000003 cycles:  317458595 heartbeat IPC: 1.09763 cumulative IPC: 0.93670 (Simulation time: 0 hr 12 min 7 sec) 
Heartbeat CPU  0 instructions:  351000002 cycles:  318396816 heartbeat IPC: 1.06585 cumulative IPC: 0.93715 (Simulation time: 0 hr 12 min 9 sec) 
Heartbeat CPU  0 instructions:  352000000 cycles:  319320069 heartbeat IPC: 1.08312 cumulative IPC: 0.93765 (Simulation time: 0 hr 12 min 11 sec) 
Heartbeat CPU  0 instructions:  353000003 cycles:  320242210 heartbeat IPC: 1.08444 cumulative IPC: 0.93815 (Simulation time: 0 hr 12 min 13 sec) 
Heartbeat CPU  0 instructions:  354000003 cycles:  321155241 heartbeat IPC: 1.09525 cumulative IPC: 0.93868 (Simulation time: 0 hr 12 min 15 sec) 
Heartbeat CPU  0 instructions:  355000000 cycles:  322050827 heartbeat IPC: 1.11658 cumulative IPC: 0.93927 (Simulation time: 0 hr 12 min 18 sec) 
Heartbeat CPU  0 instructions:  356000000 cycles:  323008458 heartbeat IPC: 1.04424 cumulative IPC: 0.93964 (Simulation time: 0 hr 12 min 20 sec) 
Heartbeat CPU  0 instructions:  357000001 cycles:  323958840 heartbeat IPC: 1.05221 cumulative IPC: 0.94003 (Simulation time: 0 hr 12 min 22 sec) 
Heartbeat CPU  0 instructions:  358000003 cycles:  324927122 heartbeat IPC: 1.03276 cumulative IPC: 0.94036 (Simulation time: 0 hr 12 min 24 sec) 
Heartbeat CPU  0 instructions:  359000000 cycles:  325886200 heartbeat IPC: 1.04266 cumulative IPC: 0.94072 (Simulation time: 0 hr 12 min 26 sec) 
Heartbeat CPU  0 instructions:  360000000 cycles:  326826902 heartbeat IPC: 1.06304 cumulative IPC: 0.94113 (Simulation time: 0 hr 12 min 28 sec) 
Heartbeat CPU  0 instructions:  361000002 cycles:  327763212 heartbeat IPC: 1.06802 cumulative IPC: 0.94156 (Simulation time: 0 hr 12 min 30 sec) 
Heartbeat CPU  0 instructions:  362000002 cycles:  328681238 heartbeat IPC: 1.08929 cumulative IPC: 0.94205 (Simulation time: 0 hr 12 min 33 sec) 
Heartbeat CPU  0 instructions:  363000002 cycles:  329608809 heartbeat IPC: 1.07808 cumulative IPC: 0.94250 (Simulation time: 0 hr 12 min 35 sec) 
Heartbeat CPU  0 instructions:  364000000 cycles:  330519233 heartbeat IPC: 1.09839 cumulative IPC: 0.94301 (Simulation time: 0 hr 12 min 37 sec) 
Heartbeat CPU  0 instructions:  365000001 cycles:  331414426 heartbeat IPC: 1.11708 cumulative IPC: 0.94356 (Simulation time: 0 hr 12 min 39 sec) 
Heartbeat CPU  0 instructions:  366000001 cycles:  332328365 heartbeat IPC: 1.09416 cumulative IPC: 0.94405 (Simulation time: 0 hr 12 min 41 sec) 
Heartbeat CPU  0 instructions:  367000003 cycles:  333281594 heartbeat IPC: 1.04907 cumulative IPC: 0.94440 (Simulation time: 0 hr 12 min 43 sec) 
Heartbeat CPU  0 instructions:  368000000 cycles:  334216903 heartbeat IPC: 1.06916 cumulative IPC: 0.94482 (Simulation time: 0 hr 12 min 45 sec) 
Heartbeat CPU  0 instructions:  369000001 cycles:  335180464 heartbeat IPC: 1.03782 cumulative IPC: 0.94513 (Simulation time: 0 hr 12 min 48 sec) 
Heartbeat CPU  0 instructions:  370000002 cycles:  336111450 heartbeat IPC: 1.07413 cumulative IPC: 0.94555 (Simulation time: 0 hr 12 min 50 sec) 
Heartbeat CPU  0 instructions:  371000002 cycles:  337045890 heartbeat IPC: 1.07016 cumulative IPC: 0.94596 (Simulation time: 0 hr 12 min 52 sec) 
Heartbeat CPU  0 instructions:  372000000 cycles:  337960042 heartbeat IPC: 1.09391 cumulative IPC: 0.94643 (Simulation time: 0 hr 12 min 54 sec) 
Heartbeat CPU  0 instructions:  373000001 cycles:  338891323 heartbeat IPC: 1.07379 cumulative IPC: 0.94684 (Simulation time: 0 hr 12 min 56 sec) 
Heartbeat CPU  0 instructions:  374000001 cycles:  339787257 heartbeat IPC: 1.11615 cumulative IPC: 0.94736 (Simulation time: 0 hr 12 min 58 sec) 
Heartbeat CPU  0 instructions:  375000000 cycles:  340699900 heartbeat IPC: 1.09572 cumulative IPC: 0.94783 (Simulation time: 0 hr 13 min 0 sec) 
Heartbeat CPU  0 instructions:  376000000 cycles:  341613198 heartbeat IPC: 1.09493 cumulative IPC: 0.94829 (Simulation time: 0 hr 13 min 2 sec) 
Heartbeat CPU  0 instructions:  377000002 cycles:  342564156 heartbeat IPC: 1.05157 cumulative IPC: 0.94863 (Simulation time: 0 hr 13 min 5 sec) 
Heartbeat CPU  0 instructions:  378000000 cycles:  343498694 heartbeat IPC: 1.07005 cumulative IPC: 0.94902 (Simulation time: 0 hr 13 min 7 sec) 
Heartbeat CPU  0 instructions:  379000000 cycles:  344438871 heartbeat IPC: 1.06363 cumulative IPC: 0.94938 (Simulation time: 0 hr 13 min 9 sec) 
Heartbeat CPU  0 instructions:  380000000 cycles:  345386179 heartbeat IPC: 1.05562 cumulative IPC: 0.94972 (Simulation time: 0 hr 13 min 11 sec) 
Heartbeat CPU  0 instructions:  381000002 cycles:  346325883 heartbeat IPC: 1.06417 cumulative IPC: 0.95009 (Simulation time: 0 hr 13 min 13 sec) 
Heartbeat CPU  0 instructions:  382000000 cycles:  347260786 heartbeat IPC: 1.06963 cumulative IPC: 0.95046 (Simulation time: 0 hr 13 min 15 sec) 
Heartbeat CPU  0 instructions:  383000000 cycles:  348200119 heartbeat IPC: 1.06459 cumulative IPC: 0.95082 (Simulation time: 0 hr 13 min 17 sec) 
Heartbeat CPU  0 instructions:  384000000 cycles:  349124937 heartbeat IPC: 1.08129 cumulative IPC: 0.95123 (Simulation time: 0 hr 13 min 20 sec) 
Heartbeat CPU  0 instructions:  385000001 cycles:  350024616 heartbeat IPC: 1.11151 cumulative IPC: 0.95171 (Simulation time: 0 hr 13 min 22 sec) 
Heartbeat CPU  0 instructions:  386000002 cycles:  350949723 heartbeat IPC: 1.08096 cumulative IPC: 0.95211 (Simulation time: 0 hr 13 min 24 sec) 
Heartbeat CPU  0 instructions:  387000000 cycles:  351899022 heartbeat IPC: 1.05341 cumulative IPC: 0.95243 (Simulation time: 0 hr 13 min 26 sec) 
Heartbeat CPU  0 instructions:  388000000 cycles:  352837509 heartbeat IPC: 1.06554 cumulative IPC: 0.95278 (Simulation time: 0 hr 13 min 28 sec) 
Heartbeat CPU  0 instructions:  389000003 cycles:  353794218 heartbeat IPC: 1.04525 cumulative IPC: 0.95307 (Simulation time: 0 hr 13 min 30 sec) 
Heartbeat CPU  0 instructions:  390000003 cycles:  354763483 heartbeat IPC: 1.03171 cumulative IPC: 0.95332 (Simulation time: 0 hr 13 min 32 sec) 
Heartbeat CPU  0 instructions:  391000002 cycles:  355701242 heartbeat IPC: 1.06637 cumulative IPC: 0.95367 (Simulation time: 0 hr 13 min 35 sec) 
Heartbeat CPU  0 instructions:  392000000 cycles:  356629202 heartbeat IPC: 1.07763 cumulative IPC: 0.95404 (Simulation time: 0 hr 13 min 37 sec) 
Heartbeat CPU  0 instructions:  393000003 cycles:  357603807 heartbeat IPC: 1.02606 cumulative IPC: 0.95427 (Simulation time: 0 hr 13 min 39 sec) 
Heartbeat CPU  0 instructions:  394000003 cycles:  358515972 heartbeat IPC: 1.09629 cumulative IPC: 0.95469 (Simulation time: 0 hr 13 min 41 sec) 
Heartbeat CPU  0 instructions:  395000003 cycles:  359450862 heartbeat IPC: 1.06964 cumulative IPC: 0.95504 (Simulation time: 0 hr 13 min 43 sec) 
Heartbeat CPU  0 instructions:  396000000 cycles:  360371541 heartbeat IPC: 1.08615 cumulative IPC: 0.95543 (Simulation time: 0 hr 13 min 45 sec) 
Heartbeat CPU  0 instructions:  397000001 cycles:  361289527 heartbeat IPC: 1.08934 cumulative IPC: 0.95583 (Simulation time: 0 hr 13 min 47 sec) 
Heartbeat CPU  0 instructions:  398000001 cycles:  362839482 heartbeat IPC: 0.64518 cumulative IPC: 0.95429 (Simulation time: 0 hr 13 min 50 sec) 
Heartbeat CPU  0 instructions:  399000000 cycles:  363794684 heartbeat IPC: 1.04690 cumulative IPC: 0.95457 (Simulation time: 0 hr 13 min 52 sec) 
Heartbeat CPU  0 instructions:  400000000 cycles:  364750629 heartbeat IPC: 1.04609 cumulative IPC: 0.95485 (Simulation time: 0 hr 13 min 54 sec) 
Heartbeat CPU  0 instructions:  401000001 cycles:  365708051 heartbeat IPC: 1.04447 cumulative IPC: 0.95512 (Simulation time: 0 hr 13 min 56 sec) 
Heartbeat CPU  0 instructions:  402000003 cycles:  366662003 heartbeat IPC: 1.04827 cumulative IPC: 0.95540 (Simulation time: 0 hr 13 min 58 sec) 
Heartbeat CPU  0 instructions:  403000000 cycles:  367616413 heartbeat IPC: 1.04776 cumulative IPC: 0.95568 (Simulation time: 0 hr 14 min 1 sec) 
Heartbeat CPU  0 instructions:  404000000 cycles:  368571035 heartbeat IPC: 1.04754 cumulative IPC: 0.95595 (Simulation time: 0 hr 14 min 3 sec) 
Heartbeat CPU  0 instructions:  405000003 cycles:  369527102 heartbeat IPC: 1.04595 cumulative IPC: 0.95622 (Simulation time: 0 hr 14 min 5 sec) 
Heartbeat CPU  0 instructions:  406000003 cycles:  370482716 heartbeat IPC: 1.04645 cumulative IPC: 0.95649 (Simulation time: 0 hr 14 min 7 sec) 
Heartbeat CPU  0 instructions:  407000000 cycles:  371434659 heartbeat IPC: 1.05048 cumulative IPC: 0.95677 (Simulation time: 0 hr 14 min 9 sec) 
Heartbeat CPU  0 instructions:  408000000 cycles:  372388280 heartbeat IPC: 1.04863 cumulative IPC: 0.95704 (Simulation time: 0 hr 14 min 12 sec) 
Heartbeat CPU  0 instructions:  409000002 cycles:  373339078 heartbeat IPC: 1.05175 cumulative IPC: 0.95732 (Simulation time: 0 hr 14 min 14 sec) 
Heartbeat CPU  0 instructions:  410000002 cycles:  374290461 heartbeat IPC: 1.05110 cumulative IPC: 0.95760 (Simulation time: 0 hr 14 min 16 sec) 
Heartbeat CPU  0 instructions:  411000000 cycles:  375247035 heartbeat IPC: 1.04540 cumulative IPC: 0.95786 (Simulation time: 0 hr 14 min 18 sec) 
Heartbeat CPU  0 instructions:  412000000 cycles:  376206056 heartbeat IPC: 1.04273 cumulative IPC: 0.95811 (Simulation time: 0 hr 14 min 21 sec) 
Heartbeat CPU  0 instructions:  413000001 cycles:  377160784 heartbeat IPC: 1.04742 cumulative IPC: 0.95837 (Simulation time: 0 hr 14 min 23 sec) 
Heartbeat CPU  0 instructions:  414000000 cycles:  378114923 heartbeat IPC: 1.04806 cumulative IPC: 0.95863 (Simulation time: 0 hr 14 min 25 sec) 
Heartbeat CPU  0 instructions:  415000002 cycles:  379069836 heartbeat IPC: 1.04722 cumulative IPC: 0.95889 (Simulation time: 0 hr 14 min 27 sec) 
Heartbeat CPU  0 instructions:  416000000 cycles:  380024597 heartbeat IPC: 1.04738 cumulative IPC: 0.95914 (Simulation time: 0 hr 14 min 29 sec) 
Heartbeat CPU  0 instructions:  417000001 cycles:  380978848 heartbeat IPC: 1.04794 cumulative IPC: 0.95940 (Simulation time: 0 hr 14 min 32 sec) 
Heartbeat CPU  0 instructions:  418000002 cycles:  381932418 heartbeat IPC: 1.04869 cumulative IPC: 0.95966 (Simulation time: 0 hr 14 min 34 sec) 
Heartbeat CPU  0 instructions:  419000003 cycles:  382884822 heartbeat IPC: 1.04998 cumulative IPC: 0.95992 (Simulation time: 0 hr 14 min 36 sec) 
Heartbeat CPU  0 instructions:  420000000 cycles:  383839232 heartbeat IPC: 1.04776 cumulative IPC: 0.96017 (Simulation time: 0 hr 14 min 38 sec) 
Heartbeat CPU  0 instructions:  421000002 cycles:  384797247 heartbeat IPC: 1.04383 cumulative IPC: 0.96041 (Simulation time: 0 hr 14 min 41 sec) 
Heartbeat CPU  0 instructions:  422000000 cycles:  385753485 heartbeat IPC: 1.04576 cumulative IPC: 0.96065 (Simulation time: 0 hr 14 min 43 sec) 
Heartbeat CPU  0 instructions:  423000003 cycles:  386705454 heartbeat IPC: 1.05046 cumulative IPC: 0.96090 (Simulation time: 0 hr 14 min 45 sec) 
Heartbeat CPU  0 instructions:  424000000 cycles:  387658027 heartbeat IPC: 1.04979 cumulative IPC: 0.96116 (Simulation time: 0 hr 14 min 47 sec) 
Heartbeat CPU  0 instructions:  425000000 cycles:  388611231 heartbeat IPC: 1.04909 cumulative IPC: 0.96140 (Simulation time: 0 hr 14 min 49 sec) 
Heartbeat CPU  0 instructions:  426000000 cycles:  389565247 heartbeat IPC: 1.04820 cumulative IPC: 0.96165 (Simulation time: 0 hr 14 min 52 sec) 
Heartbeat CPU  0 instructions:  427000003 cycles:  390518766 heartbeat IPC: 1.04875 cumulative IPC: 0.96189 (Simulation time: 0 hr 14 min 54 sec) 
Heartbeat CPU  0 instructions:  428000000 cycles:  391474583 heartbeat IPC: 1.04622 cumulative IPC: 0.96213 (Simulation time: 0 hr 14 min 56 sec) 
Heartbeat CPU  0 instructions:  429000000 cycles:  392429734 heartbeat IPC: 1.04695 cumulative IPC: 0.96237 (Simulation time: 0 hr 14 min 58 sec) 
Heartbeat CPU  0 instructions:  430000003 cycles:  393383034 heartbeat IPC: 1.04899 cumulative IPC: 0.96261 (Simulation time: 0 hr 15 min 0 sec) 
Heartbeat CPU  0 instructions:  431000003 cycles:  394336892 heartbeat IPC: 1.04837 cumulative IPC: 0.96284 (Simulation time: 0 hr 15 min 3 sec) 
Heartbeat CPU  0 instructions:  432000000 cycles:  395289897 heartbeat IPC: 1.04931 cumulative IPC: 0.96308 (Simulation time: 0 hr 15 min 5 sec) 
Heartbeat CPU  0 instructions:  433000001 cycles:  396246393 heartbeat IPC: 1.04548 cumulative IPC: 0.96331 (Simulation time: 0 hr 15 min 7 sec) 
Heartbeat CPU  0 instructions:  434000003 cycles:  397201014 heartbeat IPC: 1.04754 cumulative IPC: 0.96354 (Simulation time: 0 hr 15 min 9 sec) 
Heartbeat CPU  0 instructions:  435000001 cycles:  398154596 heartbeat IPC: 1.04868 cumulative IPC: 0.96378 (Simulation time: 0 hr 15 min 12 sec) 
Heartbeat CPU  0 instructions:  436000000 cycles:  399106263 heartbeat IPC: 1.05079 cumulative IPC: 0.96401 (Simulation time: 0 hr 15 min 14 sec) 
Heartbeat CPU  0 instructions:  437000000 cycles:  400060743 heartbeat IPC: 1.04769 cumulative IPC: 0.96424 (Simulation time: 0 hr 15 min 16 sec) 
Heartbeat CPU  0 instructions:  438000001 cycles:  401013823 heartbeat IPC: 1.04923 cumulative IPC: 0.96447 (Simulation time: 0 hr 15 min 18 sec) 
Heartbeat CPU  0 instructions:  439000002 cycles:  401967186 heartbeat IPC: 1.04892 cumulative IPC: 0.96470 (Simulation time: 0 hr 15 min 20 sec) 
Heartbeat CPU  0 instructions:  440000000 cycles:  402923503 heartbeat IPC: 1.04568 cumulative IPC: 0.96492 (Simulation time: 0 hr 15 min 23 sec) 
Heartbeat CPU  0 instructions:  441000001 cycles:  403876327 heartbeat IPC: 1.04951 cumulative IPC: 0.96515 (Simulation time: 0 hr 15 min 25 sec) 
Heartbeat CPU  0 instructions:  442000001 cycles:  404831902 heartbeat IPC: 1.04649 cumulative IPC: 0.96537 (Simulation time: 0 hr 15 min 27 sec) 
Heartbeat CPU  0 instructions:  443000002 cycles:  405785431 heartbeat IPC: 1.04874 cumulative IPC: 0.96559 (Simulation time: 0 hr 15 min 29 sec) 
Heartbeat CPU  0 instructions:  444000000 cycles:  406740356 heartbeat IPC: 1.04720 cumulative IPC: 0.96581 (Simulation time: 0 hr 15 min 32 sec) 
Heartbeat CPU  0 instructions:  445000001 cycles:  407694177 heartbeat IPC: 1.04842 cumulative IPC: 0.96603 (Simulation time: 0 hr 15 min 34 sec) 
Heartbeat CPU  0 instructions:  446000001 cycles:  408649240 heartbeat IPC: 1.04705 cumulative IPC: 0.96625 (Simulation time: 0 hr 15 min 36 sec) 
Heartbeat CPU  0 instructions:  447000002 cycles:  409602007 heartbeat IPC: 1.04958 cumulative IPC: 0.96647 (Simulation time: 0 hr 15 min 38 sec) 
Heartbeat CPU  0 instructions:  448000000 cycles:  410559581 heartbeat IPC: 1.04430 cumulative IPC: 0.96668 (Simulation time: 0 hr 15 min 41 sec) 
Heartbeat CPU  0 instructions:  449000003 cycles:  411511936 heartbeat IPC: 1.05003 cumulative IPC: 0.96690 (Simulation time: 0 hr 15 min 43 sec) 
Heartbeat CPU  0 instructions:  450000002 cycles:  412464338 heartbeat IPC: 1.04998 cumulative IPC: 0.96712 (Simulation time: 0 hr 15 min 45 sec) 
Heartbeat CPU  0 instructions:  451000000 cycles:  413418600 heartbeat IPC: 1.04793 cumulative IPC: 0.96733 (Simulation time: 0 hr 15 min 47 sec) 
Heartbeat CPU  0 instructions:  452000000 cycles:  414371636 heartbeat IPC: 1.04928 cumulative IPC: 0.96754 (Simulation time: 0 hr 15 min 49 sec) 
Heartbeat CPU  0 instructions:  453000003 cycles:  415327162 heartbeat IPC: 1.04655 cumulative IPC: 0.96775 (Simulation time: 0 hr 15 min 52 sec) 
Heartbeat CPU  0 instructions:  454000000 cycles:  416282922 heartbeat IPC: 1.04628 cumulative IPC: 0.96796 (Simulation time: 0 hr 15 min 54 sec) 
Heartbeat CPU  0 instructions:  455000002 cycles:  417237113 heartbeat IPC: 1.04801 cumulative IPC: 0.96816 (Simulation time: 0 hr 15 min 56 sec) 
Heartbeat CPU  0 instructions:  456000000 cycles:  418189481 heartbeat IPC: 1.05001 cumulative IPC: 0.96838 (Simulation time: 0 hr 15 min 58 sec) 
Heartbeat CPU  0 instructions:  457000000 cycles:  419147523 heartbeat IPC: 1.04380 cumulative IPC: 0.96857 (Simulation time: 0 hr 16 min 1 sec) 
Heartbeat CPU  0 instructions:  458000002 cycles:  420103201 heartbeat IPC: 1.04638 cumulative IPC: 0.96877 (Simulation time: 0 hr 16 min 3 sec) 
Heartbeat CPU  0 instructions:  459000003 cycles:  421055891 heartbeat IPC: 1.04966 cumulative IPC: 0.96898 (Simulation time: 0 hr 16 min 5 sec) 
Heartbeat CPU  0 instructions:  460000000 cycles:  422121461 heartbeat IPC: 0.93846 cumulative IPC: 0.96889 (Simulation time: 0 hr 16 min 7 sec) 
Heartbeat CPU  0 instructions:  461000000 cycles:  423136265 heartbeat IPC: 0.98541 cumulative IPC: 0.96894 (Simulation time: 0 hr 16 min 9 sec) 
Heartbeat CPU  0 instructions:  462000000 cycles:  424137845 heartbeat IPC: 0.99842 cumulative IPC: 0.96902 (Simulation time: 0 hr 16 min 11 sec) 
Heartbeat CPU  0 instructions:  463000001 cycles:  425107975 heartbeat IPC: 1.03079 cumulative IPC: 0.96918 (Simulation time: 0 hr 16 min 14 sec) 
Heartbeat CPU  0 instructions:  464000000 cycles:  426098338 heartbeat IPC: 1.00973 cumulative IPC: 0.96929 (Simulation time: 0 hr 16 min 16 sec) 
Heartbeat CPU  0 instructions:  465000002 cycles:  427096862 heartbeat IPC: 1.00148 cumulative IPC: 0.96937 (Simulation time: 0 hr 16 min 18 sec) 
Heartbeat CPU  0 instructions:  466000000 cycles:  428082079 heartbeat IPC: 1.01500 cumulative IPC: 0.96949 (Simulation time: 0 hr 16 min 20 sec) 
Heartbeat CPU  0 instructions:  467000001 cycles:  429070683 heartbeat IPC: 1.01153 cumulative IPC: 0.96960 (Simulation time: 0 hr 16 min 22 sec) 
Heartbeat CPU  0 instructions:  468000000 cycles:  430054566 heartbeat IPC: 1.01638 cumulative IPC: 0.96972 (Simulation time: 0 hr 16 min 24 sec) 
Heartbeat CPU  0 instructions:  469000003 cycles:  431171107 heartbeat IPC: 0.89563 cumulative IPC: 0.96950 (Simulation time: 0 hr 16 min 26 sec) 
Heartbeat CPU  0 instructions:  470000001 cycles:  432433877 heartbeat IPC: 0.79191 cumulative IPC: 0.96892 (Simulation time: 0 hr 16 min 28 sec) 
Heartbeat CPU  0 instructions:  471000001 cycles:  433716868 heartbeat IPC: 0.77943 cumulative IPC: 0.96828 (Simulation time: 0 hr 16 min 31 sec) 
Heartbeat CPU  0 instructions:  472000000 cycles:  434989589 heartbeat IPC: 0.78572 cumulative IPC: 0.96768 (Simulation time: 0 hr 16 min 33 sec) 
Heartbeat CPU  0 instructions:  473000002 cycles:  436179235 heartbeat IPC: 0.84059 cumulative IPC: 0.96728 (Simulation time: 0 hr 16 min 35 sec) 
Heartbeat CPU  0 instructions:  474000001 cycles:  437363261 heartbeat IPC: 0.84458 cumulative IPC: 0.96691 (Simulation time: 0 hr 16 min 37 sec) 
Heartbeat CPU  0 instructions:  475000002 cycles:  438621016 heartbeat IPC: 0.79507 cumulative IPC: 0.96635 (Simulation time: 0 hr 16 min 39 sec) 
Heartbeat CPU  0 instructions:  476000000 cycles:  439838518 heartbeat IPC: 0.82135 cumulative IPC: 0.96590 (Simulation time: 0 hr 16 min 41 sec) 
Heartbeat CPU  0 instructions:  477000002 cycles:  440938257 heartbeat IPC: 0.90931 cumulative IPC: 0.96574 (Simulation time: 0 hr 16 min 44 sec) 
Heartbeat CPU  0 instructions:  478000000 cycles:  442346437 heartbeat IPC: 0.71014 cumulative IPC: 0.96482 (Simulation time: 0 hr 16 min 46 sec) 
Heartbeat CPU  0 instructions:  479000002 cycles:  443785535 heartbeat IPC: 0.69488 cumulative IPC: 0.96383 (Simulation time: 0 hr 16 min 48 sec) 
Heartbeat CPU  0 instructions:  480000000 cycles:  445101891 heartbeat IPC: 0.75967 cumulative IPC: 0.96315 (Simulation time: 0 hr 16 min 50 sec) 
Heartbeat CPU  0 instructions:  481000003 cycles:  446475320 heartbeat IPC: 0.72811 cumulative IPC: 0.96234 (Simulation time: 0 hr 16 min 52 sec) 
Heartbeat CPU  0 instructions:  482000003 cycles:  447768301 heartbeat IPC: 0.77341 cumulative IPC: 0.96172 (Simulation time: 0 hr 16 min 55 sec) 
Heartbeat CPU  0 instructions:  483000003 cycles:  449039121 heartbeat IPC: 0.78689 cumulative IPC: 0.96116 (Simulation time: 0 hr 16 min 57 sec) 
Heartbeat CPU  0 instructions:  484000000 cycles:  450412872 heartbeat IPC: 0.72793 cumulative IPC: 0.96036 (Simulation time: 0 hr 16 min 59 sec) 
Heartbeat CPU  0 instructions:  485000002 cycles:  451752919 heartbeat IPC: 0.74624 cumulative IPC: 0.95965 (Simulation time: 0 hr 17 min 1 sec) 
Heartbeat CPU  0 instructions:  486000000 cycles:  452935473 heartbeat IPC: 0.84563 cumulative IPC: 0.95931 (Simulation time: 0 hr 17 min 3 sec) 
Heartbeat CPU  0 instructions:  487000000 cycles:  454619139 heartbeat IPC: 0.59394 cumulative IPC: 0.95779 (Simulation time: 0 hr 17 min 6 sec) 
Heartbeat CPU  0 instructions:  488000000 cycles:  456276401 heartbeat IPC: 0.60340 cumulative IPC: 0.95634 (Simulation time: 0 hr 17 min 9 sec) 
Heartbeat CPU  0 instructions:  489000000 cycles:  457948253 heartbeat IPC: 0.59814 cumulative IPC: 0.95487 (Simulation time: 0 hr 17 min 11 sec) 
Heartbeat CPU  0 instructions:  490000003 cycles:  459528893 heartbeat IPC: 0.63266 cumulative IPC: 0.95363 (Simulation time: 0 hr 17 min 14 sec) 
Heartbeat CPU  0 instructions:  491000003 cycles:  461199421 heartbeat IPC: 0.59861 cumulative IPC: 0.95218 (Simulation time: 0 hr 17 min 17 sec) 
Heartbeat CPU  0 instructions:  492000000 cycles:  462832928 heartbeat IPC: 0.61218 cumulative IPC: 0.95084 (Simulation time: 0 hr 17 min 19 sec) 
Heartbeat CPU  0 instructions:  493000001 cycles:  464460573 heartbeat IPC: 0.61439 cumulative IPC: 0.94951 (Simulation time: 0 hr 17 min 22 sec) 
Heartbeat CPU  0 instructions:  494000000 cycles:  466063062 heartbeat IPC: 0.62403 cumulative IPC: 0.94826 (Simulation time: 0 hr 17 min 25 sec) 
Heartbeat CPU  0 instructions:  495000000 cycles:  467689487 heartbeat IPC: 0.61485 cumulative IPC: 0.94696 (Simulation time: 0 hr 17 min 27 sec) 
Heartbeat CPU  0 instructions:  496000000 cycles:  469291699 heartbeat IPC: 0.62414 cumulative IPC: 0.94572 (Simulation time: 0 hr 17 min 30 sec) 
Heartbeat CPU  0 instructions:  497000002 cycles:  470885563 heartbeat IPC: 0.62741 cumulative IPC: 0.94451 (Simulation time: 0 hr 17 min 33 sec) 
Heartbeat CPU  0 instructions:  498000001 cycles:  472547083 heartbeat IPC: 0.60186 cumulative IPC: 0.94317 (Simulation time: 0 hr 17 min 35 sec) 
Heartbeat CPU  0 instructions:  499000000 cycles:  474171378 heartbeat IPC: 0.61565 cumulative IPC: 0.94191 (Simulation time: 0 hr 17 min 38 sec) 
Heartbeat CPU  0 instructions:  500000000 cycles:  475792320 heartbeat IPC: 0.61693 cumulative IPC: 0.94067 (Simulation time: 0 hr 17 min 41 sec) 
Heartbeat CPU  0 instructions:  501000003 cycles:  477372018 heartbeat IPC: 0.63303 cumulative IPC: 0.93953 (Simulation time: 0 hr 17 min 43 sec) 
Heartbeat CPU  0 instructions:  502000002 cycles:  478987713 heartbeat IPC: 0.61893 cumulative IPC: 0.93832 (Simulation time: 0 hr 17 min 46 sec) 
Heartbeat CPU  0 instructions:  503000000 cycles:  480553924 heartbeat IPC: 0.63848 cumulative IPC: 0.93723 (Simulation time: 0 hr 17 min 49 sec) 
Heartbeat CPU  0 instructions:  504000000 cycles:  482186909 heartbeat IPC: 0.61238 cumulative IPC: 0.93600 (Simulation time: 0 hr 17 min 51 sec) 
Heartbeat CPU  0 instructions:  505000000 cycles:  483769630 heartbeat IPC: 0.63182 cumulative IPC: 0.93489 (Simulation time: 0 hr 17 min 54 sec) 
Heartbeat CPU  0 instructions:  506000003 cycles:  485414782 heartbeat IPC: 0.60785 cumulative IPC: 0.93365 (Simulation time: 0 hr 17 min 56 sec) 
Heartbeat CPU  0 instructions:  507000002 cycles:  486969925 heartbeat IPC: 0.64303 cumulative IPC: 0.93262 (Simulation time: 0 hr 17 min 59 sec) 
Heartbeat CPU  0 instructions:  508000000 cycles:  488613901 heartbeat IPC: 0.60828 cumulative IPC: 0.93140 (Simulation time: 0 hr 18 min 2 sec) 
Heartbeat CPU  0 instructions:  509000001 cycles:  490153931 heartbeat IPC: 0.64934 cumulative IPC: 0.93041 (Simulation time: 0 hr 18 min 4 sec) 
Heartbeat CPU  0 instructions:  510000000 cycles:  491802964 heartbeat IPC: 0.60642 cumulative IPC: 0.92920 (Simulation time: 0 hr 18 min 7 sec) 
Heartbeat CPU  0 instructions:  511000001 cycles:  493354755 heartbeat IPC: 0.64442 cumulative IPC: 0.92820 (Simulation time: 0 hr 18 min 10 sec) 
Heartbeat CPU  0 instructions:  512000000 cycles:  494992179 heartbeat IPC: 0.61071 cumulative IPC: 0.92703 (Simulation time: 0 hr 18 min 12 sec) 
Heartbeat CPU  0 instructions:  513000000 cycles:  496560438 heartbeat IPC: 0.63765 cumulative IPC: 0.92602 (Simulation time: 0 hr 18 min 15 sec) 
Heartbeat CPU  0 instructions:  514000001 cycles:  498203594 heartbeat IPC: 0.60859 cumulative IPC: 0.92485 (Simulation time: 0 hr 18 min 18 sec) 
Heartbeat CPU  0 instructions:  515000003 cycles:  499792069 heartbeat IPC: 0.62954 cumulative IPC: 0.92381 (Simulation time: 0 hr 18 min 20 sec) 
Heartbeat CPU  0 instructions:  516000000 cycles:  501422759 heartbeat IPC: 0.61324 cumulative IPC: 0.92268 (Simulation time: 0 hr 18 min 23 sec) 
Heartbeat CPU  0 instructions:  517000001 cycles:  503006849 heartbeat IPC: 0.63128 cumulative IPC: 0.92166 (Simulation time: 0 hr 18 min 25 sec) 
Heartbeat CPU  0 instructions:  518000001 cycles:  504619503 heartbeat IPC: 0.62010 cumulative IPC: 0.92059 (Simulation time: 0 hr 18 min 28 sec) 
Heartbeat CPU  0 instructions:  519000000 cycles:  506212067 heartbeat IPC: 0.62792 cumulative IPC: 0.91957 (Simulation time: 0 hr 18 min 31 sec) 
Heartbeat CPU  0 instructions:  520000000 cycles:  507816813 heartbeat IPC: 0.62315 cumulative IPC: 0.91853 (Simulation time: 0 hr 18 min 34 sec) 
Heartbeat CPU  0 instructions:  521000002 cycles:  509472408 heartbeat IPC: 0.60401 cumulative IPC: 0.91739 (Simulation time: 0 hr 18 min 36 sec) 
Heartbeat CPU  0 instructions:  522000002 cycles:  511125335 heartbeat IPC: 0.60499 cumulative IPC: 0.91627 (Simulation time: 0 hr 18 min 39 sec) 
Heartbeat CPU  0 instructions:  523000001 cycles:  512778451 heartbeat IPC: 0.60492 cumulative IPC: 0.91516 (Simulation time: 0 hr 18 min 42 sec) 
Heartbeat CPU  0 instructions:  524000000 cycles:  514127199 heartbeat IPC: 0.74143 cumulative IPC: 0.91465 (Simulation time: 0 hr 18 min 44 sec) 
Heartbeat CPU  0 instructions:  525000000 cycles:  515022101 heartbeat IPC: 1.11744 cumulative IPC: 0.91504 (Simulation time: 0 hr 18 min 46 sec) 
Heartbeat CPU  0 instructions:  526000001 cycles:  515926701 heartbeat IPC: 1.10546 cumulative IPC: 0.91541 (Simulation time: 0 hr 18 min 48 sec) 
Heartbeat CPU  0 instructions:  527000001 cycles:  516858175 heartbeat IPC: 1.07357 cumulative IPC: 0.91573 (Simulation time: 0 hr 18 min 51 sec) 
Heartbeat CPU  0 instructions:  528000000 cycles:  517762002 heartbeat IPC: 1.10641 cumulative IPC: 0.91610 (Simulation time: 0 hr 18 min 53 sec) 
Heartbeat CPU  0 instructions:  529000003 cycles:  518680933 heartbeat IPC: 1.08822 cumulative IPC: 0.91644 (Simulation time: 0 hr 18 min 55 sec) 
Heartbeat CPU  0 instructions:  530000002 cycles:  519566614 heartbeat IPC: 1.12907 cumulative IPC: 0.91684 (Simulation time: 0 hr 18 min 57 sec) 
Heartbeat CPU  0 instructions:  531000001 cycles:  520470020 heartbeat IPC: 1.10692 cumulative IPC: 0.91720 (Simulation time: 0 hr 18 min 59 sec) 
Heartbeat CPU  0 instructions:  532000000 cycles:  521354033 heartbeat IPC: 1.13120 cumulative IPC: 0.91761 (Simulation time: 0 hr 19 min 2 sec) 
Heartbeat CPU  0 instructions:  533000003 cycles:  522210252 heartbeat IPC: 1.16793 cumulative IPC: 0.91806 (Simulation time: 0 hr 19 min 4 sec) 
Heartbeat CPU  0 instructions:  534000001 cycles:  523063767 heartbeat IPC: 1.17162 cumulative IPC: 0.91852 (Simulation time: 0 hr 19 min 6 sec) 
Heartbeat CPU  0 instructions:  535000000 cycles:  523973564 heartbeat IPC: 1.09915 cumulative IPC: 0.91887 (Simulation time: 0 hr 19 min 8 sec) 
Heartbeat CPU  0 instructions:  536000000 cycles:  524926097 heartbeat IPC: 1.04983 cumulative IPC: 0.91913 (Simulation time: 0 hr 19 min 10 sec) 
Heartbeat CPU  0 instructions:  537000003 cycles:  525883844 heartbeat IPC: 1.04412 cumulative IPC: 0.91938 (Simulation time: 0 hr 19 min 12 sec) 
Heartbeat CPU  0 instructions:  538000003 cycles:  526823559 heartbeat IPC: 1.06415 cumulative IPC: 0.91967 (Simulation time: 0 hr 19 min 14 sec) 
Heartbeat CPU  0 instructions:  539000001 cycles:  527738504 heartbeat IPC: 1.09296 cumulative IPC: 0.92000 (Simulation time: 0 hr 19 min 17 sec) 
Heartbeat CPU  0 instructions:  540000000 cycles:  528682006 heartbeat IPC: 1.05988 cumulative IPC: 0.92027 (Simulation time: 0 hr 19 min 19 sec) 
Heartbeat CPU  0 instructions:  541000003 cycles:  529611866 heartbeat IPC: 1.07543 cumulative IPC: 0.92058 (Simulation time: 0 hr 19 min 21 sec) 
Heartbeat CPU  0 instructions:  542000000 cycles:  530574994 heartbeat IPC: 1.03828 cumulative IPC: 0.92081 (Simulation time: 0 hr 19 min 23 sec) 
Heartbeat CPU  0 instructions:  543000000 cycles:  531440936 heartbeat IPC: 1.15481 cumulative IPC: 0.92123 (Simulation time: 0 hr 19 min 25 sec) 
Heartbeat CPU  0 instructions:  544000000 cycles:  532280807 heartbeat IPC: 1.19066 cumulative IPC: 0.92170 (Simulation time: 0 hr 19 min 28 sec) 
Heartbeat CPU  0 instructions:  545000003 cycles:  533184264 heartbeat IPC: 1.10686 cumulative IPC: 0.92205 (Simulation time: 0 hr 19 min 30 sec) 
Heartbeat CPU  0 instructions:  546000002 cycles:  534109880 heartbeat IPC: 1.08036 cumulative IPC: 0.92235 (Simulation time: 0 hr 19 min 32 sec) 
Heartbeat CPU  0 instructions:  547000002 cycles:  535086735 heartbeat IPC: 1.02369 cumulative IPC: 0.92256 (Simulation time: 0 hr 19 min 34 sec) 
Heartbeat CPU  0 instructions:  548000000 cycles:  536070090 heartbeat IPC: 1.01692 cumulative IPC: 0.92275 (Simulation time: 0 hr 19 min 37 sec) 
Heartbeat CPU  0 instructions:  549000003 cycles:  537007878 heartbeat IPC: 1.06634 cumulative IPC: 0.92302 (Simulation time: 0 hr 19 min 39 sec) 
Heartbeat CPU  0 instructions:  550000000 cycles:  537952365 heartbeat IPC: 1.05877 cumulative IPC: 0.92329 (Simulation time: 0 hr 19 min 41 sec) 
Heartbeat CPU  0 instructions:  551000000 cycles:  538919895 heartbeat IPC: 1.03356 cumulative IPC: 0.92351 (Simulation time: 0 hr 19 min 43 sec) 
Heartbeat CPU  0 instructions:  552000000 cycles:  539861297 heartbeat IPC: 1.06225 cumulative IPC: 0.92377 (Simulation time: 0 hr 19 min 45 sec) 
Heartbeat CPU  0 instructions:  553000000 cycles:  540797045 heartbeat IPC: 1.06866 cumulative IPC: 0.92405 (Simulation time: 0 hr 19 min 47 sec) 
Heartbeat CPU  0 instructions:  554000000 cycles:  541635598 heartbeat IPC: 1.19253 cumulative IPC: 0.92451 (Simulation time: 0 hr 19 min 50 sec) 
Heartbeat CPU  0 instructions:  555000002 cycles:  542499277 heartbeat IPC: 1.15784 cumulative IPC: 0.92492 (Simulation time: 0 hr 19 min 52 sec) 
Heartbeat CPU  0 instructions:  556000000 cycles:  543458031 heartbeat IPC: 1.04302 cumulative IPC: 0.92515 (Simulation time: 0 hr 19 min 54 sec) 
Heartbeat CPU  0 instructions:  557000000 cycles:  544437132 heartbeat IPC: 1.02135 cumulative IPC: 0.92534 (Simulation time: 0 hr 19 min 56 sec) 
Heartbeat CPU  0 instructions:  558000000 cycles:  545411087 heartbeat IPC: 1.02674 cumulative IPC: 0.92554 (Simulation time: 0 hr 19 min 58 sec) 
Heartbeat CPU  0 instructions:  559000000 cycles:  546362398 heartbeat IPC: 1.05118 cumulative IPC: 0.92578 (Simulation time: 0 hr 20 min 0 sec) 
Heartbeat CPU  0 instructions:  560000000 cycles:  547331387 heartbeat IPC: 1.03200 cumulative IPC: 0.92599 (Simulation time: 0 hr 20 min 2 sec) 
Heartbeat CPU  0 instructions:  561000001 cycles:  548293917 heartbeat IPC: 1.03893 cumulative IPC: 0.92620 (Simulation time: 0 hr 20 min 5 sec) 
Heartbeat CPU  0 instructions:  562000003 cycles:  549247697 heartbeat IPC: 1.04846 cumulative IPC: 0.92644 (Simulation time: 0 hr 20 min 7 sec) 
Heartbeat CPU  0 instructions:  563000000 cycles:  550193594 heartbeat IPC: 1.05719 cumulative IPC: 0.92669 (Simulation time: 0 hr 20 min 9 sec) 
Heartbeat CPU  0 instructions:  564000000 cycles:  551061844 heartbeat IPC: 1.15174 cumulative IPC: 0.92708 (Simulation time: 0 hr 20 min 11 sec) 
Heartbeat CPU  0 instructions:  565000003 cycles:  551879947 heartbeat IPC: 1.22234 cumulative IPC: 0.92756 (Simulation time: 0 hr 20 min 13 sec) 
Heartbeat CPU  0 instructions:  566000003 cycles:  552828607 heartbeat IPC: 1.05412 cumulative IPC: 0.92780 (Simulation time: 0 hr 20 min 15 sec) 
Heartbeat CPU  0 instructions:  567000001 cycles:  553809899 heartbeat IPC: 1.01906 cumulative IPC: 0.92798 (Simulation time: 0 hr 20 min 17 sec) 
Heartbeat CPU  0 instructions:  568000000 cycles:  554798568 heartbeat IPC: 1.01146 cumulative IPC: 0.92814 (Simulation time: 0 hr 20 min 20 sec) 
Heartbeat CPU  0 instructions:  569000002 cycles:  555767556 heartbeat IPC: 1.03201 cumulative IPC: 0.92834 (Simulation time: 0 hr 20 min 22 sec) 
Heartbeat CPU  0 instructions:  570000000 cycles:  556735885 heartbeat IPC: 1.03270 cumulative IPC: 0.92854 (Simulation time: 0 hr 20 min 24 sec) 
Heartbeat CPU  0 instructions:  571000002 cycles:  557693452 heartbeat IPC: 1.04432 cumulative IPC: 0.92876 (Simulation time: 0 hr 20 min 26 sec) 
Heartbeat CPU  0 instructions:  572000000 cycles:  558660066 heartbeat IPC: 1.03454 cumulative IPC: 0.92896 (Simulation time: 0 hr 20 min 29 sec) 
Heartbeat CPU  0 instructions:  573000001 cycles:  559593904 heartbeat IPC: 1.07085 cumulative IPC: 0.92922 (Simulation time: 0 hr 20 min 31 sec) 
Heartbeat CPU  0 instructions:  574000003 cycles:  560515396 heartbeat IPC: 1.08520 cumulative IPC: 0.92950 (Simulation time: 0 hr 20 min 33 sec) 
Heartbeat CPU  0 instructions:  575000000 cycles:  561324165 heartbeat IPC: 1.23644 cumulative IPC: 0.92999 (Simulation time: 0 hr 20 min 35 sec) 
Heartbeat CPU  0 instructions:  576000000 cycles:  562213842 heartbeat IPC: 1.12400 cumulative IPC: 0.93032 (Simulation time: 0 hr 20 min 37 sec) 
Heartbeat CPU  0 instructions:  577000000 cycles:  563193935 heartbeat IPC: 1.02031 cumulative IPC: 0.93050 (Simulation time: 0 hr 20 min 40 sec) 
Heartbeat CPU  0 instructions:  578000002 cycles:  564179377 heartbeat IPC: 1.01478 cumulative IPC: 0.93066 (Simulation time: 0 hr 20 min 42 sec) 
Heartbeat CPU  0 instructions:  579000001 cycles:  565154044 heartbeat IPC: 1.02599 cumulative IPC: 0.93084 (Simulation time: 0 hr 20 min 44 sec) 
Heartbeat CPU  0 instructions:  580000000 cycles:  566143727 heartbeat IPC: 1.01042 cumulative IPC: 0.93099 (Simulation time: 0 hr 20 min 46 sec) 
Heartbeat CPU  0 instructions:  581000002 cycles:  567116804 heartbeat IPC: 1.02767 cumulative IPC: 0.93117 (Simulation time: 0 hr 20 min 48 sec) 
Heartbeat CPU  0 instructions:  582000000 cycles:  568083136 heartbeat IPC: 1.03484 cumulative IPC: 0.93137 (Simulation time: 0 hr 20 min 51 sec) 
Heartbeat CPU  0 instructions:  583000003 cycles:  569059116 heartbeat IPC: 1.02461 cumulative IPC: 0.93154 (Simulation time: 0 hr 20 min 53 sec) 
Heartbeat CPU  0 instructions:  584000000 cycles:  569999914 heartbeat IPC: 1.06292 cumulative IPC: 0.93178 (Simulation time: 0 hr 20 min 55 sec) 
Heartbeat CPU  0 instructions:  585000002 cycles:  570849472 heartbeat IPC: 1.17709 cumulative IPC: 0.93218 (Simulation time: 0 hr 20 min 57 sec) 
Heartbeat CPU  0 instructions:  586000003 cycles:  571673824 heartbeat IPC: 1.21308 cumulative IPC: 0.93262 (Simulation time: 0 hr 20 min 59 sec) 
Heartbeat CPU  0 instructions:  587000001 cycles:  572658138 heartbeat IPC: 1.01593 cumulative IPC: 0.93278 (Simulation time: 0 hr 21 min 1 sec) 
Heartbeat CPU  0 instructions:  588000000 cycles:  573635843 heartbeat IPC: 1.02280 cumulative IPC: 0.93295 (Simulation time: 0 hr 21 min 3 sec) 
Heartbeat CPU  0 instructions:  589000002 cycles:  574630284 heartbeat IPC: 1.00559 cumulative IPC: 0.93309 (Simulation time: 0 hr 21 min 6 sec) 
Heartbeat CPU  0 instructions:  590000001 cycles:  575599476 heartbeat IPC: 1.03179 cumulative IPC: 0.93327 (Simulation time: 0 hr 21 min 8 sec) 
Heartbeat CPU  0 instructions:  591000002 cycles:  576582850 heartbeat IPC: 1.01691 cumulative IPC: 0.93343 (Simulation time: 0 hr 21 min 10 sec) 
Heartbeat CPU  0 instructions:  592000000 cycles:  577543631 heartbeat IPC: 1.04082 cumulative IPC: 0.93362 (Simulation time: 0 hr 21 min 12 sec) 
Heartbeat CPU  0 instructions:  593000003 cycles:  578489716 heartbeat IPC: 1.05699 cumulative IPC: 0.93384 (Simulation time: 0 hr 21 min 14 sec) 
Heartbeat CPU  0 instructions:  594000000 cycles:  579448705 heartbeat IPC: 1.04276 cumulative IPC: 0.93404 (Simulation time: 0 hr 21 min 17 sec) 
Heartbeat CPU  0 instructions:  595000003 cycles:  580339962 heartbeat IPC: 1.12201 cumulative IPC: 0.93436 (Simulation time: 0 hr 21 min 19 sec) 
Heartbeat CPU  0 instructions:  596000000 cycles:  581153501 heartbeat IPC: 1.22919 cumulative IPC: 0.93481 (Simulation time: 0 hr 21 min 21 sec) 
Heartbeat CPU  0 instructions:  597000001 cycles:  582032883 heartbeat IPC: 1.13716 cumulative IPC: 0.93514 (Simulation time: 0 hr 21 min 23 sec) 
Heartbeat CPU  0 instructions:  598000002 cycles:  583035361 heartbeat IPC: 0.99753 cumulative IPC: 0.93526 (Simulation time: 0 hr 21 min 25 sec) 
Heartbeat CPU  0 instructions:  599000000 cycles:  584001190 heartbeat IPC: 1.03538 cumulative IPC: 0.93544 (Simulation time: 0 hr 21 min 28 sec) 
Heartbeat CPU  0 instructions:  600000000 cycles:  584957689 heartbeat IPC: 1.04548 cumulative IPC: 0.93564 (Simulation time: 0 hr 21 min 30 sec) 
Finished CPU 0 instructions: 500000001 cycles: 534393885 cumulative IPC: 0.93564 (Simulation time: 0 hr 21 min 30 sec) 

ChampSim completed all CPUs

[ROI Statistics]
Core_0_instructions 500000001
Core_0_cycles 534393885
Core_0_IPC 0.93564

Core_0_branch_prediction_accuracy 99.14585
Core_0_branch_MPKI 0.18961
Core_0_average_ROB_occupancy_at_mispredict 243.87084

Core_0_L1D_total_access 145939756
Core_0_L1D_total_hit 141088796
Core_0_L1D_total_miss 4850960
Core_0_L1D_loads 135612689
Core_0_L1D_load_hit 132152638
Core_0_L1D_load_miss 3460051
Core_0_L1D_RFOs 10327067
Core_0_L1D_RFO_hit 8936158
Core_0_L1D_RFO_miss 1390909
Core_0_L1D_prefetches 0
Core_0_L1D_prefetch_hit 0
Core_0_L1D_prefetch_miss 0
Core_0_L1D_writebacks 0
Core_0_L1D_writeback_hit 0
Core_0_L1D_writeback_miss 0
Core_0_L1D_prefetch_requested 0
Core_0_L1D_prefetch_dropped 0
Core_0_L1D_prefetch_issued 0
Core_0_L1D_prefetch_filled 0
Core_0_L1D_prefetch_useful 0
Core_0_L1D_prefetch_useless 0
Core_0_L1D_prefetch_late 0
Core_0_L1D_average_miss_latency 159.02674

Core_0_L1D_rq_access 196257076
Core_0_L1D_rq_forward 0
Core_0_L1D_rq_merged 59759071
Core_0_L1D_rq_to_cache 136498005
Core_0_L1D_rq_full 0

Core_0_L1D_wq_access 15647860
Core_0_L1D_wq_forward 0
Core_0_L1D_wq_merged 1
Core_0_L1D_wq_to_cache 15647859
Core_0_L1D_wq_full 945064

Core_0_L1D_pq_access 0
Core_0_L1D_pq_forward 0
Core_0_L1D_pq_merged 0
Core_0_L1D_pq_to_cache 0
Core_0_L1D_pq_full 0

Core_0_L1D_acc_epochs 565573
Core_0_L1D_acc_level_0 565573
Core_0_L1D_acc_level_1 0
Core_0_L1D_acc_level_2 0
Core_0_L1D_acc_level_3 0
Core_0_L1D_acc_level_4 0
Core_0_L1D_acc_level_5 0
Core_0_L1D_acc_level_6 0
Core_0_L1D_acc_level_7 0
Core_0_L1D_acc_level_8 0
Core_0_L1D_acc_level_9 0

Core_0_L1I_total_access 116401061
Core_0_L1I_total_hit 116400685
Core_0_L1I_total_miss 376
Core_0_L1I_loads 116401061
Core_0_L1I_load_hit 116400685
Core_0_L1I_load_miss 376
Core_0_L1I_RFOs 0
Core_0_L1I_RFO_hit 0
Core_0_L1I_RFO_miss 0
Core_0_L1I_prefetches 0
Core_0_L1I_prefetch_hit 0
Core_0_L1I_prefetch_miss 0
Core_0_L1I_writebacks 0
Core_0_L1I_writeback_hit 0
Core_0_L1I_writeback_miss 0
Core_0_L1I_prefetch_requested 0
Core_0_L1I_prefetch_dropped 0
Core_0_L1I_prefetch_issued 0
Core_0_L1I_prefetch_filled 0
Core_0_L1I_prefetch_useful 0
Core_0_L1I_prefetch_useless 0
Core_0_L1I_prefetch_late 0
Core_0_L1I_average_miss_latency 364.68351

Core_0_L1I_rq_access 500000000
Core_0_L1I_rq_forward 0
Core_0_L1I_rq_merged 383598327
Core_0_L1I_rq_to_cache 116401673
Core_0_L1I_rq_full 0

Core_0_L1I_wq_access 0
Core_0_L1I_wq_forward 0
Core_0_L1I_wq_merged 0
Core_0_L1I_wq_to_cache 0
Core_0_L1I_wq_full 0

Core_0_L1I_pq_access 0
Core_0_L1I_pq_forward 0
Core_0_L1I_pq_merged 0
Core_0_L1I_pq_to_cache 0
Core_0_L1I_pq_full 0

Core_0_L1I_acc_epochs 565573
Core_0_L1I_acc_level_0 565573
Core_0_L1I_acc_level_1 0
Core_0_L1I_acc_level_2 0
Core_0_L1I_acc_level_3 0
Core_0_L1I_acc_level_4 0
Core_0_L1I_acc_level_5 0
Core_0_L1I_acc_level_6 0
Core_0_L1I_acc_level_7 0
Core_0_L1I_acc_level_8 0
Core_0_L1I_acc_level_9 0

Core_0_L2C_total_access 8947833
Core_0_L2C_total_hit 5269872
Core_0_L2C_total_miss 3677961
Core_0_L2C_loads 3460392
Core_0_L2C_load_hit 3201410
Core_0_L2C_load_miss 258982
Core_0_L2C_RFOs 1390876
Core_0_L2C_RFO_hit 392887
Core_0_L2C_RFO_miss 997989
Core_0_L2C_prefetches 2437829
Core_0_L2C_prefetch_hit 17411
Core_0_L2C_prefetch_miss 2420418
Core_0_L2C_writebacks 1658736
Core_0_L2C_writeback_hit 1658164
Core_0_L2C_writeback_miss 572
Core_0_L2C_prefetch_requested 4457256
Core_0_L2C_prefetch_dropped 0
Core_0_L2C_prefetch_issued 4457256
Core_0_L2C_prefetch_filled 3239392
Core_0_L2C_prefetch_useful 3158476
Core_0_L2C_prefetch_useless 80484
Core_0_L2C_prefetch_late 6705
Core_0_L2C_average_miss_latency 505.23667

Core_0_L2C_rq_access 4851336
Core_0_L2C_rq_forward 0
Core_0_L2C_rq_merged 0
Core_0_L2C_rq_to_cache 4851268
Core_0_L2C_rq_full 0

Core_0_L2C_wq_access 1658736
Core_0_L2C_wq_forward 73
Core_0_L2C_wq_merged 0
Core_0_L2C_wq_to_cache 1658736
Core_0_L2C_wq_full 0

Core_0_L2C_pq_access 4457256
Core_0_L2C_pq_forward 0
Core_0_L2C_pq_merged 1865
Core_0_L2C_pq_to_cache 4455386
Core_0_L2C_pq_full 0

Core_0_L2C_acc_epochs 565573
Core_0_L2C_acc_level_0 64755
Core_0_L2C_acc_level_1 24781
Core_0_L2C_acc_level_2 23155
Core_0_L2C_acc_level_3 18253
Core_0_L2C_acc_level_4 19980
Core_0_L2C_acc_level_5 23047
Core_0_L2C_acc_level_6 23844
Core_0_L2C_acc_level_7 27203
Core_0_L2C_acc_level_8 40331
Core_0_L2C_acc_level_9 300224

Core_0_LLC_total_access 5396072
Core_0_LLC_total_hit 1149271
Core_0_LLC_total_miss 4246801
Core_0_LLC_loads 252310
Core_0_LLC_load_hit 53266
Core_0_LLC_load_miss 199044
Core_0_LLC_RFOs 997987
Core_0_LLC_RFO_hit 40839
Core_0_LLC_RFO_miss 957148
Core_0_LLC_prefetches 3036441
Core_0_LLC_prefetch_hit 705165
Core_0_LLC_prefetch_miss 2331276
Core_0_LLC_writebacks 1109334
Core_0_LLC_writeback_hit 350001
Core_0_LLC_writeback_miss 759333
Core_0_LLC_prefetch_requested 0
Core_0_LLC_prefetch_dropped 0
Core_0_LLC_prefetch_issued 0
Core_0_LLC_prefetch_filled 3021479
Core_0_LLC_prefetch_useful 87519
Core_0_LLC_prefetch_useless 2909684
Core_0_LLC_prefetch_late 304
Core_0_LLC_average_miss_latency 492.62064

Core_0_LLC_rq_access 1250297
Core_0_LLC_rq_forward 0
Core_0_LLC_rq_merged 0
Core_0_LLC_rq_to_cache 1250297
Core_0_LLC_rq_full 0

Core_0_LLC_wq_access 1109334
Core_0_LLC_wq_forward 0
Core_0_LLC_wq_merged 0
Core_0_LLC_wq_to_cache 1109334
Core_0_LLC_wq_full 0

Core_0_LLC_pq_access 4411752
Core_0_LLC_pq_forward 0
Core_0_LLC_pq_merged 103
Core_0_LLC_pq_to_cache 4411649
Core_0_LLC_pq_full 0

Core_0_LLC_acc_epochs 571248
Core_0_LLC_acc_level_0 540136
Core_0_LLC_acc_level_1 11817
Core_0_LLC_acc_level_2 5750
Core_0_LLC_acc_level_3 2945
Core_0_LLC_acc_level_4 1695
Core_0_LLC_acc_level_5 2263
Core_0_LLC_acc_level_6 1184
Core_0_LLC_acc_level_7 980
Core_0_LLC_acc_level_8 677
Core_0_LLC_acc_level_9 3801

Core_0_major_page_fault 0
Core_0_minor_page_fault 19121

[MLOP] History of tracked zone:
IIIIIIIIIIIIIIIIIIIIIIIIIIIIIIIIIIIIIIIIIIIIIIIIIIIIIIIIIIIIIIII
IIIIIIIIIIIIIIIIIIIIIIIIIIIIIIIIIIIIIIIIIIIIIIIIIIA2222444444III
IIIIIIIIIIIIIIIIIIIIIIIIIIIIIIIIIIIIIIIIIIIIIIIIIIAA2222444444II
IIIIIIIIIIIIIIIIIIIIIIIIIIIIIIIIIIIIIIIIIIIIIIIIIIAAA2222444444I
IIIIIIIIIIIIIIIIIIIIIIIIIIIIIIIIIIIIIIIIIIIIIIIIIIAAAA2222444444
IIIIIIIIIIIIIIIIIIIIIIIIIIIIIIIIIIIIIIIIIIIIIIIIIIAAAAA222244444
IIIIIIIIIIIIIIIIIIIIIIIIIIIIIIIIIIIIIIIIIIIIIIIIIIAAAAAA22224444
IIIIIIIIIIIIIIIIIIIIIIIIIIIIIIIIIIIIIIIIIIIIIIIIIIAAAAAAA2222444
IIIIIIIIIIIIIIIIIIIIIIIIIIIIIIIIIIIIIIIIIIIIIIIIIIAAAAAAAA222244
IIIIIIIIIIIIIIIIIIIIIIIIIIIIIIIIIIIIIIIIIIIIIIIIIIAAAAAAAAA22224
IIIIIIIIIIIIIIIIIIIIIIIIIIIIIIIIIIIIIIIIIIIIIIIIIIAAAAAAAAAA2222
IIIIIIIIIIIIIIIIIIIIIIIIIIIIIIIIIIIIIIIIIIIIIIIIIIAAAAAAAAAAA222
IIIIIIIIIIIIIIIIIIIIIIIIIIIIIIIIIIIIIIIIIIIIIIIIIIAAAAAAAAAAAA22
IIIIIIIIIIIIIIIIIIIIIIIIIIIIIIIIIIIIIIIIIIIIIIIIIIAAAAAAAAAAAAA2
IIIIIIIIIIIIIIIIIIIIIIIIIIIIIIIIIIIIIIIIIIIIIIIIIIAAAAAAAAAAAAAA
IIIIIIIIIIIIIIIIIIIIIIIIIIIIIIIIIIIIIIIIIIIIIIIIIIAAAAAAAAAAAIAA
IIIIIIIIIIIIIIIIIIIIIIIIIIIIIIIIIIIIIIIIIIIIIIIIIIAAAAAAAAAAAIIA
IIIIIIIIIIIIIIIIIIIIIIIIIIIIIIIIIIIIIIIIIIIIIIIIIIAAAAAAAAAAAIII
IIIIIIIIIIIIIIIIIIIIIIIIIIIIIIIIIIIIIIIIIIIIIIIIIIAAAIAAAAAAAIII
IIIIIIIIIIIIIIIIIIIIIIIIIIIIIIIIIIIIIIIIIIIIIIIIIIAAAIIAAAAAAIII
IIIIIIIIIIIIIIIIIIIIIIIIIIIIIIIIIIIIIIIIIIIIIIIIIIAAAIIIAAAAAIII
IIIIIIIIIIIIIIIIIIIIIIIIIIIIIIIIIIIIIIIIIIIIIIIIIIAAAIIIIAAAAIII
IIIIIIIIIIIIIIIIIIIIIIIIIIIIIIIIIIIIIIIIIIIIIIIIIIAAAIIIIIAAAIII
IIIIIIIIIIIIIIIIIIIIIIIIIIIIIIIIIIIIIIIIIIIIIIIIIIAAAIIIIIIAAIII
IIIIIIIIIIIIIIIIIIIIIIIIIIIIIIIIIIIIIIIIIIIIIIIIIIAAAIIIIIIIAIII
IIIIIIIIIIIIIIIIIIIIIIIIIIIIIIIIIIIIIIIIIIIIIIIIIIAAAIIIIIIIIIII
IIIIIIIIIIIIIIIIIIIIIIIIIIIIIIIIIIIIIIIIIIIIIIIIIIAIAIIIIIIIIIII
IIIIIIIIIIIIIIIIIIIIIIIIIIIIIIIIIIIIIIIIIIIIIIIIIIIIAIIIIIIIIIII
IIIIIIIIIIIIIIIIIIIIIIIIIIIIIIIIIIIIIIIIIIIIIIIIIIIIIIIIIIIIIIII
[MLOP] Prefetch Degree Mean: 15.58319
[MLOP] Prefetch Degree SD: 1.80750
[MLOP] Max Score Left Mean (%): 67.24758
[MLOP] Max Score Left SD (%): 18.72855
[MLOP] Max Score Right Mean (%): 99.25626
[MLOP] Max Score Right SD (%): 2.90754

Channel_0_RQ_row_buffer_hit 1029296
Channel_0_RQ_row_buffer_miss 2458106
Channel_0_WQ_row_buffer_hit 404089
Channel_0_WQ_row_buffer_miss 667117
Channel_0_WQ_full 92
Channel_0_dbus_congested 2932814

avg_congested_cycle 43

DRAM_bw_pochs 2284992
DRAM_bw_level_0 1030485
DRAM_bw_level_1 332608
DRAM_bw_level_2 329908
DRAM_bw_level_3 591991
