*************************************************
   ChampSim Multicore Out-of-Order Simulator
   Last compiled: Dec 11 2024 17:59:53
*************************************************
parsing config file: /home/functionmain/桌面/Pythia/config/bingo.ini

trace_0 /home/functionmain/桌面/Pythia/traces/437.leslie3d-149B.champsimtrace.xz
adding L2C_PREFETCHER: Bingo
Initialize SHIP state
warmup_instructions 100000000
simulation_instructions 500000000
champsim_seed 224
measure_ipc 0
measure_ipc_epoch 1000
measure_dram_bw 1
measure_dram_bw_epoch 256
measure_cache_acc 1
measure_cache_acc_epoch 1024
l1d_perfect 0
l2c_perfect 0
llc_perfect 0
l1d_semi_perfect 0
l2c_semi_perfect 0
llc_semi_perfect 0
semi_perfect_cache_page_buffer_size 64

num_cpus 1
cpu_freq 4000
dram_io_freq 2400
page_size 4096
block_size 64
max_read_per_cycle 8
max_fill_per_cycle 1
dram_channels 1
log2_dram_channels 0
dram_ranks 1
dram_banks 8
dram_rows 65536
dram_columns 128
dram_row_size 8
dram_size 4096
dram_pages 1048576

fetch_width 6
decode_width 6
exec_width 4
lq_width 2
sq_width 2
retire_width 4
scheduler_size 128
branch_mispredict_penalty 20
rob_size 256
lq_size 72
sq_size 56
num_instr_destinations_sparc 4
num_instr_destinations 2
num_instr_sources 4

itlb_set 16
itlb_way 8
itlb_rq_size 16
itlb_wq_size 16
itlb_pq_size 0
itlb_mshr_size 8
itlb_latency 1

dtlb_set 16
dtlb_way 4
dtlb_rq_size 16
dtlb_wq_size 16
dtlb_pq_size 0
dtlb_mshr_size 8
dtlb_latency 1

stlb_set 128
stlb_way 12
stlb_rq_size 32
stlb_wq_size 32
stlb_pq_size 0
stlb_mshr_size 16
stlb_latency 8

l1i_size 32
l1i_set 64
l1i_way 8
l1i_rq_size 64
l1i_wq_size 64
l1i_pq_size 8
l1i_mshr_size 8
l1i_latency 1

l1d_size 32
l1d_set 64
l1d_way 8
l1d_rq_size 64
l1d_wq_size 64
l1d_pq_size 8
l1d_mshr_size 16
l1d_latency 4

l2c_size 256
l2c_set 512
l2c_way 8
l2c_rq_size 32
l2c_wq_size 32
l2c_pq_size 32
l2c_mshr_size 32
l2c_latency 10

llc_size 2048
llc_set 2048
llc_way 16
llc_rq_size 32
llc_wq_size 32
llc_pq_size 32
llc_mshr_size 64
llc_latency 20

dram_channel_width 8
dram_wq_size 64
dram_rq_size 64
tRP 15
tRCD 15
tCAS 12.5
dram_dbus_turn_around_time 30
dram_write_high_wm 56
dram_write_low_wm 48
min_dram_writes_per_switch 16
dram_mtps 2400
dram_dbus_return_time 13

bingo_region_size 2048
bingo_pattern_len 32
bingo_pc_width 16
bingo_min_addr_width 5
bingo_max_addr_width 16
bingo_ft_size 64
bingo_at_size 128
bingo_pht_size 4096
bingo_pht_ways 16
bingo_pf_streamer_size 128
bingo_debug_level 0
bingo_l1d_thresh 1.01
bingo_l2c_thresh 0.8
bingo_llc_thresh 0.05
bingo_pc_address_fill_level L2


Heartbeat CPU  0 instructions:    1000002 cycles:     502443 heartbeat IPC: 1.99028 cumulative IPC: 1.99028 (Simulation time: 0 hr 0 min 2 sec) 
Heartbeat CPU  0 instructions:    2000001 cycles:     990594 heartbeat IPC: 2.04854 cumulative IPC: 2.01899 (Simulation time: 0 hr 0 min 3 sec) 
Heartbeat CPU  0 instructions:    3000003 cycles:    1492711 heartbeat IPC: 1.99157 cumulative IPC: 2.00977 (Simulation time: 0 hr 0 min 5 sec) 
Heartbeat CPU  0 instructions:    4000000 cycles:    1994642 heartbeat IPC: 1.99230 cumulative IPC: 2.00537 (Simulation time: 0 hr 0 min 7 sec) 
Heartbeat CPU  0 instructions:    5000000 cycles:    2496909 heartbeat IPC: 1.99097 cumulative IPC: 2.00248 (Simulation time: 0 hr 0 min 9 sec) 
Heartbeat CPU  0 instructions:    6000001 cycles:    2996822 heartbeat IPC: 2.00035 cumulative IPC: 2.00212 (Simulation time: 0 hr 0 min 10 sec) 
Heartbeat CPU  0 instructions:    7000000 cycles:    3487003 heartbeat IPC: 2.04006 cumulative IPC: 2.00745 (Simulation time: 0 hr 0 min 12 sec) 
Heartbeat CPU  0 instructions:    8000000 cycles:    3990157 heartbeat IPC: 1.98746 cumulative IPC: 2.00493 (Simulation time: 0 hr 0 min 14 sec) 
Heartbeat CPU  0 instructions:    9000002 cycles:    4492126 heartbeat IPC: 1.99216 cumulative IPC: 2.00351 (Simulation time: 0 hr 0 min 15 sec) 
Heartbeat CPU  0 instructions:   10000000 cycles:    4994191 heartbeat IPC: 1.99177 cumulative IPC: 2.00233 (Simulation time: 0 hr 0 min 17 sec) 
Heartbeat CPU  0 instructions:   11000002 cycles:    5485315 heartbeat IPC: 2.03615 cumulative IPC: 2.00535 (Simulation time: 0 hr 0 min 19 sec) 
Heartbeat CPU  0 instructions:   12000000 cycles:    5984380 heartbeat IPC: 2.00374 cumulative IPC: 2.00522 (Simulation time: 0 hr 0 min 21 sec) 
Heartbeat CPU  0 instructions:   13000002 cycles:    6486916 heartbeat IPC: 1.98991 cumulative IPC: 2.00403 (Simulation time: 0 hr 0 min 22 sec) 
Heartbeat CPU  0 instructions:   14000003 cycles:    6989389 heartbeat IPC: 1.99016 cumulative IPC: 2.00304 (Simulation time: 0 hr 0 min 24 sec) 
Heartbeat CPU  0 instructions:   15000002 cycles:    7491568 heartbeat IPC: 1.99132 cumulative IPC: 2.00225 (Simulation time: 0 hr 0 min 26 sec) 
Heartbeat CPU  0 instructions:   16000000 cycles:    7979131 heartbeat IPC: 2.05101 cumulative IPC: 2.00523 (Simulation time: 0 hr 0 min 28 sec) 
Heartbeat CPU  0 instructions:   17000001 cycles:    8482016 heartbeat IPC: 1.98853 cumulative IPC: 2.00424 (Simulation time: 0 hr 0 min 29 sec) 
Heartbeat CPU  0 instructions:   18000003 cycles:    8985180 heartbeat IPC: 1.98743 cumulative IPC: 2.00330 (Simulation time: 0 hr 0 min 31 sec) 
Heartbeat CPU  0 instructions:   19000003 cycles:    9487508 heartbeat IPC: 1.99073 cumulative IPC: 2.00263 (Simulation time: 0 hr 0 min 33 sec) 
Heartbeat CPU  0 instructions:   20000000 cycles:    9979600 heartbeat IPC: 2.03213 cumulative IPC: 2.00409 (Simulation time: 0 hr 0 min 34 sec) 
Heartbeat CPU  0 instructions:   21000003 cycles:   10477067 heartbeat IPC: 2.01019 cumulative IPC: 2.00438 (Simulation time: 0 hr 0 min 36 sec) 
Heartbeat CPU  0 instructions:   22000001 cycles:   10979879 heartbeat IPC: 1.98881 cumulative IPC: 2.00367 (Simulation time: 0 hr 0 min 38 sec) 
Heartbeat CPU  0 instructions:   23000002 cycles:   11482526 heartbeat IPC: 1.98947 cumulative IPC: 2.00304 (Simulation time: 0 hr 0 min 40 sec) 
Heartbeat CPU  0 instructions:   24000000 cycles:   11984661 heartbeat IPC: 1.99149 cumulative IPC: 2.00256 (Simulation time: 0 hr 0 min 41 sec) 
Heartbeat CPU  0 instructions:   25000002 cycles:   12472233 heartbeat IPC: 2.05098 cumulative IPC: 2.00445 (Simulation time: 0 hr 0 min 43 sec) 
Heartbeat CPU  0 instructions:   26000002 cycles:   12974128 heartbeat IPC: 1.99245 cumulative IPC: 2.00399 (Simulation time: 0 hr 0 min 45 sec) 
Heartbeat CPU  0 instructions:   27000001 cycles:   13476518 heartbeat IPC: 1.99048 cumulative IPC: 2.00348 (Simulation time: 0 hr 0 min 46 sec) 
Heartbeat CPU  0 instructions:   28000000 cycles:   13979215 heartbeat IPC: 1.98927 cumulative IPC: 2.00297 (Simulation time: 0 hr 0 min 48 sec) 
Heartbeat CPU  0 instructions:   29000003 cycles:   14474260 heartbeat IPC: 2.02002 cumulative IPC: 2.00356 (Simulation time: 0 hr 0 min 50 sec) 
Heartbeat CPU  0 instructions:   30000003 cycles:   14969007 heartbeat IPC: 2.02123 cumulative IPC: 2.00414 (Simulation time: 0 hr 0 min 52 sec) 
Heartbeat CPU  0 instructions:   31000001 cycles:   15471225 heartbeat IPC: 1.99116 cumulative IPC: 2.00372 (Simulation time: 0 hr 0 min 53 sec) 
Heartbeat CPU  0 instructions:   32000000 cycles:   15973569 heartbeat IPC: 1.99067 cumulative IPC: 2.00331 (Simulation time: 0 hr 0 min 55 sec) 
Heartbeat CPU  0 instructions:   33000000 cycles:   16476057 heartbeat IPC: 1.99010 cumulative IPC: 2.00291 (Simulation time: 0 hr 0 min 57 sec) 
Heartbeat CPU  0 instructions:   34000003 cycles:   16963971 heartbeat IPC: 2.04955 cumulative IPC: 2.00425 (Simulation time: 0 hr 0 min 59 sec) 
Heartbeat CPU  0 instructions:   35000003 cycles:   17466020 heartbeat IPC: 1.99184 cumulative IPC: 2.00389 (Simulation time: 0 hr 1 min 0 sec) 
Heartbeat CPU  0 instructions:   36000000 cycles:   17968096 heartbeat IPC: 1.99172 cumulative IPC: 2.00355 (Simulation time: 0 hr 1 min 2 sec) 
Heartbeat CPU  0 instructions:   37000001 cycles:   18471198 heartbeat IPC: 1.98767 cumulative IPC: 2.00312 (Simulation time: 0 hr 1 min 4 sec) 
Heartbeat CPU  0 instructions:   38000003 cycles:   18968875 heartbeat IPC: 2.00934 cumulative IPC: 2.00328 (Simulation time: 0 hr 1 min 6 sec) 
Heartbeat CPU  0 instructions:   39000001 cycles:   19461606 heartbeat IPC: 2.02950 cumulative IPC: 2.00395 (Simulation time: 0 hr 1 min 7 sec) 
Heartbeat CPU  0 instructions:   40000000 cycles:   19963829 heartbeat IPC: 1.99115 cumulative IPC: 2.00362 (Simulation time: 0 hr 1 min 9 sec) 
Heartbeat CPU  0 instructions:   41000002 cycles:   20466244 heartbeat IPC: 1.99039 cumulative IPC: 2.00330 (Simulation time: 0 hr 1 min 11 sec) 
Heartbeat CPU  0 instructions:   42000000 cycles:   20968930 heartbeat IPC: 1.98931 cumulative IPC: 2.00296 (Simulation time: 0 hr 1 min 12 sec) 
Heartbeat CPU  0 instructions:   43000000 cycles:   21457034 heartbeat IPC: 2.04874 cumulative IPC: 2.00400 (Simulation time: 0 hr 1 min 14 sec) 
Heartbeat CPU  0 instructions:   44000000 cycles:   21959394 heartbeat IPC: 1.99060 cumulative IPC: 2.00370 (Simulation time: 0 hr 1 min 16 sec) 
Heartbeat CPU  0 instructions:   45000002 cycles:   22462147 heartbeat IPC: 1.98905 cumulative IPC: 2.00337 (Simulation time: 0 hr 1 min 18 sec) 
Heartbeat CPU  0 instructions:   46000003 cycles:   22964044 heartbeat IPC: 1.99244 cumulative IPC: 2.00313 (Simulation time: 0 hr 1 min 19 sec) 
Heartbeat CPU  0 instructions:   47000000 cycles:   23463122 heartbeat IPC: 2.00369 cumulative IPC: 2.00314 (Simulation time: 0 hr 1 min 21 sec) 
Heartbeat CPU  0 instructions:   48000000 cycles:   23954223 heartbeat IPC: 2.03624 cumulative IPC: 2.00382 (Simulation time: 0 hr 1 min 23 sec) 
Heartbeat CPU  0 instructions:   49000002 cycles:   24457072 heartbeat IPC: 1.98867 cumulative IPC: 2.00351 (Simulation time: 0 hr 1 min 25 sec) 
Heartbeat CPU  0 instructions:   50000003 cycles:   24959524 heartbeat IPC: 1.99024 cumulative IPC: 2.00324 (Simulation time: 0 hr 1 min 26 sec) 
Heartbeat CPU  0 instructions:   51000001 cycles:   25461498 heartbeat IPC: 1.99213 cumulative IPC: 2.00302 (Simulation time: 0 hr 1 min 28 sec) 
Heartbeat CPU  0 instructions:   52000000 cycles:   25951670 heartbeat IPC: 2.04010 cumulative IPC: 2.00372 (Simulation time: 0 hr 1 min 30 sec) 
Heartbeat CPU  0 instructions:   53000003 cycles:   26451556 heartbeat IPC: 2.00046 cumulative IPC: 2.00366 (Simulation time: 0 hr 1 min 32 sec) 
Heartbeat CPU  0 instructions:   54000003 cycles:   26963057 heartbeat IPC: 1.95503 cumulative IPC: 2.00274 (Simulation time: 0 hr 1 min 33 sec) 
Heartbeat CPU  0 instructions:   55000001 cycles:   27482957 heartbeat IPC: 1.92344 cumulative IPC: 2.00124 (Simulation time: 0 hr 1 min 35 sec) 
Heartbeat CPU  0 instructions:   56000000 cycles:   27995649 heartbeat IPC: 1.95049 cumulative IPC: 2.00031 (Simulation time: 0 hr 1 min 37 sec) 
Heartbeat CPU  0 instructions:   57000000 cycles:   28507548 heartbeat IPC: 1.95351 cumulative IPC: 1.99947 (Simulation time: 0 hr 1 min 38 sec) 
Heartbeat CPU  0 instructions:   58000002 cycles:   29021449 heartbeat IPC: 1.94590 cumulative IPC: 1.99852 (Simulation time: 0 hr 1 min 40 sec) 
Heartbeat CPU  0 instructions:   59000003 cycles:   29532874 heartbeat IPC: 1.95532 cumulative IPC: 1.99777 (Simulation time: 0 hr 1 min 41 sec) 
Heartbeat CPU  0 instructions:   60000000 cycles:   30043389 heartbeat IPC: 1.95880 cumulative IPC: 1.99711 (Simulation time: 0 hr 1 min 43 sec) 
Heartbeat CPU  0 instructions:   61000001 cycles:   30555891 heartbeat IPC: 1.95121 cumulative IPC: 1.99634 (Simulation time: 0 hr 1 min 44 sec) 
Heartbeat CPU  0 instructions:   62000003 cycles:   31068504 heartbeat IPC: 1.95079 cumulative IPC: 1.99559 (Simulation time: 0 hr 1 min 46 sec) 
Heartbeat CPU  0 instructions:   63000001 cycles:   31580381 heartbeat IPC: 1.95359 cumulative IPC: 1.99491 (Simulation time: 0 hr 1 min 48 sec) 
Heartbeat CPU  0 instructions:   64000000 cycles:   32093727 heartbeat IPC: 1.94800 cumulative IPC: 1.99416 (Simulation time: 0 hr 1 min 49 sec) 
Heartbeat CPU  0 instructions:   65000000 cycles:   32607091 heartbeat IPC: 1.94794 cumulative IPC: 1.99343 (Simulation time: 0 hr 1 min 51 sec) 
Heartbeat CPU  0 instructions:   66000002 cycles:   33118979 heartbeat IPC: 1.95356 cumulative IPC: 1.99282 (Simulation time: 0 hr 1 min 52 sec) 
Heartbeat CPU  0 instructions:   67000002 cycles:   33632298 heartbeat IPC: 1.94811 cumulative IPC: 1.99213 (Simulation time: 0 hr 1 min 54 sec) 
Heartbeat CPU  0 instructions:   68000000 cycles:   34145466 heartbeat IPC: 1.94868 cumulative IPC: 1.99148 (Simulation time: 0 hr 1 min 56 sec) 
Heartbeat CPU  0 instructions:   69000001 cycles:   34657052 heartbeat IPC: 1.95471 cumulative IPC: 1.99094 (Simulation time: 0 hr 1 min 57 sec) 
Heartbeat CPU  0 instructions:   70000003 cycles:   35169934 heartbeat IPC: 1.94977 cumulative IPC: 1.99034 (Simulation time: 0 hr 1 min 59 sec) 
Heartbeat CPU  0 instructions:   71000002 cycles:   35682738 heartbeat IPC: 1.95006 cumulative IPC: 1.98976 (Simulation time: 0 hr 2 min 0 sec) 
Heartbeat CPU  0 instructions:   72000000 cycles:   36194191 heartbeat IPC: 1.95521 cumulative IPC: 1.98927 (Simulation time: 0 hr 2 min 2 sec) 
Heartbeat CPU  0 instructions:   73000003 cycles:   36706579 heartbeat IPC: 1.95165 cumulative IPC: 1.98874 (Simulation time: 0 hr 2 min 4 sec) 
Heartbeat CPU  0 instructions:   74000001 cycles:   37219201 heartbeat IPC: 1.95075 cumulative IPC: 1.98822 (Simulation time: 0 hr 2 min 5 sec) 
Heartbeat CPU  0 instructions:   75000001 cycles:   37731120 heartbeat IPC: 1.95343 cumulative IPC: 1.98775 (Simulation time: 0 hr 2 min 7 sec) 
Heartbeat CPU  0 instructions:   76000000 cycles:   38243821 heartbeat IPC: 1.95045 cumulative IPC: 1.98725 (Simulation time: 0 hr 2 min 8 sec) 
Heartbeat CPU  0 instructions:   77000001 cycles:   38757333 heartbeat IPC: 1.94738 cumulative IPC: 1.98672 (Simulation time: 0 hr 2 min 10 sec) 
Heartbeat CPU  0 instructions:   78000003 cycles:   39269390 heartbeat IPC: 1.95291 cumulative IPC: 1.98628 (Simulation time: 0 hr 2 min 12 sec) 
Heartbeat CPU  0 instructions:   79000000 cycles:   39781991 heartbeat IPC: 1.95083 cumulative IPC: 1.98582 (Simulation time: 0 hr 2 min 13 sec) 
Heartbeat CPU  0 instructions:   80000000 cycles:   40295403 heartbeat IPC: 1.94775 cumulative IPC: 1.98534 (Simulation time: 0 hr 2 min 15 sec) 
Heartbeat CPU  0 instructions:   81000000 cycles:   40807441 heartbeat IPC: 1.95298 cumulative IPC: 1.98493 (Simulation time: 0 hr 2 min 16 sec) 
Heartbeat CPU  0 instructions:   82000001 cycles:   41319742 heartbeat IPC: 1.95198 cumulative IPC: 1.98452 (Simulation time: 0 hr 2 min 18 sec) 
Heartbeat CPU  0 instructions:   83000001 cycles:   41833346 heartbeat IPC: 1.94703 cumulative IPC: 1.98406 (Simulation time: 0 hr 2 min 20 sec) 
Heartbeat CPU  0 instructions:   84000000 cycles:   42345240 heartbeat IPC: 1.95353 cumulative IPC: 1.98369 (Simulation time: 0 hr 2 min 21 sec) 
Heartbeat CPU  0 instructions:   85000001 cycles:   42857320 heartbeat IPC: 1.95282 cumulative IPC: 1.98333 (Simulation time: 0 hr 2 min 23 sec) 
Heartbeat CPU  0 instructions:   86000002 cycles:   43370778 heartbeat IPC: 1.94758 cumulative IPC: 1.98290 (Simulation time: 0 hr 2 min 24 sec) 
Heartbeat CPU  0 instructions:   87000003 cycles:   43882542 heartbeat IPC: 1.95403 cumulative IPC: 1.98257 (Simulation time: 0 hr 2 min 26 sec) 
Heartbeat CPU  0 instructions:   88000000 cycles:   44394665 heartbeat IPC: 1.95265 cumulative IPC: 1.98222 (Simulation time: 0 hr 2 min 28 sec) 
Heartbeat CPU  0 instructions:   89000002 cycles:   44908393 heartbeat IPC: 1.94656 cumulative IPC: 1.98181 (Simulation time: 0 hr 2 min 29 sec) 
Heartbeat CPU  0 instructions:   90000003 cycles:   45420495 heartbeat IPC: 1.95274 cumulative IPC: 1.98148 (Simulation time: 0 hr 2 min 31 sec) 
Heartbeat CPU  0 instructions:   91000002 cycles:   45931260 heartbeat IPC: 1.95785 cumulative IPC: 1.98122 (Simulation time: 0 hr 2 min 32 sec) 
Heartbeat CPU  0 instructions:   92000000 cycles:   46443838 heartbeat IPC: 1.95092 cumulative IPC: 1.98089 (Simulation time: 0 hr 2 min 34 sec) 
Heartbeat CPU  0 instructions:   93000001 cycles:   46955052 heartbeat IPC: 1.95613 cumulative IPC: 1.98062 (Simulation time: 0 hr 2 min 36 sec) 
Heartbeat CPU  0 instructions:   94000003 cycles:   47466612 heartbeat IPC: 1.95481 cumulative IPC: 1.98034 (Simulation time: 0 hr 2 min 37 sec) 
Heartbeat CPU  0 instructions:   95000003 cycles:   47980395 heartbeat IPC: 1.94635 cumulative IPC: 1.97998 (Simulation time: 0 hr 2 min 39 sec) 
Heartbeat CPU  0 instructions:   96000000 cycles:   48492774 heartbeat IPC: 1.95167 cumulative IPC: 1.97968 (Simulation time: 0 hr 2 min 40 sec) 
Heartbeat CPU  0 instructions:   97000002 cycles:   49004273 heartbeat IPC: 1.95504 cumulative IPC: 1.97942 (Simulation time: 0 hr 2 min 42 sec) 
Heartbeat CPU  0 instructions:   98000000 cycles:   49517396 heartbeat IPC: 1.94885 cumulative IPC: 1.97910 (Simulation time: 0 hr 2 min 44 sec) 
Heartbeat CPU  0 instructions:   99000000 cycles:   50029385 heartbeat IPC: 1.95317 cumulative IPC: 1.97884 (Simulation time: 0 hr 2 min 45 sec) 
Heartbeat CPU  0 instructions:  100000000 cycles:   50566236 heartbeat IPC: 1.86271 cumulative IPC: 1.97760 (Simulation time: 0 hr 2 min 47 sec) 

Warmup complete CPU  0 instructions:  100000001 cycles:   50566257 (Simulation time: 0 hr 2 min 47 sec) 

Heartbeat CPU  0 instructions:  101000003 cycles:   52518204 heartbeat IPC: 0.51231 cumulative IPC: 0.51231 (Simulation time: 0 hr 2 min 50 sec) 
Heartbeat CPU  0 instructions:  102000000 cycles:   55735323 heartbeat IPC: 0.31084 cumulative IPC: 0.38692 (Simulation time: 0 hr 2 min 53 sec) 
Heartbeat CPU  0 instructions:  103000002 cycles:   57864050 heartbeat IPC: 0.46977 cumulative IPC: 0.41108 (Simulation time: 0 hr 2 min 56 sec) 
Heartbeat CPU  0 instructions:  104000000 cycles:   58869677 heartbeat IPC: 0.99440 cumulative IPC: 0.48173 (Simulation time: 0 hr 2 min 58 sec) 
Heartbeat CPU  0 instructions:  105000002 cycles:   59639808 heartbeat IPC: 1.29848 cumulative IPC: 0.55105 (Simulation time: 0 hr 3 min 0 sec) 
Heartbeat CPU  0 instructions:  106000003 cycles:   60415477 heartbeat IPC: 1.28921 cumulative IPC: 0.60919 (Simulation time: 0 hr 3 min 3 sec) 
Heartbeat CPU  0 instructions:  107000000 cycles:   61189055 heartbeat IPC: 1.29269 cumulative IPC: 0.65896 (Simulation time: 0 hr 3 min 5 sec) 
Heartbeat CPU  0 instructions:  108000000 cycles:   61955833 heartbeat IPC: 1.30416 cumulative IPC: 0.70240 (Simulation time: 0 hr 3 min 7 sec) 
Heartbeat CPU  0 instructions:  109000001 cycles:   62731308 heartbeat IPC: 1.28953 cumulative IPC: 0.73982 (Simulation time: 0 hr 3 min 9 sec) 
Heartbeat CPU  0 instructions:  110000001 cycles:   63786418 heartbeat IPC: 0.94777 cumulative IPC: 0.75642 (Simulation time: 0 hr 3 min 11 sec) 
Heartbeat CPU  0 instructions:  111000001 cycles:   64675205 heartbeat IPC: 1.12513 cumulative IPC: 0.77965 (Simulation time: 0 hr 3 min 13 sec) 
Heartbeat CPU  0 instructions:  112000000 cycles:   65483488 heartbeat IPC: 1.23719 cumulative IPC: 0.80444 (Simulation time: 0 hr 3 min 15 sec) 
Heartbeat CPU  0 instructions:  113000003 cycles:   66290090 heartbeat IPC: 1.23977 cumulative IPC: 0.82677 (Simulation time: 0 hr 3 min 17 sec) 
Heartbeat CPU  0 instructions:  114000001 cycles:   67083006 heartbeat IPC: 1.26117 cumulative IPC: 0.84762 (Simulation time: 0 hr 3 min 19 sec) 
Heartbeat CPU  0 instructions:  115000003 cycles:   67881731 heartbeat IPC: 1.25200 cumulative IPC: 0.86628 (Simulation time: 0 hr 3 min 22 sec) 
Heartbeat CPU  0 instructions:  116000000 cycles:   68764144 heartbeat IPC: 1.13325 cumulative IPC: 0.87922 (Simulation time: 0 hr 3 min 24 sec) 
Heartbeat CPU  0 instructions:  117000000 cycles:   69779918 heartbeat IPC: 0.98447 cumulative IPC: 0.88479 (Simulation time: 0 hr 3 min 26 sec) 
Heartbeat CPU  0 instructions:  118000003 cycles:   70599696 heartbeat IPC: 1.21985 cumulative IPC: 0.89850 (Simulation time: 0 hr 3 min 28 sec) 
Heartbeat CPU  0 instructions:  119000000 cycles:   71416065 heartbeat IPC: 1.22493 cumulative IPC: 0.91128 (Simulation time: 0 hr 3 min 30 sec) 
Heartbeat CPU  0 instructions:  120000000 cycles:   72235101 heartbeat IPC: 1.22095 cumulative IPC: 0.92298 (Simulation time: 0 hr 3 min 32 sec) 
Heartbeat CPU  0 instructions:  121000001 cycles:   73050257 heartbeat IPC: 1.22676 cumulative IPC: 0.93400 (Simulation time: 0 hr 3 min 34 sec) 
Heartbeat CPU  0 instructions:  122000002 cycles:   73866755 heartbeat IPC: 1.22474 cumulative IPC: 0.94419 (Simulation time: 0 hr 3 min 36 sec) 
Heartbeat CPU  0 instructions:  123000000 cycles:   74685014 heartbeat IPC: 1.22210 cumulative IPC: 0.95361 (Simulation time: 0 hr 3 min 38 sec) 
Heartbeat CPU  0 instructions:  124000000 cycles:   75501318 heartbeat IPC: 1.22503 cumulative IPC: 0.96250 (Simulation time: 0 hr 3 min 40 sec) 
Heartbeat CPU  0 instructions:  125000002 cycles:   76317056 heartbeat IPC: 1.22589 cumulative IPC: 0.97084 (Simulation time: 0 hr 3 min 42 sec) 
Heartbeat CPU  0 instructions:  126000001 cycles:   77134440 heartbeat IPC: 1.22341 cumulative IPC: 0.97861 (Simulation time: 0 hr 3 min 44 sec) 
Heartbeat CPU  0 instructions:  127000003 cycles:   77951912 heartbeat IPC: 1.22329 cumulative IPC: 0.98592 (Simulation time: 0 hr 3 min 46 sec) 
Heartbeat CPU  0 instructions:  128000000 cycles:   78768005 heartbeat IPC: 1.22535 cumulative IPC: 0.99285 (Simulation time: 0 hr 3 min 48 sec) 
Heartbeat CPU  0 instructions:  129000001 cycles:   79583123 heartbeat IPC: 1.22682 cumulative IPC: 0.99942 (Simulation time: 0 hr 3 min 50 sec) 
Heartbeat CPU  0 instructions:  130000003 cycles:   80423746 heartbeat IPC: 1.18960 cumulative IPC: 1.00477 (Simulation time: 0 hr 3 min 52 sec) 
Heartbeat CPU  0 instructions:  131000000 cycles:   81238901 heartbeat IPC: 1.22676 cumulative IPC: 1.01067 (Simulation time: 0 hr 3 min 54 sec) 
Heartbeat CPU  0 instructions:  132000000 cycles:   82053494 heartbeat IPC: 1.22761 cumulative IPC: 1.01628 (Simulation time: 0 hr 3 min 56 sec) 
Heartbeat CPU  0 instructions:  133000000 cycles:   82868283 heartbeat IPC: 1.22731 cumulative IPC: 1.02161 (Simulation time: 0 hr 3 min 58 sec) 
Heartbeat CPU  0 instructions:  134000003 cycles:   83684098 heartbeat IPC: 1.22577 cumulative IPC: 1.02664 (Simulation time: 0 hr 4 min 0 sec) 
Heartbeat CPU  0 instructions:  135000003 cycles:   84499462 heartbeat IPC: 1.22645 cumulative IPC: 1.03144 (Simulation time: 0 hr 4 min 2 sec) 
Heartbeat CPU  0 instructions:  136000000 cycles:   85313499 heartbeat IPC: 1.22844 cumulative IPC: 1.03605 (Simulation time: 0 hr 4 min 4 sec) 
Heartbeat CPU  0 instructions:  137000003 cycles:   86129413 heartbeat IPC: 1.22562 cumulative IPC: 1.04040 (Simulation time: 0 hr 4 min 6 sec) 
Heartbeat CPU  0 instructions:  138000002 cycles:   86943623 heartbeat IPC: 1.22818 cumulative IPC: 1.04461 (Simulation time: 0 hr 4 min 8 sec) 
Heartbeat CPU  0 instructions:  139000002 cycles:   87758779 heartbeat IPC: 1.22676 cumulative IPC: 1.04860 (Simulation time: 0 hr 4 min 10 sec) 
Heartbeat CPU  0 instructions:  140000000 cycles:   88572259 heartbeat IPC: 1.22928 cumulative IPC: 1.05247 (Simulation time: 0 hr 4 min 12 sec) 
Heartbeat CPU  0 instructions:  141000000 cycles:   89394036 heartbeat IPC: 1.21688 cumulative IPC: 1.05595 (Simulation time: 0 hr 4 min 14 sec) 
Heartbeat CPU  0 instructions:  142000000 cycles:   90215100 heartbeat IPC: 1.21793 cumulative IPC: 1.05930 (Simulation time: 0 hr 4 min 16 sec) 
Heartbeat CPU  0 instructions:  143000003 cycles:   91034908 heartbeat IPC: 1.21980 cumulative IPC: 1.06255 (Simulation time: 0 hr 4 min 18 sec) 
Heartbeat CPU  0 instructions:  144000000 cycles:   91855430 heartbeat IPC: 1.21873 cumulative IPC: 1.06565 (Simulation time: 0 hr 4 min 20 sec) 
Heartbeat CPU  0 instructions:  145000001 cycles:   92701545 heartbeat IPC: 1.18187 cumulative IPC: 1.06799 (Simulation time: 0 hr 4 min 22 sec) 
Heartbeat CPU  0 instructions:  146000003 cycles:   93515543 heartbeat IPC: 1.22851 cumulative IPC: 1.07103 (Simulation time: 0 hr 4 min 24 sec) 
Heartbeat CPU  0 instructions:  147000000 cycles:   94335486 heartbeat IPC: 1.21959 cumulative IPC: 1.07381 (Simulation time: 0 hr 4 min 26 sec) 
Heartbeat CPU  0 instructions:  148000000 cycles:   95157993 heartbeat IPC: 1.21580 cumulative IPC: 1.07643 (Simulation time: 0 hr 4 min 28 sec) 
Heartbeat CPU  0 instructions:  149000003 cycles:   95980769 heartbeat IPC: 1.21540 cumulative IPC: 1.07895 (Simulation time: 0 hr 4 min 30 sec) 
Heartbeat CPU  0 instructions:  150000003 cycles:   96800453 heartbeat IPC: 1.21998 cumulative IPC: 1.08145 (Simulation time: 0 hr 4 min 32 sec) 
Heartbeat CPU  0 instructions:  151000000 cycles:   97618608 heartbeat IPC: 1.22226 cumulative IPC: 1.08390 (Simulation time: 0 hr 4 min 34 sec) 
Heartbeat CPU  0 instructions:  152000000 cycles:   98441705 heartbeat IPC: 1.21492 cumulative IPC: 1.08615 (Simulation time: 0 hr 4 min 36 sec) 
Heartbeat CPU  0 instructions:  153000002 cycles:   99261823 heartbeat IPC: 1.21934 cumulative IPC: 1.08839 (Simulation time: 0 hr 4 min 38 sec) 
Heartbeat CPU  0 instructions:  154000002 cycles:  100080727 heartbeat IPC: 1.22114 cumulative IPC: 1.09059 (Simulation time: 0 hr 4 min 40 sec) 
Heartbeat CPU  0 instructions:  155000001 cycles:  100900885 heartbeat IPC: 1.21928 cumulative IPC: 1.09269 (Simulation time: 0 hr 4 min 42 sec) 
Heartbeat CPU  0 instructions:  156000000 cycles:  101718732 heartbeat IPC: 1.22272 cumulative IPC: 1.09477 (Simulation time: 0 hr 4 min 44 sec) 
Heartbeat CPU  0 instructions:  157000000 cycles:  102536042 heartbeat IPC: 1.22353 cumulative IPC: 1.09679 (Simulation time: 0 hr 4 min 46 sec) 
Heartbeat CPU  0 instructions:  158000001 cycles:  103357393 heartbeat IPC: 1.21751 cumulative IPC: 1.09867 (Simulation time: 0 hr 4 min 48 sec) 
Heartbeat CPU  0 instructions:  159000003 cycles:  104191809 heartbeat IPC: 1.19845 cumulative IPC: 1.10022 (Simulation time: 0 hr 4 min 50 sec) 
Heartbeat CPU  0 instructions:  160000000 cycles:  105005690 heartbeat IPC: 1.22868 cumulative IPC: 1.10214 (Simulation time: 0 hr 4 min 52 sec) 
Heartbeat CPU  0 instructions:  161000001 cycles:  105820206 heartbeat IPC: 1.22772 cumulative IPC: 1.10399 (Simulation time: 0 hr 4 min 54 sec) 
Heartbeat CPU  0 instructions:  162000000 cycles:  106634984 heartbeat IPC: 1.22733 cumulative IPC: 1.10579 (Simulation time: 0 hr 4 min 56 sec) 
Heartbeat CPU  0 instructions:  163000003 cycles:  107450970 heartbeat IPC: 1.22551 cumulative IPC: 1.10750 (Simulation time: 0 hr 4 min 58 sec) 
Heartbeat CPU  0 instructions:  164000000 cycles:  108266402 heartbeat IPC: 1.22634 cumulative IPC: 1.10918 (Simulation time: 0 hr 5 min 0 sec) 
Heartbeat CPU  0 instructions:  165000000 cycles:  109081057 heartbeat IPC: 1.22751 cumulative IPC: 1.11083 (Simulation time: 0 hr 5 min 2 sec) 
Heartbeat CPU  0 instructions:  166000000 cycles:  109896321 heartbeat IPC: 1.22660 cumulative IPC: 1.11242 (Simulation time: 0 hr 5 min 4 sec) 
Heartbeat CPU  0 instructions:  167000003 cycles:  110709190 heartbeat IPC: 1.23021 cumulative IPC: 1.11401 (Simulation time: 0 hr 5 min 6 sec) 
Heartbeat CPU  0 instructions:  168000000 cycles:  111523870 heartbeat IPC: 1.22747 cumulative IPC: 1.11553 (Simulation time: 0 hr 5 min 8 sec) 
Heartbeat CPU  0 instructions:  169000003 cycles:  112338891 heartbeat IPC: 1.22697 cumulative IPC: 1.11700 (Simulation time: 0 hr 5 min 10 sec) 
Heartbeat CPU  0 instructions:  170000001 cycles:  113153544 heartbeat IPC: 1.22751 cumulative IPC: 1.11844 (Simulation time: 0 hr 5 min 12 sec) 
Heartbeat CPU  0 instructions:  171000002 cycles:  113968471 heartbeat IPC: 1.22711 cumulative IPC: 1.11983 (Simulation time: 0 hr 5 min 14 sec) 
Heartbeat CPU  0 instructions:  172000000 cycles:  114781593 heartbeat IPC: 1.22983 cumulative IPC: 1.12123 (Simulation time: 0 hr 5 min 16 sec) 
Heartbeat CPU  0 instructions:  173000002 cycles:  115620119 heartbeat IPC: 1.19257 cumulative IPC: 1.12215 (Simulation time: 0 hr 5 min 18 sec) 
Heartbeat CPU  0 instructions:  174000000 cycles:  116435743 heartbeat IPC: 1.22605 cumulative IPC: 1.12343 (Simulation time: 0 hr 5 min 20 sec) 
Heartbeat CPU  0 instructions:  175000001 cycles:  117249079 heartbeat IPC: 1.22951 cumulative IPC: 1.12473 (Simulation time: 0 hr 5 min 22 sec) 
Heartbeat CPU  0 instructions:  176000000 cycles:  118063503 heartbeat IPC: 1.22786 cumulative IPC: 1.12597 (Simulation time: 0 hr 5 min 24 sec) 
Heartbeat CPU  0 instructions:  177000000 cycles:  118877825 heartbeat IPC: 1.22802 cumulative IPC: 1.12719 (Simulation time: 0 hr 5 min 26 sec) 
Heartbeat CPU  0 instructions:  178000003 cycles:  119693579 heartbeat IPC: 1.22586 cumulative IPC: 1.12835 (Simulation time: 0 hr 5 min 28 sec) 
Heartbeat CPU  0 instructions:  179000000 cycles:  120509018 heartbeat IPC: 1.22633 cumulative IPC: 1.12950 (Simulation time: 0 hr 5 min 30 sec) 
Heartbeat CPU  0 instructions:  180000000 cycles:  121322961 heartbeat IPC: 1.22859 cumulative IPC: 1.13063 (Simulation time: 0 hr 5 min 32 sec) 
Heartbeat CPU  0 instructions:  181000003 cycles:  122137353 heartbeat IPC: 1.22791 cumulative IPC: 1.13174 (Simulation time: 0 hr 5 min 34 sec) 
Heartbeat CPU  0 instructions:  182000003 cycles:  122952104 heartbeat IPC: 1.22737 cumulative IPC: 1.13282 (Simulation time: 0 hr 5 min 35 sec) 
Heartbeat CPU  0 instructions:  183000003 cycles:  123765349 heartbeat IPC: 1.22964 cumulative IPC: 1.13389 (Simulation time: 0 hr 5 min 37 sec) 
Heartbeat CPU  0 instructions:  184000000 cycles:  124582415 heartbeat IPC: 1.22389 cumulative IPC: 1.13489 (Simulation time: 0 hr 5 min 39 sec) 
Heartbeat CPU  0 instructions:  185000002 cycles:  125397872 heartbeat IPC: 1.22631 cumulative IPC: 1.13588 (Simulation time: 0 hr 5 min 41 sec) 
Heartbeat CPU  0 instructions:  186000002 cycles:  126217830 heartbeat IPC: 1.21957 cumulative IPC: 1.13679 (Simulation time: 0 hr 5 min 43 sec) 
Heartbeat CPU  0 instructions:  187000001 cycles:  127940606 heartbeat IPC: 0.58046 cumulative IPC: 1.12440 (Simulation time: 0 hr 5 min 46 sec) 
Heartbeat CPU  0 instructions:  188000000 cycles:  128829853 heartbeat IPC: 1.12455 cumulative IPC: 1.12441 (Simulation time: 0 hr 5 min 48 sec) 
Heartbeat CPU  0 instructions:  189000000 cycles:  129714089 heartbeat IPC: 1.13092 cumulative IPC: 1.12448 (Simulation time: 0 hr 5 min 50 sec) 
Heartbeat CPU  0 instructions:  190000000 cycles:  130599993 heartbeat IPC: 1.12879 cumulative IPC: 1.12453 (Simulation time: 0 hr 5 min 52 sec) 
Heartbeat CPU  0 instructions:  191000003 cycles:  131492975 heartbeat IPC: 1.11985 cumulative IPC: 1.12447 (Simulation time: 0 hr 5 min 54 sec) 
Heartbeat CPU  0 instructions:  192000000 cycles:  132384645 heartbeat IPC: 1.12149 cumulative IPC: 1.12444 (Simulation time: 0 hr 5 min 56 sec) 
Heartbeat CPU  0 instructions:  193000003 cycles:  133271315 heartbeat IPC: 1.12782 cumulative IPC: 1.12448 (Simulation time: 0 hr 5 min 58 sec) 
Heartbeat CPU  0 instructions:  194000001 cycles:  134159704 heartbeat IPC: 1.12563 cumulative IPC: 1.12449 (Simulation time: 0 hr 5 min 59 sec) 
Heartbeat CPU  0 instructions:  195000000 cycles:  135186548 heartbeat IPC: 0.97386 cumulative IPC: 1.12266 (Simulation time: 0 hr 6 min 1 sec) 
Heartbeat CPU  0 instructions:  196000000 cycles:  136719890 heartbeat IPC: 0.65217 cumulative IPC: 1.11429 (Simulation time: 0 hr 6 min 4 sec) 
Heartbeat CPU  0 instructions:  197000000 cycles:  137586673 heartbeat IPC: 1.15369 cumulative IPC: 1.11468 (Simulation time: 0 hr 6 min 6 sec) 
Heartbeat CPU  0 instructions:  198000002 cycles:  138457006 heartbeat IPC: 1.14899 cumulative IPC: 1.11502 (Simulation time: 0 hr 6 min 8 sec) 
Heartbeat CPU  0 instructions:  199000001 cycles:  139323741 heartbeat IPC: 1.15375 cumulative IPC: 1.11540 (Simulation time: 0 hr 6 min 10 sec) 
Heartbeat CPU  0 instructions:  200000000 cycles:  140191740 heartbeat IPC: 1.15207 cumulative IPC: 1.11575 (Simulation time: 0 hr 6 min 12 sec) 
Heartbeat CPU  0 instructions:  201000001 cycles:  141057137 heartbeat IPC: 1.15554 cumulative IPC: 1.11613 (Simulation time: 0 hr 6 min 14 sec) 
Heartbeat CPU  0 instructions:  202000002 cycles:  141917369 heartbeat IPC: 1.16248 cumulative IPC: 1.11657 (Simulation time: 0 hr 6 min 16 sec) 
Heartbeat CPU  0 instructions:  203000002 cycles:  142778136 heartbeat IPC: 1.16175 cumulative IPC: 1.11699 (Simulation time: 0 hr 6 min 18 sec) 
Heartbeat CPU  0 instructions:  204000000 cycles:  144081404 heartbeat IPC: 0.76730 cumulative IPC: 1.11212 (Simulation time: 0 hr 6 min 20 sec) 
Heartbeat CPU  0 instructions:  205000003 cycles:  145303236 heartbeat IPC: 0.81845 cumulative IPC: 1.10833 (Simulation time: 0 hr 6 min 22 sec) 
Heartbeat CPU  0 instructions:  206000000 cycles:  146200512 heartbeat IPC: 1.11448 cumulative IPC: 1.10839 (Simulation time: 0 hr 6 min 24 sec) 
Heartbeat CPU  0 instructions:  207000001 cycles:  147104465 heartbeat IPC: 1.10625 cumulative IPC: 1.10837 (Simulation time: 0 hr 6 min 26 sec) 
Heartbeat CPU  0 instructions:  208000000 cycles:  148018616 heartbeat IPC: 1.09391 cumulative IPC: 1.10823 (Simulation time: 0 hr 6 min 28 sec) 
Heartbeat CPU  0 instructions:  209000001 cycles:  148949207 heartbeat IPC: 1.07459 cumulative IPC: 1.10792 (Simulation time: 0 hr 6 min 30 sec) 
Heartbeat CPU  0 instructions:  210000003 cycles:  149870190 heartbeat IPC: 1.08580 cumulative IPC: 1.10771 (Simulation time: 0 hr 6 min 32 sec) 
Heartbeat CPU  0 instructions:  211000001 cycles:  150747917 heartbeat IPC: 1.13930 cumulative IPC: 1.10799 (Simulation time: 0 hr 6 min 34 sec) 
Heartbeat CPU  0 instructions:  212000000 cycles:  151635701 heartbeat IPC: 1.12640 cumulative IPC: 1.10815 (Simulation time: 0 hr 6 min 36 sec) 
Heartbeat CPU  0 instructions:  213000001 cycles:  153163402 heartbeat IPC: 0.65458 cumulative IPC: 1.10140 (Simulation time: 0 hr 6 min 38 sec) 
Heartbeat CPU  0 instructions:  214000002 cycles:  154320918 heartbeat IPC: 0.86392 cumulative IPC: 1.09875 (Simulation time: 0 hr 6 min 40 sec) 
Heartbeat CPU  0 instructions:  215000002 cycles:  155469182 heartbeat IPC: 0.87088 cumulative IPC: 1.09625 (Simulation time: 0 hr 6 min 43 sec) 
Heartbeat CPU  0 instructions:  216000000 cycles:  156596590 heartbeat IPC: 0.88699 cumulative IPC: 1.09403 (Simulation time: 0 hr 6 min 45 sec) 
Heartbeat CPU  0 instructions:  217000002 cycles:  157724830 heartbeat IPC: 0.88634 cumulative IPC: 1.09184 (Simulation time: 0 hr 6 min 48 sec) 
Heartbeat CPU  0 instructions:  218000003 cycles:  158852368 heartbeat IPC: 0.88689 cumulative IPC: 1.08971 (Simulation time: 0 hr 6 min 50 sec) 
Heartbeat CPU  0 instructions:  219000000 cycles:  160004803 heartbeat IPC: 0.86773 cumulative IPC: 1.08737 (Simulation time: 0 hr 6 min 52 sec) 
Heartbeat CPU  0 instructions:  220000000 cycles:  161134341 heartbeat IPC: 0.88532 cumulative IPC: 1.08530 (Simulation time: 0 hr 6 min 55 sec) 
Heartbeat CPU  0 instructions:  221000000 cycles:  162262010 heartbeat IPC: 0.88679 cumulative IPC: 1.08330 (Simulation time: 0 hr 6 min 57 sec) 
Heartbeat CPU  0 instructions:  222000001 cycles:  163393943 heartbeat IPC: 0.88345 cumulative IPC: 1.08129 (Simulation time: 0 hr 7 min 0 sec) 
Heartbeat CPU  0 instructions:  223000000 cycles:  164519648 heartbeat IPC: 0.88833 cumulative IPC: 1.07939 (Simulation time: 0 hr 7 min 2 sec) 
Heartbeat CPU  0 instructions:  224000000 cycles:  165676233 heartbeat IPC: 0.86461 cumulative IPC: 1.07723 (Simulation time: 0 hr 7 min 4 sec) 
Heartbeat CPU  0 instructions:  225000002 cycles:  166810454 heartbeat IPC: 0.88166 cumulative IPC: 1.07532 (Simulation time: 0 hr 7 min 7 sec) 
Heartbeat CPU  0 instructions:  226000003 cycles:  167939643 heartbeat IPC: 0.88559 cumulative IPC: 1.07350 (Simulation time: 0 hr 7 min 9 sec) 
Heartbeat CPU  0 instructions:  227000002 cycles:  169072961 heartbeat IPC: 0.88236 cumulative IPC: 1.07167 (Simulation time: 0 hr 7 min 12 sec) 
Heartbeat CPU  0 instructions:  228000000 cycles:  170239203 heartbeat IPC: 0.85745 cumulative IPC: 1.06958 (Simulation time: 0 hr 7 min 14 sec) 
Heartbeat CPU  0 instructions:  229000002 cycles:  171367114 heartbeat IPC: 0.88660 cumulative IPC: 1.06787 (Simulation time: 0 hr 7 min 17 sec) 
Heartbeat CPU  0 instructions:  230000000 cycles:  172501723 heartbeat IPC: 0.88136 cumulative IPC: 1.06614 (Simulation time: 0 hr 7 min 19 sec) 
Heartbeat CPU  0 instructions:  231000001 cycles:  173622515 heartbeat IPC: 0.89223 cumulative IPC: 1.06455 (Simulation time: 0 hr 7 min 21 sec) 
Heartbeat CPU  0 instructions:  232000000 cycles:  174786333 heartbeat IPC: 0.85924 cumulative IPC: 1.06263 (Simulation time: 0 hr 7 min 24 sec) 
Heartbeat CPU  0 instructions:  233000001 cycles:  175906336 heartbeat IPC: 0.89286 cumulative IPC: 1.06111 (Simulation time: 0 hr 7 min 26 sec) 
Heartbeat CPU  0 instructions:  234000002 cycles:  177042214 heartbeat IPC: 0.88038 cumulative IPC: 1.05949 (Simulation time: 0 hr 7 min 28 sec) 
Heartbeat CPU  0 instructions:  235000002 cycles:  178168092 heartbeat IPC: 0.88820 cumulative IPC: 1.05798 (Simulation time: 0 hr 7 min 31 sec) 
Heartbeat CPU  0 instructions:  236000000 cycles:  179328181 heartbeat IPC: 0.86200 cumulative IPC: 1.05621 (Simulation time: 0 hr 7 min 33 sec) 
Heartbeat CPU  0 instructions:  237000003 cycles:  180460779 heartbeat IPC: 0.88293 cumulative IPC: 1.05470 (Simulation time: 0 hr 7 min 36 sec) 
Heartbeat CPU  0 instructions:  238000003 cycles:  181587180 heartbeat IPC: 0.88778 cumulative IPC: 1.05327 (Simulation time: 0 hr 7 min 38 sec) 
Heartbeat CPU  0 instructions:  239000000 cycles:  182725794 heartbeat IPC: 0.87826 cumulative IPC: 1.05176 (Simulation time: 0 hr 7 min 40 sec) 
Heartbeat CPU  0 instructions:  240000000 cycles:  183870194 heartbeat IPC: 0.87382 cumulative IPC: 1.05023 (Simulation time: 0 hr 7 min 43 sec) 
Heartbeat CPU  0 instructions:  241000000 cycles:  185013173 heartbeat IPC: 0.87491 cumulative IPC: 1.04874 (Simulation time: 0 hr 7 min 45 sec) 
Heartbeat CPU  0 instructions:  242000001 cycles:  186130817 heartbeat IPC: 0.89474 cumulative IPC: 1.04747 (Simulation time: 0 hr 7 min 48 sec) 
Heartbeat CPU  0 instructions:  243000000 cycles:  187276024 heartbeat IPC: 0.87320 cumulative IPC: 1.04601 (Simulation time: 0 hr 7 min 50 sec) 
Heartbeat CPU  0 instructions:  244000000 cycles:  188400716 heartbeat IPC: 0.88913 cumulative IPC: 1.04473 (Simulation time: 0 hr 7 min 52 sec) 
Heartbeat CPU  0 instructions:  245000002 cycles:  189547353 heartbeat IPC: 0.87212 cumulative IPC: 1.04331 (Simulation time: 0 hr 7 min 55 sec) 
Heartbeat CPU  0 instructions:  246000003 cycles:  190683996 heartbeat IPC: 0.87978 cumulative IPC: 1.04198 (Simulation time: 0 hr 7 min 57 sec) 
Heartbeat CPU  0 instructions:  247000003 cycles:  191811208 heartbeat IPC: 0.88714 cumulative IPC: 1.04075 (Simulation time: 0 hr 8 min 0 sec) 
Heartbeat CPU  0 instructions:  248000000 cycles:  192948557 heartbeat IPC: 0.87923 cumulative IPC: 1.03946 (Simulation time: 0 hr 8 min 2 sec) 
Heartbeat CPU  0 instructions:  249000003 cycles:  194096587 heartbeat IPC: 0.87106 cumulative IPC: 1.03811 (Simulation time: 0 hr 8 min 5 sec) 
Heartbeat CPU  0 instructions:  250000000 cycles:  195228349 heartbeat IPC: 0.88358 cumulative IPC: 1.03690 (Simulation time: 0 hr 8 min 7 sec) 
Heartbeat CPU  0 instructions:  251000000 cycles:  196594543 heartbeat IPC: 0.73196 cumulative IPC: 1.03405 (Simulation time: 0 hr 8 min 9 sec) 
Heartbeat CPU  0 instructions:  252000000 cycles:  197729185 heartbeat IPC: 0.88134 cumulative IPC: 1.03287 (Simulation time: 0 hr 8 min 12 sec) 
Heartbeat CPU  0 instructions:  253000002 cycles:  198602093 heartbeat IPC: 1.14560 cumulative IPC: 1.03353 (Simulation time: 0 hr 8 min 14 sec) 
Heartbeat CPU  0 instructions:  254000003 cycles:  199476169 heartbeat IPC: 1.14407 cumulative IPC: 1.03418 (Simulation time: 0 hr 8 min 16 sec) 
Heartbeat CPU  0 instructions:  255000000 cycles:  200353394 heartbeat IPC: 1.13995 cumulative IPC: 1.03480 (Simulation time: 0 hr 8 min 18 sec) 
Heartbeat CPU  0 instructions:  256000000 cycles:  201227129 heartbeat IPC: 1.14451 cumulative IPC: 1.03544 (Simulation time: 0 hr 8 min 20 sec) 
Heartbeat CPU  0 instructions:  257000000 cycles:  202089023 heartbeat IPC: 1.16024 cumulative IPC: 1.03615 (Simulation time: 0 hr 8 min 22 sec) 
Heartbeat CPU  0 instructions:  258000002 cycles:  202949200 heartbeat IPC: 1.16255 cumulative IPC: 1.03686 (Simulation time: 0 hr 8 min 24 sec) 
Heartbeat CPU  0 instructions:  259000000 cycles:  203812060 heartbeat IPC: 1.15893 cumulative IPC: 1.03755 (Simulation time: 0 hr 8 min 26 sec) 
Heartbeat CPU  0 instructions:  260000000 cycles:  204669843 heartbeat IPC: 1.16580 cumulative IPC: 1.03826 (Simulation time: 0 hr 8 min 28 sec) 
Heartbeat CPU  0 instructions:  261000001 cycles:  205530174 heartbeat IPC: 1.16234 cumulative IPC: 1.03895 (Simulation time: 0 hr 8 min 30 sec) 
Heartbeat CPU  0 instructions:  262000000 cycles:  206399517 heartbeat IPC: 1.15029 cumulative IPC: 1.03957 (Simulation time: 0 hr 8 min 32 sec) 
Heartbeat CPU  0 instructions:  263000002 cycles:  207251809 heartbeat IPC: 1.17331 cumulative IPC: 1.04030 (Simulation time: 0 hr 8 min 34 sec) 
Heartbeat CPU  0 instructions:  264000000 cycles:  208111586 heartbeat IPC: 1.16309 cumulative IPC: 1.04097 (Simulation time: 0 hr 8 min 36 sec) 
Heartbeat CPU  0 instructions:  265000002 cycles:  208965283 heartbeat IPC: 1.17138 cumulative IPC: 1.04167 (Simulation time: 0 hr 8 min 38 sec) 
Heartbeat CPU  0 instructions:  266000000 cycles:  209817237 heartbeat IPC: 1.17377 cumulative IPC: 1.04238 (Simulation time: 0 hr 8 min 41 sec) 
Heartbeat CPU  0 instructions:  267000000 cycles:  210663789 heartbeat IPC: 1.18126 cumulative IPC: 1.04311 (Simulation time: 0 hr 8 min 43 sec) 
Heartbeat CPU  0 instructions:  268000000 cycles:  211558573 heartbeat IPC: 1.11759 cumulative IPC: 1.04353 (Simulation time: 0 hr 8 min 45 sec) 
Heartbeat CPU  0 instructions:  269000000 cycles:  212411606 heartbeat IPC: 1.17229 cumulative IPC: 1.04421 (Simulation time: 0 hr 8 min 47 sec) 
Heartbeat CPU  0 instructions:  270000003 cycles:  213271181 heartbeat IPC: 1.16337 cumulative IPC: 1.04484 (Simulation time: 0 hr 8 min 49 sec) 
Heartbeat CPU  0 instructions:  271000001 cycles:  214128316 heartbeat IPC: 1.16667 cumulative IPC: 1.04547 (Simulation time: 0 hr 8 min 51 sec) 
Heartbeat CPU  0 instructions:  272000000 cycles:  215007813 heartbeat IPC: 1.13701 cumulative IPC: 1.04596 (Simulation time: 0 hr 8 min 53 sec) 
Heartbeat CPU  0 instructions:  273000000 cycles:  215864576 heartbeat IPC: 1.16718 cumulative IPC: 1.04659 (Simulation time: 0 hr 8 min 55 sec) 
Heartbeat CPU  0 instructions:  274000002 cycles:  216715784 heartbeat IPC: 1.17480 cumulative IPC: 1.04725 (Simulation time: 0 hr 8 min 57 sec) 
Heartbeat CPU  0 instructions:  275000000 cycles:  217577576 heartbeat IPC: 1.16037 cumulative IPC: 1.04783 (Simulation time: 0 hr 8 min 59 sec) 
Heartbeat CPU  0 instructions:  276000000 cycles:  218447335 heartbeat IPC: 1.14974 cumulative IPC: 1.04836 (Simulation time: 0 hr 9 min 1 sec) 
Heartbeat CPU  0 instructions:  277000002 cycles:  219313436 heartbeat IPC: 1.15460 cumulative IPC: 1.04891 (Simulation time: 0 hr 9 min 3 sec) 
Heartbeat CPU  0 instructions:  278000002 cycles:  220172033 heartbeat IPC: 1.16469 cumulative IPC: 1.04949 (Simulation time: 0 hr 9 min 5 sec) 
Heartbeat CPU  0 instructions:  279000000 cycles:  221028341 heartbeat IPC: 1.16780 cumulative IPC: 1.05009 (Simulation time: 0 hr 9 min 7 sec) 
Heartbeat CPU  0 instructions:  280000000 cycles:  221874327 heartbeat IPC: 1.18205 cumulative IPC: 1.05074 (Simulation time: 0 hr 9 min 9 sec) 
Heartbeat CPU  0 instructions:  281000002 cycles:  222727462 heartbeat IPC: 1.17215 cumulative IPC: 1.05134 (Simulation time: 0 hr 9 min 11 sec) 
Heartbeat CPU  0 instructions:  282000002 cycles:  223612158 heartbeat IPC: 1.13033 cumulative IPC: 1.05174 (Simulation time: 0 hr 9 min 14 sec) 
Heartbeat CPU  0 instructions:  283000001 cycles:  224473980 heartbeat IPC: 1.16033 cumulative IPC: 1.05228 (Simulation time: 0 hr 9 min 16 sec) 
Heartbeat CPU  0 instructions:  284000000 cycles:  225337969 heartbeat IPC: 1.15742 cumulative IPC: 1.05280 (Simulation time: 0 hr 9 min 18 sec) 
Heartbeat CPU  0 instructions:  285000003 cycles:  226192743 heartbeat IPC: 1.16990 cumulative IPC: 1.05337 (Simulation time: 0 hr 9 min 20 sec) 
Heartbeat CPU  0 instructions:  286000003 cycles:  227052473 heartbeat IPC: 1.16316 cumulative IPC: 1.05391 (Simulation time: 0 hr 9 min 22 sec) 
Heartbeat CPU  0 instructions:  287000001 cycles:  227920034 heartbeat IPC: 1.15265 cumulative IPC: 1.05439 (Simulation time: 0 hr 9 min 24 sec) 
Heartbeat CPU  0 instructions:  288000000 cycles:  228780534 heartbeat IPC: 1.16211 cumulative IPC: 1.05491 (Simulation time: 0 hr 9 min 26 sec) 
Heartbeat CPU  0 instructions:  289000001 cycles:  229634856 heartbeat IPC: 1.17052 cumulative IPC: 1.05546 (Simulation time: 0 hr 9 min 28 sec) 
Heartbeat CPU  0 instructions:  290000003 cycles:  230490918 heartbeat IPC: 1.16814 cumulative IPC: 1.05600 (Simulation time: 0 hr 9 min 30 sec) 
Heartbeat CPU  0 instructions:  291000003 cycles:  231336823 heartbeat IPC: 1.18217 cumulative IPC: 1.05659 (Simulation time: 0 hr 9 min 32 sec) 
Heartbeat CPU  0 instructions:  292000000 cycles:  232194263 heartbeat IPC: 1.16626 cumulative IPC: 1.05711 (Simulation time: 0 hr 9 min 34 sec) 
Heartbeat CPU  0 instructions:  293000002 cycles:  233093012 heartbeat IPC: 1.11266 cumulative IPC: 1.05738 (Simulation time: 0 hr 9 min 36 sec) 
Heartbeat CPU  0 instructions:  294000002 cycles:  233954837 heartbeat IPC: 1.16033 cumulative IPC: 1.05786 (Simulation time: 0 hr 9 min 38 sec) 
Heartbeat CPU  0 instructions:  295000001 cycles:  234820529 heartbeat IPC: 1.15514 cumulative IPC: 1.05832 (Simulation time: 0 hr 9 min 40 sec) 
Heartbeat CPU  0 instructions:  296000000 cycles:  235682625 heartbeat IPC: 1.15996 cumulative IPC: 1.05879 (Simulation time: 0 hr 9 min 42 sec) 
Heartbeat CPU  0 instructions:  297000003 cycles:  236533254 heartbeat IPC: 1.17560 cumulative IPC: 1.05933 (Simulation time: 0 hr 9 min 44 sec) 
Heartbeat CPU  0 instructions:  298000000 cycles:  237389646 heartbeat IPC: 1.16769 cumulative IPC: 1.05982 (Simulation time: 0 hr 9 min 47 sec) 
Heartbeat CPU  0 instructions:  299000003 cycles:  238252607 heartbeat IPC: 1.15880 cumulative IPC: 1.06028 (Simulation time: 0 hr 9 min 49 sec) 
Heartbeat CPU  0 instructions:  300000000 cycles:  239131167 heartbeat IPC: 1.13822 cumulative IPC: 1.06064 (Simulation time: 0 hr 9 min 51 sec) 
Heartbeat CPU  0 instructions:  301000000 cycles:  239993996 heartbeat IPC: 1.15898 cumulative IPC: 1.06109 (Simulation time: 0 hr 9 min 53 sec) 
Heartbeat CPU  0 instructions:  302000003 cycles:  240874039 heartbeat IPC: 1.13631 cumulative IPC: 1.06144 (Simulation time: 0 hr 9 min 55 sec) 
Heartbeat CPU  0 instructions:  303000000 cycles:  241762179 heartbeat IPC: 1.12595 cumulative IPC: 1.06174 (Simulation time: 0 hr 9 min 57 sec) 
Heartbeat CPU  0 instructions:  304000000 cycles:  242634337 heartbeat IPC: 1.14658 cumulative IPC: 1.06212 (Simulation time: 0 hr 9 min 59 sec) 
Heartbeat CPU  0 instructions:  305000003 cycles:  243505865 heartbeat IPC: 1.14741 cumulative IPC: 1.06251 (Simulation time: 0 hr 10 min 1 sec) 
Heartbeat CPU  0 instructions:  306000001 cycles:  244386363 heartbeat IPC: 1.13572 cumulative IPC: 1.06284 (Simulation time: 0 hr 10 min 3 sec) 
Heartbeat CPU  0 instructions:  307000001 cycles:  245257047 heartbeat IPC: 1.14852 cumulative IPC: 1.06322 (Simulation time: 0 hr 10 min 5 sec) 
Heartbeat CPU  0 instructions:  308000000 cycles:  246113234 heartbeat IPC: 1.16797 cumulative IPC: 1.06368 (Simulation time: 0 hr 10 min 7 sec) 
Heartbeat CPU  0 instructions:  309000001 cycles:  246980706 heartbeat IPC: 1.15278 cumulative IPC: 1.06408 (Simulation time: 0 hr 10 min 9 sec) 
Heartbeat CPU  0 instructions:  310000000 cycles:  247830753 heartbeat IPC: 1.17640 cumulative IPC: 1.06456 (Simulation time: 0 hr 10 min 11 sec) 
Heartbeat CPU  0 instructions:  311000000 cycles:  248683208 heartbeat IPC: 1.17308 cumulative IPC: 1.06503 (Simulation time: 0 hr 10 min 14 sec) 
Heartbeat CPU  0 instructions:  312000000 cycles:  249536033 heartbeat IPC: 1.17257 cumulative IPC: 1.06549 (Simulation time: 0 hr 10 min 16 sec) 
Heartbeat CPU  0 instructions:  313000003 cycles:  250385703 heartbeat IPC: 1.17693 cumulative IPC: 1.06596 (Simulation time: 0 hr 10 min 18 sec) 
Heartbeat CPU  0 instructions:  314000001 cycles:  251280994 heartbeat IPC: 1.11695 cumulative IPC: 1.06619 (Simulation time: 0 hr 10 min 20 sec) 
Heartbeat CPU  0 instructions:  315000000 cycles:  252150661 heartbeat IPC: 1.14986 cumulative IPC: 1.06655 (Simulation time: 0 hr 10 min 22 sec) 
Heartbeat CPU  0 instructions:  316000000 cycles:  253009739 heartbeat IPC: 1.16404 cumulative IPC: 1.06696 (Simulation time: 0 hr 10 min 24 sec) 
Heartbeat CPU  0 instructions:  317000003 cycles:  253878737 heartbeat IPC: 1.15075 cumulative IPC: 1.06732 (Simulation time: 0 hr 10 min 26 sec) 
Heartbeat CPU  0 instructions:  318000002 cycles:  254753727 heartbeat IPC: 1.14287 cumulative IPC: 1.06765 (Simulation time: 0 hr 10 min 28 sec) 
Heartbeat CPU  0 instructions:  319000002 cycles:  255625171 heartbeat IPC: 1.14752 cumulative IPC: 1.06799 (Simulation time: 0 hr 10 min 30 sec) 
Heartbeat CPU  0 instructions:  320000000 cycles:  256486656 heartbeat IPC: 1.16078 cumulative IPC: 1.06837 (Simulation time: 0 hr 10 min 32 sec) 
Heartbeat CPU  0 instructions:  321000002 cycles:  257335241 heartbeat IPC: 1.17843 cumulative IPC: 1.06883 (Simulation time: 0 hr 10 min 34 sec) 
Heartbeat CPU  0 instructions:  322000002 cycles:  258187434 heartbeat IPC: 1.17344 cumulative IPC: 1.06926 (Simulation time: 0 hr 10 min 36 sec) 
Heartbeat CPU  0 instructions:  323000002 cycles:  259042801 heartbeat IPC: 1.16909 cumulative IPC: 1.06966 (Simulation time: 0 hr 10 min 38 sec) 
Heartbeat CPU  0 instructions:  324000000 cycles:  259940543 heartbeat IPC: 1.11390 cumulative IPC: 1.06985 (Simulation time: 0 hr 10 min 40 sec) 
Heartbeat CPU  0 instructions:  325000002 cycles:  260796333 heartbeat IPC: 1.16851 cumulative IPC: 1.07026 (Simulation time: 0 hr 10 min 42 sec) 
Heartbeat CPU  0 instructions:  326000000 cycles:  261668314 heartbeat IPC: 1.14681 cumulative IPC: 1.07057 (Simulation time: 0 hr 10 min 44 sec) 
Heartbeat CPU  0 instructions:  327000002 cycles:  262528772 heartbeat IPC: 1.16217 cumulative IPC: 1.07094 (Simulation time: 0 hr 10 min 47 sec) 
Heartbeat CPU  0 instructions:  328000000 cycles:  263401889 heartbeat IPC: 1.14532 cumulative IPC: 1.07125 (Simulation time: 0 hr 10 min 49 sec) 
Heartbeat CPU  0 instructions:  329000001 cycles:  264280224 heartbeat IPC: 1.13852 cumulative IPC: 1.07153 (Simulation time: 0 hr 10 min 51 sec) 
Heartbeat CPU  0 instructions:  330000001 cycles:  265156347 heartbeat IPC: 1.14139 cumulative IPC: 1.07181 (Simulation time: 0 hr 10 min 53 sec) 
Heartbeat CPU  0 instructions:  331000001 cycles:  266013282 heartbeat IPC: 1.16695 cumulative IPC: 1.07219 (Simulation time: 0 hr 10 min 55 sec) 
Heartbeat CPU  0 instructions:  332000000 cycles:  266860251 heartbeat IPC: 1.18068 cumulative IPC: 1.07261 (Simulation time: 0 hr 10 min 57 sec) 
Heartbeat CPU  0 instructions:  333000001 cycles:  267709545 heartbeat IPC: 1.17745 cumulative IPC: 1.07302 (Simulation time: 0 hr 10 min 59 sec) 
Heartbeat CPU  0 instructions:  334000003 cycles:  268558966 heartbeat IPC: 1.17727 cumulative IPC: 1.07343 (Simulation time: 0 hr 11 min 1 sec) 
Heartbeat CPU  0 instructions:  335000002 cycles:  269457103 heartbeat IPC: 1.11341 cumulative IPC: 1.07359 (Simulation time: 0 hr 11 min 3 sec) 
Heartbeat CPU  0 instructions:  336000000 cycles:  270311116 heartbeat IPC: 1.17094 cumulative IPC: 1.07397 (Simulation time: 0 hr 11 min 5 sec) 
Heartbeat CPU  0 instructions:  337000002 cycles:  271183365 heartbeat IPC: 1.14646 cumulative IPC: 1.07426 (Simulation time: 0 hr 11 min 7 sec) 
Heartbeat CPU  0 instructions:  338000002 cycles:  272042718 heartbeat IPC: 1.16367 cumulative IPC: 1.07461 (Simulation time: 0 hr 11 min 9 sec) 
Heartbeat CPU  0 instructions:  339000002 cycles:  272907868 heartbeat IPC: 1.15587 cumulative IPC: 1.07492 (Simulation time: 0 hr 11 min 11 sec) 
Heartbeat CPU  0 instructions:  340000000 cycles:  273771964 heartbeat IPC: 1.15728 cumulative IPC: 1.07524 (Simulation time: 0 hr 11 min 13 sec) 
Heartbeat CPU  0 instructions:  341000001 cycles:  274633020 heartbeat IPC: 1.16137 cumulative IPC: 1.07557 (Simulation time: 0 hr 11 min 15 sec) 
Heartbeat CPU  0 instructions:  342000003 cycles:  275481594 heartbeat IPC: 1.17845 cumulative IPC: 1.07596 (Simulation time: 0 hr 11 min 18 sec) 
Heartbeat CPU  0 instructions:  343000003 cycles:  276336345 heartbeat IPC: 1.16993 cumulative IPC: 1.07632 (Simulation time: 0 hr 11 min 20 sec) 
Heartbeat CPU  0 instructions:  344000000 cycles:  277182914 heartbeat IPC: 1.18124 cumulative IPC: 1.07671 (Simulation time: 0 hr 11 min 22 sec) 
Heartbeat CPU  0 instructions:  345000001 cycles:  278073451 heartbeat IPC: 1.12292 cumulative IPC: 1.07689 (Simulation time: 0 hr 11 min 24 sec) 
Heartbeat CPU  0 instructions:  346000003 cycles:  278945915 heartbeat IPC: 1.14618 cumulative IPC: 1.07715 (Simulation time: 0 hr 11 min 26 sec) 
Heartbeat CPU  0 instructions:  347000003 cycles:  279815808 heartbeat IPC: 1.14957 cumulative IPC: 1.07743 (Simulation time: 0 hr 11 min 28 sec) 
Heartbeat CPU  0 instructions:  348000000 cycles:  280688976 heartbeat IPC: 1.14525 cumulative IPC: 1.07769 (Simulation time: 0 hr 11 min 30 sec) 
Heartbeat CPU  0 instructions:  349000000 cycles:  281552211 heartbeat IPC: 1.15843 cumulative IPC: 1.07799 (Simulation time: 0 hr 11 min 32 sec) 
Heartbeat CPU  0 instructions:  350000003 cycles:  282415421 heartbeat IPC: 1.15847 cumulative IPC: 1.07829 (Simulation time: 0 hr 11 min 34 sec) 
Heartbeat CPU  0 instructions:  351000002 cycles:  283283019 heartbeat IPC: 1.15261 cumulative IPC: 1.07856 (Simulation time: 0 hr 11 min 36 sec) 
Heartbeat CPU  0 instructions:  352000000 cycles:  284137318 heartbeat IPC: 1.17055 cumulative IPC: 1.07890 (Simulation time: 0 hr 11 min 38 sec) 
Heartbeat CPU  0 instructions:  353000003 cycles:  284997524 heartbeat IPC: 1.16252 cumulative IPC: 1.07921 (Simulation time: 0 hr 11 min 40 sec) 
Heartbeat CPU  0 instructions:  354000003 cycles:  285852739 heartbeat IPC: 1.16930 cumulative IPC: 1.07954 (Simulation time: 0 hr 11 min 42 sec) 
Heartbeat CPU  0 instructions:  355000000 cycles:  286702468 heartbeat IPC: 1.17684 cumulative IPC: 1.07989 (Simulation time: 0 hr 11 min 44 sec) 
Heartbeat CPU  0 instructions:  356000000 cycles:  287605634 heartbeat IPC: 1.10722 cumulative IPC: 1.07999 (Simulation time: 0 hr 11 min 46 sec) 
Heartbeat CPU  0 instructions:  357000001 cycles:  288475117 heartbeat IPC: 1.15011 cumulative IPC: 1.08025 (Simulation time: 0 hr 11 min 48 sec) 
Heartbeat CPU  0 instructions:  358000003 cycles:  289347962 heartbeat IPC: 1.14568 cumulative IPC: 1.08048 (Simulation time: 0 hr 11 min 51 sec) 
Heartbeat CPU  0 instructions:  359000000 cycles:  290225814 heartbeat IPC: 1.13914 cumulative IPC: 1.08070 (Simulation time: 0 hr 11 min 53 sec) 
Heartbeat CPU  0 instructions:  360000000 cycles:  291101099 heartbeat IPC: 1.14249 cumulative IPC: 1.08092 (Simulation time: 0 hr 11 min 55 sec) 
Heartbeat CPU  0 instructions:  361000002 cycles:  291975349 heartbeat IPC: 1.14384 cumulative IPC: 1.08115 (Simulation time: 0 hr 11 min 57 sec) 
Heartbeat CPU  0 instructions:  362000002 cycles:  292854169 heartbeat IPC: 1.13789 cumulative IPC: 1.08136 (Simulation time: 0 hr 11 min 59 sec) 
Heartbeat CPU  0 instructions:  363000002 cycles:  293705492 heartbeat IPC: 1.17464 cumulative IPC: 1.08168 (Simulation time: 0 hr 12 min 1 sec) 
Heartbeat CPU  0 instructions:  364000000 cycles:  294565812 heartbeat IPC: 1.16236 cumulative IPC: 1.08197 (Simulation time: 0 hr 12 min 3 sec) 
Heartbeat CPU  0 instructions:  365000001 cycles:  295422129 heartbeat IPC: 1.16779 cumulative IPC: 1.08227 (Simulation time: 0 hr 12 min 5 sec) 
Heartbeat CPU  0 instructions:  366000001 cycles:  296295174 heartbeat IPC: 1.14542 cumulative IPC: 1.08249 (Simulation time: 0 hr 12 min 7 sec) 
Heartbeat CPU  0 instructions:  367000003 cycles:  297168996 heartbeat IPC: 1.14440 cumulative IPC: 1.08271 (Simulation time: 0 hr 12 min 9 sec) 
Heartbeat CPU  0 instructions:  368000000 cycles:  298059092 heartbeat IPC: 1.12347 cumulative IPC: 1.08286 (Simulation time: 0 hr 12 min 11 sec) 
Heartbeat CPU  0 instructions:  369000001 cycles:  298926720 heartbeat IPC: 1.15257 cumulative IPC: 1.08310 (Simulation time: 0 hr 12 min 13 sec) 
Heartbeat CPU  0 instructions:  370000002 cycles:  299802913 heartbeat IPC: 1.14130 cumulative IPC: 1.08331 (Simulation time: 0 hr 12 min 15 sec) 
Heartbeat CPU  0 instructions:  371000002 cycles:  300666011 heartbeat IPC: 1.15862 cumulative IPC: 1.08357 (Simulation time: 0 hr 12 min 17 sec) 
Heartbeat CPU  0 instructions:  372000000 cycles:  301520902 heartbeat IPC: 1.16974 cumulative IPC: 1.08386 (Simulation time: 0 hr 12 min 20 sec) 
Heartbeat CPU  0 instructions:  373000001 cycles:  302372711 heartbeat IPC: 1.17397 cumulative IPC: 1.08417 (Simulation time: 0 hr 12 min 22 sec) 
Heartbeat CPU  0 instructions:  374000001 cycles:  303218402 heartbeat IPC: 1.18246 cumulative IPC: 1.08450 (Simulation time: 0 hr 12 min 24 sec) 
Heartbeat CPU  0 instructions:  375000000 cycles:  304075305 heartbeat IPC: 1.16699 cumulative IPC: 1.08477 (Simulation time: 0 hr 12 min 26 sec) 
Heartbeat CPU  0 instructions:  376000000 cycles:  304924286 heartbeat IPC: 1.17788 cumulative IPC: 1.08508 (Simulation time: 0 hr 12 min 28 sec) 
Heartbeat CPU  0 instructions:  377000002 cycles:  305820040 heartbeat IPC: 1.11638 cumulative IPC: 1.08519 (Simulation time: 0 hr 12 min 30 sec) 
Heartbeat CPU  0 instructions:  378000000 cycles:  306684646 heartbeat IPC: 1.15659 cumulative IPC: 1.08544 (Simulation time: 0 hr 12 min 32 sec) 
Heartbeat CPU  0 instructions:  379000000 cycles:  307544309 heartbeat IPC: 1.16325 cumulative IPC: 1.08570 (Simulation time: 0 hr 12 min 34 sec) 
Heartbeat CPU  0 instructions:  380000000 cycles:  308414412 heartbeat IPC: 1.14929 cumulative IPC: 1.08591 (Simulation time: 0 hr 12 min 36 sec) 
Heartbeat CPU  0 instructions:  381000002 cycles:  309276351 heartbeat IPC: 1.16018 cumulative IPC: 1.08616 (Simulation time: 0 hr 12 min 38 sec) 
Heartbeat CPU  0 instructions:  382000000 cycles:  310141074 heartbeat IPC: 1.15644 cumulative IPC: 1.08639 (Simulation time: 0 hr 12 min 40 sec) 
Heartbeat CPU  0 instructions:  383000000 cycles:  310996458 heartbeat IPC: 1.16907 cumulative IPC: 1.08666 (Simulation time: 0 hr 12 min 42 sec) 
Heartbeat CPU  0 instructions:  384000000 cycles:  311849613 heartbeat IPC: 1.17212 cumulative IPC: 1.08694 (Simulation time: 0 hr 12 min 44 sec) 
Heartbeat CPU  0 instructions:  385000001 cycles:  312697703 heartbeat IPC: 1.17912 cumulative IPC: 1.08724 (Simulation time: 0 hr 12 min 46 sec) 
Heartbeat CPU  0 instructions:  386000002 cycles:  313560982 heartbeat IPC: 1.15838 cumulative IPC: 1.08747 (Simulation time: 0 hr 12 min 48 sec) 
Heartbeat CPU  0 instructions:  387000000 cycles:  314470437 heartbeat IPC: 1.09956 cumulative IPC: 1.08752 (Simulation time: 0 hr 12 min 50 sec) 
Heartbeat CPU  0 instructions:  388000000 cycles:  315345656 heartbeat IPC: 1.14257 cumulative IPC: 1.08770 (Simulation time: 0 hr 12 min 52 sec) 
Heartbeat CPU  0 instructions:  389000003 cycles:  316212281 heartbeat IPC: 1.15391 cumulative IPC: 1.08791 (Simulation time: 0 hr 12 min 55 sec) 
Heartbeat CPU  0 instructions:  390000001 cycles:  317084455 heartbeat IPC: 1.14656 cumulative IPC: 1.08811 (Simulation time: 0 hr 12 min 57 sec) 
Heartbeat CPU  0 instructions:  391000002 cycles:  317949053 heartbeat IPC: 1.15661 cumulative IPC: 1.08833 (Simulation time: 0 hr 12 min 59 sec) 
Heartbeat CPU  0 instructions:  392000000 cycles:  318832944 heartbeat IPC: 1.13136 cumulative IPC: 1.08847 (Simulation time: 0 hr 13 min 1 sec) 
Heartbeat CPU  0 instructions:  393000003 cycles:  319700214 heartbeat IPC: 1.15305 cumulative IPC: 1.08868 (Simulation time: 0 hr 13 min 3 sec) 
Heartbeat CPU  0 instructions:  394000003 cycles:  320556093 heartbeat IPC: 1.16839 cumulative IPC: 1.08893 (Simulation time: 0 hr 13 min 5 sec) 
Heartbeat CPU  0 instructions:  395000003 cycles:  321414262 heartbeat IPC: 1.16527 cumulative IPC: 1.08917 (Simulation time: 0 hr 13 min 7 sec) 
Heartbeat CPU  0 instructions:  396000000 cycles:  322264424 heartbeat IPC: 1.17624 cumulative IPC: 1.08944 (Simulation time: 0 hr 13 min 10 sec) 
Heartbeat CPU  0 instructions:  397000001 cycles:  323120762 heartbeat IPC: 1.16776 cumulative IPC: 1.08969 (Simulation time: 0 hr 13 min 12 sec) 
Heartbeat CPU  0 instructions:  398000001 cycles:  324532648 heartbeat IPC: 0.70827 cumulative IPC: 1.08772 (Simulation time: 0 hr 13 min 15 sec) 
Heartbeat CPU  0 instructions:  399000000 cycles:  326055283 heartbeat IPC: 0.65676 cumulative IPC: 1.08534 (Simulation time: 0 hr 13 min 18 sec) 
Heartbeat CPU  0 instructions:  400000000 cycles:  327031402 heartbeat IPC: 1.02447 cumulative IPC: 1.08513 (Simulation time: 0 hr 13 min 20 sec) 
Heartbeat CPU  0 instructions:  401000001 cycles:  327993685 heartbeat IPC: 1.03920 cumulative IPC: 1.08497 (Simulation time: 0 hr 13 min 23 sec) 
Heartbeat CPU  0 instructions:  402000003 cycles:  328956663 heartbeat IPC: 1.03845 cumulative IPC: 1.08481 (Simulation time: 0 hr 13 min 25 sec) 
Heartbeat CPU  0 instructions:  403000000 cycles:  329919210 heartbeat IPC: 1.03891 cumulative IPC: 1.08465 (Simulation time: 0 hr 13 min 28 sec) 
Heartbeat CPU  0 instructions:  404000000 cycles:  330885425 heartbeat IPC: 1.03497 cumulative IPC: 1.08448 (Simulation time: 0 hr 13 min 30 sec) 
Heartbeat CPU  0 instructions:  405000003 cycles:  331848225 heartbeat IPC: 1.03864 cumulative IPC: 1.08432 (Simulation time: 0 hr 13 min 32 sec) 
Heartbeat CPU  0 instructions:  406000003 cycles:  332813171 heartbeat IPC: 1.03633 cumulative IPC: 1.08416 (Simulation time: 0 hr 13 min 35 sec) 
Heartbeat CPU  0 instructions:  407000000 cycles:  333772716 heartbeat IPC: 1.04216 cumulative IPC: 1.08401 (Simulation time: 0 hr 13 min 37 sec) 
Heartbeat CPU  0 instructions:  408000000 cycles:  334735939 heartbeat IPC: 1.03818 cumulative IPC: 1.08386 (Simulation time: 0 hr 13 min 40 sec) 
Heartbeat CPU  0 instructions:  409000002 cycles:  335695016 heartbeat IPC: 1.04267 cumulative IPC: 1.08372 (Simulation time: 0 hr 13 min 42 sec) 
Heartbeat CPU  0 instructions:  410000002 cycles:  336655042 heartbeat IPC: 1.04164 cumulative IPC: 1.08358 (Simulation time: 0 hr 13 min 44 sec) 
Heartbeat CPU  0 instructions:  411000000 cycles:  337619347 heartbeat IPC: 1.03701 cumulative IPC: 1.08342 (Simulation time: 0 hr 13 min 47 sec) 
Heartbeat CPU  0 instructions:  412000000 cycles:  338581379 heartbeat IPC: 1.03947 cumulative IPC: 1.08328 (Simulation time: 0 hr 13 min 49 sec) 
Heartbeat CPU  0 instructions:  413000001 cycles:  339543212 heartbeat IPC: 1.03968 cumulative IPC: 1.08313 (Simulation time: 0 hr 13 min 51 sec) 
Heartbeat CPU  0 instructions:  414000000 cycles:  340504940 heartbeat IPC: 1.03979 cumulative IPC: 1.08299 (Simulation time: 0 hr 13 min 54 sec) 
Heartbeat CPU  0 instructions:  415000002 cycles:  341466459 heartbeat IPC: 1.04002 cumulative IPC: 1.08285 (Simulation time: 0 hr 13 min 56 sec) 
Heartbeat CPU  0 instructions:  416000000 cycles:  342427235 heartbeat IPC: 1.04082 cumulative IPC: 1.08271 (Simulation time: 0 hr 13 min 58 sec) 
Heartbeat CPU  0 instructions:  417000001 cycles:  343388309 heartbeat IPC: 1.04050 cumulative IPC: 1.08257 (Simulation time: 0 hr 14 min 1 sec) 
Heartbeat CPU  0 instructions:  418000002 cycles:  344349063 heartbeat IPC: 1.04085 cumulative IPC: 1.08243 (Simulation time: 0 hr 14 min 3 sec) 
Heartbeat CPU  0 instructions:  419000003 cycles:  345309127 heartbeat IPC: 1.04160 cumulative IPC: 1.08230 (Simulation time: 0 hr 14 min 6 sec) 
Heartbeat CPU  0 instructions:  420000000 cycles:  346275045 heartbeat IPC: 1.03528 cumulative IPC: 1.08215 (Simulation time: 0 hr 14 min 8 sec) 
Heartbeat CPU  0 instructions:  421000002 cycles:  347247360 heartbeat IPC: 1.02848 cumulative IPC: 1.08197 (Simulation time: 0 hr 14 min 10 sec) 
Heartbeat CPU  0 instructions:  422000000 cycles:  348231604 heartbeat IPC: 1.01601 cumulative IPC: 1.08175 (Simulation time: 0 hr 14 min 13 sec) 
Heartbeat CPU  0 instructions:  423000003 cycles:  349202823 heartbeat IPC: 1.02964 cumulative IPC: 1.08158 (Simulation time: 0 hr 14 min 15 sec) 
Heartbeat CPU  0 instructions:  424000000 cycles:  350179360 heartbeat IPC: 1.02402 cumulative IPC: 1.08139 (Simulation time: 0 hr 14 min 17 sec) 
Heartbeat CPU  0 instructions:  425000000 cycles:  351150965 heartbeat IPC: 1.02922 cumulative IPC: 1.08123 (Simulation time: 0 hr 14 min 20 sec) 
Heartbeat CPU  0 instructions:  426000000 cycles:  352134145 heartbeat IPC: 1.01711 cumulative IPC: 1.08102 (Simulation time: 0 hr 14 min 22 sec) 
Heartbeat CPU  0 instructions:  427000003 cycles:  353105619 heartbeat IPC: 1.02937 cumulative IPC: 1.08085 (Simulation time: 0 hr 14 min 25 sec) 
Heartbeat CPU  0 instructions:  428000000 cycles:  354087437 heartbeat IPC: 1.01852 cumulative IPC: 1.08065 (Simulation time: 0 hr 14 min 27 sec) 
Heartbeat CPU  0 instructions:  429000000 cycles:  355058931 heartbeat IPC: 1.02934 cumulative IPC: 1.08049 (Simulation time: 0 hr 14 min 29 sec) 
Heartbeat CPU  0 instructions:  430000003 cycles:  356029673 heartbeat IPC: 1.03014 cumulative IPC: 1.08033 (Simulation time: 0 hr 14 min 32 sec) 
Heartbeat CPU  0 instructions:  431000003 cycles:  357008022 heartbeat IPC: 1.02213 cumulative IPC: 1.08014 (Simulation time: 0 hr 14 min 34 sec) 
Heartbeat CPU  0 instructions:  432000000 cycles:  357978291 heartbeat IPC: 1.03064 cumulative IPC: 1.07998 (Simulation time: 0 hr 14 min 36 sec) 
Heartbeat CPU  0 instructions:  433000001 cycles:  358951415 heartbeat IPC: 1.02762 cumulative IPC: 1.07982 (Simulation time: 0 hr 14 min 39 sec) 
Heartbeat CPU  0 instructions:  434000003 cycles:  359921249 heartbeat IPC: 1.03111 cumulative IPC: 1.07967 (Simulation time: 0 hr 14 min 41 sec) 
Heartbeat CPU  0 instructions:  435000001 cycles:  360898488 heartbeat IPC: 1.02329 cumulative IPC: 1.07949 (Simulation time: 0 hr 14 min 44 sec) 
Heartbeat CPU  0 instructions:  436000000 cycles:  361866572 heartbeat IPC: 1.03297 cumulative IPC: 1.07934 (Simulation time: 0 hr 14 min 46 sec) 
Heartbeat CPU  0 instructions:  437000000 cycles:  362835390 heartbeat IPC: 1.03219 cumulative IPC: 1.07920 (Simulation time: 0 hr 14 min 48 sec) 
Heartbeat CPU  0 instructions:  438000001 cycles:  363796107 heartbeat IPC: 1.04089 cumulative IPC: 1.07908 (Simulation time: 0 hr 14 min 51 sec) 
Heartbeat CPU  0 instructions:  439000002 cycles:  364756278 heartbeat IPC: 1.04148 cumulative IPC: 1.07896 (Simulation time: 0 hr 14 min 53 sec) 
Heartbeat CPU  0 instructions:  440000000 cycles:  365718993 heartbeat IPC: 1.03873 cumulative IPC: 1.07884 (Simulation time: 0 hr 14 min 56 sec) 
Heartbeat CPU  0 instructions:  441000001 cycles:  366679736 heartbeat IPC: 1.04086 cumulative IPC: 1.07873 (Simulation time: 0 hr 14 min 58 sec) 
Heartbeat CPU  0 instructions:  442000001 cycles:  367641132 heartbeat IPC: 1.04015 cumulative IPC: 1.07861 (Simulation time: 0 hr 15 min 0 sec) 
Heartbeat CPU  0 instructions:  443000003 cycles:  368602661 heartbeat IPC: 1.04001 cumulative IPC: 1.07849 (Simulation time: 0 hr 15 min 3 sec) 
Heartbeat CPU  0 instructions:  444000000 cycles:  369562945 heartbeat IPC: 1.04136 cumulative IPC: 1.07838 (Simulation time: 0 hr 15 min 5 sec) 
Heartbeat CPU  0 instructions:  445000001 cycles:  370524292 heartbeat IPC: 1.04021 cumulative IPC: 1.07827 (Simulation time: 0 hr 15 min 8 sec) 
Heartbeat CPU  0 instructions:  446000001 cycles:  371486177 heartbeat IPC: 1.03963 cumulative IPC: 1.07815 (Simulation time: 0 hr 15 min 10 sec) 
Heartbeat CPU  0 instructions:  447000002 cycles:  372446600 heartbeat IPC: 1.04121 cumulative IPC: 1.07804 (Simulation time: 0 hr 15 min 12 sec) 
Heartbeat CPU  0 instructions:  448000000 cycles:  373408924 heartbeat IPC: 1.03915 cumulative IPC: 1.07792 (Simulation time: 0 hr 15 min 15 sec) 
Heartbeat CPU  0 instructions:  449000003 cycles:  374369606 heartbeat IPC: 1.04093 cumulative IPC: 1.07781 (Simulation time: 0 hr 15 min 17 sec) 
Heartbeat CPU  0 instructions:  450000002 cycles:  375331629 heartbeat IPC: 1.03948 cumulative IPC: 1.07770 (Simulation time: 0 hr 15 min 19 sec) 
Heartbeat CPU  0 instructions:  451000000 cycles:  376293219 heartbeat IPC: 1.03994 cumulative IPC: 1.07759 (Simulation time: 0 hr 15 min 22 sec) 
Heartbeat CPU  0 instructions:  452000000 cycles:  377253845 heartbeat IPC: 1.04099 cumulative IPC: 1.07748 (Simulation time: 0 hr 15 min 24 sec) 
Heartbeat CPU  0 instructions:  453000003 cycles:  378215447 heartbeat IPC: 1.03993 cumulative IPC: 1.07737 (Simulation time: 0 hr 15 min 26 sec) 
Heartbeat CPU  0 instructions:  454000000 cycles:  379176328 heartbeat IPC: 1.04071 cumulative IPC: 1.07726 (Simulation time: 0 hr 15 min 29 sec) 
Heartbeat CPU  0 instructions:  455000002 cycles:  380138749 heartbeat IPC: 1.03905 cumulative IPC: 1.07715 (Simulation time: 0 hr 15 min 31 sec) 
Heartbeat CPU  0 instructions:  456000000 cycles:  381098651 heartbeat IPC: 1.04177 cumulative IPC: 1.07705 (Simulation time: 0 hr 15 min 33 sec) 
Heartbeat CPU  0 instructions:  457000000 cycles:  382060375 heartbeat IPC: 1.03980 cumulative IPC: 1.07694 (Simulation time: 0 hr 15 min 36 sec) 
Heartbeat CPU  0 instructions:  458000002 cycles:  383021130 heartbeat IPC: 1.04085 cumulative IPC: 1.07684 (Simulation time: 0 hr 15 min 38 sec) 
Heartbeat CPU  0 instructions:  459000003 cycles:  383981719 heartbeat IPC: 1.04103 cumulative IPC: 1.07673 (Simulation time: 0 hr 15 min 40 sec) 
Heartbeat CPU  0 instructions:  460000000 cycles:  385400671 heartbeat IPC: 0.70474 cumulative IPC: 1.07516 (Simulation time: 0 hr 15 min 43 sec) 
Heartbeat CPU  0 instructions:  461000000 cycles:  386612840 heartbeat IPC: 0.82497 cumulative IPC: 1.07426 (Simulation time: 0 hr 15 min 45 sec) 
Heartbeat CPU  0 instructions:  462000000 cycles:  387492300 heartbeat IPC: 1.13706 cumulative IPC: 1.07442 (Simulation time: 0 hr 15 min 47 sec) 
Heartbeat CPU  0 instructions:  463000001 cycles:  388364292 heartbeat IPC: 1.14680 cumulative IPC: 1.07461 (Simulation time: 0 hr 15 min 49 sec) 
Heartbeat CPU  0 instructions:  464000000 cycles:  389243276 heartbeat IPC: 1.13768 cumulative IPC: 1.07477 (Simulation time: 0 hr 15 min 51 sec) 
Heartbeat CPU  0 instructions:  465000002 cycles:  390129929 heartbeat IPC: 1.12784 cumulative IPC: 1.07491 (Simulation time: 0 hr 15 min 53 sec) 
Heartbeat CPU  0 instructions:  466000000 cycles:  391021233 heartbeat IPC: 1.12195 cumulative IPC: 1.07503 (Simulation time: 0 hr 15 min 55 sec) 
Heartbeat CPU  0 instructions:  467000001 cycles:  391895531 heartbeat IPC: 1.14378 cumulative IPC: 1.07521 (Simulation time: 0 hr 15 min 57 sec) 
Heartbeat CPU  0 instructions:  468000000 cycles:  392772085 heartbeat IPC: 1.14083 cumulative IPC: 1.07538 (Simulation time: 0 hr 15 min 59 sec) 
Heartbeat CPU  0 instructions:  469000003 cycles:  394478780 heartbeat IPC: 0.58593 cumulative IPC: 1.07295 (Simulation time: 0 hr 16 min 2 sec) 
Heartbeat CPU  0 instructions:  470000001 cycles:  395343987 heartbeat IPC: 1.15579 cumulative IPC: 1.07316 (Simulation time: 0 hr 16 min 4 sec) 
Heartbeat CPU  0 instructions:  471000001 cycles:  396209616 heartbeat IPC: 1.15523 cumulative IPC: 1.07336 (Simulation time: 0 hr 16 min 6 sec) 
Heartbeat CPU  0 instructions:  472000000 cycles:  397069631 heartbeat IPC: 1.16277 cumulative IPC: 1.07358 (Simulation time: 0 hr 16 min 8 sec) 
Heartbeat CPU  0 instructions:  473000002 cycles:  397929888 heartbeat IPC: 1.16245 cumulative IPC: 1.07380 (Simulation time: 0 hr 16 min 10 sec) 
Heartbeat CPU  0 instructions:  474000001 cycles:  398789234 heartbeat IPC: 1.16367 cumulative IPC: 1.07402 (Simulation time: 0 hr 16 min 12 sec) 
Heartbeat CPU  0 instructions:  475000001 cycles:  399650942 heartbeat IPC: 1.16049 cumulative IPC: 1.07424 (Simulation time: 0 hr 16 min 14 sec) 
Heartbeat CPU  0 instructions:  476000000 cycles:  400509745 heartbeat IPC: 1.16441 cumulative IPC: 1.07446 (Simulation time: 0 hr 16 min 16 sec) 
Heartbeat CPU  0 instructions:  477000002 cycles:  401371096 heartbeat IPC: 1.16097 cumulative IPC: 1.07467 (Simulation time: 0 hr 16 min 18 sec) 
Heartbeat CPU  0 instructions:  478000000 cycles:  403015401 heartbeat IPC: 0.60816 cumulative IPC: 1.07250 (Simulation time: 0 hr 16 min 21 sec) 
Heartbeat CPU  0 instructions:  479000002 cycles:  403934725 heartbeat IPC: 1.08776 cumulative IPC: 1.07253 (Simulation time: 0 hr 16 min 23 sec) 
Heartbeat CPU  0 instructions:  480000000 cycles:  404825011 heartbeat IPC: 1.12323 cumulative IPC: 1.07266 (Simulation time: 0 hr 16 min 25 sec) 
Heartbeat CPU  0 instructions:  481000003 cycles:  405756607 heartbeat IPC: 1.07343 cumulative IPC: 1.07266 (Simulation time: 0 hr 16 min 27 sec) 
Heartbeat CPU  0 instructions:  482000003 cycles:  406682740 heartbeat IPC: 1.07976 cumulative IPC: 1.07268 (Simulation time: 0 hr 16 min 29 sec) 
Heartbeat CPU  0 instructions:  483000003 cycles:  407610829 heartbeat IPC: 1.07748 cumulative IPC: 1.07270 (Simulation time: 0 hr 16 min 31 sec) 
Heartbeat CPU  0 instructions:  484000000 cycles:  408519063 heartbeat IPC: 1.10103 cumulative IPC: 1.07277 (Simulation time: 0 hr 16 min 33 sec) 
Heartbeat CPU  0 instructions:  485000002 cycles:  409418437 heartbeat IPC: 1.11189 cumulative IPC: 1.07287 (Simulation time: 0 hr 16 min 35 sec) 
Heartbeat CPU  0 instructions:  486000000 cycles:  410347728 heartbeat IPC: 1.07609 cumulative IPC: 1.07287 (Simulation time: 0 hr 16 min 38 sec) 
Heartbeat CPU  0 instructions:  487000000 cycles:  412014293 heartbeat IPC: 0.60004 cumulative IPC: 1.07069 (Simulation time: 0 hr 16 min 40 sec) 
Heartbeat CPU  0 instructions:  488000000 cycles:  413137043 heartbeat IPC: 0.89067 cumulative IPC: 1.07014 (Simulation time: 0 hr 16 min 43 sec) 
Heartbeat CPU  0 instructions:  489000000 cycles:  414274952 heartbeat IPC: 0.87880 cumulative IPC: 1.06954 (Simulation time: 0 hr 16 min 45 sec) 
Heartbeat CPU  0 instructions:  490000003 cycles:  415402031 heartbeat IPC: 0.88725 cumulative IPC: 1.06897 (Simulation time: 0 hr 16 min 48 sec) 
Heartbeat CPU  0 instructions:  491000003 cycles:  416570987 heartbeat IPC: 0.85546 cumulative IPC: 1.06829 (Simulation time: 0 hr 16 min 50 sec) 
Heartbeat CPU  0 instructions:  492000000 cycles:  417705009 heartbeat IPC: 0.88181 cumulative IPC: 1.06772 (Simulation time: 0 hr 16 min 53 sec) 
Heartbeat CPU  0 instructions:  493000001 cycles:  418840233 heartbeat IPC: 0.88088 cumulative IPC: 1.06714 (Simulation time: 0 hr 16 min 55 sec) 
Heartbeat CPU  0 instructions:  494000000 cycles:  419977448 heartbeat IPC: 0.87934 cumulative IPC: 1.06656 (Simulation time: 0 hr 16 min 58 sec) 
Heartbeat CPU  0 instructions:  495000000 cycles:  421140770 heartbeat IPC: 0.85961 cumulative IPC: 1.06591 (Simulation time: 0 hr 17 min 1 sec) 
Heartbeat CPU  0 instructions:  496000000 cycles:  422277482 heartbeat IPC: 0.87973 cumulative IPC: 1.06534 (Simulation time: 0 hr 17 min 3 sec) 
Heartbeat CPU  0 instructions:  497000002 cycles:  423411269 heartbeat IPC: 0.88200 cumulative IPC: 1.06479 (Simulation time: 0 hr 17 min 6 sec) 
Heartbeat CPU  0 instructions:  498000001 cycles:  424549914 heartbeat IPC: 0.87824 cumulative IPC: 1.06422 (Simulation time: 0 hr 17 min 8 sec) 
Heartbeat CPU  0 instructions:  499000000 cycles:  425718483 heartbeat IPC: 0.85575 cumulative IPC: 1.06357 (Simulation time: 0 hr 17 min 11 sec) 
Heartbeat CPU  0 instructions:  500000000 cycles:  426849495 heartbeat IPC: 0.88416 cumulative IPC: 1.06303 (Simulation time: 0 hr 17 min 13 sec) 
Heartbeat CPU  0 instructions:  501000003 cycles:  427990825 heartbeat IPC: 0.87617 cumulative IPC: 1.06246 (Simulation time: 0 hr 17 min 16 sec) 
Heartbeat CPU  0 instructions:  502000002 cycles:  429127324 heartbeat IPC: 0.87989 cumulative IPC: 1.06192 (Simulation time: 0 hr 17 min 18 sec) 
Heartbeat CPU  0 instructions:  503000000 cycles:  430286100 heartbeat IPC: 0.86298 cumulative IPC: 1.06131 (Simulation time: 0 hr 17 min 21 sec) 
Heartbeat CPU  0 instructions:  504000000 cycles:  431417431 heartbeat IPC: 0.88391 cumulative IPC: 1.06078 (Simulation time: 0 hr 17 min 23 sec) 
Heartbeat CPU  0 instructions:  505000000 cycles:  432553156 heartbeat IPC: 0.88049 cumulative IPC: 1.06025 (Simulation time: 0 hr 17 min 26 sec) 
Heartbeat CPU  0 instructions:  506000003 cycles:  433693177 heartbeat IPC: 0.87718 cumulative IPC: 1.05970 (Simulation time: 0 hr 17 min 28 sec) 
Heartbeat CPU  0 instructions:  507000002 cycles:  434851282 heartbeat IPC: 0.86348 cumulative IPC: 1.05911 (Simulation time: 0 hr 17 min 31 sec) 
Heartbeat CPU  0 instructions:  508000000 cycles:  435987375 heartbeat IPC: 0.88021 cumulative IPC: 1.05858 (Simulation time: 0 hr 17 min 34 sec) 
Heartbeat CPU  0 instructions:  509000001 cycles:  437124420 heartbeat IPC: 0.87947 cumulative IPC: 1.05806 (Simulation time: 0 hr 17 min 36 sec) 
Heartbeat CPU  0 instructions:  510000000 cycles:  438262772 heartbeat IPC: 0.87846 cumulative IPC: 1.05753 (Simulation time: 0 hr 17 min 39 sec) 
Heartbeat CPU  0 instructions:  511000001 cycles:  439400425 heartbeat IPC: 0.87900 cumulative IPC: 1.05701 (Simulation time: 0 hr 17 min 42 sec) 
Heartbeat CPU  0 instructions:  512000000 cycles:  440555217 heartbeat IPC: 0.86596 cumulative IPC: 1.05644 (Simulation time: 0 hr 17 min 45 sec) 
Heartbeat CPU  0 instructions:  513000000 cycles:  441690392 heartbeat IPC: 0.88092 cumulative IPC: 1.05593 (Simulation time: 0 hr 17 min 48 sec) 
Heartbeat CPU  0 instructions:  514000000 cycles:  442838113 heartbeat IPC: 0.87129 cumulative IPC: 1.05539 (Simulation time: 0 hr 17 min 51 sec) 
Heartbeat CPU  0 instructions:  515000003 cycles:  443967989 heartbeat IPC: 0.88506 cumulative IPC: 1.05490 (Simulation time: 0 hr 17 min 53 sec) 
Heartbeat CPU  0 instructions:  516000000 cycles:  445132735 heartbeat IPC: 0.85855 cumulative IPC: 1.05432 (Simulation time: 0 hr 17 min 56 sec) 
Heartbeat CPU  0 instructions:  517000001 cycles:  446263922 heartbeat IPC: 0.88403 cumulative IPC: 1.05383 (Simulation time: 0 hr 17 min 59 sec) 
Heartbeat CPU  0 instructions:  518000001 cycles:  447402449 heartbeat IPC: 0.87833 cumulative IPC: 1.05333 (Simulation time: 0 hr 18 min 1 sec) 
Heartbeat CPU  0 instructions:  519000000 cycles:  448543559 heartbeat IPC: 0.87634 cumulative IPC: 1.05282 (Simulation time: 0 hr 18 min 4 sec) 
Heartbeat CPU  0 instructions:  520000000 cycles:  449704077 heartbeat IPC: 0.86168 cumulative IPC: 1.05227 (Simulation time: 0 hr 18 min 6 sec) 
Heartbeat CPU  0 instructions:  521000002 cycles:  450840260 heartbeat IPC: 0.88014 cumulative IPC: 1.05178 (Simulation time: 0 hr 18 min 9 sec) 
Heartbeat CPU  0 instructions:  522000002 cycles:  451978510 heartbeat IPC: 0.87854 cumulative IPC: 1.05129 (Simulation time: 0 hr 18 min 11 sec) 
Heartbeat CPU  0 instructions:  523000001 cycles:  453120666 heartbeat IPC: 0.87554 cumulative IPC: 1.05079 (Simulation time: 0 hr 18 min 14 sec) 
Heartbeat CPU  0 instructions:  524000000 cycles:  454546149 heartbeat IPC: 0.70152 cumulative IPC: 1.04956 (Simulation time: 0 hr 18 min 17 sec) 
Heartbeat CPU  0 instructions:  525000000 cycles:  455613152 heartbeat IPC: 0.93720 cumulative IPC: 1.04926 (Simulation time: 0 hr 18 min 19 sec) 
Heartbeat CPU  0 instructions:  526000001 cycles:  456504694 heartbeat IPC: 1.12165 cumulative IPC: 1.04942 (Simulation time: 0 hr 18 min 21 sec) 
Heartbeat CPU  0 instructions:  527000001 cycles:  457401473 heartbeat IPC: 1.11510 cumulative IPC: 1.04956 (Simulation time: 0 hr 18 min 24 sec) 
Heartbeat CPU  0 instructions:  528000000 cycles:  458301556 heartbeat IPC: 1.11101 cumulative IPC: 1.04970 (Simulation time: 0 hr 18 min 26 sec) 
Heartbeat CPU  0 instructions:  529000003 cycles:  459206571 heartbeat IPC: 1.10496 cumulative IPC: 1.04982 (Simulation time: 0 hr 18 min 29 sec) 
Heartbeat CPU  0 instructions:  530000002 cycles:  460092818 heartbeat IPC: 1.12835 cumulative IPC: 1.04999 (Simulation time: 0 hr 18 min 31 sec) 
Heartbeat CPU  0 instructions:  531000001 cycles:  460979246 heartbeat IPC: 1.12812 cumulative IPC: 1.05016 (Simulation time: 0 hr 18 min 34 sec) 
Heartbeat CPU  0 instructions:  532000000 cycles:  461864466 heartbeat IPC: 1.12966 cumulative IPC: 1.05033 (Simulation time: 0 hr 18 min 36 sec) 
Heartbeat CPU  0 instructions:  533000003 cycles:  462974328 heartbeat IPC: 0.90102 cumulative IPC: 1.04993 (Simulation time: 0 hr 18 min 38 sec) 
Heartbeat CPU  0 instructions:  534000001 cycles:  463827951 heartbeat IPC: 1.17148 cumulative IPC: 1.05018 (Simulation time: 0 hr 18 min 40 sec) 
Heartbeat CPU  0 instructions:  535000000 cycles:  464740319 heartbeat IPC: 1.09605 cumulative IPC: 1.05028 (Simulation time: 0 hr 18 min 42 sec) 
Heartbeat CPU  0 instructions:  536000000 cycles:  465644183 heartbeat IPC: 1.10636 cumulative IPC: 1.05041 (Simulation time: 0 hr 18 min 45 sec) 
Heartbeat CPU  0 instructions:  537000003 cycles:  466534143 heartbeat IPC: 1.12365 cumulative IPC: 1.05056 (Simulation time: 0 hr 18 min 47 sec) 
Heartbeat CPU  0 instructions:  538000003 cycles:  467417761 heartbeat IPC: 1.13171 cumulative IPC: 1.05073 (Simulation time: 0 hr 18 min 49 sec) 
Heartbeat CPU  0 instructions:  539000001 cycles:  468291817 heartbeat IPC: 1.14409 cumulative IPC: 1.05093 (Simulation time: 0 hr 18 min 51 sec) 
Heartbeat CPU  0 instructions:  540000000 cycles:  469177706 heartbeat IPC: 1.12881 cumulative IPC: 1.05109 (Simulation time: 0 hr 18 min 54 sec) 
Heartbeat CPU  0 instructions:  541000003 cycles:  470049688 heartbeat IPC: 1.14682 cumulative IPC: 1.05129 (Simulation time: 0 hr 18 min 56 sec) 
Heartbeat CPU  0 instructions:  542000000 cycles:  470924005 heartbeat IPC: 1.14375 cumulative IPC: 1.05149 (Simulation time: 0 hr 18 min 58 sec) 
Heartbeat CPU  0 instructions:  543000000 cycles:  471772037 heartbeat IPC: 1.17920 cumulative IPC: 1.05174 (Simulation time: 0 hr 19 min 0 sec) 
Heartbeat CPU  0 instructions:  544000000 cycles:  472576160 heartbeat IPC: 1.24359 cumulative IPC: 1.05211 (Simulation time: 0 hr 19 min 2 sec) 
Heartbeat CPU  0 instructions:  545000003 cycles:  473476539 heartbeat IPC: 1.11065 cumulative IPC: 1.05223 (Simulation time: 0 hr 19 min 4 sec) 
Heartbeat CPU  0 instructions:  546000002 cycles:  474366918 heartbeat IPC: 1.12312 cumulative IPC: 1.05238 (Simulation time: 0 hr 19 min 7 sec) 
Heartbeat CPU  0 instructions:  547000002 cycles:  475256559 heartbeat IPC: 1.12405 cumulative IPC: 1.05253 (Simulation time: 0 hr 19 min 9 sec) 
Heartbeat CPU  0 instructions:  548000000 cycles:  476137853 heartbeat IPC: 1.13469 cumulative IPC: 1.05270 (Simulation time: 0 hr 19 min 11 sec) 
Heartbeat CPU  0 instructions:  549000003 cycles:  477020892 heartbeat IPC: 1.13246 cumulative IPC: 1.05287 (Simulation time: 0 hr 19 min 13 sec) 
Heartbeat CPU  0 instructions:  550000000 cycles:  477902536 heartbeat IPC: 1.13424 cumulative IPC: 1.05303 (Simulation time: 0 hr 19 min 15 sec) 
Heartbeat CPU  0 instructions:  551000000 cycles:  478776636 heartbeat IPC: 1.14403 cumulative IPC: 1.05322 (Simulation time: 0 hr 19 min 18 sec) 
Heartbeat CPU  0 instructions:  552000000 cycles:  479643763 heartbeat IPC: 1.15323 cumulative IPC: 1.05342 (Simulation time: 0 hr 19 min 20 sec) 
Heartbeat CPU  0 instructions:  553000000 cycles:  480519759 heartbeat IPC: 1.14156 cumulative IPC: 1.05360 (Simulation time: 0 hr 19 min 22 sec) 
Heartbeat CPU  0 instructions:  554000000 cycles:  481338087 heartbeat IPC: 1.22200 cumulative IPC: 1.05392 (Simulation time: 0 hr 19 min 24 sec) 
Heartbeat CPU  0 instructions:  555000002 cycles:  482220691 heartbeat IPC: 1.13301 cumulative IPC: 1.05408 (Simulation time: 0 hr 19 min 26 sec) 
Heartbeat CPU  0 instructions:  556000000 cycles:  483111808 heartbeat IPC: 1.12218 cumulative IPC: 1.05422 (Simulation time: 0 hr 19 min 29 sec) 
Heartbeat CPU  0 instructions:  557000000 cycles:  483998552 heartbeat IPC: 1.12772 cumulative IPC: 1.05437 (Simulation time: 0 hr 19 min 31 sec) 
Heartbeat CPU  0 instructions:  558000000 cycles:  484885825 heartbeat IPC: 1.12705 cumulative IPC: 1.05452 (Simulation time: 0 hr 19 min 33 sec) 
Heartbeat CPU  0 instructions:  559000000 cycles:  485767153 heartbeat IPC: 1.13465 cumulative IPC: 1.05469 (Simulation time: 0 hr 19 min 35 sec) 
Heartbeat CPU  0 instructions:  560000000 cycles:  486652252 heartbeat IPC: 1.12982 cumulative IPC: 1.05484 (Simulation time: 0 hr 19 min 37 sec) 
Heartbeat CPU  0 instructions:  561000001 cycles:  487529437 heartbeat IPC: 1.14001 cumulative IPC: 1.05501 (Simulation time: 0 hr 19 min 40 sec) 
Heartbeat CPU  0 instructions:  562000003 cycles:  488403551 heartbeat IPC: 1.14402 cumulative IPC: 1.05519 (Simulation time: 0 hr 19 min 42 sec) 
Heartbeat CPU  0 instructions:  563000000 cycles:  489279026 heartbeat IPC: 1.14223 cumulative IPC: 1.05536 (Simulation time: 0 hr 19 min 44 sec) 
Heartbeat CPU  0 instructions:  564000000 cycles:  490121727 heartbeat IPC: 1.18666 cumulative IPC: 1.05561 (Simulation time: 0 hr 19 min 46 sec) 
Heartbeat CPU  0 instructions:  565000003 cycles:  490930404 heartbeat IPC: 1.23659 cumulative IPC: 1.05594 (Simulation time: 0 hr 19 min 48 sec) 
Heartbeat CPU  0 instructions:  566000003 cycles:  491869319 heartbeat IPC: 1.06506 cumulative IPC: 1.05596 (Simulation time: 0 hr 19 min 50 sec) 
Heartbeat CPU  0 instructions:  567000001 cycles:  492758067 heartbeat IPC: 1.12518 cumulative IPC: 1.05610 (Simulation time: 0 hr 19 min 53 sec) 
Heartbeat CPU  0 instructions:  568000000 cycles:  493648364 heartbeat IPC: 1.12322 cumulative IPC: 1.05624 (Simulation time: 0 hr 19 min 55 sec) 
Heartbeat CPU  0 instructions:  569000002 cycles:  494530651 heartbeat IPC: 1.13342 cumulative IPC: 1.05639 (Simulation time: 0 hr 19 min 57 sec) 
Heartbeat CPU  0 instructions:  570000000 cycles:  495418061 heartbeat IPC: 1.12687 cumulative IPC: 1.05653 (Simulation time: 0 hr 19 min 59 sec) 
Heartbeat CPU  0 instructions:  571000002 cycles:  496304615 heartbeat IPC: 1.12797 cumulative IPC: 1.05667 (Simulation time: 0 hr 20 min 2 sec) 
Heartbeat CPU  0 instructions:  572000000 cycles:  497176864 heartbeat IPC: 1.14646 cumulative IPC: 1.05685 (Simulation time: 0 hr 20 min 4 sec) 
Heartbeat CPU  0 instructions:  573000001 cycles:  498048011 heartbeat IPC: 1.14791 cumulative IPC: 1.05703 (Simulation time: 0 hr 20 min 6 sec) 
Heartbeat CPU  0 instructions:  574000003 cycles:  498922785 heartbeat IPC: 1.14315 cumulative IPC: 1.05719 (Simulation time: 0 hr 20 min 8 sec) 
Heartbeat CPU  0 instructions:  575000000 cycles:  499727650 heartbeat IPC: 1.24244 cumulative IPC: 1.05753 (Simulation time: 0 hr 20 min 10 sec) 
Heartbeat CPU  0 instructions:  576000000 cycles:  500641500 heartbeat IPC: 1.09427 cumulative IPC: 1.05760 (Simulation time: 0 hr 20 min 12 sec) 
Heartbeat CPU  0 instructions:  577000000 cycles:  501533101 heartbeat IPC: 1.12158 cumulative IPC: 1.05773 (Simulation time: 0 hr 20 min 15 sec) 
Heartbeat CPU  0 instructions:  578000002 cycles:  502426452 heartbeat IPC: 1.11938 cumulative IPC: 1.05785 (Simulation time: 0 hr 20 min 17 sec) 
Heartbeat CPU  0 instructions:  579000001 cycles:  503314866 heartbeat IPC: 1.12560 cumulative IPC: 1.05798 (Simulation time: 0 hr 20 min 20 sec) 
Heartbeat CPU  0 instructions:  580000000 cycles:  504211152 heartbeat IPC: 1.11571 cumulative IPC: 1.05810 (Simulation time: 0 hr 20 min 23 sec) 
Heartbeat CPU  0 instructions:  581000002 cycles:  505105067 heartbeat IPC: 1.11868 cumulative IPC: 1.05822 (Simulation time: 0 hr 20 min 26 sec) 
Heartbeat CPU  0 instructions:  582000000 cycles:  505978983 heartbeat IPC: 1.14427 cumulative IPC: 1.05838 (Simulation time: 0 hr 20 min 29 sec) 
Heartbeat CPU  0 instructions:  583000003 cycles:  506851788 heartbeat IPC: 1.14573 cumulative IPC: 1.05855 (Simulation time: 0 hr 20 min 32 sec) 
Heartbeat CPU  0 instructions:  584000000 cycles:  507724594 heartbeat IPC: 1.14573 cumulative IPC: 1.05871 (Simulation time: 0 hr 20 min 36 sec) 
Heartbeat CPU  0 instructions:  585000002 cycles:  508559080 heartbeat IPC: 1.19834 cumulative IPC: 1.05897 (Simulation time: 0 hr 20 min 39 sec) 
Heartbeat CPU  0 instructions:  586000003 cycles:  509365295 heartbeat IPC: 1.24037 cumulative IPC: 1.05929 (Simulation time: 0 hr 20 min 42 sec) 
Heartbeat CPU  0 instructions:  587000001 cycles:  510319271 heartbeat IPC: 1.04824 cumulative IPC: 1.05926 (Simulation time: 0 hr 20 min 44 sec) 
Heartbeat CPU  0 instructions:  588000000 cycles:  511204627 heartbeat IPC: 1.12949 cumulative IPC: 1.05940 (Simulation time: 0 hr 20 min 47 sec) 
Heartbeat CPU  0 instructions:  589000002 cycles:  512096671 heartbeat IPC: 1.12102 cumulative IPC: 1.05952 (Simulation time: 0 hr 20 min 50 sec) 
Heartbeat CPU  0 instructions:  590000001 cycles:  512989200 heartbeat IPC: 1.12041 cumulative IPC: 1.05964 (Simulation time: 0 hr 20 min 52 sec) 
Heartbeat CPU  0 instructions:  591000002 cycles:  513878515 heartbeat IPC: 1.12446 cumulative IPC: 1.05976 (Simulation time: 0 hr 20 min 55 sec) 
Heartbeat CPU  0 instructions:  592000000 cycles:  514760435 heartbeat IPC: 1.13389 cumulative IPC: 1.05990 (Simulation time: 0 hr 20 min 57 sec) 
Heartbeat CPU  0 instructions:  593000003 cycles:  515638507 heartbeat IPC: 1.13886 cumulative IPC: 1.06005 (Simulation time: 0 hr 21 min 0 sec) 
Heartbeat CPU  0 instructions:  594000000 cycles:  516511993 heartbeat IPC: 1.14483 cumulative IPC: 1.06021 (Simulation time: 0 hr 21 min 2 sec) 
Heartbeat CPU  0 instructions:  595000003 cycles:  517379064 heartbeat IPC: 1.15331 cumulative IPC: 1.06038 (Simulation time: 0 hr 21 min 5 sec) 
Heartbeat CPU  0 instructions:  596000000 cycles:  518186942 heartbeat IPC: 1.23781 cumulative IPC: 1.06069 (Simulation time: 0 hr 21 min 7 sec) 
Heartbeat CPU  0 instructions:  597000001 cycles:  519095112 heartbeat IPC: 1.10112 cumulative IPC: 1.06077 (Simulation time: 0 hr 21 min 9 sec) 
Heartbeat CPU  0 instructions:  598000002 cycles:  519985044 heartbeat IPC: 1.12368 cumulative IPC: 1.06089 (Simulation time: 0 hr 21 min 12 sec) 
Heartbeat CPU  0 instructions:  599000000 cycles:  520872677 heartbeat IPC: 1.12659 cumulative IPC: 1.06101 (Simulation time: 0 hr 21 min 14 sec) 
Heartbeat CPU  0 instructions:  600000000 cycles:  521766808 heartbeat IPC: 1.11840 cumulative IPC: 1.06112 (Simulation time: 0 hr 21 min 17 sec) 
Finished CPU 0 instructions: 500000001 cycles: 471200567 cumulative IPC: 1.06112 (Simulation time: 0 hr 21 min 17 sec) 

ChampSim completed all CPUs

[ROI Statistics]
Core_0_instructions 500000001
Core_0_cycles 471200567
Core_0_IPC 1.06112

Core_0_branch_prediction_accuracy 99.14585
Core_0_branch_MPKI 0.18961
Core_0_average_ROB_occupancy_at_mispredict 243.84880

Core_0_L1D_total_access 146854365
Core_0_L1D_total_hit 142003354
Core_0_L1D_total_miss 4851011
Core_0_L1D_loads 135663400
Core_0_L1D_load_hit 132203294
Core_0_L1D_load_miss 3460106
Core_0_L1D_RFOs 11190965
Core_0_L1D_RFO_hit 9800060
Core_0_L1D_RFO_miss 1390905
Core_0_L1D_prefetches 0
Core_0_L1D_prefetch_hit 0
Core_0_L1D_prefetch_miss 0
Core_0_L1D_writebacks 0
Core_0_L1D_writeback_hit 0
Core_0_L1D_writeback_miss 0
Core_0_L1D_prefetch_requested 0
Core_0_L1D_prefetch_dropped 0
Core_0_L1D_prefetch_issued 0
Core_0_L1D_prefetch_filled 0
Core_0_L1D_prefetch_useful 0
Core_0_L1D_prefetch_useless 0
Core_0_L1D_prefetch_late 0
Core_0_L1D_average_miss_latency 77.30364

Core_0_L1D_rq_access 196253640
Core_0_L1D_rq_forward 0
Core_0_L1D_rq_merged 59753378
Core_0_L1D_rq_to_cache 136500262
Core_0_L1D_rq_full 0

Core_0_L1D_wq_access 15647860
Core_0_L1D_wq_forward 0
Core_0_L1D_wq_merged 1
Core_0_L1D_wq_to_cache 15647859
Core_0_L1D_wq_full 410018

Core_0_L1D_pq_access 0
Core_0_L1D_pq_forward 0
Core_0_L1D_pq_merged 0
Core_0_L1D_pq_to_cache 0
Core_0_L1D_pq_full 0

Core_0_L1D_acc_epochs 503863
Core_0_L1D_acc_level_0 503863
Core_0_L1D_acc_level_1 0
Core_0_L1D_acc_level_2 0
Core_0_L1D_acc_level_3 0
Core_0_L1D_acc_level_4 0
Core_0_L1D_acc_level_5 0
Core_0_L1D_acc_level_6 0
Core_0_L1D_acc_level_7 0
Core_0_L1D_acc_level_8 0
Core_0_L1D_acc_level_9 0

Core_0_L1I_total_access 116434665
Core_0_L1I_total_hit 116434289
Core_0_L1I_total_miss 376
Core_0_L1I_loads 116434665
Core_0_L1I_load_hit 116434289
Core_0_L1I_load_miss 376
Core_0_L1I_RFOs 0
Core_0_L1I_RFO_hit 0
Core_0_L1I_RFO_miss 0
Core_0_L1I_prefetches 0
Core_0_L1I_prefetch_hit 0
Core_0_L1I_prefetch_miss 0
Core_0_L1I_writebacks 0
Core_0_L1I_writeback_hit 0
Core_0_L1I_writeback_miss 0
Core_0_L1I_prefetch_requested 0
Core_0_L1I_prefetch_dropped 0
Core_0_L1I_prefetch_issued 0
Core_0_L1I_prefetch_filled 0
Core_0_L1I_prefetch_useful 0
Core_0_L1I_prefetch_useless 0
Core_0_L1I_prefetch_late 0
Core_0_L1I_average_miss_latency 307.43617

Core_0_L1I_rq_access 500000000
Core_0_L1I_rq_forward 0
Core_0_L1I_rq_merged 383564288
Core_0_L1I_rq_to_cache 116435712
Core_0_L1I_rq_full 0

Core_0_L1I_wq_access 0
Core_0_L1I_wq_forward 0
Core_0_L1I_wq_merged 0
Core_0_L1I_wq_to_cache 0
Core_0_L1I_wq_full 0

Core_0_L1I_pq_access 0
Core_0_L1I_pq_forward 0
Core_0_L1I_pq_merged 0
Core_0_L1I_pq_to_cache 0
Core_0_L1I_pq_full 0

Core_0_L1I_acc_epochs 503863
Core_0_L1I_acc_level_0 503863
Core_0_L1I_acc_level_1 0
Core_0_L1I_acc_level_2 0
Core_0_L1I_acc_level_3 0
Core_0_L1I_acc_level_4 0
Core_0_L1I_acc_level_5 0
Core_0_L1I_acc_level_6 0
Core_0_L1I_acc_level_7 0
Core_0_L1I_acc_level_8 0
Core_0_L1I_acc_level_9 0

Core_0_L2C_total_access 8966671
Core_0_L2C_total_hit 5289698
Core_0_L2C_total_miss 3676973
Core_0_L2C_loads 3460450
Core_0_L2C_load_hit 3233390
Core_0_L2C_load_miss 227060
Core_0_L2C_RFOs 1390872
Core_0_L2C_RFO_hit 379720
Core_0_L2C_RFO_miss 1011152
Core_0_L2C_prefetches 2456617
Core_0_L2C_prefetch_hit 18505
Core_0_L2C_prefetch_miss 2438112
Core_0_L2C_writebacks 1658732
Core_0_L2C_writeback_hit 1658083
Core_0_L2C_writeback_miss 649
Core_0_L2C_prefetch_requested 3335838
Core_0_L2C_prefetch_dropped 0
Core_0_L2C_prefetch_issued 3335838
Core_0_L2C_prefetch_filled 3185935
Core_0_L2C_prefetch_useful 3151775
Core_0_L2C_prefetch_useless 33614
Core_0_L2C_prefetch_late 1290
Core_0_L2C_average_miss_latency 344.37178

Core_0_L2C_rq_access 4851387
Core_0_L2C_rq_forward 0
Core_0_L2C_rq_merged 0
Core_0_L2C_rq_to_cache 4851322
Core_0_L2C_rq_full 0

Core_0_L2C_wq_access 1658732
Core_0_L2C_wq_forward 65
Core_0_L2C_wq_merged 0
Core_0_L2C_wq_to_cache 1658732
Core_0_L2C_wq_full 0

Core_0_L2C_pq_access 3335838
Core_0_L2C_pq_forward 0
Core_0_L2C_pq_merged 0
Core_0_L2C_pq_to_cache 3335838
Core_0_L2C_pq_full 0

Core_0_L2C_acc_epochs 503863
Core_0_L2C_acc_level_0 333128
Core_0_L2C_acc_level_1 47583
Core_0_L2C_acc_level_2 25804
Core_0_L2C_acc_level_3 14994
Core_0_L2C_acc_level_4 10044
Core_0_L2C_acc_level_5 13629
Core_0_L2C_acc_level_6 6112
Core_0_L2C_acc_level_7 6481
Core_0_L2C_acc_level_8 4650
Core_0_L2C_acc_level_9 41438

Core_0_LLC_total_access 4825351
Core_0_LLC_total_hit 548638
Core_0_LLC_total_miss 4276713
Core_0_LLC_loads 225885
Core_0_LLC_load_hit 29052
Core_0_LLC_load_miss 196833
Core_0_LLC_RFOs 1011152
Core_0_LLC_RFO_hit 61600
Core_0_LLC_RFO_miss 949552
Core_0_LLC_prefetches 2478430
Core_0_LLC_prefetch_hit 121023
Core_0_LLC_prefetch_miss 2357407
Core_0_LLC_writebacks 1109884
Core_0_LLC_writeback_hit 336963
Core_0_LLC_writeback_miss 772921
Core_0_LLC_prefetch_requested 0
Core_0_LLC_prefetch_dropped 0
Core_0_LLC_prefetch_issued 0
Core_0_LLC_prefetch_filled 2997047
Core_0_LLC_prefetch_useful 52680
Core_0_LLC_prefetch_useless 2932240
Core_0_LLC_prefetch_late 83
Core_0_LLC_average_miss_latency 272.35158

Core_0_LLC_rq_access 1237037
Core_0_LLC_rq_forward 0
Core_0_LLC_rq_merged 0
Core_0_LLC_rq_to_cache 1237037
Core_0_LLC_rq_full 0

Core_0_LLC_wq_access 1109884
Core_0_LLC_wq_forward 0
Core_0_LLC_wq_merged 0
Core_0_LLC_wq_to_cache 1109884
Core_0_LLC_wq_full 0

Core_0_LLC_pq_access 3278086
Core_0_LLC_pq_forward 0
Core_0_LLC_pq_merged 0
Core_0_LLC_pq_to_cache 3278086
Core_0_LLC_pq_full 0

Core_0_LLC_acc_epochs 509538
Core_0_LLC_acc_level_0 500368
Core_0_LLC_acc_level_1 2806
Core_0_LLC_acc_level_2 1707
Core_0_LLC_acc_level_3 1232
Core_0_LLC_acc_level_4 889
Core_0_LLC_acc_level_5 777
Core_0_LLC_acc_level_6 428
Core_0_LLC_acc_level_7 333
Core_0_LLC_acc_level_8 236
Core_0_LLC_acc_level_9 762

Core_0_major_page_fault 0
Core_0_minor_page_fault 19121

[Bingo] PHT Access: 147625
[Bingo] PHT Hit PC+Addr: 3724
[Bingo] PHT Hit PC+Offs: 134588
[Bingo] PHT Miss: 9313
[Bingo] Prefetch PC+Addr: 0
[Bingo] Prefetch PC+Offs: 0
[Bingo] Useful PC+Addr: 0
[Bingo] Useful PC+Offs: 0
[Bingo] Useless PC+Addr: 0
[Bingo] Useless PC+Offs: 0
[Bingo] L1 Prefetch per Region: 0.00000
[Bingo] L2 Prefetch per Region: 24.65545
[Bingo] L3 Prefetch per Region: 0.69974
[Bingo] No Prefetch per Region: 6.64481
[Bingo] Number of Voters Mean: 13.80835
[Bingo] Number of Voters SD: 4.08046

Channel_0_RQ_row_buffer_hit 2006730
Channel_0_RQ_row_buffer_miss 1497030
Channel_0_WQ_row_buffer_hit 421744
Channel_0_WQ_row_buffer_miss 629299
Channel_0_WQ_full 2724
Channel_0_dbus_congested 2967888

avg_congested_cycle 11

DRAM_bw_pochs 2038152
DRAM_bw_level_0 1736639
DRAM_bw_level_1 110758
DRAM_bw_level_2 39100
DRAM_bw_level_3 151655
