*************************************************
   ChampSim Multicore Out-of-Order Simulator
   Last compiled: Dec 11 2024 17:59:53
*************************************************
parsing config file: /home/functionmain/桌面/Pythia/config/spp_dev2.ini

trace_0 /home/functionmain/桌面/Pythia/traces/437.leslie3d-232B.champsimtrace.xz
adding L2C_PREFETCHER: SPP_dev2
Initialize SIGNATURE TABLE
ST_SET: 1
ST_WAY: 256
ST_TAG_BIT: 16
ST_TAG_MASK: ffff

Initialize PATTERN TABLE
PT_SET: 512
PT_WAY: 4
SIG_DELTA_BIT: 7
C_SIG_BIT: 4
C_DELTA_BIT: 4

Initialize PREFETCH FILTER
FILTER_SET: 1024
fill_threshold: 90
pf_threshold: 40

Initialize SHIP state
warmup_instructions 100000000
simulation_instructions 500000000
champsim_seed 217
measure_ipc 0
measure_ipc_epoch 1000
measure_dram_bw 1
measure_dram_bw_epoch 256
measure_cache_acc 1
measure_cache_acc_epoch 1024
l1d_perfect 0
l2c_perfect 0
llc_perfect 0
l1d_semi_perfect 0
l2c_semi_perfect 0
llc_semi_perfect 0
semi_perfect_cache_page_buffer_size 64

num_cpus 1
cpu_freq 4000
dram_io_freq 4800
page_size 4096
block_size 64
max_read_per_cycle 8
max_fill_per_cycle 1
dram_channels 1
log2_dram_channels 0
dram_ranks 1
dram_banks 8
dram_rows 65536
dram_columns 128
dram_row_size 8
dram_size 4096
dram_pages 1048576

fetch_width 6
decode_width 6
exec_width 4
lq_width 2
sq_width 2
retire_width 4
scheduler_size 128
branch_mispredict_penalty 20
rob_size 256
lq_size 72
sq_size 56
num_instr_destinations_sparc 4
num_instr_destinations 2
num_instr_sources 4

itlb_set 16
itlb_way 8
itlb_rq_size 16
itlb_wq_size 16
itlb_pq_size 0
itlb_mshr_size 8
itlb_latency 1

dtlb_set 16
dtlb_way 4
dtlb_rq_size 16
dtlb_wq_size 16
dtlb_pq_size 0
dtlb_mshr_size 8
dtlb_latency 1

stlb_set 128
stlb_way 12
stlb_rq_size 32
stlb_wq_size 32
stlb_pq_size 0
stlb_mshr_size 16
stlb_latency 8

l1i_size 32
l1i_set 64
l1i_way 8
l1i_rq_size 64
l1i_wq_size 64
l1i_pq_size 8
l1i_mshr_size 8
l1i_latency 1

l1d_size 32
l1d_set 64
l1d_way 8
l1d_rq_size 64
l1d_wq_size 64
l1d_pq_size 8
l1d_mshr_size 16
l1d_latency 4

l2c_size 256
l2c_set 512
l2c_way 8
l2c_rq_size 32
l2c_wq_size 32
l2c_pq_size 32
l2c_mshr_size 32
l2c_latency 10

llc_size 2048
llc_set 2048
llc_way 16
llc_rq_size 32
llc_wq_size 32
llc_pq_size 32
llc_mshr_size 64
llc_latency 20

dram_channel_width 8
dram_wq_size 64
dram_rq_size 64
tRP 15
tRCD 15
tCAS 12.5
dram_dbus_turn_around_time 30
dram_write_high_wm 56
dram_write_low_wm 48
min_dram_writes_per_switch 16
dram_mtps 4800
dram_dbus_return_time 6


Heartbeat CPU  0 instructions:    1000000 cycles:     488292 heartbeat IPC: 2.04795 cumulative IPC: 2.04795 (Simulation time: 0 hr 0 min 2 sec) 
Heartbeat CPU  0 instructions:    2000001 cycles:     996509 heartbeat IPC: 1.96767 cumulative IPC: 2.00701 (Simulation time: 0 hr 0 min 4 sec) 
Heartbeat CPU  0 instructions:    3000003 cycles:    1555477 heartbeat IPC: 1.78901 cumulative IPC: 1.92867 (Simulation time: 0 hr 0 min 6 sec) 
Heartbeat CPU  0 instructions:    4000000 cycles:    2079999 heartbeat IPC: 1.90649 cumulative IPC: 1.92308 (Simulation time: 0 hr 0 min 7 sec) 
Heartbeat CPU  0 instructions:    5000002 cycles:    2568146 heartbeat IPC: 2.04857 cumulative IPC: 1.94693 (Simulation time: 0 hr 0 min 9 sec) 
Heartbeat CPU  0 instructions:    6000003 cycles:    3055689 heartbeat IPC: 2.05110 cumulative IPC: 1.96355 (Simulation time: 0 hr 0 min 11 sec) 
Heartbeat CPU  0 instructions:    7000001 cycles:    3543684 heartbeat IPC: 2.04920 cumulative IPC: 1.97535 (Simulation time: 0 hr 0 min 13 sec) 
Heartbeat CPU  0 instructions:    8000000 cycles:    4031856 heartbeat IPC: 2.04846 cumulative IPC: 1.98420 (Simulation time: 0 hr 0 min 15 sec) 
Heartbeat CPU  0 instructions:    9000000 cycles:    4520431 heartbeat IPC: 2.04677 cumulative IPC: 1.99096 (Simulation time: 0 hr 0 min 16 sec) 
Heartbeat CPU  0 instructions:   10000003 cycles:    5009067 heartbeat IPC: 2.04652 cumulative IPC: 1.99638 (Simulation time: 0 hr 0 min 18 sec) 
Heartbeat CPU  0 instructions:   11000000 cycles:    5497911 heartbeat IPC: 2.04564 cumulative IPC: 2.00076 (Simulation time: 0 hr 0 min 20 sec) 
Heartbeat CPU  0 instructions:   12000000 cycles:    5986365 heartbeat IPC: 2.04728 cumulative IPC: 2.00456 (Simulation time: 0 hr 0 min 22 sec) 
Heartbeat CPU  0 instructions:   13000001 cycles:    6532923 heartbeat IPC: 1.82963 cumulative IPC: 1.98992 (Simulation time: 0 hr 0 min 24 sec) 
Heartbeat CPU  0 instructions:   14000001 cycles:    7088131 heartbeat IPC: 1.80113 cumulative IPC: 1.97513 (Simulation time: 0 hr 0 min 25 sec) 
Heartbeat CPU  0 instructions:   15000000 cycles:    7576368 heartbeat IPC: 2.04818 cumulative IPC: 1.97984 (Simulation time: 0 hr 0 min 27 sec) 
Heartbeat CPU  0 instructions:   16000000 cycles:    8064651 heartbeat IPC: 2.04799 cumulative IPC: 1.98397 (Simulation time: 0 hr 0 min 29 sec) 
Heartbeat CPU  0 instructions:   17000003 cycles:    8552878 heartbeat IPC: 2.04823 cumulative IPC: 1.98764 (Simulation time: 0 hr 0 min 31 sec) 
Heartbeat CPU  0 instructions:   18000003 cycles:    9041142 heartbeat IPC: 2.04807 cumulative IPC: 1.99090 (Simulation time: 0 hr 0 min 33 sec) 
Heartbeat CPU  0 instructions:   19000001 cycles:    9529588 heartbeat IPC: 2.04731 cumulative IPC: 1.99379 (Simulation time: 0 hr 0 min 34 sec) 
Heartbeat CPU  0 instructions:   20000000 cycles:   10018459 heartbeat IPC: 2.04553 cumulative IPC: 1.99632 (Simulation time: 0 hr 0 min 36 sec) 
Heartbeat CPU  0 instructions:   21000000 cycles:   10507350 heartbeat IPC: 2.04545 cumulative IPC: 1.99860 (Simulation time: 0 hr 0 min 38 sec) 
Heartbeat CPU  0 instructions:   22000002 cycles:   10995679 heartbeat IPC: 2.04780 cumulative IPC: 2.00079 (Simulation time: 0 hr 0 min 40 sec) 
Heartbeat CPU  0 instructions:   23000002 cycles:   11510766 heartbeat IPC: 1.94142 cumulative IPC: 1.99813 (Simulation time: 0 hr 0 min 41 sec) 
Heartbeat CPU  0 instructions:   24000000 cycles:   12069379 heartbeat IPC: 1.79014 cumulative IPC: 1.98850 (Simulation time: 0 hr 0 min 43 sec) 
Heartbeat CPU  0 instructions:   25000001 cycles:   12584967 heartbeat IPC: 1.93954 cumulative IPC: 1.98650 (Simulation time: 0 hr 0 min 45 sec) 
Heartbeat CPU  0 instructions:   26000001 cycles:   13073523 heartbeat IPC: 2.04685 cumulative IPC: 1.98875 (Simulation time: 0 hr 0 min 47 sec) 
Heartbeat CPU  0 instructions:   27000000 cycles:   13561836 heartbeat IPC: 2.04786 cumulative IPC: 1.99088 (Simulation time: 0 hr 0 min 49 sec) 
Heartbeat CPU  0 instructions:   28000000 cycles:   14050725 heartbeat IPC: 2.04545 cumulative IPC: 1.99278 (Simulation time: 0 hr 0 min 50 sec) 
Heartbeat CPU  0 instructions:   29000002 cycles:   14539375 heartbeat IPC: 2.04646 cumulative IPC: 1.99458 (Simulation time: 0 hr 0 min 52 sec) 
Heartbeat CPU  0 instructions:   30000001 cycles:   15028141 heartbeat IPC: 2.04597 cumulative IPC: 1.99625 (Simulation time: 0 hr 0 min 54 sec) 
Heartbeat CPU  0 instructions:   31000001 cycles:   15516084 heartbeat IPC: 2.04942 cumulative IPC: 1.99793 (Simulation time: 0 hr 0 min 56 sec) 
Heartbeat CPU  0 instructions:   32000000 cycles:   16004161 heartbeat IPC: 2.04886 cumulative IPC: 1.99948 (Simulation time: 0 hr 0 min 58 sec) 
Heartbeat CPU  0 instructions:   33000002 cycles:   16492408 heartbeat IPC: 2.04815 cumulative IPC: 2.00092 (Simulation time: 0 hr 0 min 59 sec) 
Heartbeat CPU  0 instructions:   34000001 cycles:   17047330 heartbeat IPC: 1.80205 cumulative IPC: 1.99445 (Simulation time: 0 hr 1 min 1 sec) 
Heartbeat CPU  0 instructions:   35000001 cycles:   17593828 heartbeat IPC: 1.82983 cumulative IPC: 1.98933 (Simulation time: 0 hr 1 min 3 sec) 
Heartbeat CPU  0 instructions:   36000000 cycles:   18082164 heartbeat IPC: 2.04777 cumulative IPC: 1.99091 (Simulation time: 0 hr 1 min 5 sec) 
Heartbeat CPU  0 instructions:   37000003 cycles:   18571140 heartbeat IPC: 2.04510 cumulative IPC: 1.99234 (Simulation time: 0 hr 1 min 7 sec) 
Heartbeat CPU  0 instructions:   38000001 cycles:   19059793 heartbeat IPC: 2.04644 cumulative IPC: 1.99373 (Simulation time: 0 hr 1 min 8 sec) 
Heartbeat CPU  0 instructions:   39000002 cycles:   19548372 heartbeat IPC: 2.04675 cumulative IPC: 1.99505 (Simulation time: 0 hr 1 min 10 sec) 
Heartbeat CPU  0 instructions:   40000000 cycles:   20036326 heartbeat IPC: 2.04937 cumulative IPC: 1.99637 (Simulation time: 0 hr 1 min 12 sec) 
Heartbeat CPU  0 instructions:   41000001 cycles:   20524186 heartbeat IPC: 2.04977 cumulative IPC: 1.99764 (Simulation time: 0 hr 1 min 14 sec) 
Heartbeat CPU  0 instructions:   42000001 cycles:   21012354 heartbeat IPC: 2.04848 cumulative IPC: 1.99882 (Simulation time: 0 hr 1 min 15 sec) 
Heartbeat CPU  0 instructions:   43000001 cycles:   21500852 heartbeat IPC: 2.04709 cumulative IPC: 1.99992 (Simulation time: 0 hr 1 min 17 sec) 
Heartbeat CPU  0 instructions:   44000000 cycles:   22024665 heartbeat IPC: 1.90908 cumulative IPC: 1.99776 (Simulation time: 0 hr 1 min 19 sec) 
Heartbeat CPU  0 instructions:   45000000 cycles:   22583666 heartbeat IPC: 1.78891 cumulative IPC: 1.99259 (Simulation time: 0 hr 1 min 21 sec) 
Heartbeat CPU  0 instructions:   46000002 cycles:   23091756 heartbeat IPC: 1.96816 cumulative IPC: 1.99205 (Simulation time: 0 hr 1 min 23 sec) 
Heartbeat CPU  0 instructions:   47000002 cycles:   23580472 heartbeat IPC: 2.04618 cumulative IPC: 1.99317 (Simulation time: 0 hr 1 min 24 sec) 
Heartbeat CPU  0 instructions:   48000000 cycles:   24068447 heartbeat IPC: 2.04928 cumulative IPC: 1.99431 (Simulation time: 0 hr 1 min 26 sec) 
Heartbeat CPU  0 instructions:   49000002 cycles:   24556563 heartbeat IPC: 2.04870 cumulative IPC: 1.99539 (Simulation time: 0 hr 1 min 28 sec) 
Heartbeat CPU  0 instructions:   50000000 cycles:   25044905 heartbeat IPC: 2.04774 cumulative IPC: 1.99641 (Simulation time: 0 hr 1 min 30 sec) 
Heartbeat CPU  0 instructions:   51000002 cycles:   25533063 heartbeat IPC: 2.04852 cumulative IPC: 1.99741 (Simulation time: 0 hr 1 min 32 sec) 
Heartbeat CPU  0 instructions:   52000000 cycles:   26021557 heartbeat IPC: 2.04710 cumulative IPC: 1.99834 (Simulation time: 0 hr 1 min 33 sec) 
Heartbeat CPU  0 instructions:   53000000 cycles:   26509863 heartbeat IPC: 2.04790 cumulative IPC: 1.99926 (Simulation time: 0 hr 1 min 35 sec) 
Heartbeat CPU  0 instructions:   54000000 cycles:   27002472 heartbeat IPC: 2.03001 cumulative IPC: 1.99982 (Simulation time: 0 hr 1 min 37 sec) 
Heartbeat CPU  0 instructions:   55000002 cycles:   27561177 heartbeat IPC: 1.78986 cumulative IPC: 1.99556 (Simulation time: 0 hr 1 min 39 sec) 
Heartbeat CPU  0 instructions:   56000000 cycles:   28101250 heartbeat IPC: 1.85160 cumulative IPC: 1.99279 (Simulation time: 0 hr 1 min 41 sec) 
Heartbeat CPU  0 instructions:   57000000 cycles:   28589187 heartbeat IPC: 2.04944 cumulative IPC: 1.99376 (Simulation time: 0 hr 1 min 42 sec) 
Heartbeat CPU  0 instructions:   58000003 cycles:   29077053 heartbeat IPC: 2.04975 cumulative IPC: 1.99470 (Simulation time: 0 hr 1 min 44 sec) 
Heartbeat CPU  0 instructions:   59000001 cycles:   29565185 heartbeat IPC: 2.04862 cumulative IPC: 1.99559 (Simulation time: 0 hr 1 min 46 sec) 
Heartbeat CPU  0 instructions:   60000000 cycles:   30053494 heartbeat IPC: 2.04788 cumulative IPC: 1.99644 (Simulation time: 0 hr 1 min 48 sec) 
Heartbeat CPU  0 instructions:   61000000 cycles:   30541976 heartbeat IPC: 2.04716 cumulative IPC: 1.99725 (Simulation time: 0 hr 1 min 50 sec) 
Heartbeat CPU  0 instructions:   62000000 cycles:   31030871 heartbeat IPC: 2.04543 cumulative IPC: 1.99801 (Simulation time: 0 hr 1 min 51 sec) 
Heartbeat CPU  0 instructions:   63000002 cycles:   31519437 heartbeat IPC: 2.04681 cumulative IPC: 1.99877 (Simulation time: 0 hr 1 min 53 sec) 
Heartbeat CPU  0 instructions:   64000000 cycles:   32007866 heartbeat IPC: 2.04738 cumulative IPC: 1.99951 (Simulation time: 0 hr 1 min 55 sec) 
Heartbeat CPU  0 instructions:   65000000 cycles:   32538559 heartbeat IPC: 1.88433 cumulative IPC: 1.99763 (Simulation time: 0 hr 1 min 57 sec) 
Heartbeat CPU  0 instructions:   66000001 cycles:   33097062 heartbeat IPC: 1.79050 cumulative IPC: 1.99413 (Simulation time: 0 hr 1 min 59 sec) 
Heartbeat CPU  0 instructions:   67000000 cycles:   33597043 heartbeat IPC: 2.00007 cumulative IPC: 1.99422 (Simulation time: 0 hr 2 min 0 sec) 
Heartbeat CPU  0 instructions:   68000000 cycles:   34085266 heartbeat IPC: 2.04824 cumulative IPC: 1.99500 (Simulation time: 0 hr 2 min 2 sec) 
Heartbeat CPU  0 instructions:   69000001 cycles:   34573822 heartbeat IPC: 2.04685 cumulative IPC: 1.99573 (Simulation time: 0 hr 2 min 4 sec) 
Heartbeat CPU  0 instructions:   70000001 cycles:   35061977 heartbeat IPC: 2.04853 cumulative IPC: 1.99646 (Simulation time: 0 hr 2 min 6 sec) 
Heartbeat CPU  0 instructions:   71000003 cycles:   35550828 heartbeat IPC: 2.04562 cumulative IPC: 1.99714 (Simulation time: 0 hr 2 min 7 sec) 
Heartbeat CPU  0 instructions:   72000000 cycles:   36039593 heartbeat IPC: 2.04597 cumulative IPC: 1.99780 (Simulation time: 0 hr 2 min 9 sec) 
Heartbeat CPU  0 instructions:   73000001 cycles:   36528551 heartbeat IPC: 2.04517 cumulative IPC: 1.99844 (Simulation time: 0 hr 2 min 11 sec) 
Heartbeat CPU  0 instructions:   74000000 cycles:   37016626 heartbeat IPC: 2.04886 cumulative IPC: 1.99910 (Simulation time: 0 hr 2 min 13 sec) 
Heartbeat CPU  0 instructions:   75000001 cycles:   37516370 heartbeat IPC: 2.00103 cumulative IPC: 1.99913 (Simulation time: 0 hr 2 min 15 sec) 
Heartbeat CPU  0 instructions:   76000000 cycles:   38075017 heartbeat IPC: 1.79004 cumulative IPC: 1.99606 (Simulation time: 0 hr 2 min 16 sec) 
Heartbeat CPU  0 instructions:   77000002 cycles:   38605757 heartbeat IPC: 1.88417 cumulative IPC: 1.99452 (Simulation time: 0 hr 2 min 18 sec) 
Heartbeat CPU  0 instructions:   78000001 cycles:   39094060 heartbeat IPC: 2.04791 cumulative IPC: 1.99519 (Simulation time: 0 hr 2 min 20 sec) 
Heartbeat CPU  0 instructions:   79000001 cycles:   39582832 heartbeat IPC: 2.04594 cumulative IPC: 1.99581 (Simulation time: 0 hr 2 min 22 sec) 
Heartbeat CPU  0 instructions:   80000000 cycles:   40071410 heartbeat IPC: 2.04675 cumulative IPC: 1.99644 (Simulation time: 0 hr 2 min 24 sec) 
Heartbeat CPU  0 instructions:   81000003 cycles:   40560151 heartbeat IPC: 2.04608 cumulative IPC: 1.99703 (Simulation time: 0 hr 2 min 25 sec) 
Heartbeat CPU  0 instructions:   82000001 cycles:   41048348 heartbeat IPC: 2.04835 cumulative IPC: 1.99764 (Simulation time: 0 hr 2 min 27 sec) 
Heartbeat CPU  0 instructions:   83000000 cycles:   41536343 heartbeat IPC: 2.04920 cumulative IPC: 1.99825 (Simulation time: 0 hr 2 min 29 sec) 
Heartbeat CPU  0 instructions:   84000000 cycles:   42024462 heartbeat IPC: 2.04868 cumulative IPC: 1.99884 (Simulation time: 0 hr 2 min 31 sec) 
Heartbeat CPU  0 instructions:   85000002 cycles:   42512840 heartbeat IPC: 2.04760 cumulative IPC: 1.99940 (Simulation time: 0 hr 2 min 33 sec) 
Heartbeat CPU  0 instructions:   86000000 cycles:   43052983 heartbeat IPC: 1.85136 cumulative IPC: 1.99754 (Simulation time: 0 hr 2 min 34 sec) 
Heartbeat CPU  0 instructions:   87000002 cycles:   43611860 heartbeat IPC: 1.78931 cumulative IPC: 1.99487 (Simulation time: 0 hr 2 min 36 sec) 
Heartbeat CPU  0 instructions:   88000000 cycles:   44123901 heartbeat IPC: 1.95296 cumulative IPC: 1.99438 (Simulation time: 0 hr 2 min 38 sec) 
Heartbeat CPU  0 instructions:   89000002 cycles:   44651773 heartbeat IPC: 1.89440 cumulative IPC: 1.99320 (Simulation time: 0 hr 2 min 40 sec) 
Heartbeat CPU  0 instructions:   90000002 cycles:   45178926 heartbeat IPC: 1.89698 cumulative IPC: 1.99208 (Simulation time: 0 hr 2 min 42 sec) 
Heartbeat CPU  0 instructions:   91000003 cycles:   45706524 heartbeat IPC: 1.89538 cumulative IPC: 1.99096 (Simulation time: 0 hr 2 min 43 sec) 
Heartbeat CPU  0 instructions:   92000000 cycles:   46234206 heartbeat IPC: 1.89508 cumulative IPC: 1.98987 (Simulation time: 0 hr 2 min 45 sec) 
Heartbeat CPU  0 instructions:   93000001 cycles:   46761370 heartbeat IPC: 1.89694 cumulative IPC: 1.98882 (Simulation time: 0 hr 2 min 47 sec) 
Heartbeat CPU  0 instructions:   94000003 cycles:   47289651 heartbeat IPC: 1.89294 cumulative IPC: 1.98775 (Simulation time: 0 hr 2 min 49 sec) 
Heartbeat CPU  0 instructions:   95000003 cycles:   47816705 heartbeat IPC: 1.89734 cumulative IPC: 1.98675 (Simulation time: 0 hr 2 min 51 sec) 
Heartbeat CPU  0 instructions:   96000000 cycles:   48344180 heartbeat IPC: 1.89582 cumulative IPC: 1.98576 (Simulation time: 0 hr 2 min 53 sec) 
Heartbeat CPU  0 instructions:   97000003 cycles:   48872437 heartbeat IPC: 1.89302 cumulative IPC: 1.98476 (Simulation time: 0 hr 2 min 54 sec) 
Heartbeat CPU  0 instructions:   98000002 cycles:   49398983 heartbeat IPC: 1.89917 cumulative IPC: 1.98385 (Simulation time: 0 hr 2 min 56 sec) 
Heartbeat CPU  0 instructions:   99000002 cycles:   49926211 heartbeat IPC: 1.89671 cumulative IPC: 1.98293 (Simulation time: 0 hr 2 min 58 sec) 
Heartbeat CPU  0 instructions:  100000000 cycles:   50453611 heartbeat IPC: 1.89609 cumulative IPC: 1.98202 (Simulation time: 0 hr 3 min 0 sec) 

Warmup complete CPU  0 instructions:  100000001 cycles:   50453612 (Simulation time: 0 hr 3 min 0 sec) 

Heartbeat CPU  0 instructions:  101000002 cycles:   51471993 heartbeat IPC: 0.98195 cumulative IPC: 0.98195 (Simulation time: 0 hr 3 min 2 sec) 
Heartbeat CPU  0 instructions:  102000002 cycles:   52488046 heartbeat IPC: 0.98420 cumulative IPC: 0.98307 (Simulation time: 0 hr 3 min 4 sec) 
Heartbeat CPU  0 instructions:  103000000 cycles:   53508167 heartbeat IPC: 0.98027 cumulative IPC: 0.98214 (Simulation time: 0 hr 3 min 7 sec) 
Heartbeat CPU  0 instructions:  104000000 cycles:   54529898 heartbeat IPC: 0.97873 cumulative IPC: 0.98129 (Simulation time: 0 hr 3 min 9 sec) 
Heartbeat CPU  0 instructions:  105000002 cycles:   55552563 heartbeat IPC: 0.97784 cumulative IPC: 0.98059 (Simulation time: 0 hr 3 min 11 sec) 
Heartbeat CPU  0 instructions:  106000000 cycles:   56574234 heartbeat IPC: 0.97879 cumulative IPC: 0.98029 (Simulation time: 0 hr 3 min 13 sec) 
Heartbeat CPU  0 instructions:  107000003 cycles:   57597565 heartbeat IPC: 0.97720 cumulative IPC: 0.97985 (Simulation time: 0 hr 3 min 15 sec) 
Heartbeat CPU  0 instructions:  108000000 cycles:   58618763 heartbeat IPC: 0.97924 cumulative IPC: 0.97977 (Simulation time: 0 hr 3 min 18 sec) 
Heartbeat CPU  0 instructions:  109000002 cycles:   59648956 heartbeat IPC: 0.97069 cumulative IPC: 0.97876 (Simulation time: 0 hr 3 min 20 sec) 
Heartbeat CPU  0 instructions:  110000000 cycles:   60669453 heartbeat IPC: 0.97991 cumulative IPC: 0.97887 (Simulation time: 0 hr 3 min 22 sec) 
Heartbeat CPU  0 instructions:  111000000 cycles:   61688229 heartbeat IPC: 0.98157 cumulative IPC: 0.97912 (Simulation time: 0 hr 3 min 24 sec) 
Heartbeat CPU  0 instructions:  112000000 cycles:   62706855 heartbeat IPC: 0.98171 cumulative IPC: 0.97933 (Simulation time: 0 hr 3 min 27 sec) 
Heartbeat CPU  0 instructions:  113000001 cycles:   63729445 heartbeat IPC: 0.97791 cumulative IPC: 0.97922 (Simulation time: 0 hr 3 min 29 sec) 
Heartbeat CPU  0 instructions:  114000000 cycles:   64750328 heartbeat IPC: 0.97954 cumulative IPC: 0.97925 (Simulation time: 0 hr 3 min 31 sec) 
Heartbeat CPU  0 instructions:  115000001 cycles:   65771694 heartbeat IPC: 0.97908 cumulative IPC: 0.97923 (Simulation time: 0 hr 3 min 33 sec) 
Heartbeat CPU  0 instructions:  116000000 cycles:   66797682 heartbeat IPC: 0.97467 cumulative IPC: 0.97895 (Simulation time: 0 hr 3 min 35 sec) 
Heartbeat CPU  0 instructions:  117000003 cycles:   67821307 heartbeat IPC: 0.97692 cumulative IPC: 0.97883 (Simulation time: 0 hr 3 min 38 sec) 
Heartbeat CPU  0 instructions:  118000000 cycles:   68843968 heartbeat IPC: 0.97784 cumulative IPC: 0.97877 (Simulation time: 0 hr 3 min 40 sec) 
Heartbeat CPU  0 instructions:  119000002 cycles:   69877466 heartbeat IPC: 0.96759 cumulative IPC: 0.97818 (Simulation time: 0 hr 3 min 42 sec) 
Heartbeat CPU  0 instructions:  120000000 cycles:   70903053 heartbeat IPC: 0.97505 cumulative IPC: 0.97802 (Simulation time: 0 hr 3 min 44 sec) 
Heartbeat CPU  0 instructions:  121000003 cycles:   71921629 heartbeat IPC: 0.98177 cumulative IPC: 0.97820 (Simulation time: 0 hr 3 min 47 sec) 
Heartbeat CPU  0 instructions:  122000003 cycles:   72941955 heartbeat IPC: 0.98008 cumulative IPC: 0.97828 (Simulation time: 0 hr 3 min 49 sec) 
Heartbeat CPU  0 instructions:  123000000 cycles:   73960815 heartbeat IPC: 0.98149 cumulative IPC: 0.97842 (Simulation time: 0 hr 3 min 51 sec) 
Heartbeat CPU  0 instructions:  124000000 cycles:   74981977 heartbeat IPC: 0.97928 cumulative IPC: 0.97846 (Simulation time: 0 hr 3 min 53 sec) 
Heartbeat CPU  0 instructions:  125000003 cycles:   76002417 heartbeat IPC: 0.97997 cumulative IPC: 0.97852 (Simulation time: 0 hr 3 min 55 sec) 
Heartbeat CPU  0 instructions:  126000000 cycles:   77024749 heartbeat IPC: 0.97815 cumulative IPC: 0.97851 (Simulation time: 0 hr 3 min 58 sec) 
Heartbeat CPU  0 instructions:  127000000 cycles:   78046416 heartbeat IPC: 0.97879 cumulative IPC: 0.97852 (Simulation time: 0 hr 4 min 0 sec) 
Heartbeat CPU  0 instructions:  128000000 cycles:   79072066 heartbeat IPC: 0.97499 cumulative IPC: 0.97839 (Simulation time: 0 hr 4 min 2 sec) 
Heartbeat CPU  0 instructions:  129000002 cycles:   80097032 heartbeat IPC: 0.97564 cumulative IPC: 0.97829 (Simulation time: 0 hr 4 min 4 sec) 
Heartbeat CPU  0 instructions:  130000001 cycles:   81128770 heartbeat IPC: 0.96924 cumulative IPC: 0.97799 (Simulation time: 0 hr 4 min 7 sec) 
Heartbeat CPU  0 instructions:  131000002 cycles:   82149477 heartbeat IPC: 0.97971 cumulative IPC: 0.97805 (Simulation time: 0 hr 4 min 9 sec) 
Heartbeat CPU  0 instructions:  132000000 cycles:   83170166 heartbeat IPC: 0.97973 cumulative IPC: 0.97810 (Simulation time: 0 hr 4 min 11 sec) 
Heartbeat CPU  0 instructions:  133000000 cycles:   84188631 heartbeat IPC: 0.98187 cumulative IPC: 0.97821 (Simulation time: 0 hr 4 min 13 sec) 
Heartbeat CPU  0 instructions:  134000001 cycles:   85209395 heartbeat IPC: 0.97966 cumulative IPC: 0.97825 (Simulation time: 0 hr 4 min 15 sec) 
Heartbeat CPU  0 instructions:  135000002 cycles:   86232197 heartbeat IPC: 0.97771 cumulative IPC: 0.97824 (Simulation time: 0 hr 4 min 18 sec) 
Heartbeat CPU  0 instructions:  136000000 cycles:   87256104 heartbeat IPC: 0.97665 cumulative IPC: 0.97819 (Simulation time: 0 hr 4 min 20 sec) 
Heartbeat CPU  0 instructions:  137000001 cycles:   88278198 heartbeat IPC: 0.97838 cumulative IPC: 0.97820 (Simulation time: 0 hr 4 min 22 sec) 
Heartbeat CPU  0 instructions:  138000003 cycles:   89303382 heartbeat IPC: 0.97544 cumulative IPC: 0.97813 (Simulation time: 0 hr 4 min 24 sec) 
Heartbeat CPU  0 instructions:  139000000 cycles:   90324088 heartbeat IPC: 0.97971 cumulative IPC: 0.97817 (Simulation time: 0 hr 4 min 27 sec) 
Heartbeat CPU  0 instructions:  140000000 cycles:   91290600 heartbeat IPC: 1.03465 cumulative IPC: 0.97950 (Simulation time: 0 hr 4 min 29 sec) 
Heartbeat CPU  0 instructions:  141000001 cycles:   92214997 heartbeat IPC: 1.08179 cumulative IPC: 0.98177 (Simulation time: 0 hr 4 min 31 sec) 
Heartbeat CPU  0 instructions:  142000001 cycles:   93135784 heartbeat IPC: 1.08603 cumulative IPC: 0.98402 (Simulation time: 0 hr 4 min 33 sec) 
Heartbeat CPU  0 instructions:  143000000 cycles:   94060359 heartbeat IPC: 1.08158 cumulative IPC: 0.98609 (Simulation time: 0 hr 4 min 35 sec) 
Heartbeat CPU  0 instructions:  144000000 cycles:   94985597 heartbeat IPC: 1.08080 cumulative IPC: 0.98805 (Simulation time: 0 hr 4 min 37 sec) 
Heartbeat CPU  0 instructions:  145000001 cycles:   95915396 heartbeat IPC: 1.07550 cumulative IPC: 0.98984 (Simulation time: 0 hr 4 min 39 sec) 
Heartbeat CPU  0 instructions:  146000001 cycles:   96842822 heartbeat IPC: 1.07825 cumulative IPC: 0.99161 (Simulation time: 0 hr 4 min 42 sec) 
Heartbeat CPU  0 instructions:  147000000 cycles:   97756727 heartbeat IPC: 1.09420 cumulative IPC: 0.99359 (Simulation time: 0 hr 4 min 44 sec) 
Heartbeat CPU  0 instructions:  148000000 cycles:   98635839 heartbeat IPC: 1.13751 cumulative IPC: 0.99622 (Simulation time: 0 hr 4 min 46 sec) 
Heartbeat CPU  0 instructions:  149000000 cycles:   99513708 heartbeat IPC: 1.13912 cumulative IPC: 0.99878 (Simulation time: 0 hr 4 min 48 sec) 
Heartbeat CPU  0 instructions:  150000001 cycles:  100391657 heartbeat IPC: 1.13902 cumulative IPC: 1.00124 (Simulation time: 0 hr 4 min 50 sec) 
Heartbeat CPU  0 instructions:  151000002 cycles:  101269582 heartbeat IPC: 1.13905 cumulative IPC: 1.00362 (Simulation time: 0 hr 4 min 52 sec) 
Heartbeat CPU  0 instructions:  152000000 cycles:  102147104 heartbeat IPC: 1.13957 cumulative IPC: 1.00593 (Simulation time: 0 hr 4 min 54 sec) 
Heartbeat CPU  0 instructions:  153000002 cycles:  103025090 heartbeat IPC: 1.13897 cumulative IPC: 1.00815 (Simulation time: 0 hr 4 min 56 sec) 
Heartbeat CPU  0 instructions:  154000000 cycles:  103906735 heartbeat IPC: 1.13424 cumulative IPC: 1.01023 (Simulation time: 0 hr 4 min 58 sec) 
Heartbeat CPU  0 instructions:  155000003 cycles:  104797892 heartbeat IPC: 1.12214 cumulative IPC: 1.01207 (Simulation time: 0 hr 5 min 0 sec) 
Heartbeat CPU  0 instructions:  156000000 cycles:  105693385 heartbeat IPC: 1.11670 cumulative IPC: 1.01376 (Simulation time: 0 hr 5 min 2 sec) 
Heartbeat CPU  0 instructions:  157000003 cycles:  106584289 heartbeat IPC: 1.12246 cumulative IPC: 1.01549 (Simulation time: 0 hr 5 min 4 sec) 
Heartbeat CPU  0 instructions:  158000003 cycles:  107474637 heartbeat IPC: 1.12316 cumulative IPC: 1.01717 (Simulation time: 0 hr 5 min 6 sec) 
Heartbeat CPU  0 instructions:  159000003 cycles:  108364962 heartbeat IPC: 1.12319 cumulative IPC: 1.01880 (Simulation time: 0 hr 5 min 8 sec) 
Heartbeat CPU  0 instructions:  160000000 cycles:  109257866 heartbeat IPC: 1.11994 cumulative IPC: 1.02033 (Simulation time: 0 hr 5 min 10 sec) 
Heartbeat CPU  0 instructions:  161000001 cycles:  110150962 heartbeat IPC: 1.11970 cumulative IPC: 1.02182 (Simulation time: 0 hr 5 min 12 sec) 
Heartbeat CPU  0 instructions:  162000001 cycles:  111180916 heartbeat IPC: 0.97092 cumulative IPC: 1.02096 (Simulation time: 0 hr 5 min 15 sec) 
Heartbeat CPU  0 instructions:  163000002 cycles:  112319616 heartbeat IPC: 0.87820 cumulative IPC: 1.01833 (Simulation time: 0 hr 5 min 17 sec) 
Heartbeat CPU  0 instructions:  164000000 cycles:  113460628 heartbeat IPC: 0.87641 cumulative IPC: 1.01576 (Simulation time: 0 hr 5 min 19 sec) 
Heartbeat CPU  0 instructions:  165000000 cycles:  114631149 heartbeat IPC: 0.85432 cumulative IPC: 1.01282 (Simulation time: 0 hr 5 min 22 sec) 
Heartbeat CPU  0 instructions:  166000002 cycles:  115775464 heartbeat IPC: 0.87389 cumulative IPC: 1.01038 (Simulation time: 0 hr 5 min 24 sec) 
Heartbeat CPU  0 instructions:  167000002 cycles:  116890440 heartbeat IPC: 0.89688 cumulative IPC: 1.00848 (Simulation time: 0 hr 5 min 27 sec) 
Heartbeat CPU  0 instructions:  168000000 cycles:  118031737 heartbeat IPC: 0.87619 cumulative IPC: 1.00624 (Simulation time: 0 hr 5 min 29 sec) 
Heartbeat CPU  0 instructions:  169000002 cycles:  119177039 heartbeat IPC: 0.87313 cumulative IPC: 1.00402 (Simulation time: 0 hr 5 min 32 sec) 
Heartbeat CPU  0 instructions:  170000002 cycles:  120334518 heartbeat IPC: 0.86395 cumulative IPC: 1.00170 (Simulation time: 0 hr 5 min 34 sec) 
Heartbeat CPU  0 instructions:  171000003 cycles:  121453919 heartbeat IPC: 0.89334 cumulative IPC: 1.00000 (Simulation time: 0 hr 5 min 37 sec) 
Heartbeat CPU  0 instructions:  172000000 cycles:  122576639 heartbeat IPC: 0.89069 cumulative IPC: 0.99829 (Simulation time: 0 hr 5 min 39 sec) 
Heartbeat CPU  0 instructions:  173000003 cycles:  123713641 heartbeat IPC: 0.87951 cumulative IPC: 0.99645 (Simulation time: 0 hr 5 min 42 sec) 
Heartbeat CPU  0 instructions:  174000000 cycles:  124841463 heartbeat IPC: 0.88666 cumulative IPC: 0.99479 (Simulation time: 0 hr 5 min 44 sec) 
Heartbeat CPU  0 instructions:  175000000 cycles:  125959428 heartbeat IPC: 0.89448 cumulative IPC: 0.99330 (Simulation time: 0 hr 5 min 46 sec) 
Heartbeat CPU  0 instructions:  176000000 cycles:  127088914 heartbeat IPC: 0.88536 cumulative IPC: 0.99171 (Simulation time: 0 hr 5 min 49 sec) 
Heartbeat CPU  0 instructions:  177000003 cycles:  128207436 heartbeat IPC: 0.89404 cumulative IPC: 0.99031 (Simulation time: 0 hr 5 min 51 sec) 
Heartbeat CPU  0 instructions:  178000001 cycles:  129335184 heartbeat IPC: 0.88672 cumulative IPC: 0.98882 (Simulation time: 0 hr 5 min 54 sec) 
Heartbeat CPU  0 instructions:  179000000 cycles:  130480563 heartbeat IPC: 0.87307 cumulative IPC: 0.98717 (Simulation time: 0 hr 5 min 56 sec) 
Heartbeat CPU  0 instructions:  180000000 cycles:  131610417 heartbeat IPC: 0.88507 cumulative IPC: 0.98575 (Simulation time: 0 hr 5 min 59 sec) 
Heartbeat CPU  0 instructions:  181000000 cycles:  132763696 heartbeat IPC: 0.86709 cumulative IPC: 0.98408 (Simulation time: 0 hr 6 min 1 sec) 
Heartbeat CPU  0 instructions:  182000001 cycles:  133907359 heartbeat IPC: 0.87438 cumulative IPC: 0.98258 (Simulation time: 0 hr 6 min 4 sec) 
Heartbeat CPU  0 instructions:  183000003 cycles:  135035198 heartbeat IPC: 0.88665 cumulative IPC: 0.98130 (Simulation time: 0 hr 6 min 6 sec) 
Heartbeat CPU  0 instructions:  184000000 cycles:  136155821 heartbeat IPC: 0.89236 cumulative IPC: 0.98014 (Simulation time: 0 hr 6 min 9 sec) 
Heartbeat CPU  0 instructions:  185000000 cycles:  137289159 heartbeat IPC: 0.88235 cumulative IPC: 0.97886 (Simulation time: 0 hr 6 min 11 sec) 
Heartbeat CPU  0 instructions:  186000002 cycles:  138410962 heartbeat IPC: 0.89142 cumulative IPC: 0.97775 (Simulation time: 0 hr 6 min 13 sec) 
Heartbeat CPU  0 instructions:  187000001 cycles:  139551132 heartbeat IPC: 0.87706 cumulative IPC: 0.97646 (Simulation time: 0 hr 6 min 16 sec) 
Heartbeat CPU  0 instructions:  188000000 cycles:  140685440 heartbeat IPC: 0.88159 cumulative IPC: 0.97527 (Simulation time: 0 hr 6 min 18 sec) 
Heartbeat CPU  0 instructions:  189000001 cycles:  141846268 heartbeat IPC: 0.86145 cumulative IPC: 0.97382 (Simulation time: 0 hr 6 min 21 sec) 
Heartbeat CPU  0 instructions:  190000002 cycles:  142982812 heartbeat IPC: 0.87986 cumulative IPC: 0.97267 (Simulation time: 0 hr 6 min 23 sec) 
Heartbeat CPU  0 instructions:  191000001 cycles:  144120587 heartbeat IPC: 0.87891 cumulative IPC: 0.97153 (Simulation time: 0 hr 6 min 26 sec) 
Heartbeat CPU  0 instructions:  192000000 cycles:  145243808 heartbeat IPC: 0.89030 cumulative IPC: 0.97056 (Simulation time: 0 hr 6 min 28 sec) 
Heartbeat CPU  0 instructions:  193000003 cycles:  146364851 heartbeat IPC: 0.89203 cumulative IPC: 0.96965 (Simulation time: 0 hr 6 min 31 sec) 
Heartbeat CPU  0 instructions:  194000002 cycles:  147362572 heartbeat IPC: 1.00228 cumulative IPC: 0.96998 (Simulation time: 0 hr 6 min 33 sec) 
Heartbeat CPU  0 instructions:  195000000 cycles:  148264069 heartbeat IPC: 1.10926 cumulative IPC: 0.97127 (Simulation time: 0 hr 6 min 35 sec) 
Heartbeat CPU  0 instructions:  196000000 cycles:  149135468 heartbeat IPC: 1.14758 cumulative IPC: 0.97282 (Simulation time: 0 hr 6 min 37 sec) 
Heartbeat CPU  0 instructions:  197000003 cycles:  150021380 heartbeat IPC: 1.12878 cumulative IPC: 0.97421 (Simulation time: 0 hr 6 min 39 sec) 
Heartbeat CPU  0 instructions:  198000000 cycles:  150902834 heartbeat IPC: 1.13449 cumulative IPC: 0.97562 (Simulation time: 0 hr 6 min 41 sec) 
Heartbeat CPU  0 instructions:  199000000 cycles:  151802321 heartbeat IPC: 1.11174 cumulative IPC: 0.97683 (Simulation time: 0 hr 6 min 43 sec) 
Heartbeat CPU  0 instructions:  200000000 cycles:  152682517 heartbeat IPC: 1.13611 cumulative IPC: 0.97820 (Simulation time: 0 hr 6 min 45 sec) 
Heartbeat CPU  0 instructions:  201000002 cycles:  153550236 heartbeat IPC: 1.15245 cumulative IPC: 0.97966 (Simulation time: 0 hr 6 min 48 sec) 
Heartbeat CPU  0 instructions:  202000000 cycles:  154434928 heartbeat IPC: 1.13033 cumulative IPC: 0.98095 (Simulation time: 0 hr 6 min 50 sec) 
Heartbeat CPU  0 instructions:  203000001 cycles:  155321291 heartbeat IPC: 1.12821 cumulative IPC: 0.98219 (Simulation time: 0 hr 6 min 52 sec) 
Heartbeat CPU  0 instructions:  204000000 cycles:  156215677 heartbeat IPC: 1.11808 cumulative IPC: 0.98334 (Simulation time: 0 hr 6 min 54 sec) 
Heartbeat CPU  0 instructions:  205000002 cycles:  157103172 heartbeat IPC: 1.12677 cumulative IPC: 0.98453 (Simulation time: 0 hr 6 min 56 sec) 
Heartbeat CPU  0 instructions:  206000003 cycles:  157971743 heartbeat IPC: 1.15132 cumulative IPC: 0.98588 (Simulation time: 0 hr 6 min 58 sec) 
Heartbeat CPU  0 instructions:  207000001 cycles:  158850141 heartbeat IPC: 1.13843 cumulative IPC: 0.98712 (Simulation time: 0 hr 7 min 0 sec) 
Heartbeat CPU  0 instructions:  208000000 cycles:  159742796 heartbeat IPC: 1.12025 cumulative IPC: 0.98820 (Simulation time: 0 hr 7 min 2 sec) 
Heartbeat CPU  0 instructions:  209000001 cycles:  160631031 heartbeat IPC: 1.12583 cumulative IPC: 0.98931 (Simulation time: 0 hr 7 min 4 sec) 
Heartbeat CPU  0 instructions:  210000003 cycles:  161523198 heartbeat IPC: 1.12087 cumulative IPC: 0.99037 (Simulation time: 0 hr 7 min 6 sec) 
Heartbeat CPU  0 instructions:  211000002 cycles:  162394532 heartbeat IPC: 1.14766 cumulative IPC: 0.99159 (Simulation time: 0 hr 7 min 9 sec) 
Heartbeat CPU  0 instructions:  212000000 cycles:  163273262 heartbeat IPC: 1.13800 cumulative IPC: 0.99273 (Simulation time: 0 hr 7 min 11 sec) 
Heartbeat CPU  0 instructions:  213000003 cycles:  164160496 heartbeat IPC: 1.12710 cumulative IPC: 0.99378 (Simulation time: 0 hr 7 min 13 sec) 
Heartbeat CPU  0 instructions:  214000001 cycles:  165045323 heartbeat IPC: 1.13016 cumulative IPC: 0.99484 (Simulation time: 0 hr 7 min 15 sec) 
Heartbeat CPU  0 instructions:  215000002 cycles:  165939788 heartbeat IPC: 1.11799 cumulative IPC: 0.99579 (Simulation time: 0 hr 7 min 17 sec) 
Heartbeat CPU  0 instructions:  216000000 cycles:  166813792 heartbeat IPC: 1.14416 cumulative IPC: 0.99690 (Simulation time: 0 hr 7 min 19 sec) 
Heartbeat CPU  0 instructions:  217000002 cycles:  167693191 heartbeat IPC: 1.13714 cumulative IPC: 0.99796 (Simulation time: 0 hr 7 min 21 sec) 
Heartbeat CPU  0 instructions:  218000000 cycles:  168575228 heartbeat IPC: 1.13374 cumulative IPC: 0.99897 (Simulation time: 0 hr 7 min 23 sec) 
Heartbeat CPU  0 instructions:  219000003 cycles:  169462267 heartbeat IPC: 1.12735 cumulative IPC: 0.99993 (Simulation time: 0 hr 7 min 25 sec) 
Heartbeat CPU  0 instructions:  220000000 cycles:  170352167 heartbeat IPC: 1.12372 cumulative IPC: 1.00085 (Simulation time: 0 hr 7 min 28 sec) 
Heartbeat CPU  0 instructions:  221000002 cycles:  171238386 heartbeat IPC: 1.12839 cumulative IPC: 1.00178 (Simulation time: 0 hr 7 min 30 sec) 
Heartbeat CPU  0 instructions:  222000001 cycles:  172108795 heartbeat IPC: 1.14888 cumulative IPC: 1.00283 (Simulation time: 0 hr 7 min 32 sec) 
Heartbeat CPU  0 instructions:  223000000 cycles:  172989927 heartbeat IPC: 1.13490 cumulative IPC: 1.00378 (Simulation time: 0 hr 7 min 34 sec) 
Heartbeat CPU  0 instructions:  224000000 cycles:  173877701 heartbeat IPC: 1.12641 cumulative IPC: 1.00467 (Simulation time: 0 hr 7 min 36 sec) 
Heartbeat CPU  0 instructions:  225000001 cycles:  174762323 heartbeat IPC: 1.13043 cumulative IPC: 1.00556 (Simulation time: 0 hr 7 min 38 sec) 
Heartbeat CPU  0 instructions:  226000003 cycles:  175655201 heartbeat IPC: 1.11998 cumulative IPC: 1.00638 (Simulation time: 0 hr 7 min 40 sec) 
Heartbeat CPU  0 instructions:  227000001 cycles:  176528868 heartbeat IPC: 1.14460 cumulative IPC: 1.00733 (Simulation time: 0 hr 7 min 42 sec) 
Heartbeat CPU  0 instructions:  228000000 cycles:  177405487 heartbeat IPC: 1.14075 cumulative IPC: 1.00826 (Simulation time: 0 hr 7 min 44 sec) 
Heartbeat CPU  0 instructions:  229000002 cycles:  178287603 heartbeat IPC: 1.13364 cumulative IPC: 1.00912 (Simulation time: 0 hr 7 min 46 sec) 
Heartbeat CPU  0 instructions:  230000002 cycles:  179175957 heartbeat IPC: 1.12568 cumulative IPC: 1.00993 (Simulation time: 0 hr 7 min 49 sec) 
Heartbeat CPU  0 instructions:  231000001 cycles:  180066645 heartbeat IPC: 1.12273 cumulative IPC: 1.01070 (Simulation time: 0 hr 7 min 51 sec) 
Heartbeat CPU  0 instructions:  232000000 cycles:  180944067 heartbeat IPC: 1.13970 cumulative IPC: 1.01157 (Simulation time: 0 hr 7 min 53 sec) 
Heartbeat CPU  0 instructions:  233000000 cycles:  181820262 heartbeat IPC: 1.14130 cumulative IPC: 1.01243 (Simulation time: 0 hr 7 min 55 sec) 
Heartbeat CPU  0 instructions:  234000001 cycles:  182700037 heartbeat IPC: 1.13666 cumulative IPC: 1.01326 (Simulation time: 0 hr 7 min 57 sec) 
Heartbeat CPU  0 instructions:  235000003 cycles:  183590385 heartbeat IPC: 1.12316 cumulative IPC: 1.01399 (Simulation time: 0 hr 7 min 59 sec) 
Heartbeat CPU  0 instructions:  236000000 cycles:  184484232 heartbeat IPC: 1.11876 cumulative IPC: 1.01469 (Simulation time: 0 hr 8 min 1 sec) 
Heartbeat CPU  0 instructions:  237000000 cycles:  185361889 heartbeat IPC: 1.13940 cumulative IPC: 1.01550 (Simulation time: 0 hr 8 min 3 sec) 
Heartbeat CPU  0 instructions:  238000001 cycles:  186238581 heartbeat IPC: 1.14065 cumulative IPC: 1.01631 (Simulation time: 0 hr 8 min 5 sec) 
Heartbeat CPU  0 instructions:  239000003 cycles:  187114774 heartbeat IPC: 1.14130 cumulative IPC: 1.01711 (Simulation time: 0 hr 8 min 7 sec) 
Heartbeat CPU  0 instructions:  240000000 cycles:  188004907 heartbeat IPC: 1.12342 cumulative IPC: 1.01780 (Simulation time: 0 hr 8 min 10 sec) 
Heartbeat CPU  0 instructions:  241000000 cycles:  188900203 heartbeat IPC: 1.11695 cumulative IPC: 1.01844 (Simulation time: 0 hr 8 min 12 sec) 
Heartbeat CPU  0 instructions:  242000000 cycles:  189779828 heartbeat IPC: 1.13685 cumulative IPC: 1.01919 (Simulation time: 0 hr 8 min 14 sec) 
Heartbeat CPU  0 instructions:  243000003 cycles:  190653165 heartbeat IPC: 1.14504 cumulative IPC: 1.01997 (Simulation time: 0 hr 8 min 16 sec) 
Heartbeat CPU  0 instructions:  244000000 cycles:  191543323 heartbeat IPC: 1.12339 cumulative IPC: 1.02063 (Simulation time: 0 hr 8 min 18 sec) 
Heartbeat CPU  0 instructions:  245000000 cycles:  192424041 heartbeat IPC: 1.13544 cumulative IPC: 1.02134 (Simulation time: 0 hr 8 min 20 sec) 
Heartbeat CPU  0 instructions:  246000002 cycles:  193319188 heartbeat IPC: 1.11714 cumulative IPC: 1.02194 (Simulation time: 0 hr 8 min 22 sec) 
Heartbeat CPU  0 instructions:  247000000 cycles:  194200661 heartbeat IPC: 1.13446 cumulative IPC: 1.02263 (Simulation time: 0 hr 8 min 24 sec) 
Heartbeat CPU  0 instructions:  248000000 cycles:  195069236 heartbeat IPC: 1.15131 cumulative IPC: 1.02340 (Simulation time: 0 hr 8 min 26 sec) 
Heartbeat CPU  0 instructions:  249000000 cycles:  195960579 heartbeat IPC: 1.12190 cumulative IPC: 1.02401 (Simulation time: 0 hr 8 min 28 sec) 
Heartbeat CPU  0 instructions:  250000001 cycles:  196838917 heartbeat IPC: 1.13851 cumulative IPC: 1.02469 (Simulation time: 0 hr 8 min 30 sec) 
Heartbeat CPU  0 instructions:  251000003 cycles:  197733170 heartbeat IPC: 1.11825 cumulative IPC: 1.02526 (Simulation time: 0 hr 8 min 33 sec) 
Heartbeat CPU  0 instructions:  252000000 cycles:  198618571 heartbeat IPC: 1.12943 cumulative IPC: 1.02588 (Simulation time: 0 hr 8 min 35 sec) 
Heartbeat CPU  0 instructions:  253000000 cycles:  199491522 heartbeat IPC: 1.14554 cumulative IPC: 1.02658 (Simulation time: 0 hr 8 min 37 sec) 
Heartbeat CPU  0 instructions:  254000000 cycles:  200376254 heartbeat IPC: 1.13029 cumulative IPC: 1.02720 (Simulation time: 0 hr 8 min 39 sec) 
Heartbeat CPU  0 instructions:  255000003 cycles:  201258145 heartbeat IPC: 1.13393 cumulative IPC: 1.02782 (Simulation time: 0 hr 8 min 41 sec) 
Heartbeat CPU  0 instructions:  256000000 cycles:  202148712 heartbeat IPC: 1.12288 cumulative IPC: 1.02838 (Simulation time: 0 hr 8 min 43 sec) 
Heartbeat CPU  0 instructions:  257000003 cycles:  203039592 heartbeat IPC: 1.12249 cumulative IPC: 1.02893 (Simulation time: 0 hr 8 min 45 sec) 
Heartbeat CPU  0 instructions:  258000000 cycles:  203917657 heartbeat IPC: 1.13886 cumulative IPC: 1.02956 (Simulation time: 0 hr 8 min 47 sec) 
Heartbeat CPU  0 instructions:  259000003 cycles:  204802277 heartbeat IPC: 1.13043 cumulative IPC: 1.03014 (Simulation time: 0 hr 8 min 49 sec) 
Heartbeat CPU  0 instructions:  260000000 cycles:  205680763 heartbeat IPC: 1.13832 cumulative IPC: 1.03075 (Simulation time: 0 hr 8 min 52 sec) 
Heartbeat CPU  0 instructions:  261000001 cycles:  206568538 heartbeat IPC: 1.12641 cumulative IPC: 1.03129 (Simulation time: 0 hr 8 min 54 sec) 
Heartbeat CPU  0 instructions:  262000000 cycles:  207471381 heartbeat IPC: 1.10761 cumulative IPC: 1.03173 (Simulation time: 0 hr 8 min 56 sec) 
Heartbeat CPU  0 instructions:  263000000 cycles:  208343848 heartbeat IPC: 1.14618 cumulative IPC: 1.03236 (Simulation time: 0 hr 8 min 58 sec) 
Heartbeat CPU  0 instructions:  264000000 cycles:  209222044 heartbeat IPC: 1.13870 cumulative IPC: 1.03295 (Simulation time: 0 hr 9 min 0 sec) 
Heartbeat CPU  0 instructions:  265000002 cycles:  210107113 heartbeat IPC: 1.12986 cumulative IPC: 1.03349 (Simulation time: 0 hr 9 min 2 sec) 
Heartbeat CPU  0 instructions:  266000001 cycles:  210984849 heartbeat IPC: 1.13929 cumulative IPC: 1.03407 (Simulation time: 0 hr 9 min 4 sec) 
Heartbeat CPU  0 instructions:  267000000 cycles:  211889594 heartbeat IPC: 1.10528 cumulative IPC: 1.03447 (Simulation time: 0 hr 9 min 6 sec) 
Heartbeat CPU  0 instructions:  268000000 cycles:  212768391 heartbeat IPC: 1.13792 cumulative IPC: 1.03503 (Simulation time: 0 hr 9 min 9 sec) 
Heartbeat CPU  0 instructions:  269000003 cycles:  213646233 heartbeat IPC: 1.13916 cumulative IPC: 1.03559 (Simulation time: 0 hr 9 min 11 sec) 
Heartbeat CPU  0 instructions:  270000002 cycles:  214534847 heartbeat IPC: 1.12535 cumulative IPC: 1.03607 (Simulation time: 0 hr 9 min 13 sec) 
Heartbeat CPU  0 instructions:  271000000 cycles:  215413148 heartbeat IPC: 1.13856 cumulative IPC: 1.03662 (Simulation time: 0 hr 9 min 15 sec) 
Heartbeat CPU  0 instructions:  272000000 cycles:  216317705 heartbeat IPC: 1.10551 cumulative IPC: 1.03699 (Simulation time: 0 hr 9 min 17 sec) 
Heartbeat CPU  0 instructions:  273000002 cycles:  217197859 heartbeat IPC: 1.13617 cumulative IPC: 1.03752 (Simulation time: 0 hr 9 min 19 sec) 
Heartbeat CPU  0 instructions:  274000002 cycles:  218071333 heartbeat IPC: 1.14485 cumulative IPC: 1.03808 (Simulation time: 0 hr 9 min 21 sec) 
Heartbeat CPU  0 instructions:  275000001 cycles:  218961442 heartbeat IPC: 1.12346 cumulative IPC: 1.03853 (Simulation time: 0 hr 9 min 24 sec) 
Heartbeat CPU  0 instructions:  276000000 cycles:  219840559 heartbeat IPC: 1.13750 cumulative IPC: 1.03904 (Simulation time: 0 hr 9 min 26 sec) 
Heartbeat CPU  0 instructions:  277000003 cycles:  220738576 heartbeat IPC: 1.11357 cumulative IPC: 1.03943 (Simulation time: 0 hr 9 min 28 sec) 
Heartbeat CPU  0 instructions:  278000002 cycles:  221624750 heartbeat IPC: 1.12845 cumulative IPC: 1.03989 (Simulation time: 0 hr 9 min 30 sec) 
Heartbeat CPU  0 instructions:  279000003 cycles:  222490739 heartbeat IPC: 1.15475 cumulative IPC: 1.04047 (Simulation time: 0 hr 9 min 32 sec) 
Heartbeat CPU  0 instructions:  280000000 cycles:  223377253 heartbeat IPC: 1.12801 cumulative IPC: 1.04092 (Simulation time: 0 hr 9 min 34 sec) 
Heartbeat CPU  0 instructions:  281000002 cycles:  224260099 heartbeat IPC: 1.13270 cumulative IPC: 1.04139 (Simulation time: 0 hr 9 min 36 sec) 
Heartbeat CPU  0 instructions:  282000001 cycles:  225154184 heartbeat IPC: 1.11846 cumulative IPC: 1.04178 (Simulation time: 0 hr 9 min 38 sec) 
Heartbeat CPU  0 instructions:  283000003 cycles:  226046969 heartbeat IPC: 1.12009 cumulative IPC: 1.04218 (Simulation time: 0 hr 9 min 40 sec) 
Heartbeat CPU  0 instructions:  284000000 cycles:  226913784 heartbeat IPC: 1.15365 cumulative IPC: 1.04273 (Simulation time: 0 hr 9 min 42 sec) 
Heartbeat CPU  0 instructions:  285000002 cycles:  227802120 heartbeat IPC: 1.12570 cumulative IPC: 1.04314 (Simulation time: 0 hr 9 min 45 sec) 
Heartbeat CPU  0 instructions:  286000001 cycles:  228679954 heartbeat IPC: 1.13917 cumulative IPC: 1.04362 (Simulation time: 0 hr 9 min 47 sec) 
Heartbeat CPU  0 instructions:  287000001 cycles:  229566308 heartbeat IPC: 1.12822 cumulative IPC: 1.04404 (Simulation time: 0 hr 9 min 49 sec) 
Heartbeat CPU  0 instructions:  288000000 cycles:  230463224 heartbeat IPC: 1.11493 cumulative IPC: 1.04439 (Simulation time: 0 hr 9 min 51 sec) 
Heartbeat CPU  0 instructions:  289000000 cycles:  231332846 heartbeat IPC: 1.14992 cumulative IPC: 1.04490 (Simulation time: 0 hr 9 min 53 sec) 
Heartbeat CPU  0 instructions:  290000000 cycles:  232214787 heartbeat IPC: 1.13386 cumulative IPC: 1.04533 (Simulation time: 0 hr 9 min 55 sec) 
Heartbeat CPU  0 instructions:  291000002 cycles:  233095736 heartbeat IPC: 1.13514 cumulative IPC: 1.04576 (Simulation time: 0 hr 9 min 57 sec) 
Heartbeat CPU  0 instructions:  292000000 cycles:  233978514 heartbeat IPC: 1.13279 cumulative IPC: 1.04618 (Simulation time: 0 hr 9 min 59 sec) 
Heartbeat CPU  0 instructions:  293000001 cycles:  234876857 heartbeat IPC: 1.11316 cumulative IPC: 1.04651 (Simulation time: 0 hr 10 min 1 sec) 
Heartbeat CPU  0 instructions:  294000002 cycles:  235762320 heartbeat IPC: 1.12935 cumulative IPC: 1.04690 (Simulation time: 0 hr 10 min 4 sec) 
Heartbeat CPU  0 instructions:  295000003 cycles:  236637600 heartbeat IPC: 1.14249 cumulative IPC: 1.04735 (Simulation time: 0 hr 10 min 6 sec) 
Heartbeat CPU  0 instructions:  296000000 cycles:  237522900 heartbeat IPC: 1.12956 cumulative IPC: 1.04774 (Simulation time: 0 hr 10 min 8 sec) 
Heartbeat CPU  0 instructions:  297000003 cycles:  238405743 heartbeat IPC: 1.13271 cumulative IPC: 1.04814 (Simulation time: 0 hr 10 min 10 sec) 
Heartbeat CPU  0 instructions:  298000002 cycles:  239299950 heartbeat IPC: 1.11831 cumulative IPC: 1.04847 (Simulation time: 0 hr 10 min 12 sec) 
Heartbeat CPU  0 instructions:  299000003 cycles:  240187445 heartbeat IPC: 1.12677 cumulative IPC: 1.04884 (Simulation time: 0 hr 10 min 14 sec) 
Heartbeat CPU  0 instructions:  300000000 cycles:  241056353 heartbeat IPC: 1.15087 cumulative IPC: 1.04930 (Simulation time: 0 hr 10 min 16 sec) 
Heartbeat CPU  0 instructions:  301000000 cycles:  241937966 heartbeat IPC: 1.13428 cumulative IPC: 1.04969 (Simulation time: 0 hr 10 min 18 sec) 
Heartbeat CPU  0 instructions:  302000003 cycles:  242819666 heartbeat IPC: 1.13418 cumulative IPC: 1.05008 (Simulation time: 0 hr 10 min 20 sec) 
Heartbeat CPU  0 instructions:  303000002 cycles:  243715831 heartbeat IPC: 1.11586 cumulative IPC: 1.05039 (Simulation time: 0 hr 10 min 22 sec) 
Heartbeat CPU  0 instructions:  304000000 cycles:  244603762 heartbeat IPC: 1.12621 cumulative IPC: 1.05073 (Simulation time: 0 hr 10 min 25 sec) 
Heartbeat CPU  0 instructions:  305000001 cycles:  245476564 heartbeat IPC: 1.14574 cumulative IPC: 1.05116 (Simulation time: 0 hr 10 min 27 sec) 
Heartbeat CPU  0 instructions:  306000003 cycles:  246353217 heartbeat IPC: 1.14070 cumulative IPC: 1.05156 (Simulation time: 0 hr 10 min 29 sec) 
Heartbeat CPU  0 instructions:  307000000 cycles:  247230915 heartbeat IPC: 1.13934 cumulative IPC: 1.05195 (Simulation time: 0 hr 10 min 31 sec) 
Heartbeat CPU  0 instructions:  308000000 cycles:  248126721 heartbeat IPC: 1.11631 cumulative IPC: 1.05224 (Simulation time: 0 hr 10 min 33 sec) 
Heartbeat CPU  0 instructions:  309000000 cycles:  249016630 heartbeat IPC: 1.12371 cumulative IPC: 1.05256 (Simulation time: 0 hr 10 min 35 sec) 
Heartbeat CPU  0 instructions:  310000003 cycles:  249890197 heartbeat IPC: 1.14474 cumulative IPC: 1.05297 (Simulation time: 0 hr 10 min 37 sec) 
Heartbeat CPU  0 instructions:  311000001 cycles:  250762200 heartbeat IPC: 1.14678 cumulative IPC: 1.05337 (Simulation time: 0 hr 10 min 39 sec) 
Heartbeat CPU  0 instructions:  312000000 cycles:  251640911 heartbeat IPC: 1.13803 cumulative IPC: 1.05374 (Simulation time: 0 hr 10 min 41 sec) 
Heartbeat CPU  0 instructions:  313000001 cycles:  252531392 heartbeat IPC: 1.12299 cumulative IPC: 1.05405 (Simulation time: 0 hr 10 min 44 sec) 
Heartbeat CPU  0 instructions:  314000000 cycles:  253422251 heartbeat IPC: 1.12251 cumulative IPC: 1.05435 (Simulation time: 0 hr 10 min 46 sec) 
Heartbeat CPU  0 instructions:  315000000 cycles:  254301432 heartbeat IPC: 1.13742 cumulative IPC: 1.05471 (Simulation time: 0 hr 10 min 48 sec) 
Heartbeat CPU  0 instructions:  316000000 cycles:  255171657 heartbeat IPC: 1.14913 cumulative IPC: 1.05511 (Simulation time: 0 hr 10 min 50 sec) 
Heartbeat CPU  0 instructions:  317000000 cycles:  256059037 heartbeat IPC: 1.12691 cumulative IPC: 1.05542 (Simulation time: 0 hr 10 min 52 sec) 
Heartbeat CPU  0 instructions:  318000000 cycles:  256942743 heartbeat IPC: 1.13160 cumulative IPC: 1.05575 (Simulation time: 0 hr 10 min 54 sec) 
Heartbeat CPU  0 instructions:  319000001 cycles:  257837322 heartbeat IPC: 1.11785 cumulative IPC: 1.05601 (Simulation time: 0 hr 10 min 56 sec) 
Heartbeat CPU  0 instructions:  320000000 cycles:  258721794 heartbeat IPC: 1.13062 cumulative IPC: 1.05633 (Simulation time: 0 hr 10 min 58 sec) 
Heartbeat CPU  0 instructions:  321000003 cycles:  259593425 heartbeat IPC: 1.14728 cumulative IPC: 1.05671 (Simulation time: 0 hr 11 min 0 sec) 
Heartbeat CPU  0 instructions:  322000003 cycles:  260481485 heartbeat IPC: 1.12605 cumulative IPC: 1.05700 (Simulation time: 0 hr 11 min 2 sec) 
Heartbeat CPU  0 instructions:  323000003 cycles:  261364140 heartbeat IPC: 1.13295 cumulative IPC: 1.05732 (Simulation time: 0 hr 11 min 5 sec) 
Heartbeat CPU  0 instructions:  324000000 cycles:  262258180 heartbeat IPC: 1.11851 cumulative IPC: 1.05758 (Simulation time: 0 hr 11 min 7 sec) 
Heartbeat CPU  0 instructions:  325000000 cycles:  263141506 heartbeat IPC: 1.13208 cumulative IPC: 1.05789 (Simulation time: 0 hr 11 min 9 sec) 
Heartbeat CPU  0 instructions:  326000001 cycles:  264018762 heartbeat IPC: 1.13992 cumulative IPC: 1.05823 (Simulation time: 0 hr 11 min 11 sec) 
Heartbeat CPU  0 instructions:  327000001 cycles:  264900076 heartbeat IPC: 1.13467 cumulative IPC: 1.05854 (Simulation time: 0 hr 11 min 13 sec) 
Heartbeat CPU  0 instructions:  328000000 cycles:  265778574 heartbeat IPC: 1.13831 cumulative IPC: 1.05886 (Simulation time: 0 hr 11 min 15 sec) 
Heartbeat CPU  0 instructions:  329000000 cycles:  266671650 heartbeat IPC: 1.11973 cumulative IPC: 1.05912 (Simulation time: 0 hr 11 min 17 sec) 
Heartbeat CPU  0 instructions:  330000000 cycles:  267562665 heartbeat IPC: 1.12232 cumulative IPC: 1.05938 (Simulation time: 0 hr 11 min 19 sec) 
Heartbeat CPU  0 instructions:  331000003 cycles:  268436009 heartbeat IPC: 1.14503 cumulative IPC: 1.05972 (Simulation time: 0 hr 11 min 22 sec) 
Heartbeat CPU  0 instructions:  332000000 cycles:  269318293 heartbeat IPC: 1.13342 cumulative IPC: 1.06002 (Simulation time: 0 hr 11 min 24 sec) 
Heartbeat CPU  0 instructions:  333000002 cycles:  270196664 heartbeat IPC: 1.13847 cumulative IPC: 1.06033 (Simulation time: 0 hr 11 min 26 sec) 
Heartbeat CPU  0 instructions:  334000003 cycles:  271085321 heartbeat IPC: 1.12529 cumulative IPC: 1.06059 (Simulation time: 0 hr 11 min 28 sec) 
Heartbeat CPU  0 instructions:  335000000 cycles:  271980669 heartbeat IPC: 1.11688 cumulative IPC: 1.06082 (Simulation time: 0 hr 11 min 30 sec) 
Heartbeat CPU  0 instructions:  336000000 cycles:  272852477 heartbeat IPC: 1.14704 cumulative IPC: 1.06116 (Simulation time: 0 hr 11 min 32 sec) 
Heartbeat CPU  0 instructions:  337000001 cycles:  273733054 heartbeat IPC: 1.13562 cumulative IPC: 1.06145 (Simulation time: 0 hr 11 min 34 sec) 
Heartbeat CPU  0 instructions:  338000003 cycles:  274610416 heartbeat IPC: 1.13978 cumulative IPC: 1.06176 (Simulation time: 0 hr 11 min 36 sec) 
Heartbeat CPU  0 instructions:  339000000 cycles:  275497212 heartbeat IPC: 1.12765 cumulative IPC: 1.06202 (Simulation time: 0 hr 11 min 39 sec) 
Heartbeat CPU  0 instructions:  340000000 cycles:  276396931 heartbeat IPC: 1.11146 cumulative IPC: 1.06221 (Simulation time: 0 hr 11 min 41 sec) 
Heartbeat CPU  0 instructions:  341000002 cycles:  277271259 heartbeat IPC: 1.14374 cumulative IPC: 1.06253 (Simulation time: 0 hr 11 min 43 sec) 
Heartbeat CPU  0 instructions:  342000001 cycles:  278151990 heartbeat IPC: 1.13542 cumulative IPC: 1.06281 (Simulation time: 0 hr 11 min 45 sec) 
Heartbeat CPU  0 instructions:  343000001 cycles:  279030137 heartbeat IPC: 1.13876 cumulative IPC: 1.06310 (Simulation time: 0 hr 11 min 47 sec) 
Heartbeat CPU  0 instructions:  344000000 cycles:  279913765 heartbeat IPC: 1.13170 cumulative IPC: 1.06337 (Simulation time: 0 hr 11 min 49 sec) 
Heartbeat CPU  0 instructions:  345000001 cycles:  280812687 heartbeat IPC: 1.11244 cumulative IPC: 1.06356 (Simulation time: 0 hr 11 min 51 sec) 
Heartbeat CPU  0 instructions:  346000001 cycles:  281690897 heartbeat IPC: 1.13868 cumulative IPC: 1.06384 (Simulation time: 0 hr 11 min 53 sec) 
Heartbeat CPU  0 instructions:  347000003 cycles:  282669155 heartbeat IPC: 1.02223 cumulative IPC: 1.06367 (Simulation time: 0 hr 11 min 55 sec) 
Heartbeat CPU  0 instructions:  348000000 cycles:  283816459 heartbeat IPC: 0.87161 cumulative IPC: 1.06272 (Simulation time: 0 hr 11 min 58 sec) 
Heartbeat CPU  0 instructions:  349000002 cycles:  284967754 heartbeat IPC: 0.86859 cumulative IPC: 1.06177 (Simulation time: 0 hr 12 min 0 sec) 
Heartbeat CPU  0 instructions:  350000000 cycles:  286125504 heartbeat IPC: 0.86374 cumulative IPC: 1.06080 (Simulation time: 0 hr 12 min 2 sec) 
Heartbeat CPU  0 instructions:  351000002 cycles:  287277863 heartbeat IPC: 0.86779 cumulative IPC: 1.05986 (Simulation time: 0 hr 12 min 4 sec) 
Heartbeat CPU  0 instructions:  352000000 cycles:  288430713 heartbeat IPC: 0.86741 cumulative IPC: 1.05893 (Simulation time: 0 hr 12 min 7 sec) 
Heartbeat CPU  0 instructions:  353000000 cycles:  289587964 heartbeat IPC: 0.86412 cumulative IPC: 1.05798 (Simulation time: 0 hr 12 min 9 sec) 
Heartbeat CPU  0 instructions:  354000000 cycles:  290747237 heartbeat IPC: 0.86261 cumulative IPC: 1.05704 (Simulation time: 0 hr 12 min 11 sec) 
Heartbeat CPU  0 instructions:  355000003 cycles:  291898016 heartbeat IPC: 0.86898 cumulative IPC: 1.05614 (Simulation time: 0 hr 12 min 13 sec) 
Heartbeat CPU  0 instructions:  356000000 cycles:  293052000 heartbeat IPC: 0.86656 cumulative IPC: 1.05524 (Simulation time: 0 hr 12 min 15 sec) 
Heartbeat CPU  0 instructions:  357000000 cycles:  294205239 heartbeat IPC: 0.86712 cumulative IPC: 1.05435 (Simulation time: 0 hr 12 min 18 sec) 
Heartbeat CPU  0 instructions:  358000000 cycles:  295355567 heartbeat IPC: 0.86932 cumulative IPC: 1.05348 (Simulation time: 0 hr 12 min 20 sec) 
Heartbeat CPU  0 instructions:  359000001 cycles:  296506189 heartbeat IPC: 0.86910 cumulative IPC: 1.05262 (Simulation time: 0 hr 12 min 22 sec) 
Heartbeat CPU  0 instructions:  360000000 cycles:  297661236 heartbeat IPC: 0.86576 cumulative IPC: 1.05175 (Simulation time: 0 hr 12 min 24 sec) 
Heartbeat CPU  0 instructions:  361000000 cycles:  298808618 heartbeat IPC: 0.87155 cumulative IPC: 1.05092 (Simulation time: 0 hr 12 min 26 sec) 
Heartbeat CPU  0 instructions:  362000001 cycles:  299958742 heartbeat IPC: 0.86947 cumulative IPC: 1.05008 (Simulation time: 0 hr 12 min 29 sec) 
Heartbeat CPU  0 instructions:  363000003 cycles:  301109926 heartbeat IPC: 0.86867 cumulative IPC: 1.04925 (Simulation time: 0 hr 12 min 31 sec) 
Heartbeat CPU  0 instructions:  364000000 cycles:  302262680 heartbeat IPC: 0.86749 cumulative IPC: 1.04841 (Simulation time: 0 hr 12 min 33 sec) 
Heartbeat CPU  0 instructions:  365000000 cycles:  303416926 heartbeat IPC: 0.86637 cumulative IPC: 1.04758 (Simulation time: 0 hr 12 min 35 sec) 
Heartbeat CPU  0 instructions:  366000000 cycles:  304574018 heartbeat IPC: 0.86424 cumulative IPC: 1.04675 (Simulation time: 0 hr 12 min 38 sec) 
Heartbeat CPU  0 instructions:  367000001 cycles:  305723517 heartbeat IPC: 0.86995 cumulative IPC: 1.04595 (Simulation time: 0 hr 12 min 40 sec) 
Heartbeat CPU  0 instructions:  368000000 cycles:  306878922 heartbeat IPC: 0.86550 cumulative IPC: 1.04514 (Simulation time: 0 hr 12 min 42 sec) 
Heartbeat CPU  0 instructions:  369000000 cycles:  308028693 heartbeat IPC: 0.86974 cumulative IPC: 1.04436 (Simulation time: 0 hr 12 min 44 sec) 
Heartbeat CPU  0 instructions:  370000002 cycles:  309182113 heartbeat IPC: 0.86699 cumulative IPC: 1.04356 (Simulation time: 0 hr 12 min 46 sec) 
Heartbeat CPU  0 instructions:  371000002 cycles:  310334703 heartbeat IPC: 0.86761 cumulative IPC: 1.04278 (Simulation time: 0 hr 12 min 49 sec) 
Heartbeat CPU  0 instructions:  372000000 cycles:  311488713 heartbeat IPC: 0.86654 cumulative IPC: 1.04201 (Simulation time: 0 hr 12 min 51 sec) 
Heartbeat CPU  0 instructions:  373000002 cycles:  312641240 heartbeat IPC: 0.86766 cumulative IPC: 1.04124 (Simulation time: 0 hr 12 min 53 sec) 
Heartbeat CPU  0 instructions:  374000003 cycles:  313793962 heartbeat IPC: 0.86751 cumulative IPC: 1.04048 (Simulation time: 0 hr 12 min 55 sec) 
Heartbeat CPU  0 instructions:  375000003 cycles:  314946063 heartbeat IPC: 0.86798 cumulative IPC: 1.03973 (Simulation time: 0 hr 12 min 57 sec) 
Heartbeat CPU  0 instructions:  376000000 cycles:  316102673 heartbeat IPC: 0.86459 cumulative IPC: 1.03896 (Simulation time: 0 hr 13 min 0 sec) 
Heartbeat CPU  0 instructions:  377000003 cycles:  317252385 heartbeat IPC: 0.86979 cumulative IPC: 1.03824 (Simulation time: 0 hr 13 min 2 sec) 
Heartbeat CPU  0 instructions:  378000003 cycles:  318404898 heartbeat IPC: 0.86767 cumulative IPC: 1.03750 (Simulation time: 0 hr 13 min 4 sec) 
Heartbeat CPU  0 instructions:  379000003 cycles:  319557501 heartbeat IPC: 0.86760 cumulative IPC: 1.03677 (Simulation time: 0 hr 13 min 6 sec) 
Heartbeat CPU  0 instructions:  380000000 cycles:  320718980 heartbeat IPC: 0.86097 cumulative IPC: 1.03602 (Simulation time: 0 hr 13 min 9 sec) 
Heartbeat CPU  0 instructions:  381000002 cycles:  321872570 heartbeat IPC: 0.86686 cumulative IPC: 1.03530 (Simulation time: 0 hr 13 min 11 sec) 
Heartbeat CPU  0 instructions:  382000001 cycles:  323017709 heartbeat IPC: 0.87326 cumulative IPC: 1.03462 (Simulation time: 0 hr 13 min 13 sec) 
Heartbeat CPU  0 instructions:  383000000 cycles:  324175216 heartbeat IPC: 0.86392 cumulative IPC: 1.03390 (Simulation time: 0 hr 13 min 15 sec) 
Heartbeat CPU  0 instructions:  384000000 cycles:  325328695 heartbeat IPC: 0.86694 cumulative IPC: 1.03320 (Simulation time: 0 hr 13 min 17 sec) 
Heartbeat CPU  0 instructions:  385000000 cycles:  326480475 heartbeat IPC: 0.86822 cumulative IPC: 1.03251 (Simulation time: 0 hr 13 min 20 sec) 
Heartbeat CPU  0 instructions:  386000001 cycles:  327638887 heartbeat IPC: 0.86325 cumulative IPC: 1.03180 (Simulation time: 0 hr 13 min 22 sec) 
Heartbeat CPU  0 instructions:  387000003 cycles:  328789286 heartbeat IPC: 0.86927 cumulative IPC: 1.03113 (Simulation time: 0 hr 13 min 24 sec) 
Heartbeat CPU  0 instructions:  388000000 cycles:  329933492 heartbeat IPC: 0.87397 cumulative IPC: 1.03049 (Simulation time: 0 hr 13 min 26 sec) 
Heartbeat CPU  0 instructions:  389000001 cycles:  331095462 heartbeat IPC: 0.86061 cumulative IPC: 1.02978 (Simulation time: 0 hr 13 min 28 sec) 
Heartbeat CPU  0 instructions:  390000000 cycles:  332246562 heartbeat IPC: 0.86873 cumulative IPC: 1.02912 (Simulation time: 0 hr 13 min 31 sec) 
Heartbeat CPU  0 instructions:  391000000 cycles:  333390261 heartbeat IPC: 0.87436 cumulative IPC: 1.02850 (Simulation time: 0 hr 13 min 33 sec) 
Heartbeat CPU  0 instructions:  392000000 cycles:  334551132 heartbeat IPC: 0.86142 cumulative IPC: 1.02782 (Simulation time: 0 hr 13 min 35 sec) 
Heartbeat CPU  0 instructions:  393000002 cycles:  336032635 heartbeat IPC: 0.67499 cumulative IPC: 1.02599 (Simulation time: 0 hr 13 min 38 sec) 
Heartbeat CPU  0 instructions:  394000001 cycles:  338915576 heartbeat IPC: 0.34687 cumulative IPC: 1.01920 (Simulation time: 0 hr 13 min 41 sec) 
Heartbeat CPU  0 instructions:  395000000 cycles:  341093609 heartbeat IPC: 0.45913 cumulative IPC: 1.01500 (Simulation time: 0 hr 13 min 44 sec) 
Heartbeat CPU  0 instructions:  396000000 cycles:  341845502 heartbeat IPC: 1.32998 cumulative IPC: 1.01581 (Simulation time: 0 hr 13 min 46 sec) 
Heartbeat CPU  0 instructions:  397000000 cycles:  342605182 heartbeat IPC: 1.31634 cumulative IPC: 1.01660 (Simulation time: 0 hr 13 min 48 sec) 
Heartbeat CPU  0 instructions:  398000001 cycles:  343366967 heartbeat IPC: 1.31271 cumulative IPC: 1.01737 (Simulation time: 0 hr 13 min 50 sec) 
Heartbeat CPU  0 instructions:  399000002 cycles:  344137628 heartbeat IPC: 1.29759 cumulative IPC: 1.01810 (Simulation time: 0 hr 13 min 53 sec) 
Heartbeat CPU  0 instructions:  400000000 cycles:  344902075 heartbeat IPC: 1.30813 cumulative IPC: 1.01885 (Simulation time: 0 hr 13 min 55 sec) 
Heartbeat CPU  0 instructions:  401000003 cycles:  345656038 heartbeat IPC: 1.32633 cumulative IPC: 1.01964 (Simulation time: 0 hr 13 min 57 sec) 
Heartbeat CPU  0 instructions:  402000002 cycles:  346428770 heartbeat IPC: 1.29411 cumulative IPC: 1.02036 (Simulation time: 0 hr 13 min 59 sec) 
Heartbeat CPU  0 instructions:  403000002 cycles:  347212410 heartbeat IPC: 1.27610 cumulative IPC: 1.02103 (Simulation time: 0 hr 14 min 1 sec) 
Heartbeat CPU  0 instructions:  404000000 cycles:  347993665 heartbeat IPC: 1.27999 cumulative IPC: 1.02171 (Simulation time: 0 hr 14 min 3 sec) 
Heartbeat CPU  0 instructions:  405000000 cycles:  348776549 heartbeat IPC: 1.27733 cumulative IPC: 1.02238 (Simulation time: 0 hr 14 min 6 sec) 
Heartbeat CPU  0 instructions:  406000000 cycles:  349559495 heartbeat IPC: 1.27723 cumulative IPC: 1.02305 (Simulation time: 0 hr 14 min 8 sec) 
Heartbeat CPU  0 instructions:  407000000 cycles:  350339054 heartbeat IPC: 1.28278 cumulative IPC: 1.02372 (Simulation time: 0 hr 14 min 10 sec) 
Heartbeat CPU  0 instructions:  408000000 cycles:  351162344 heartbeat IPC: 1.21464 cumulative IPC: 1.02425 (Simulation time: 0 hr 14 min 12 sec) 
Heartbeat CPU  0 instructions:  409000001 cycles:  352094955 heartbeat IPC: 1.07226 cumulative IPC: 1.02440 (Simulation time: 0 hr 14 min 14 sec) 
Heartbeat CPU  0 instructions:  410000003 cycles:  352986422 heartbeat IPC: 1.12175 cumulative IPC: 1.02468 (Simulation time: 0 hr 14 min 16 sec) 
Heartbeat CPU  0 instructions:  411000002 cycles:  353938331 heartbeat IPC: 1.05052 cumulative IPC: 1.02476 (Simulation time: 0 hr 14 min 18 sec) 
Heartbeat CPU  0 instructions:  412000000 cycles:  354766710 heartbeat IPC: 1.20717 cumulative IPC: 1.02526 (Simulation time: 0 hr 14 min 20 sec) 
Heartbeat CPU  0 instructions:  413000003 cycles:  355589617 heartbeat IPC: 1.21521 cumulative IPC: 1.02577 (Simulation time: 0 hr 14 min 22 sec) 
Heartbeat CPU  0 instructions:  414000002 cycles:  356409179 heartbeat IPC: 1.22016 cumulative IPC: 1.02629 (Simulation time: 0 hr 14 min 24 sec) 
Heartbeat CPU  0 instructions:  415000002 cycles:  357230060 heartbeat IPC: 1.21820 cumulative IPC: 1.02681 (Simulation time: 0 hr 14 min 27 sec) 
Heartbeat CPU  0 instructions:  416000000 cycles:  358051406 heartbeat IPC: 1.21751 cumulative IPC: 1.02732 (Simulation time: 0 hr 14 min 29 sec) 
Heartbeat CPU  0 instructions:  417000000 cycles:  358874576 heartbeat IPC: 1.21482 cumulative IPC: 1.02782 (Simulation time: 0 hr 14 min 31 sec) 
Heartbeat CPU  0 instructions:  418000001 cycles:  359697439 heartbeat IPC: 1.21527 cumulative IPC: 1.02831 (Simulation time: 0 hr 14 min 33 sec) 
Heartbeat CPU  0 instructions:  419000003 cycles:  360520310 heartbeat IPC: 1.21526 cumulative IPC: 1.02881 (Simulation time: 0 hr 14 min 35 sec) 
Heartbeat CPU  0 instructions:  420000000 cycles:  361342377 heartbeat IPC: 1.21644 cumulative IPC: 1.02931 (Simulation time: 0 hr 14 min 37 sec) 
Heartbeat CPU  0 instructions:  421000001 cycles:  362164112 heartbeat IPC: 1.21694 cumulative IPC: 1.02980 (Simulation time: 0 hr 14 min 39 sec) 
Heartbeat CPU  0 instructions:  422000000 cycles:  362988178 heartbeat IPC: 1.21349 cumulative IPC: 1.03029 (Simulation time: 0 hr 14 min 41 sec) 
Heartbeat CPU  0 instructions:  423000002 cycles:  363810948 heartbeat IPC: 1.21541 cumulative IPC: 1.03077 (Simulation time: 0 hr 14 min 43 sec) 
Heartbeat CPU  0 instructions:  424000000 cycles:  364637513 heartbeat IPC: 1.20982 cumulative IPC: 1.03124 (Simulation time: 0 hr 14 min 45 sec) 
Heartbeat CPU  0 instructions:  425000000 cycles:  365463303 heartbeat IPC: 1.21096 cumulative IPC: 1.03171 (Simulation time: 0 hr 14 min 47 sec) 
Heartbeat CPU  0 instructions:  426000003 cycles:  366289903 heartbeat IPC: 1.20978 cumulative IPC: 1.03218 (Simulation time: 0 hr 14 min 49 sec) 
Heartbeat CPU  0 instructions:  427000003 cycles:  367115868 heartbeat IPC: 1.21071 cumulative IPC: 1.03265 (Simulation time: 0 hr 14 min 51 sec) 
Heartbeat CPU  0 instructions:  428000000 cycles:  367943858 heartbeat IPC: 1.20774 cumulative IPC: 1.03310 (Simulation time: 0 hr 14 min 53 sec) 
Heartbeat CPU  0 instructions:  429000002 cycles:  368769901 heartbeat IPC: 1.21059 cumulative IPC: 1.03356 (Simulation time: 0 hr 14 min 55 sec) 
Heartbeat CPU  0 instructions:  430000002 cycles:  369598102 heartbeat IPC: 1.20744 cumulative IPC: 1.03401 (Simulation time: 0 hr 14 min 57 sec) 
Heartbeat CPU  0 instructions:  431000003 cycles:  370425094 heartbeat IPC: 1.20920 cumulative IPC: 1.03447 (Simulation time: 0 hr 14 min 59 sec) 
Heartbeat CPU  0 instructions:  432000000 cycles:  371252200 heartbeat IPC: 1.20903 cumulative IPC: 1.03492 (Simulation time: 0 hr 15 min 1 sec) 
Heartbeat CPU  0 instructions:  433000001 cycles:  372078390 heartbeat IPC: 1.21038 cumulative IPC: 1.03537 (Simulation time: 0 hr 15 min 3 sec) 
Heartbeat CPU  0 instructions:  434000001 cycles:  372907362 heartbeat IPC: 1.20631 cumulative IPC: 1.03581 (Simulation time: 0 hr 15 min 5 sec) 
Heartbeat CPU  0 instructions:  435000000 cycles:  373733645 heartbeat IPC: 1.21024 cumulative IPC: 1.03625 (Simulation time: 0 hr 15 min 7 sec) 
Heartbeat CPU  0 instructions:  436000000 cycles:  374559844 heartbeat IPC: 1.21036 cumulative IPC: 1.03670 (Simulation time: 0 hr 15 min 9 sec) 
Heartbeat CPU  0 instructions:  437000002 cycles:  375386786 heartbeat IPC: 1.20928 cumulative IPC: 1.03714 (Simulation time: 0 hr 15 min 11 sec) 
Heartbeat CPU  0 instructions:  438000000 cycles:  376215292 heartbeat IPC: 1.20699 cumulative IPC: 1.03757 (Simulation time: 0 hr 15 min 14 sec) 
Heartbeat CPU  0 instructions:  439000003 cycles:  377040332 heartbeat IPC: 1.21207 cumulative IPC: 1.03801 (Simulation time: 0 hr 15 min 16 sec) 
Heartbeat CPU  0 instructions:  440000000 cycles:  377867518 heartbeat IPC: 1.20891 cumulative IPC: 1.03844 (Simulation time: 0 hr 15 min 18 sec) 
Heartbeat CPU  0 instructions:  441000000 cycles:  378696105 heartbeat IPC: 1.20687 cumulative IPC: 1.03887 (Simulation time: 0 hr 15 min 20 sec) 
Heartbeat CPU  0 instructions:  442000003 cycles:  379523578 heartbeat IPC: 1.20850 cumulative IPC: 1.03929 (Simulation time: 0 hr 15 min 22 sec) 
Heartbeat CPU  0 instructions:  443000002 cycles:  380352036 heartbeat IPC: 1.20706 cumulative IPC: 1.03971 (Simulation time: 0 hr 15 min 24 sec) 
Heartbeat CPU  0 instructions:  444000000 cycles:  381178615 heartbeat IPC: 1.20980 cumulative IPC: 1.04014 (Simulation time: 0 hr 15 min 26 sec) 
Heartbeat CPU  0 instructions:  445000003 cycles:  382005029 heartbeat IPC: 1.21005 cumulative IPC: 1.04056 (Simulation time: 0 hr 15 min 28 sec) 
Heartbeat CPU  0 instructions:  446000002 cycles:  382831330 heartbeat IPC: 1.21021 cumulative IPC: 1.04098 (Simulation time: 0 hr 15 min 30 sec) 
Heartbeat CPU  0 instructions:  447000000 cycles:  383660155 heartbeat IPC: 1.20652 cumulative IPC: 1.04140 (Simulation time: 0 hr 15 min 32 sec) 
Heartbeat CPU  0 instructions:  448000000 cycles:  384488892 heartbeat IPC: 1.20666 cumulative IPC: 1.04181 (Simulation time: 0 hr 15 min 34 sec) 
Heartbeat CPU  0 instructions:  449000003 cycles:  385316429 heartbeat IPC: 1.20841 cumulative IPC: 1.04222 (Simulation time: 0 hr 15 min 36 sec) 
Heartbeat CPU  0 instructions:  450000001 cycles:  386143439 heartbeat IPC: 1.20917 cumulative IPC: 1.04263 (Simulation time: 0 hr 15 min 38 sec) 
Heartbeat CPU  0 instructions:  451000003 cycles:  386970322 heartbeat IPC: 1.20936 cumulative IPC: 1.04304 (Simulation time: 0 hr 15 min 40 sec) 
Heartbeat CPU  0 instructions:  452000000 cycles:  387795224 heartbeat IPC: 1.21226 cumulative IPC: 1.04345 (Simulation time: 0 hr 15 min 42 sec) 
Heartbeat CPU  0 instructions:  453000000 cycles:  388621274 heartbeat IPC: 1.21058 cumulative IPC: 1.04386 (Simulation time: 0 hr 15 min 44 sec) 
Heartbeat CPU  0 instructions:  454000000 cycles:  389448203 heartbeat IPC: 1.20929 cumulative IPC: 1.04426 (Simulation time: 0 hr 15 min 46 sec) 
Heartbeat CPU  0 instructions:  455000002 cycles:  390273828 heartbeat IPC: 1.21121 cumulative IPC: 1.04467 (Simulation time: 0 hr 15 min 48 sec) 
Heartbeat CPU  0 instructions:  456000000 cycles:  391101012 heartbeat IPC: 1.20892 cumulative IPC: 1.04507 (Simulation time: 0 hr 15 min 50 sec) 
Heartbeat CPU  0 instructions:  457000000 cycles:  391930089 heartbeat IPC: 1.20616 cumulative IPC: 1.04546 (Simulation time: 0 hr 15 min 52 sec) 
Heartbeat CPU  0 instructions:  458000002 cycles:  392757056 heartbeat IPC: 1.20924 cumulative IPC: 1.04586 (Simulation time: 0 hr 15 min 54 sec) 
Heartbeat CPU  0 instructions:  459000001 cycles:  393584790 heartbeat IPC: 1.20812 cumulative IPC: 1.04625 (Simulation time: 0 hr 15 min 56 sec) 
Heartbeat CPU  0 instructions:  460000000 cycles:  394411591 heartbeat IPC: 1.20948 cumulative IPC: 1.04664 (Simulation time: 0 hr 15 min 58 sec) 
Heartbeat CPU  0 instructions:  461000003 cycles:  395239358 heartbeat IPC: 1.20807 cumulative IPC: 1.04703 (Simulation time: 0 hr 16 min 1 sec) 
Heartbeat CPU  0 instructions:  462000002 cycles:  396068267 heartbeat IPC: 1.20640 cumulative IPC: 1.04741 (Simulation time: 0 hr 16 min 3 sec) 
Heartbeat CPU  0 instructions:  463000002 cycles:  396896200 heartbeat IPC: 1.20783 cumulative IPC: 1.04779 (Simulation time: 0 hr 16 min 5 sec) 
Heartbeat CPU  0 instructions:  464000000 cycles:  397723414 heartbeat IPC: 1.20887 cumulative IPC: 1.04818 (Simulation time: 0 hr 16 min 7 sec) 
Heartbeat CPU  0 instructions:  465000001 cycles:  398552554 heartbeat IPC: 1.20607 cumulative IPC: 1.04855 (Simulation time: 0 hr 16 min 9 sec) 
Heartbeat CPU  0 instructions:  466000001 cycles:  399378450 heartbeat IPC: 1.21081 cumulative IPC: 1.04894 (Simulation time: 0 hr 16 min 11 sec) 
Heartbeat CPU  0 instructions:  467000001 cycles:  400203614 heartbeat IPC: 1.21188 cumulative IPC: 1.04932 (Simulation time: 0 hr 16 min 13 sec) 
Heartbeat CPU  0 instructions:  468000000 cycles:  401030166 heartbeat IPC: 1.20984 cumulative IPC: 1.04970 (Simulation time: 0 hr 16 min 15 sec) 
Heartbeat CPU  0 instructions:  469000000 cycles:  401858639 heartbeat IPC: 1.20704 cumulative IPC: 1.05007 (Simulation time: 0 hr 16 min 17 sec) 
Heartbeat CPU  0 instructions:  470000003 cycles:  402685581 heartbeat IPC: 1.20928 cumulative IPC: 1.05044 (Simulation time: 0 hr 16 min 19 sec) 
Heartbeat CPU  0 instructions:  471000002 cycles:  403511539 heartbeat IPC: 1.21071 cumulative IPC: 1.05082 (Simulation time: 0 hr 16 min 21 sec) 
Heartbeat CPU  0 instructions:  472000000 cycles:  404339868 heartbeat IPC: 1.20725 cumulative IPC: 1.05119 (Simulation time: 0 hr 16 min 23 sec) 
Heartbeat CPU  0 instructions:  473000002 cycles:  405167417 heartbeat IPC: 1.20839 cumulative IPC: 1.05155 (Simulation time: 0 hr 16 min 25 sec) 
Heartbeat CPU  0 instructions:  474000002 cycles:  405994046 heartbeat IPC: 1.20973 cumulative IPC: 1.05192 (Simulation time: 0 hr 16 min 27 sec) 
Heartbeat CPU  0 instructions:  475000003 cycles:  406820880 heartbeat IPC: 1.20943 cumulative IPC: 1.05229 (Simulation time: 0 hr 16 min 29 sec) 
Heartbeat CPU  0 instructions:  476000000 cycles:  407649248 heartbeat IPC: 1.20719 cumulative IPC: 1.05264 (Simulation time: 0 hr 16 min 31 sec) 
Heartbeat CPU  0 instructions:  477000002 cycles:  408477029 heartbeat IPC: 1.20805 cumulative IPC: 1.05300 (Simulation time: 0 hr 16 min 33 sec) 
Heartbeat CPU  0 instructions:  478000002 cycles:  409305833 heartbeat IPC: 1.20656 cumulative IPC: 1.05336 (Simulation time: 0 hr 16 min 35 sec) 
Heartbeat CPU  0 instructions:  479000002 cycles:  410133344 heartbeat IPC: 1.20844 cumulative IPC: 1.05372 (Simulation time: 0 hr 16 min 37 sec) 
Heartbeat CPU  0 instructions:  480000000 cycles:  410960078 heartbeat IPC: 1.20958 cumulative IPC: 1.05407 (Simulation time: 0 hr 16 min 39 sec) 
Heartbeat CPU  0 instructions:  481000001 cycles:  411788946 heartbeat IPC: 1.20647 cumulative IPC: 1.05442 (Simulation time: 0 hr 16 min 41 sec) 
Heartbeat CPU  0 instructions:  482000000 cycles:  412662583 heartbeat IPC: 1.14464 cumulative IPC: 1.05464 (Simulation time: 0 hr 16 min 43 sec) 
Heartbeat CPU  0 instructions:  483000003 cycles:  413570756 heartbeat IPC: 1.10112 cumulative IPC: 1.05476 (Simulation time: 0 hr 16 min 45 sec) 
Heartbeat CPU  0 instructions:  484000000 cycles:  414479192 heartbeat IPC: 1.10079 cumulative IPC: 1.05487 (Simulation time: 0 hr 16 min 47 sec) 
Heartbeat CPU  0 instructions:  485000003 cycles:  415385715 heartbeat IPC: 1.10312 cumulative IPC: 1.05499 (Simulation time: 0 hr 16 min 49 sec) 
Heartbeat CPU  0 instructions:  486000002 cycles:  416288237 heartbeat IPC: 1.10801 cumulative IPC: 1.05512 (Simulation time: 0 hr 16 min 51 sec) 
Heartbeat CPU  0 instructions:  487000001 cycles:  417187937 heartbeat IPC: 1.11148 cumulative IPC: 1.05526 (Simulation time: 0 hr 16 min 54 sec) 
Heartbeat CPU  0 instructions:  488000000 cycles:  418088319 heartbeat IPC: 1.11064 cumulative IPC: 1.05540 (Simulation time: 0 hr 16 min 56 sec) 
Heartbeat CPU  0 instructions:  489000001 cycles:  418994481 heartbeat IPC: 1.10356 cumulative IPC: 1.05551 (Simulation time: 0 hr 16 min 58 sec) 
Heartbeat CPU  0 instructions:  490000001 cycles:  419903334 heartbeat IPC: 1.10029 cumulative IPC: 1.05562 (Simulation time: 0 hr 17 min 0 sec) 
Heartbeat CPU  0 instructions:  491000000 cycles:  420791400 heartbeat IPC: 1.12604 cumulative IPC: 1.05579 (Simulation time: 0 hr 17 min 2 sec) 
Heartbeat CPU  0 instructions:  492000000 cycles:  421681506 heartbeat IPC: 1.12346 cumulative IPC: 1.05596 (Simulation time: 0 hr 17 min 4 sec) 
Heartbeat CPU  0 instructions:  493000002 cycles:  422570030 heartbeat IPC: 1.12546 cumulative IPC: 1.05612 (Simulation time: 0 hr 17 min 6 sec) 
Heartbeat CPU  0 instructions:  494000001 cycles:  423453587 heartbeat IPC: 1.13179 cumulative IPC: 1.05630 (Simulation time: 0 hr 17 min 8 sec) 
Heartbeat CPU  0 instructions:  495000001 cycles:  424341157 heartbeat IPC: 1.12667 cumulative IPC: 1.05647 (Simulation time: 0 hr 17 min 10 sec) 
Heartbeat CPU  0 instructions:  496000000 cycles:  425226604 heartbeat IPC: 1.12937 cumulative IPC: 1.05664 (Simulation time: 0 hr 17 min 12 sec) 
Heartbeat CPU  0 instructions:  497000000 cycles:  426111729 heartbeat IPC: 1.12978 cumulative IPC: 1.05681 (Simulation time: 0 hr 17 min 14 sec) 
Heartbeat CPU  0 instructions:  498000001 cycles:  426999231 heartbeat IPC: 1.12676 cumulative IPC: 1.05698 (Simulation time: 0 hr 17 min 16 sec) 
Heartbeat CPU  0 instructions:  499000001 cycles:  427892265 heartbeat IPC: 1.11978 cumulative IPC: 1.05713 (Simulation time: 0 hr 17 min 18 sec) 
Heartbeat CPU  0 instructions:  500000000 cycles:  428785033 heartbeat IPC: 1.12011 cumulative IPC: 1.05727 (Simulation time: 0 hr 17 min 20 sec) 
Heartbeat CPU  0 instructions:  501000002 cycles:  429675019 heartbeat IPC: 1.12362 cumulative IPC: 1.05743 (Simulation time: 0 hr 17 min 22 sec) 
Heartbeat CPU  0 instructions:  502000003 cycles:  430564527 heartbeat IPC: 1.12422 cumulative IPC: 1.05759 (Simulation time: 0 hr 17 min 24 sec) 
Heartbeat CPU  0 instructions:  503000000 cycles:  431447835 heartbeat IPC: 1.13210 cumulative IPC: 1.05776 (Simulation time: 0 hr 17 min 26 sec) 
Heartbeat CPU  0 instructions:  504000000 cycles:  432335534 heartbeat IPC: 1.12651 cumulative IPC: 1.05792 (Simulation time: 0 hr 17 min 28 sec) 
Heartbeat CPU  0 instructions:  505000003 cycles:  433223673 heartbeat IPC: 1.12595 cumulative IPC: 1.05808 (Simulation time: 0 hr 17 min 30 sec) 
Heartbeat CPU  0 instructions:  506000002 cycles:  434110068 heartbeat IPC: 1.12816 cumulative IPC: 1.05824 (Simulation time: 0 hr 17 min 32 sec) 
Heartbeat CPU  0 instructions:  507000000 cycles:  435002222 heartbeat IPC: 1.12088 cumulative IPC: 1.05838 (Simulation time: 0 hr 17 min 34 sec) 
Heartbeat CPU  0 instructions:  508000000 cycles:  435997555 heartbeat IPC: 1.00469 cumulative IPC: 1.05825 (Simulation time: 0 hr 17 min 37 sec) 
Heartbeat CPU  0 instructions:  509000002 cycles:  437100460 heartbeat IPC: 0.90670 cumulative IPC: 1.05781 (Simulation time: 0 hr 17 min 39 sec) 
Heartbeat CPU  0 instructions:  510000002 cycles:  438228397 heartbeat IPC: 0.88657 cumulative IPC: 1.05731 (Simulation time: 0 hr 17 min 42 sec) 
Heartbeat CPU  0 instructions:  511000003 cycles:  439352517 heartbeat IPC: 0.88959 cumulative IPC: 1.05683 (Simulation time: 0 hr 17 min 44 sec) 
Heartbeat CPU  0 instructions:  512000000 cycles:  440474570 heartbeat IPC: 0.89122 cumulative IPC: 1.05635 (Simulation time: 0 hr 17 min 46 sec) 
Heartbeat CPU  0 instructions:  513000003 cycles:  441591222 heartbeat IPC: 0.89554 cumulative IPC: 1.05589 (Simulation time: 0 hr 17 min 49 sec) 
Heartbeat CPU  0 instructions:  514000003 cycles:  442703233 heartbeat IPC: 0.89927 cumulative IPC: 1.05545 (Simulation time: 0 hr 17 min 51 sec) 
Heartbeat CPU  0 instructions:  515000000 cycles:  443869697 heartbeat IPC: 0.85729 cumulative IPC: 1.05486 (Simulation time: 0 hr 17 min 54 sec) 
Heartbeat CPU  0 instructions:  516000000 cycles:  445015614 heartbeat IPC: 0.87266 cumulative IPC: 1.05433 (Simulation time: 0 hr 17 min 56 sec) 
Heartbeat CPU  0 instructions:  517000001 cycles:  446113340 heartbeat IPC: 0.91098 cumulative IPC: 1.05394 (Simulation time: 0 hr 17 min 59 sec) 
Heartbeat CPU  0 instructions:  518000002 cycles:  447207952 heartbeat IPC: 0.91357 cumulative IPC: 1.05355 (Simulation time: 0 hr 18 min 1 sec) 
Heartbeat CPU  0 instructions:  519000000 cycles:  448353307 heartbeat IPC: 0.87309 cumulative IPC: 1.05303 (Simulation time: 0 hr 18 min 4 sec) 
Heartbeat CPU  0 instructions:  520000000 cycles:  449497497 heartbeat IPC: 0.87398 cumulative IPC: 1.05252 (Simulation time: 0 hr 18 min 6 sec) 
Heartbeat CPU  0 instructions:  521000003 cycles:  450598959 heartbeat IPC: 0.90789 cumulative IPC: 1.05212 (Simulation time: 0 hr 18 min 9 sec) 
Heartbeat CPU  0 instructions:  522000002 cycles:  451688868 heartbeat IPC: 0.91751 cumulative IPC: 1.05175 (Simulation time: 0 hr 18 min 11 sec) 
Heartbeat CPU  0 instructions:  523000001 cycles:  452817341 heartbeat IPC: 0.88615 cumulative IPC: 1.05129 (Simulation time: 0 hr 18 min 14 sec) 
Heartbeat CPU  0 instructions:  524000000 cycles:  453948185 heartbeat IPC: 0.88429 cumulative IPC: 1.05082 (Simulation time: 0 hr 18 min 16 sec) 
Heartbeat CPU  0 instructions:  525000000 cycles:  455056148 heartbeat IPC: 0.90256 cumulative IPC: 1.05041 (Simulation time: 0 hr 18 min 19 sec) 
Heartbeat CPU  0 instructions:  526000001 cycles:  456179877 heartbeat IPC: 0.88990 cumulative IPC: 1.04997 (Simulation time: 0 hr 18 min 21 sec) 
Heartbeat CPU  0 instructions:  527000000 cycles:  457322907 heartbeat IPC: 0.87487 cumulative IPC: 1.04948 (Simulation time: 0 hr 18 min 23 sec) 
Heartbeat CPU  0 instructions:  528000000 cycles:  458429041 heartbeat IPC: 0.90405 cumulative IPC: 1.04908 (Simulation time: 0 hr 18 min 26 sec) 
Heartbeat CPU  0 instructions:  529000002 cycles:  459554375 heartbeat IPC: 0.88863 cumulative IPC: 1.04864 (Simulation time: 0 hr 18 min 28 sec) 
[...]
Heartbeat CPU  0 instructions:  549000000 cycles:  480805148 heartbeat IPC: 1.16580 cumulative IPC: 1.04333 (Simulation time: 0 hr 19 min 16 sec) 
Heartbeat CPU  0 instructions:  550000002 cycles:  481664012 heartbeat IPC: 1.16433 cumulative IPC: 1.04357 (Simulation time: 0 hr 19 min 19 sec) 
Heartbeat CPU  0 instructions:  551000003 cycles:  482519065 heartbeat IPC: 1.16952 cumulative IPC: 1.04382 (Simulation time: 0 hr 19 min 21 sec) 
Heartbeat CPU  0 instructions:  552000000 cycles:  483375951 heartbeat IPC: 1.16701 cumulative IPC: 1.04407 (Simulation time: 0 hr 19 min 23 sec) 
Heartbeat CPU  0 instructions:  553000003 cycles:  484230758 heartbeat IPC: 1.16986 cumulative IPC: 1.04432 (Simulation time: 0 hr 19 min 25 sec) 
Heartbeat CPU  0 instructions:  554000001 cycles:  485090160 heartbeat IPC: 1.16360 cumulative IPC: 1.04455 (Simulation time: 0 hr 19 min 27 sec) 
Heartbeat CPU  0 instructions:  555000002 cycles:  485947207 heartbeat IPC: 1.16680 cumulative IPC: 1.04479 (Simulation time: 0 hr 19 min 29 sec) 
Heartbeat CPU  0 instructions:  556000000 cycles:  486804909 heartbeat IPC: 1.16590 cumulative IPC: 1.04503 (Simulation time: 0 hr 19 min 31 sec) 
Heartbeat CPU  0 instructions:  557000002 cycles:  487671434 heartbeat IPC: 1.15404 cumulative IPC: 1.04525 (Simulation time: 0 hr 19 min 33 sec) 
Heartbeat CPU  0 instructions:  558000003 cycles:  488527444 heartbeat IPC: 1.16821 cumulative IPC: 1.04549 (Simulation time: 0 hr 19 min 36 sec) 
Heartbeat CPU  0 instructions:  559000002 cycles:  489382607 heartbeat IPC: 1.16937 cumulative IPC: 1.04573 (Simulation time: 0 hr 19 min 38 sec) 
Heartbeat CPU  0 instructions:  560000000 cycles:  490234893 heartbeat IPC: 1.17331 cumulative IPC: 1.04597 (Simulation time: 0 hr 19 min 40 sec) 
Heartbeat CPU  0 instructions:  561000002 cycles:  491088497 heartbeat IPC: 1.17151 cumulative IPC: 1.04622 (Simulation time: 0 hr 19 min 42 sec) 
Heartbeat CPU  0 instructions:  562000002 cycles:  491941865 heartbeat IPC: 1.17183 cumulative IPC: 1.04646 (Simulation time: 0 hr 19 min 44 sec) 
Heartbeat CPU  0 instructions:  563000001 cycles:  492790829 heartbeat IPC: 1.17791 cumulative IPC: 1.04671 (Simulation time: 0 hr 19 min 46 sec) 
Heartbeat CPU  0 instructions:  564000000 cycles:  493646201 heartbeat IPC: 1.16908 cumulative IPC: 1.04695 (Simulation time: 0 hr 19 min 48 sec) 
Heartbeat CPU  0 instructions:  565000003 cycles:  494501424 heartbeat IPC: 1.16929 cumulative IPC: 1.04718 (Simulation time: 0 hr 19 min 50 sec) 
Heartbeat CPU  0 instructions:  566000002 cycles:  495348650 heartbeat IPC: 1.18032 cumulative IPC: 1.04744 (Simulation time: 0 hr 19 min 53 sec) 
Heartbeat CPU  0 instructions:  567000001 cycles:  496220830 heartbeat IPC: 1.14655 cumulative IPC: 1.04763 (Simulation time: 0 hr 19 min 55 sec) 
Heartbeat CPU  0 instructions:  568000000 cycles:  497068465 heartbeat IPC: 1.17975 cumulative IPC: 1.04788 (Simulation time: 0 hr 19 min 57 sec) 
Heartbeat CPU  0 instructions:  569000001 cycles:  497922980 heartbeat IPC: 1.17026 cumulative IPC: 1.04812 (Simulation time: 0 hr 19 min 59 sec) 
Heartbeat CPU  0 instructions:  570000001 cycles:  498776322 heartbeat IPC: 1.17186 cumulative IPC: 1.04835 (Simulation time: 0 hr 20 min 1 sec) 
Heartbeat CPU  0 instructions:  571000003 cycles:  499632957 heartbeat IPC: 1.16736 cumulative IPC: 1.04858 (Simulation time: 0 hr 20 min 3 sec) 
Heartbeat CPU  0 instructions:  572000000 cycles:  500482549 heartbeat IPC: 1.17703 cumulative IPC: 1.04882 (Simulation time: 0 hr 20 min 5 sec) 
Heartbeat CPU  0 instructions:  573000001 cycles:  501335505 heartbeat IPC: 1.17239 cumulative IPC: 1.04906 (Simulation time: 0 hr 20 min 7 sec) 
Heartbeat CPU  0 instructions:  574000003 cycles:  502183167 heartbeat IPC: 1.17972 cumulative IPC: 1.04930 (Simulation time: 0 hr 20 min 10 sec) 
Heartbeat CPU  0 instructions:  575000000 cycles:  503036768 heartbeat IPC: 1.17150 cumulative IPC: 1.04953 (Simulation time: 0 hr 20 min 12 sec) 
Heartbeat CPU  0 instructions:  576000000 cycles:  503891052 heartbeat IPC: 1.17057 cumulative IPC: 1.04976 (Simulation time: 0 hr 20 min 14 sec) 
Heartbeat CPU  0 instructions:  577000002 cycles:  504753462 heartbeat IPC: 1.15954 cumulative IPC: 1.04997 (Simulation time: 0 hr 20 min 16 sec) 
Heartbeat CPU  0 instructions:  578000003 cycles:  505607654 heartbeat IPC: 1.17070 cumulative IPC: 1.05019 (Simulation time: 0 hr 20 min 18 sec) 
Heartbeat CPU  0 instructions:  579000000 cycles:  506458584 heartbeat IPC: 1.17518 cumulative IPC: 1.05043 (Simulation time: 0 hr 20 min 20 sec) 
Heartbeat CPU  0 instructions:  580000000 cycles:  507310243 heartbeat IPC: 1.17418 cumulative IPC: 1.05066 (Simulation time: 0 hr 20 min 22 sec) 
Heartbeat CPU  0 instructions:  581000002 cycles:  508159735 heartbeat IPC: 1.17718 cumulative IPC: 1.05089 (Simulation time: 0 hr 20 min 24 sec) 
Heartbeat CPU  0 instructions:  582000000 cycles:  509014353 heartbeat IPC: 1.17011 cumulative IPC: 1.05111 (Simulation time: 0 hr 20 min 27 sec) 
Heartbeat CPU  0 instructions:  583000000 cycles:  509864180 heartbeat IPC: 1.17671 cumulative IPC: 1.05135 (Simulation time: 0 hr 20 min 29 sec) 
Heartbeat CPU  0 instructions:  584000000 cycles:  510713571 heartbeat IPC: 1.17731 cumulative IPC: 1.05158 (Simulation time: 0 hr 20 min 31 sec) 
Heartbeat CPU  0 instructions:  585000001 cycles:  511563485 heartbeat IPC: 1.17659 cumulative IPC: 1.05181 (Simulation time: 0 hr 20 min 33 sec) 
Heartbeat CPU  0 instructions:  586000000 cycles:  512412131 heartbeat IPC: 1.17835 cumulative IPC: 1.05204 (Simulation time: 0 hr 20 min 35 sec) 
Heartbeat CPU  0 instructions:  587000000 cycles:  513259968 heartbeat IPC: 1.17947 cumulative IPC: 1.05228 (Simulation time: 0 hr 20 min 37 sec) 
Heartbeat CPU  0 instructions:  588000000 cycles:  514124365 heartbeat IPC: 1.15688 cumulative IPC: 1.05247 (Simulation time: 0 hr 20 min 39 sec) 
Heartbeat CPU  0 instructions:  589000001 cycles:  514975215 heartbeat IPC: 1.17530 cumulative IPC: 1.05270 (Simulation time: 0 hr 20 min 41 sec) 
Heartbeat CPU  0 instructions:  590000003 cycles:  515825950 heartbeat IPC: 1.17546 cumulative IPC: 1.05292 (Simulation time: 0 hr 20 min 43 sec) 
Heartbeat CPU  0 instructions:  591000002 cycles:  516674274 heartbeat IPC: 1.17879 cumulative IPC: 1.05315 (Simulation time: 0 hr 20 min 46 sec) 
Heartbeat CPU  0 instructions:  592000000 cycles:  517524276 heartbeat IPC: 1.17647 cumulative IPC: 1.05337 (Simulation time: 0 hr 20 min 48 sec) 
Heartbeat CPU  0 instructions:  593000000 cycles:  518373709 heartbeat IPC: 1.17726 cumulative IPC: 1.05360 (Simulation time: 0 hr 20 min 50 sec) 
Heartbeat CPU  0 instructions:  594000003 cycles:  519221341 heartbeat IPC: 1.17976 cumulative IPC: 1.05383 (Simulation time: 0 hr 20 min 52 sec) 
Heartbeat CPU  0 instructions:  595000000 cycles:  520070250 heartbeat IPC: 1.17798 cumulative IPC: 1.05405 (Simulation time: 0 hr 20 min 54 sec) 
Heartbeat CPU  0 instructions:  596000000 cycles:  520916915 heartbeat IPC: 1.18110 cumulative IPC: 1.05428 (Simulation time: 0 hr 20 min 56 sec) 
Heartbeat CPU  0 instructions:  597000001 cycles:  521767178 heartbeat IPC: 1.17611 cumulative IPC: 1.05450 (Simulation time: 0 hr 20 min 58 sec) 
Heartbeat CPU  0 instructions:  598000002 cycles:  522629571 heartbeat IPC: 1.15957 cumulative IPC: 1.05469 (Simulation time: 0 hr 21 min 0 sec) 
Heartbeat CPU  0 instructions:  599000000 cycles:  523477973 heartbeat IPC: 1.17868 cumulative IPC: 1.05491 (Simulation time: 0 hr 21 min 3 sec) 
Heartbeat CPU  0 instructions:  600000000 cycles:  524325980 heartbeat IPC: 1.17924 cumulative IPC: 1.05514 (Simulation time: 0 hr 21 min 5 sec) 
Finished CPU 0 instructions: 500000002 cycles: 473872382 cumulative IPC: 1.05514 (Simulation time: 0 hr 21 min 5 sec) 

ChampSim completed all CPUs

[ROI Statistics]
Core_0_instructions 500000002
Core_0_cycles 473872382
Core_0_IPC 1.05514

Core_0_branch_prediction_accuracy 99.14567
Core_0_branch_MPKI 0.22121
Core_0_average_ROB_occupancy_at_mispredict 245.20973

Core_0_L1D_total_access 144508526
Core_0_L1D_total_hit 138801457
Core_0_L1D_total_miss 5707069
Core_0_L1D_loads 131506778
Core_0_L1D_load_hit 127210627
Core_0_L1D_load_miss 4296151
Core_0_L1D_RFOs 13001748
Core_0_L1D_RFO_hit 11590830
Core_0_L1D_RFO_miss 1410918
Core_0_L1D_prefetches 0
Core_0_L1D_prefetch_hit 0
Core_0_L1D_prefetch_miss 0
Core_0_L1D_writebacks 0
Core_0_L1D_writeback_hit 0
Core_0_L1D_writeback_miss 0
Core_0_L1D_prefetch_requested 0
Core_0_L1D_prefetch_dropped 0
Core_0_L1D_prefetch_issued 0
Core_0_L1D_prefetch_filled 0
Core_0_L1D_prefetch_useful 0
Core_0_L1D_prefetch_useless 0
Core_0_L1D_prefetch_late 0
Core_0_L1D_average_miss_latency 67.89256

Core_0_L1D_rq_access 194149021
Core_0_L1D_rq_forward 0
Core_0_L1D_rq_merged 61361676
Core_0_L1D_rq_to_cache 132787345
Core_0_L1D_rq_full 0

Core_0_L1D_wq_access 17666329
Core_0_L1D_wq_forward 0
Core_0_L1D_wq_merged 3649
Core_0_L1D_wq_to_cache 17662680
Core_0_L1D_wq_full 0

Core_0_L1D_pq_access 0
Core_0_L1D_pq_forward 0
Core_0_L1D_pq_merged 0
Core_0_L1D_pq_to_cache 0
Core_0_L1D_pq_full 0

Core_0_L1D_acc_epochs 505903
Core_0_L1D_acc_level_0 505903
Core_0_L1D_acc_level_1 0
Core_0_L1D_acc_level_2 0
Core_0_L1D_acc_level_3 0
Core_0_L1D_acc_level_4 0
Core_0_L1D_acc_level_5 0
Core_0_L1D_acc_level_6 0
Core_0_L1D_acc_level_7 0
Core_0_L1D_acc_level_8 0
Core_0_L1D_acc_level_9 0

Core_0_L1I_total_access 115123974
Core_0_L1I_total_hit 115123168
Core_0_L1I_total_miss 806
Core_0_L1I_loads 115123974
Core_0_L1I_load_hit 115123168
Core_0_L1I_load_miss 806
Core_0_L1I_RFOs 0
Core_0_L1I_RFO_hit 0
Core_0_L1I_RFO_miss 0
Core_0_L1I_prefetches 0
Core_0_L1I_prefetch_hit 0
Core_0_L1I_prefetch_miss 0
Core_0_L1I_writebacks 0
Core_0_L1I_writeback_hit 0
Core_0_L1I_writeback_miss 0
Core_0_L1I_prefetch_requested 0
Core_0_L1I_prefetch_dropped 0
Core_0_L1I_prefetch_issued 0
Core_0_L1I_prefetch_filled 0
Core_0_L1I_prefetch_useful 0
Core_0_L1I_prefetch_useless 0
Core_0_L1I_prefetch_late 0
Core_0_L1I_average_miss_latency 153.34864

Core_0_L1I_rq_access 500000001
Core_0_L1I_rq_forward 0
Core_0_L1I_rq_merged 384875119
Core_0_L1I_rq_to_cache 115124882
Core_0_L1I_rq_full 0

Core_0_L1I_wq_access 0
Core_0_L1I_wq_forward 0
Core_0_L1I_wq_merged 0
Core_0_L1I_wq_to_cache 0
Core_0_L1I_wq_full 0

Core_0_L1I_pq_access 0
Core_0_L1I_pq_forward 0
Core_0_L1I_pq_merged 0
Core_0_L1I_pq_to_cache 0
Core_0_L1I_pq_full 0

Core_0_L1I_acc_epochs 505903
Core_0_L1I_acc_level_0 505903
Core_0_L1I_acc_level_1 0
Core_0_L1I_acc_level_2 0
Core_0_L1I_acc_level_3 0
Core_0_L1I_acc_level_4 0
Core_0_L1I_acc_level_5 0
Core_0_L1I_acc_level_6 0
Core_0_L1I_acc_level_7 0
Core_0_L1I_acc_level_8 0
Core_0_L1I_acc_level_9 0

Core_0_L2C_total_access 11306421
Core_0_L2C_total_hit 7010346
Core_0_L2C_total_miss 4296075
Core_0_L2C_loads 4296919
Core_0_L2C_load_hit 3103669
Core_0_L2C_load_miss 1193250
Core_0_L2C_RFOs 1410610
Core_0_L2C_RFO_hit 419868
Core_0_L2C_RFO_miss 990742
Core_0_L2C_prefetches 3753487
Core_0_L2C_prefetch_hit 1643237
Core_0_L2C_prefetch_miss 2110250
Core_0_L2C_writebacks 1845405
Core_0_L2C_writeback_hit 1843572
Core_0_L2C_writeback_miss 1833
Core_0_L2C_prefetch_requested 24246632
Core_0_L2C_prefetch_dropped 22377
Core_0_L2C_prefetch_issued 24224255
Core_0_L2C_prefetch_filled 2568431
Core_0_L2C_prefetch_useful 2541523
Core_0_L2C_prefetch_useless 26882
Core_0_L2C_prefetch_late 39908
Core_0_L2C_average_miss_latency 88.33471

Core_0_L2C_rq_access 5707875
Core_0_L2C_rq_forward 0
Core_0_L2C_rq_merged 0
Core_0_L2C_rq_to_cache 5707529
Core_0_L2C_rq_full 0

Core_0_L2C_wq_access 1845405
Core_0_L2C_wq_forward 393
Core_0_L2C_wq_merged 0
Core_0_L2C_wq_to_cache 1845405
Core_0_L2C_wq_full 0

Core_0_L2C_pq_access 24224255
Core_0_L2C_pq_forward 0
Core_0_L2C_pq_merged 134333
Core_0_L2C_pq_to_cache 24089875
Core_0_L2C_pq_full 0

Core_0_L2C_acc_epochs 505903
Core_0_L2C_acc_level_0 30251
Core_0_L2C_acc_level_1 9726
Core_0_L2C_acc_level_2 10171
Core_0_L2C_acc_level_3 6783
Core_0_L2C_acc_level_4 16127
Core_0_L2C_acc_level_5 17656
Core_0_L2C_acc_level_6 12651
Core_0_L2C_acc_level_7 24769
Core_0_L2C_acc_level_8 53454
Core_0_L2C_acc_level_9 324315

Core_0_LLC_total_access 20510059
Core_0_LLC_total_hit 16235054
Core_0_LLC_total_miss 4275005
Core_0_LLC_loads 1153347
Core_0_LLC_load_hit 1067207
Core_0_LLC_load_miss 86140
Core_0_LLC_RFOs 990741
Core_0_LLC_RFO_hit 94333
Core_0_LLC_RFO_miss 896408
Core_0_LLC_prefetches 17048335
Core_0_LLC_prefetch_hit 14471025
Core_0_LLC_prefetch_miss 2577310
Core_0_LLC_writebacks 1317636
Core_0_LLC_writeback_hit 602489
Core_0_LLC_writeback_miss 715147
Core_0_LLC_prefetch_requested 0
Core_0_LLC_prefetch_dropped 0
Core_0_LLC_prefetch_issued 0
Core_0_LLC_prefetch_filled 3170317
Core_0_LLC_prefetch_useful 1092025
Core_0_LLC_prefetch_useless 2057831
Core_0_LLC_prefetch_late 4253
Core_0_LLC_average_miss_latency 189.24648

Core_0_LLC_rq_access 2144089
Core_0_LLC_rq_forward 0
Core_0_LLC_rq_merged 0
Core_0_LLC_rq_to_cache 2144088
Core_0_LLC_rq_full 0

Core_0_LLC_wq_access 1317636
Core_0_LLC_wq_forward 6
Core_0_LLC_wq_merged 0
Core_0_LLC_wq_to_cache 1317636
Core_0_LLC_wq_full 0

Core_0_LLC_pq_access 21798861
Core_0_LLC_pq_forward 0
Core_0_LLC_pq_merged 95914
Core_0_LLC_pq_to_cache 21702942
Core_0_LLC_pq_full 0

Core_0_LLC_acc_epochs 512038
Core_0_LLC_acc_level_0 68286
Core_0_LLC_acc_level_1 63484
Core_0_LLC_acc_level_2 134482
Core_0_LLC_acc_level_3 84311
Core_0_LLC_acc_level_4 42522
Core_0_LLC_acc_level_5 36481
Core_0_LLC_acc_level_6 23617
Core_0_LLC_acc_level_7 15815
Core_0_LLC_acc_level_8 10249
Core_0_LLC_acc_level_9 32791

Core_0_major_page_fault 0
Core_0_minor_page_fault 19646

spp.pref.total 24246632
spp.pref.at_L2 2884148
spp.pref.at_LLC 21362484

spp.depth.max 11
spp.depth.min 0
spp.depth.avg 5

spp.breadth.max 2
spp.breadth.min 0
spp.breadth.avg 0

delta_1 23272990
delta_16 972176
delta_-15 713020
delta_32 182800
delta_-47 180813
delta_31 50103
delta_-31 49019
delta_-30 30089
delta_15 23998
delta_-1 16382
delta_2 6266
delta_-8 3867
delta_3 3111
delta_-2 2723
delta_-16 2356
delta_4 2253
delta_-3 1512
delta_-10 1475
delta_63 1352
delta_25 1290
delta_-41 1046
delta_-45 1034
delta_-18 980
delta_46 966
delta_-5 822
delta_47 795
delta_22 781
delta_-29 747
delta_5 727
delta_57 640
delta_-43 576
delta_-6 573
delta_-9 497
delta_-32 439
delta_19 423
delta_48 415
delta_62 410
delta_-61 389
delta_-44 309
delta_35 297
delta_-38 286
delta_13 251
delta_-55 218
delta_17 213
delta_-14 209
delta_-11 205
delta_45 203
delta_-19 201
delta_61 177
delta_29 170
delta_14 166
delta_-13 161
delta_-46 161
delta_-12 146
delta_-23 146
delta_-35 141
delta_34 129
delta_-7 129
delta_-60 127
delta_41 112
delta_8 111
delta_-34 101
delta_9 94
delta_-40 86
delta_39 83
delta_-4 77
delta_10 67
delta_-42 66
delta_50 49
delta_-37 47
delta_23 45
delta_42 38
delta_-22 34
delta_21 34
delta_30 34
delta_53 18
delta_12 17
delta_-48 15
delta_-51 11
delta_20 5
delta_6 5
delta_36 4
delta_-28 2
delta_-21 1
delta_28 1

depth_1_delta_1 4356616
depth_1_delta_16 286379
depth_1_delta_-15 217060
depth_1_delta_32 52023
depth_1_delta_-47 48909
depth_1_delta_31 27570
depth_1_delta_-31 17745
depth_1_delta_-30 15160
depth_1_delta_-1 12085
depth_1_delta_15 8693
depth_1_delta_2 4060
depth_1_delta_-8 2877
depth_1_delta_3 2609
depth_1_delta_-2 2150
depth_1_delta_-16 2135
depth_1_delta_4 2119
depth_1_delta_63 1299
depth_1_delta_25 1274
depth_1_delta_-10 1240
depth_1_delta_-3 1176
depth_1_delta_-45 1021
depth_1_delta_46 810
depth_1_delta_-41 801
depth_1_delta_47 780
depth_1_delta_5 688
depth_1_delta_-29 675
depth_1_delta_-18 615
depth_1_delta_57 552
depth_1_delta_-6 531
depth_1_delta_-5 506
depth_1_delta_-9 482
depth_1_delta_22 458
depth_1_delta_-43 455
depth_1_delta_19 414
depth_1_delta_48 413
depth_1_delta_62 404
depth_1_delta_-61 326
depth_1_delta_-32 306
depth_1_delta_-44 266
depth_1_delta_35 213
depth_1_delta_13 212
depth_1_delta_17 204
depth_1_delta_-19 201
depth_1_delta_45 199
depth_1_delta_-11 198
depth_1_delta_-14 189
depth_1_delta_-38 178
depth_1_delta_29 169
depth_1_delta_61 163
depth_1_delta_-46 161
depth_1_delta_-55 156
depth_1_delta_-13 145
depth_1_delta_-12 138
depth_1_delta_-35 137
depth_1_delta_14 137
depth_1_delta_-23 131
depth_1_delta_34 129
depth_1_delta_-7 129
depth_1_delta_-60 127
depth_1_delta_8 101
depth_1_delta_41 101
depth_1_delta_-34 101
depth_1_delta_9 94
depth_1_delta_39 83
depth_1_delta_-4 77
depth_1_delta_-40 75
depth_1_delta_10 67
depth_1_delta_-42 66
depth_1_delta_50 49
depth_1_delta_-37 47
depth_1_delta_23 45
depth_1_delta_42 38
depth_1_delta_21 34
depth_1_delta_30 30
depth_1_delta_-22 18
depth_1_delta_53 18
depth_1_delta_12 16
depth_1_delta_-48 15
depth_1_delta_-51 11
depth_1_delta_20 5
depth_1_delta_6 5
depth_1_delta_36 4
depth_1_delta_-28 2
depth_1_delta_-21 1
depth_1_delta_28 1
depth_2_delta_1 4089939
depth_2_delta_16 247397
depth_2_delta_-15 181060
depth_2_delta_32 46840
depth_2_delta_-47 45413
depth_2_delta_-31 13848
depth_2_delta_31 13084
depth_2_delta_15 10216
depth_2_delta_-30 9136
depth_2_delta_-1 3408
depth_2_delta_2 2104
depth_2_delta_-8 837
depth_2_delta_-2 511
depth_2_delta_3 429
depth_2_delta_-18 364
depth_2_delta_22 323
depth_2_delta_-5 288
depth_2_delta_-3 274
depth_2_delta_-10 233
depth_2_delta_-41 232
depth_2_delta_-16 219
depth_2_delta_46 149
depth_2_delta_-32 133
depth_2_delta_4 133
depth_2_delta_-43 121
depth_2_delta_-38 108
depth_2_delta_35 84
depth_2_delta_57 79
depth_2_delta_-29 66
depth_2_delta_-61 63
depth_2_delta_-55 62
depth_2_delta_63 48
depth_2_delta_-6 42
depth_2_delta_-44 41
depth_2_delta_5 39
depth_2_delta_13 39
depth_2_delta_14 27
depth_2_delta_-14 20
depth_2_delta_-13 16
depth_2_delta_25 16
depth_2_delta_-22 16
depth_2_delta_-23 15
depth_2_delta_47 15
depth_2_delta_-9 15
depth_2_delta_61 14
depth_2_delta_-45 13
depth_2_delta_41 11
depth_2_delta_-40 11
depth_2_delta_19 9
depth_2_delta_8 9
depth_2_delta_17 9
depth_2_delta_-12 8
depth_2_delta_-11 7
depth_2_delta_62 6
depth_2_delta_45 4
depth_2_delta_30 4
depth_2_delta_-35 3
depth_2_delta_48 2
depth_2_delta_29 1
depth_2_delta_12 1
depth_3_delta_1 3802264
depth_3_delta_16 201231
depth_3_delta_-15 138649
depth_3_delta_32 40274
depth_3_delta_-47 40140
depth_3_delta_-31 10164
depth_3_delta_31 6900
depth_3_delta_-30 3898
depth_3_delta_15 3665
depth_3_delta_-1 886
depth_3_delta_-8 153
depth_3_delta_2 76
depth_3_delta_3 65
depth_3_delta_-3 62
depth_3_delta_-2 62
depth_3_delta_-5 28
depth_3_delta_-41 13
depth_3_delta_57 9
depth_3_delta_46 7
depth_3_delta_-29 6
depth_3_delta_63 5
depth_3_delta_-44 2
depth_3_delta_-16 2
depth_3_delta_-10 2
depth_3_delta_14 2
depth_3_delta_4 1
depth_3_delta_-35 1
depth_3_delta_8 1
depth_3_delta_-18 1
depth_4_delta_1 3509552
depth_4_delta_16 150558
depth_4_delta_-15 105173
depth_4_delta_-47 32856
depth_4_delta_32 30189
depth_4_delta_-31 4272
depth_4_delta_31 2264
depth_4_delta_-30 1741
depth_4_delta_15 1334
depth_4_delta_2 25
depth_4_delta_3 8
depth_4_delta_-1 3
depth_5_delta_1 2894154
depth_5_delta_16 67741
depth_5_delta_-15 54754
depth_5_delta_-47 12120
depth_5_delta_32 12045
depth_5_delta_-31 2200
depth_5_delta_31 279
depth_5_delta_-30 154
depth_5_delta_15 90
depth_5_delta_2 1
depth_6_delta_1 2001896
depth_6_delta_16 16914
depth_6_delta_-15 14223
depth_6_delta_32 1351
depth_6_delta_-47 1315
depth_6_delta_-31 738
depth_6_delta_31 6
depth_7_delta_1 1302045
depth_7_delta_-15 1843
depth_7_delta_16 1727
depth_7_delta_32 78
depth_7_delta_-47 60
depth_7_delta_-31 52
depth_8_delta_1 793471
depth_8_delta_-15 197
depth_8_delta_16 177
depth_9_delta_1 422813
depth_9_delta_-15 54
depth_9_delta_16 45
depth_10_delta_1 100054
depth_10_delta_16 7
depth_10_delta_-15 7
depth_11_delta_1 186

Channel_0_RQ_row_buffer_hit 807666
Channel_0_RQ_row_buffer_miss 2752181
Channel_0_WQ_row_buffer_hit 302411
Channel_0_WQ_row_buffer_miss 882241
Channel_0_WQ_full 126
Channel_0_dbus_congested 1250990

avg_congested_cycle 4

DRAM_bw_pochs 2048149
DRAM_bw_level_0 1958883
DRAM_bw_level_1 86404
DRAM_bw_level_2 2212
DRAM_bw_level_3 650
