*************************************************
   ChampSim Multicore Out-of-Order Simulator
   Last compiled: Dec 11 2024 17:59:53
*************************************************
parsing config file: /home/functionmain/桌面/Pythia/config/nopref.ini

trace_0 /home/functionmain/桌面/Pythia/traces/437.leslie3d-271B.champsimtrace.xz
adding L2C_PREFETCHER: NONE
Initialize SHIP state
warmup_instructions 100000000
simulation_instructions 500000000
champsim_seed 220
measure_ipc 0
measure_ipc_epoch 1000
measure_dram_bw 1
measure_dram_bw_epoch 256
measure_cache_acc 1
measure_cache_acc_epoch 1024
l1d_perfect 0
l2c_perfect 0
llc_perfect 0
l1d_semi_perfect 0
l2c_semi_perfect 0
llc_semi_perfect 0
semi_perfect_cache_page_buffer_size 64

num_cpus 1
cpu_freq 4000
dram_io_freq 9600
page_size 4096
block_size 64
max_read_per_cycle 8
max_fill_per_cycle 1
dram_channels 1
log2_dram_channels 0
dram_ranks 1
dram_banks 8
dram_rows 65536
dram_columns 128
dram_row_size 8
dram_size 4096
dram_pages 1048576

fetch_width 6
decode_width 6
exec_width 4
lq_width 2
sq_width 2
retire_width 4
scheduler_size 128
branch_mispredict_penalty 20
rob_size 256
lq_size 72
sq_size 56
num_instr_destinations_sparc 4
num_instr_destinations 2
num_instr_sources 4

itlb_set 16
itlb_way 8
itlb_rq_size 16
itlb_wq_size 16
itlb_pq_size 0
itlb_mshr_size 8
itlb_latency 1

dtlb_set 16
dtlb_way 4
dtlb_rq_size 16
dtlb_wq_size 16
dtlb_pq_size 0
dtlb_mshr_size 8
dtlb_latency 1

stlb_set 128
stlb_way 12
stlb_rq_size 32
stlb_wq_size 32
stlb_pq_size 0
stlb_mshr_size 16
stlb_latency 8

l1i_size 32
l1i_set 64
l1i_way 8
l1i_rq_size 64
l1i_wq_size 64
l1i_pq_size 8
l1i_mshr_size 8
l1i_latency 1

l1d_size 32
l1d_set 64
l1d_way 8
l1d_rq_size 64
l1d_wq_size 64
l1d_pq_size 8
l1d_mshr_size 16
l1d_latency 4

l2c_size 256
l2c_set 512
l2c_way 8
l2c_rq_size 32
l2c_wq_size 32
l2c_pq_size 32
l2c_mshr_size 32
l2c_latency 10

llc_size 2048
llc_set 2048
llc_way 16
llc_rq_size 32
llc_wq_size 32
llc_pq_size 32
llc_mshr_size 64
llc_latency 20

dram_channel_width 8
dram_wq_size 64
dram_rq_size 64
tRP 15
tRCD 15
tCAS 12.5
dram_dbus_turn_around_time 30
dram_write_high_wm 56
dram_write_low_wm 48
min_dram_writes_per_switch 16
dram_mtps 9600
dram_dbus_return_time 3


Heartbeat CPU  0 instructions:    1000002 cycles:     516704 heartbeat IPC: 1.93535 cumulative IPC: 1.93535 (Simulation time: 0 hr 0 min 2 sec) 
Heartbeat CPU  0 instructions:    2000001 cycles:    1032706 heartbeat IPC: 1.93798 cumulative IPC: 1.93666 (Simulation time: 0 hr 0 min 4 sec) 
Heartbeat CPU  0 instructions:    3000003 cycles:    1548698 heartbeat IPC: 1.93802 cumulative IPC: 1.93711 (Simulation time: 0 hr 0 min 6 sec) 
Heartbeat CPU  0 instructions:    4000000 cycles:    2064926 heartbeat IPC: 1.93712 cumulative IPC: 1.93712 (Simulation time: 0 hr 0 min 8 sec) 
Heartbeat CPU  0 instructions:    5000001 cycles:    2581654 heartbeat IPC: 1.93526 cumulative IPC: 1.93674 (Simulation time: 0 hr 0 min 11 sec) 
Heartbeat CPU  0 instructions:    6000001 cycles:    3098172 heartbeat IPC: 1.93604 cumulative IPC: 1.93663 (Simulation time: 0 hr 0 min 13 sec) 
Heartbeat CPU  0 instructions:    7000003 cycles:    3614630 heartbeat IPC: 1.93627 cumulative IPC: 1.93658 (Simulation time: 0 hr 0 min 15 sec) 
Heartbeat CPU  0 instructions:    8000000 cycles:    4131078 heartbeat IPC: 1.93630 cumulative IPC: 1.93654 (Simulation time: 0 hr 0 min 17 sec) 
Heartbeat CPU  0 instructions:    9000000 cycles:    4647059 heartbeat IPC: 1.93806 cumulative IPC: 1.93671 (Simulation time: 0 hr 0 min 19 sec) 
Heartbeat CPU  0 instructions:   10000003 cycles:    5163365 heartbeat IPC: 1.93684 cumulative IPC: 1.93672 (Simulation time: 0 hr 0 min 21 sec) 
Heartbeat CPU  0 instructions:   11000000 cycles:    5680313 heartbeat IPC: 1.93442 cumulative IPC: 1.93651 (Simulation time: 0 hr 0 min 23 sec) 
Heartbeat CPU  0 instructions:   12000000 cycles:    6196856 heartbeat IPC: 1.93595 cumulative IPC: 1.93647 (Simulation time: 0 hr 0 min 25 sec) 
Heartbeat CPU  0 instructions:   13000001 cycles:    6713236 heartbeat IPC: 1.93656 cumulative IPC: 1.93647 (Simulation time: 0 hr 0 min 27 sec) 
Heartbeat CPU  0 instructions:   14000002 cycles:    7230112 heartbeat IPC: 1.93470 cumulative IPC: 1.93635 (Simulation time: 0 hr 0 min 29 sec) 
Heartbeat CPU  0 instructions:   15000000 cycles:    7746606 heartbeat IPC: 1.93613 cumulative IPC: 1.93633 (Simulation time: 0 hr 0 min 31 sec) 
Heartbeat CPU  0 instructions:   16000000 cycles:    8263029 heartbeat IPC: 1.93640 cumulative IPC: 1.93634 (Simulation time: 0 hr 0 min 33 sec) 
Heartbeat CPU  0 instructions:   17000003 cycles:    8779684 heartbeat IPC: 1.93553 cumulative IPC: 1.93629 (Simulation time: 0 hr 0 min 35 sec) 
Heartbeat CPU  0 instructions:   18000002 cycles:    9295474 heartbeat IPC: 1.93877 cumulative IPC: 1.93643 (Simulation time: 0 hr 0 min 37 sec) 
Heartbeat CPU  0 instructions:   19000003 cycles:    9811598 heartbeat IPC: 1.93752 cumulative IPC: 1.93648 (Simulation time: 0 hr 0 min 39 sec) 
Heartbeat CPU  0 instructions:   20000000 cycles:   10328282 heartbeat IPC: 1.93541 cumulative IPC: 1.93643 (Simulation time: 0 hr 0 min 41 sec) 
Heartbeat CPU  0 instructions:   21000001 cycles:   10844991 heartbeat IPC: 1.93533 cumulative IPC: 1.93638 (Simulation time: 0 hr 0 min 43 sec) 
Heartbeat CPU  0 instructions:   22000000 cycles:   11361471 heartbeat IPC: 1.93618 cumulative IPC: 1.93637 (Simulation time: 0 hr 0 min 45 sec) 
Heartbeat CPU  0 instructions:   23000003 cycles:   11877998 heartbeat IPC: 1.93601 cumulative IPC: 1.93635 (Simulation time: 0 hr 0 min 47 sec) 
Heartbeat CPU  0 instructions:   24000000 cycles:   12394091 heartbeat IPC: 1.93763 cumulative IPC: 1.93641 (Simulation time: 0 hr 0 min 49 sec) 
Heartbeat CPU  0 instructions:   25000000 cycles:   12910202 heartbeat IPC: 1.93757 cumulative IPC: 1.93645 (Simulation time: 0 hr 0 min 51 sec) 
Heartbeat CPU  0 instructions:   26000003 cycles:   13426683 heartbeat IPC: 1.93619 cumulative IPC: 1.93644 (Simulation time: 0 hr 0 min 53 sec) 
Heartbeat CPU  0 instructions:   27000002 cycles:   13943469 heartbeat IPC: 1.93503 cumulative IPC: 1.93639 (Simulation time: 0 hr 0 min 55 sec) 
Heartbeat CPU  0 instructions:   28000000 cycles:   14459960 heartbeat IPC: 1.93614 cumulative IPC: 1.93638 (Simulation time: 0 hr 0 min 58 sec) 
Heartbeat CPU  0 instructions:   29000000 cycles:   14976361 heartbeat IPC: 1.93648 cumulative IPC: 1.93638 (Simulation time: 0 hr 1 min 0 sec) 
Heartbeat CPU  0 instructions:   30000002 cycles:   15493100 heartbeat IPC: 1.93522 cumulative IPC: 1.93635 (Simulation time: 0 hr 1 min 2 sec) 
Heartbeat CPU  0 instructions:   31000001 cycles:   16009583 heartbeat IPC: 1.93617 cumulative IPC: 1.93634 (Simulation time: 0 hr 1 min 4 sec) 
Heartbeat CPU  0 instructions:   32000000 cycles:   16525916 heartbeat IPC: 1.93673 cumulative IPC: 1.93635 (Simulation time: 0 hr 1 min 6 sec) 
Heartbeat CPU  0 instructions:   33000000 cycles:   17042436 heartbeat IPC: 1.93603 cumulative IPC: 1.93634 (Simulation time: 0 hr 1 min 8 sec) 
Heartbeat CPU  0 instructions:   34000001 cycles:   17558464 heartbeat IPC: 1.93788 cumulative IPC: 1.93639 (Simulation time: 0 hr 1 min 10 sec) 
Heartbeat CPU  0 instructions:   35000000 cycles:   18074690 heartbeat IPC: 1.93713 cumulative IPC: 1.93641 (Simulation time: 0 hr 1 min 12 sec) 
Heartbeat CPU  0 instructions:   36000000 cycles:   18591568 heartbeat IPC: 1.93469 cumulative IPC: 1.93636 (Simulation time: 0 hr 1 min 14 sec) 
Heartbeat CPU  0 instructions:   37000001 cycles:   19108212 heartbeat IPC: 1.93557 cumulative IPC: 1.93634 (Simulation time: 0 hr 1 min 16 sec) 
Heartbeat CPU  0 instructions:   38000000 cycles:   19624555 heartbeat IPC: 1.93670 cumulative IPC: 1.93635 (Simulation time: 0 hr 1 min 18 sec) 
Heartbeat CPU  0 instructions:   39000002 cycles:   20141197 heartbeat IPC: 1.93558 cumulative IPC: 1.93633 (Simulation time: 0 hr 1 min 20 sec) 
Heartbeat CPU  0 instructions:   40000000 cycles:   20657170 heartbeat IPC: 1.93808 cumulative IPC: 1.93637 (Simulation time: 0 hr 1 min 22 sec) 
Heartbeat CPU  0 instructions:   41000000 cycles:   21173323 heartbeat IPC: 1.93741 cumulative IPC: 1.93640 (Simulation time: 0 hr 1 min 24 sec) 
Heartbeat CPU  0 instructions:   42000000 cycles:   21690049 heartbeat IPC: 1.93526 cumulative IPC: 1.93637 (Simulation time: 0 hr 1 min 26 sec) 
Heartbeat CPU  0 instructions:   43000003 cycles:   22205926 heartbeat IPC: 1.93845 cumulative IPC: 1.93642 (Simulation time: 0 hr 1 min 28 sec) 
Heartbeat CPU  0 instructions:   44000000 cycles:   22722010 heartbeat IPC: 1.93766 cumulative IPC: 1.93645 (Simulation time: 0 hr 1 min 30 sec) 
Heartbeat CPU  0 instructions:   45000003 cycles:   23238571 heartbeat IPC: 1.93589 cumulative IPC: 1.93644 (Simulation time: 0 hr 1 min 32 sec) 
Heartbeat CPU  0 instructions:   46000001 cycles:   23755235 heartbeat IPC: 1.93549 cumulative IPC: 1.93642 (Simulation time: 0 hr 1 min 34 sec) 
Heartbeat CPU  0 instructions:   47000000 cycles:   24271636 heartbeat IPC: 1.93648 cumulative IPC: 1.93642 (Simulation time: 0 hr 1 min 36 sec) 
Heartbeat CPU  0 instructions:   48000000 cycles:   24788180 heartbeat IPC: 1.93594 cumulative IPC: 1.93641 (Simulation time: 0 hr 1 min 38 sec) 
Heartbeat CPU  0 instructions:   49000000 cycles:   25304454 heartbeat IPC: 1.93696 cumulative IPC: 1.93642 (Simulation time: 0 hr 1 min 40 sec) 
Heartbeat CPU  0 instructions:   50000000 cycles:   25820500 heartbeat IPC: 1.93781 cumulative IPC: 1.93645 (Simulation time: 0 hr 1 min 42 sec) 
Heartbeat CPU  0 instructions:   51000003 cycles:   26336928 heartbeat IPC: 1.93638 cumulative IPC: 1.93644 (Simulation time: 0 hr 1 min 44 sec) 
Heartbeat CPU  0 instructions:   52000000 cycles:   26853662 heartbeat IPC: 1.93523 cumulative IPC: 1.93642 (Simulation time: 0 hr 1 min 46 sec) 
Heartbeat CPU  0 instructions:   53000001 cycles:   27370408 heartbeat IPC: 1.93519 cumulative IPC: 1.93640 (Simulation time: 0 hr 1 min 48 sec) 
Heartbeat CPU  0 instructions:   54000003 cycles:   27886830 heartbeat IPC: 1.93640 cumulative IPC: 1.93640 (Simulation time: 0 hr 1 min 51 sec) 
Heartbeat CPU  0 instructions:   55000003 cycles:   28403179 heartbeat IPC: 1.93667 cumulative IPC: 1.93640 (Simulation time: 0 hr 1 min 53 sec) 
Heartbeat CPU  0 instructions:   56000000 cycles:   28919226 heartbeat IPC: 1.93780 cumulative IPC: 1.93643 (Simulation time: 0 hr 1 min 55 sec) 
Heartbeat CPU  0 instructions:   57000002 cycles:   29460780 heartbeat IPC: 1.84654 cumulative IPC: 1.93478 (Simulation time: 0 hr 1 min 57 sec) 
Heartbeat CPU  0 instructions:   58000001 cycles:   30007295 heartbeat IPC: 1.82977 cumulative IPC: 1.93286 (Simulation time: 0 hr 1 min 59 sec) 
Heartbeat CPU  0 instructions:   59000001 cycles:   30553926 heartbeat IPC: 1.82939 cumulative IPC: 1.93101 (Simulation time: 0 hr 2 min 1 sec) 
Heartbeat CPU  0 instructions:   60000000 cycles:   31100790 heartbeat IPC: 1.82861 cumulative IPC: 1.92921 (Simulation time: 0 hr 2 min 3 sec) 
Heartbeat CPU  0 instructions:   61000003 cycles:   31647375 heartbeat IPC: 1.82955 cumulative IPC: 1.92749 (Simulation time: 0 hr 2 min 5 sec) 
Heartbeat CPU  0 instructions:   62000003 cycles:   32193838 heartbeat IPC: 1.82995 cumulative IPC: 1.92583 (Simulation time: 0 hr 2 min 7 sec) 
Heartbeat CPU  0 instructions:   63000003 cycles:   32740466 heartbeat IPC: 1.82940 cumulative IPC: 1.92422 (Simulation time: 0 hr 2 min 9 sec) 
Heartbeat CPU  0 instructions:   64000000 cycles:   33286899 heartbeat IPC: 1.83004 cumulative IPC: 1.92268 (Simulation time: 0 hr 2 min 11 sec) 
Heartbeat CPU  0 instructions:   65000002 cycles:   33829198 heartbeat IPC: 1.84400 cumulative IPC: 1.92142 (Simulation time: 0 hr 2 min 13 sec) 
Heartbeat CPU  0 instructions:   66000002 cycles:   34360205 heartbeat IPC: 1.88321 cumulative IPC: 1.92083 (Simulation time: 0 hr 2 min 15 sec) 
Heartbeat CPU  0 instructions:   67000001 cycles:   34891952 heartbeat IPC: 1.88059 cumulative IPC: 1.92021 (Simulation time: 0 hr 2 min 17 sec) 
Heartbeat CPU  0 instructions:   68000000 cycles:   35422965 heartbeat IPC: 1.88319 cumulative IPC: 1.91966 (Simulation time: 0 hr 2 min 19 sec) 
Heartbeat CPU  0 instructions:   69000003 cycles:   35954626 heartbeat IPC: 1.88090 cumulative IPC: 1.91909 (Simulation time: 0 hr 2 min 21 sec) 
Heartbeat CPU  0 instructions:   70000000 cycles:   36485709 heartbeat IPC: 1.88294 cumulative IPC: 1.91856 (Simulation time: 0 hr 2 min 23 sec) 
Heartbeat CPU  0 instructions:   71000001 cycles:   37017398 heartbeat IPC: 1.88080 cumulative IPC: 1.91802 (Simulation time: 0 hr 2 min 24 sec) 
Heartbeat CPU  0 instructions:   72000000 cycles:   37548428 heartbeat IPC: 1.88313 cumulative IPC: 1.91752 (Simulation time: 0 hr 2 min 26 sec) 
Heartbeat CPU  0 instructions:   73000000 cycles:   38080216 heartbeat IPC: 1.88045 cumulative IPC: 1.91701 (Simulation time: 0 hr 2 min 28 sec) 
Heartbeat CPU  0 instructions:   74000001 cycles:   38610471 heartbeat IPC: 1.88589 cumulative IPC: 1.91658 (Simulation time: 0 hr 2 min 30 sec) 
Heartbeat CPU  0 instructions:   75000002 cycles:   39139668 heartbeat IPC: 1.88966 cumulative IPC: 1.91621 (Simulation time: 0 hr 2 min 32 sec) 
Heartbeat CPU  0 instructions:   76000000 cycles:   39669240 heartbeat IPC: 1.88831 cumulative IPC: 1.91584 (Simulation time: 0 hr 2 min 34 sec) 
Heartbeat CPU  0 instructions:   77000003 cycles:   40198514 heartbeat IPC: 1.88939 cumulative IPC: 1.91549 (Simulation time: 0 hr 2 min 36 sec) 
Heartbeat CPU  0 instructions:   78000002 cycles:   40728092 heartbeat IPC: 1.88829 cumulative IPC: 1.91514 (Simulation time: 0 hr 2 min 38 sec) 
Heartbeat CPU  0 instructions:   79000000 cycles:   41257299 heartbeat IPC: 1.88962 cumulative IPC: 1.91481 (Simulation time: 0 hr 2 min 40 sec) 
Heartbeat CPU  0 instructions:   80000000 cycles:   41786868 heartbeat IPC: 1.88833 cumulative IPC: 1.91448 (Simulation time: 0 hr 2 min 42 sec) 
Heartbeat CPU  0 instructions:   81000003 cycles:   42316129 heartbeat IPC: 1.88943 cumulative IPC: 1.91416 (Simulation time: 0 hr 2 min 44 sec) 
Heartbeat CPU  0 instructions:   82000003 cycles:   42845742 heartbeat IPC: 1.88817 cumulative IPC: 1.91384 (Simulation time: 0 hr 2 min 46 sec) 
Heartbeat CPU  0 instructions:   83000000 cycles:   43433601 heartbeat IPC: 1.70108 cumulative IPC: 1.91096 (Simulation time: 0 hr 2 min 48 sec) 
Heartbeat CPU  0 instructions:   84000000 cycles:   44043004 heartbeat IPC: 1.64095 cumulative IPC: 1.90723 (Simulation time: 0 hr 2 min 51 sec) 
Heartbeat CPU  0 instructions:   85000001 cycles:   44652668 heartbeat IPC: 1.64025 cumulative IPC: 1.90358 (Simulation time: 0 hr 2 min 53 sec) 
Heartbeat CPU  0 instructions:   86000001 cycles:   45262171 heartbeat IPC: 1.64068 cumulative IPC: 1.90004 (Simulation time: 0 hr 2 min 56 sec) 
Heartbeat CPU  0 instructions:   87000002 cycles:   45871862 heartbeat IPC: 1.64018 cumulative IPC: 1.89659 (Simulation time: 0 hr 2 min 58 sec) 
Heartbeat CPU  0 instructions:   88000000 cycles:   46481577 heartbeat IPC: 1.64011 cumulative IPC: 1.89322 (Simulation time: 0 hr 3 min 1 sec) 
Heartbeat CPU  0 instructions:   89000002 cycles:   47091417 heartbeat IPC: 1.63978 cumulative IPC: 1.88994 (Simulation time: 0 hr 3 min 3 sec) 
Heartbeat CPU  0 instructions:   90000003 cycles:   47701028 heartbeat IPC: 1.64039 cumulative IPC: 1.88675 (Simulation time: 0 hr 3 min 5 sec) 
Heartbeat CPU  0 instructions:   91000000 cycles:   48310726 heartbeat IPC: 1.64015 cumulative IPC: 1.88364 (Simulation time: 0 hr 3 min 8 sec) 
Heartbeat CPU  0 instructions:   92000000 cycles:   48920286 heartbeat IPC: 1.64053 cumulative IPC: 1.88061 (Simulation time: 0 hr 3 min 10 sec) 
Heartbeat CPU  0 instructions:   93000000 cycles:   49529966 heartbeat IPC: 1.64020 cumulative IPC: 1.87765 (Simulation time: 0 hr 3 min 13 sec) 
Heartbeat CPU  0 instructions:   94000001 cycles:   50139605 heartbeat IPC: 1.64032 cumulative IPC: 1.87477 (Simulation time: 0 hr 3 min 15 sec) 
Heartbeat CPU  0 instructions:   95000003 cycles:   50749183 heartbeat IPC: 1.64048 cumulative IPC: 1.87195 (Simulation time: 0 hr 3 min 18 sec) 
Heartbeat CPU  0 instructions:   96000000 cycles:   51358996 heartbeat IPC: 1.63984 cumulative IPC: 1.86920 (Simulation time: 0 hr 3 min 20 sec) 
Heartbeat CPU  0 instructions:   97000000 cycles:   51968811 heartbeat IPC: 1.63984 cumulative IPC: 1.86650 (Simulation time: 0 hr 3 min 23 sec) 
Heartbeat CPU  0 instructions:   98000002 cycles:   52578509 heartbeat IPC: 1.64016 cumulative IPC: 1.86388 (Simulation time: 0 hr 3 min 25 sec) 
Heartbeat CPU  0 instructions:   99000003 cycles:   53188125 heartbeat IPC: 1.64038 cumulative IPC: 1.86132 (Simulation time: 0 hr 3 min 27 sec) 
Heartbeat CPU  0 instructions:  100000000 cycles:   53797658 heartbeat IPC: 1.64060 cumulative IPC: 1.85882 (Simulation time: 0 hr 3 min 30 sec) 

Warmup complete CPU  0 instructions:  100000002 cycles:   53797659 (Simulation time: 0 hr 3 min 30 sec) 

Heartbeat CPU  0 instructions:  101000003 cycles:   55827637 heartbeat IPC: 0.49262 cumulative IPC: 0.49262 (Simulation time: 0 hr 3 min 33 sec) 
Heartbeat CPU  0 instructions:  102000000 cycles:   57881786 heartbeat IPC: 0.48682 cumulative IPC: 0.48970 (Simulation time: 0 hr 3 min 36 sec) 
Heartbeat CPU  0 instructions:  103000000 cycles:   59933350 heartbeat IPC: 0.48743 cumulative IPC: 0.48894 (Simulation time: 0 hr 3 min 40 sec) 
Heartbeat CPU  0 instructions:  104000000 cycles:   62007313 heartbeat IPC: 0.48217 cumulative IPC: 0.48723 (Simulation time: 0 hr 3 min 43 sec) 
Heartbeat CPU  0 instructions:  105000001 cycles:   64066867 heartbeat IPC: 0.48554 cumulative IPC: 0.48689 (Simulation time: 0 hr 3 min 47 sec) 
Heartbeat CPU  0 instructions:  106000001 cycles:   66118839 heartbeat IPC: 0.48734 cumulative IPC: 0.48697 (Simulation time: 0 hr 3 min 50 sec) 
Heartbeat CPU  0 instructions:  107000002 cycles:   68175178 heartbeat IPC: 0.48630 cumulative IPC: 0.48687 (Simulation time: 0 hr 3 min 53 sec) 
Heartbeat CPU  0 instructions:  108000000 cycles:   70247446 heartbeat IPC: 0.48256 cumulative IPC: 0.48633 (Simulation time: 0 hr 3 min 57 sec) 
Heartbeat CPU  0 instructions:  109000002 cycles:   72334388 heartbeat IPC: 0.47917 cumulative IPC: 0.48552 (Simulation time: 0 hr 4 min 0 sec) 
Heartbeat CPU  0 instructions:  110000003 cycles:   74404584 heartbeat IPC: 0.48305 cumulative IPC: 0.48527 (Simulation time: 0 hr 4 min 3 sec) 
Heartbeat CPU  0 instructions:  111000000 cycles:   76466063 heartbeat IPC: 0.48509 cumulative IPC: 0.48526 (Simulation time: 0 hr 4 min 7 sec) 
Heartbeat CPU  0 instructions:  112000000 cycles:   78562829 heartbeat IPC: 0.47692 cumulative IPC: 0.48455 (Simulation time: 0 hr 4 min 10 sec) 
Heartbeat CPU  0 instructions:  113000000 cycles:   80651065 heartbeat IPC: 0.47887 cumulative IPC: 0.48411 (Simulation time: 0 hr 4 min 13 sec) 
Heartbeat CPU  0 instructions:  114000001 cycles:   82755524 heartbeat IPC: 0.47518 cumulative IPC: 0.48346 (Simulation time: 0 hr 4 min 17 sec) 
Heartbeat CPU  0 instructions:  115000002 cycles:   84831649 heartbeat IPC: 0.48167 cumulative IPC: 0.48334 (Simulation time: 0 hr 4 min 20 sec) 
Heartbeat CPU  0 instructions:  116000000 cycles:   86923626 heartbeat IPC: 0.47802 cumulative IPC: 0.48300 (Simulation time: 0 hr 4 min 24 sec) 
Heartbeat CPU  0 instructions:  117000001 cycles:   88986576 heartbeat IPC: 0.48474 cumulative IPC: 0.48311 (Simulation time: 0 hr 4 min 27 sec) 
Heartbeat CPU  0 instructions:  118000002 cycles:   91053368 heartbeat IPC: 0.48384 cumulative IPC: 0.48315 (Simulation time: 0 hr 4 min 30 sec) 
Heartbeat CPU  0 instructions:  119000003 cycles:   93125866 heartbeat IPC: 0.48251 cumulative IPC: 0.48311 (Simulation time: 0 hr 4 min 34 sec) 
Heartbeat CPU  0 instructions:  120000000 cycles:   95187822 heartbeat IPC: 0.48497 cumulative IPC: 0.48321 (Simulation time: 0 hr 4 min 37 sec) 
Heartbeat CPU  0 instructions:  121000003 cycles:   96901215 heartbeat IPC: 0.58364 cumulative IPC: 0.48720 (Simulation time: 0 hr 4 min 40 sec) 
Heartbeat CPU  0 instructions:  122000001 cycles:   98437030 heartbeat IPC: 0.65112 cumulative IPC: 0.49284 (Simulation time: 0 hr 4 min 43 sec) 
Heartbeat CPU  0 instructions:  123000002 cycles:   99934469 heartbeat IPC: 0.66781 cumulative IPC: 0.49852 (Simulation time: 0 hr 4 min 46 sec) 
Heartbeat CPU  0 instructions:  124000000 cycles:  101466708 heartbeat IPC: 0.65264 cumulative IPC: 0.50347 (Simulation time: 0 hr 4 min 48 sec) 
Heartbeat CPU  0 instructions:  125000000 cycles:  102971289 heartbeat IPC: 0.66464 cumulative IPC: 0.50840 (Simulation time: 0 hr 4 min 51 sec) 
Heartbeat CPU  0 instructions:  126000001 cycles:  104475508 heartbeat IPC: 0.66480 cumulative IPC: 0.51304 (Simulation time: 0 hr 4 min 54 sec) 
Heartbeat CPU  0 instructions:  127000002 cycles:  105939851 heartbeat IPC: 0.68290 cumulative IPC: 0.51781 (Simulation time: 0 hr 4 min 57 sec) 
Heartbeat CPU  0 instructions:  128000000 cycles:  107369646 heartbeat IPC: 0.69940 cumulative IPC: 0.52266 (Simulation time: 0 hr 5 min 0 sec) 
Heartbeat CPU  0 instructions:  129000003 cycles:  108818329 heartbeat IPC: 0.69028 cumulative IPC: 0.52707 (Simulation time: 0 hr 5 min 2 sec) 
Heartbeat CPU  0 instructions:  130000003 cycles:  110254690 heartbeat IPC: 0.69620 cumulative IPC: 0.53138 (Simulation time: 0 hr 5 min 5 sec) 
Heartbeat CPU  0 instructions:  131000000 cycles:  111713218 heartbeat IPC: 0.68562 cumulative IPC: 0.53526 (Simulation time: 0 hr 5 min 8 sec) 
Heartbeat CPU  0 instructions:  132000000 cycles:  113061025 heartbeat IPC: 0.74195 cumulative IPC: 0.53996 (Simulation time: 0 hr 5 min 11 sec) 
Heartbeat CPU  0 instructions:  133000002 cycles:  114302560 heartbeat IPC: 0.80546 cumulative IPC: 0.54541 (Simulation time: 0 hr 5 min 13 sec) 
Heartbeat CPU  0 instructions:  134000000 cycles:  115528984 heartbeat IPC: 0.81538 cumulative IPC: 0.55077 (Simulation time: 0 hr 5 min 16 sec) 
Heartbeat CPU  0 instructions:  135000000 cycles:  116727641 heartbeat IPC: 0.83427 cumulative IPC: 0.55617 (Simulation time: 0 hr 5 min 18 sec) 
Heartbeat CPU  0 instructions:  136000000 cycles:  117916010 heartbeat IPC: 0.84149 cumulative IPC: 0.56146 (Simulation time: 0 hr 5 min 21 sec) 
Heartbeat CPU  0 instructions:  137000000 cycles:  119156153 heartbeat IPC: 0.80636 cumulative IPC: 0.56611 (Simulation time: 0 hr 5 min 24 sec) 
Heartbeat CPU  0 instructions:  138000003 cycles:  120547162 heartbeat IPC: 0.71890 cumulative IPC: 0.56929 (Simulation time: 0 hr 5 min 26 sec) 
Heartbeat CPU  0 instructions:  139000000 cycles:  121993991 heartbeat IPC: 0.69116 cumulative IPC: 0.57188 (Simulation time: 0 hr 5 min 29 sec) 
Heartbeat CPU  0 instructions:  140000000 cycles:  123434211 heartbeat IPC: 0.69434 cumulative IPC: 0.57441 (Simulation time: 0 hr 5 min 32 sec) 
Heartbeat CPU  0 instructions:  141000000 cycles:  124864793 heartbeat IPC: 0.69902 cumulative IPC: 0.57692 (Simulation time: 0 hr 5 min 35 sec) 
Heartbeat CPU  0 instructions:  142000000 cycles:  126271499 heartbeat IPC: 0.71088 cumulative IPC: 0.57952 (Simulation time: 0 hr 5 min 37 sec) 
Heartbeat CPU  0 instructions:  143000001 cycles:  127601073 heartbeat IPC: 0.75212 cumulative IPC: 0.58263 (Simulation time: 0 hr 5 min 40 sec) 
Heartbeat CPU  0 instructions:  144000000 cycles:  128888749 heartbeat IPC: 0.77659 cumulative IPC: 0.58595 (Simulation time: 0 hr 5 min 43 sec) 
Heartbeat CPU  0 instructions:  145000003 cycles:  130162483 heartbeat IPC: 0.78510 cumulative IPC: 0.58928 (Simulation time: 0 hr 5 min 45 sec) 
Heartbeat CPU  0 instructions:  146000001 cycles:  131442472 heartbeat IPC: 0.78126 cumulative IPC: 0.59244 (Simulation time: 0 hr 5 min 48 sec) 
Heartbeat CPU  0 instructions:  147000002 cycles:  132730445 heartbeat IPC: 0.77641 cumulative IPC: 0.59544 (Simulation time: 0 hr 5 min 51 sec) 
Heartbeat CPU  0 instructions:  148000000 cycles:  134110251 heartbeat IPC: 0.72474 cumulative IPC: 0.59766 (Simulation time: 0 hr 5 min 53 sec) 
Heartbeat CPU  0 instructions:  149000000 cycles:  135556470 heartbeat IPC: 0.69146 cumulative IPC: 0.59932 (Simulation time: 0 hr 5 min 56 sec) 
Heartbeat CPU  0 instructions:  150000000 cycles:  137019757 heartbeat IPC: 0.68339 cumulative IPC: 0.60080 (Simulation time: 0 hr 5 min 59 sec) 
Heartbeat CPU  0 instructions:  151000001 cycles:  138451146 heartbeat IPC: 0.69862 cumulative IPC: 0.60246 (Simulation time: 0 hr 6 min 2 sec) 
Heartbeat CPU  0 instructions:  152000000 cycles:  139923027 heartbeat IPC: 0.67940 cumulative IPC: 0.60377 (Simulation time: 0 hr 6 min 4 sec) 
Heartbeat CPU  0 instructions:  153000001 cycles:  141303725 heartbeat IPC: 0.72427 cumulative IPC: 0.60567 (Simulation time: 0 hr 6 min 7 sec) 
Heartbeat CPU  0 instructions:  154000003 cycles:  142688413 heartbeat IPC: 0.72219 cumulative IPC: 0.60749 (Simulation time: 0 hr 6 min 10 sec) 
Heartbeat CPU  0 instructions:  155000003 cycles:  144046882 heartbeat IPC: 0.73612 cumulative IPC: 0.60942 (Simulation time: 0 hr 6 min 12 sec) 
Heartbeat CPU  0 instructions:  156000000 cycles:  145421554 heartbeat IPC: 0.72744 cumulative IPC: 0.61119 (Simulation time: 0 hr 6 min 15 sec) 
Heartbeat CPU  0 instructions:  157000000 cycles:  146787649 heartbeat IPC: 0.73201 cumulative IPC: 0.61297 (Simulation time: 0 hr 6 min 18 sec) 
Heartbeat CPU  0 instructions:  158000002 cycles:  148162821 heartbeat IPC: 0.72718 cumulative IPC: 0.61463 (Simulation time: 0 hr 6 min 21 sec) 
Heartbeat CPU  0 instructions:  159000002 cycles:  149600616 heartbeat IPC: 0.69551 cumulative IPC: 0.61585 (Simulation time: 0 hr 6 min 23 sec) 
Heartbeat CPU  0 instructions:  160000000 cycles:  151039240 heartbeat IPC: 0.69511 cumulative IPC: 0.61702 (Simulation time: 0 hr 6 min 26 sec) 
Heartbeat CPU  0 instructions:  161000003 cycles:  152509098 heartbeat IPC: 0.68034 cumulative IPC: 0.61796 (Simulation time: 0 hr 6 min 29 sec) 
Heartbeat CPU  0 instructions:  162000000 cycles:  153938958 heartbeat IPC: 0.69937 cumulative IPC: 0.61913 (Simulation time: 0 hr 6 min 31 sec) 
Heartbeat CPU  0 instructions:  163000001 cycles:  155419469 heartbeat IPC: 0.67544 cumulative IPC: 0.61995 (Simulation time: 0 hr 6 min 34 sec) 
Heartbeat CPU  0 instructions:  164000000 cycles:  156822181 heartbeat IPC: 0.71290 cumulative IPC: 0.62121 (Simulation time: 0 hr 6 min 37 sec) 
Heartbeat CPU  0 instructions:  165000001 cycles:  158228597 heartbeat IPC: 0.71103 cumulative IPC: 0.62242 (Simulation time: 0 hr 6 min 40 sec) 
Heartbeat CPU  0 instructions:  166000003 cycles:  159626326 heartbeat IPC: 0.71545 cumulative IPC: 0.62365 (Simulation time: 0 hr 6 min 42 sec) 
Heartbeat CPU  0 instructions:  167000001 cycles:  161048377 heartbeat IPC: 0.70321 cumulative IPC: 0.62470 (Simulation time: 0 hr 6 min 45 sec) 
Heartbeat CPU  0 instructions:  168000000 cycles:  162457396 heartbeat IPC: 0.70971 cumulative IPC: 0.62581 (Simulation time: 0 hr 6 min 48 sec) 
Heartbeat CPU  0 instructions:  169000001 cycles:  163880717 heartbeat IPC: 0.70258 cumulative IPC: 0.62680 (Simulation time: 0 hr 6 min 50 sec) 
Heartbeat CPU  0 instructions:  170000000 cycles:  165303949 heartbeat IPC: 0.70263 cumulative IPC: 0.62777 (Simulation time: 0 hr 6 min 53 sec) 
Heartbeat CPU  0 instructions:  171000000 cycles:  166760210 heartbeat IPC: 0.68669 cumulative IPC: 0.62853 (Simulation time: 0 hr 6 min 56 sec) 
Heartbeat CPU  0 instructions:  172000000 cycles:  168216306 heartbeat IPC: 0.68677 cumulative IPC: 0.62927 (Simulation time: 0 hr 6 min 59 sec) 
Heartbeat CPU  0 instructions:  173000002 cycles:  169681770 heartbeat IPC: 0.68238 cumulative IPC: 0.62994 (Simulation time: 0 hr 7 min 1 sec) 
Heartbeat CPU  0 instructions:  174000002 cycles:  171142783 heartbeat IPC: 0.68446 cumulative IPC: 0.63062 (Simulation time: 0 hr 7 min 4 sec) 
Heartbeat CPU  0 instructions:  175000000 cycles:  172575586 heartbeat IPC: 0.69793 cumulative IPC: 0.63143 (Simulation time: 0 hr 7 min 7 sec) 
Heartbeat CPU  0 instructions:  176000000 cycles:  174038038 heartbeat IPC: 0.68378 cumulative IPC: 0.63207 (Simulation time: 0 hr 7 min 10 sec) 
Heartbeat CPU  0 instructions:  177000001 cycles:  175487880 heartbeat IPC: 0.68973 cumulative IPC: 0.63275 (Simulation time: 0 hr 7 min 12 sec) 
Heartbeat CPU  0 instructions:  178000002 cycles:  176949151 heartbeat IPC: 0.68434 cumulative IPC: 0.63337 (Simulation time: 0 hr 7 min 15 sec) 
Heartbeat CPU  0 instructions:  179000001 cycles:  178394902 heartbeat IPC: 0.69168 cumulative IPC: 0.63404 (Simulation time: 0 hr 7 min 18 sec) 
Heartbeat CPU  0 instructions:  180000000 cycles:  179861107 heartbeat IPC: 0.68203 cumulative IPC: 0.63460 (Simulation time: 0 hr 7 min 21 sec) 
Heartbeat CPU  0 instructions:  181000000 cycles:  181307866 heartbeat IPC: 0.69120 cumulative IPC: 0.63524 (Simulation time: 0 hr 7 min 23 sec) 
Heartbeat CPU  0 instructions:  182000000 cycles:  182763797 heartbeat IPC: 0.68685 cumulative IPC: 0.63583 (Simulation time: 0 hr 7 min 26 sec) 
Heartbeat CPU  0 instructions:  183000003 cycles:  184205555 heartbeat IPC: 0.69360 cumulative IPC: 0.63646 (Simulation time: 0 hr 7 min 29 sec) 
Heartbeat CPU  0 instructions:  184000000 cycles:  185691241 heartbeat IPC: 0.67309 cumulative IPC: 0.63688 (Simulation time: 0 hr 7 min 32 sec) 
Heartbeat CPU  0 instructions:  185000002 cycles:  187122811 heartbeat IPC: 0.69854 cumulative IPC: 0.63754 (Simulation time: 0 hr 7 min 34 sec) 
Heartbeat CPU  0 instructions:  186000003 cycles:  188576141 heartbeat IPC: 0.68808 cumulative IPC: 0.63808 (Simulation time: 0 hr 7 min 37 sec) 
Heartbeat CPU  0 instructions:  187000003 cycles:  190032670 heartbeat IPC: 0.68656 cumulative IPC: 0.63860 (Simulation time: 0 hr 7 min 40 sec) 
Heartbeat CPU  0 instructions:  188000000 cycles:  191477690 heartbeat IPC: 0.69203 cumulative IPC: 0.63916 (Simulation time: 0 hr 7 min 43 sec) 
Heartbeat CPU  0 instructions:  189000001 cycles:  192938825 heartbeat IPC: 0.68440 cumulative IPC: 0.63964 (Simulation time: 0 hr 7 min 45 sec) 
Heartbeat CPU  0 instructions:  190000003 cycles:  194379123 heartbeat IPC: 0.69430 cumulative IPC: 0.64020 (Simulation time: 0 hr 7 min 48 sec) 
Heartbeat CPU  0 instructions:  191000001 cycles:  195829392 heartbeat IPC: 0.68953 cumulative IPC: 0.64070 (Simulation time: 0 hr 7 min 51 sec) 
Heartbeat CPU  0 instructions:  192000000 cycles:  197277102 heartbeat IPC: 0.69075 cumulative IPC: 0.64121 (Simulation time: 0 hr 7 min 54 sec) 
Heartbeat CPU  0 instructions:  193000000 cycles:  198744148 heartbeat IPC: 0.68164 cumulative IPC: 0.64162 (Simulation time: 0 hr 7 min 56 sec) 
Heartbeat CPU  0 instructions:  194000003 cycles:  200216565 heartbeat IPC: 0.67916 cumulative IPC: 0.64199 (Simulation time: 0 hr 7 min 59 sec) 
Heartbeat CPU  0 instructions:  195000002 cycles:  201682726 heartbeat IPC: 0.68205 cumulative IPC: 0.64239 (Simulation time: 0 hr 8 min 2 sec) 
Heartbeat CPU  0 instructions:  196000000 cycles:  203124297 heartbeat IPC: 0.69369 cumulative IPC: 0.64289 (Simulation time: 0 hr 8 min 5 sec) 
Heartbeat CPU  0 instructions:  197000000 cycles:  204584623 heartbeat IPC: 0.68478 cumulative IPC: 0.64329 (Simulation time: 0 hr 8 min 7 sec) 
Heartbeat CPU  0 instructions:  198000001 cycles:  206021808 heartbeat IPC: 0.69581 cumulative IPC: 0.64379 (Simulation time: 0 hr 8 min 10 sec) 
Heartbeat CPU  0 instructions:  199000003 cycles:  207478186 heartbeat IPC: 0.68664 cumulative IPC: 0.64419 (Simulation time: 0 hr 8 min 13 sec) 
Heartbeat CPU  0 instructions:  200000000 cycles:  208919294 heartbeat IPC: 0.69391 cumulative IPC: 0.64466 (Simulation time: 0 hr 8 min 16 sec) 
Heartbeat CPU  0 instructions:  201000002 cycles:  210375246 heartbeat IPC: 0.68684 cumulative IPC: 0.64505 (Simulation time: 0 hr 8 min 18 sec) 
Heartbeat CPU  0 instructions:  202000000 cycles:  211836015 heartbeat IPC: 0.68457 cumulative IPC: 0.64541 (Simulation time: 0 hr 8 min 21 sec) 
Heartbeat CPU  0 instructions:  203000000 cycles:  213271964 heartbeat IPC: 0.69640 cumulative IPC: 0.64587 (Simulation time: 0 hr 8 min 24 sec) 
Heartbeat CPU  0 instructions:  204000000 cycles:  214727615 heartbeat IPC: 0.68698 cumulative IPC: 0.64624 (Simulation time: 0 hr 8 min 27 sec) 
Heartbeat CPU  0 instructions:  205000000 cycles:  216213358 heartbeat IPC: 0.67306 cumulative IPC: 0.64649 (Simulation time: 0 hr 8 min 29 sec) 
Heartbeat CPU  0 instructions:  206000000 cycles:  217670026 heartbeat IPC: 0.68650 cumulative IPC: 0.64684 (Simulation time: 0 hr 8 min 32 sec) 
Heartbeat CPU  0 instructions:  207000003 cycles:  219117207 heartbeat IPC: 0.69100 cumulative IPC: 0.64723 (Simulation time: 0 hr 8 min 35 sec) 
Heartbeat CPU  0 instructions:  208000000 cycles:  220589533 heartbeat IPC: 0.67920 cumulative IPC: 0.64751 (Simulation time: 0 hr 8 min 38 sec) 
Heartbeat CPU  0 instructions:  209000000 cycles:  222031118 heartbeat IPC: 0.69368 cumulative IPC: 0.64791 (Simulation time: 0 hr 8 min 40 sec) 
Heartbeat CPU  0 instructions:  210000003 cycles:  223489253 heartbeat IPC: 0.68581 cumulative IPC: 0.64823 (Simulation time: 0 hr 8 min 43 sec) 
Heartbeat CPU  0 instructions:  211000002 cycles:  224923446 heartbeat IPC: 0.69726 cumulative IPC: 0.64865 (Simulation time: 0 hr 8 min 46 sec) 
Heartbeat CPU  0 instructions:  212000000 cycles:  226380607 heartbeat IPC: 0.68626 cumulative IPC: 0.64896 (Simulation time: 0 hr 8 min 49 sec) 
Heartbeat CPU  0 instructions:  213000002 cycles:  227817681 heartbeat IPC: 0.69586 cumulative IPC: 0.64935 (Simulation time: 0 hr 8 min 51 sec) 
Heartbeat CPU  0 instructions:  214000003 cycles:  229260536 heartbeat IPC: 0.69307 cumulative IPC: 0.64971 (Simulation time: 0 hr 8 min 54 sec) 
Heartbeat CPU  0 instructions:  215000002 cycles:  230736347 heartbeat IPC: 0.67759 cumulative IPC: 0.64994 (Simulation time: 0 hr 8 min 57 sec) 
Heartbeat CPU  0 instructions:  216000000 cycles:  232186758 heartbeat IPC: 0.68946 cumulative IPC: 0.65026 (Simulation time: 0 hr 9 min 0 sec) 
Heartbeat CPU  0 instructions:  217000002 cycles:  233635025 heartbeat IPC: 0.69048 cumulative IPC: 0.65059 (Simulation time: 0 hr 9 min 3 sec) 
Heartbeat CPU  0 instructions:  218000000 cycles:  235077617 heartbeat IPC: 0.69320 cumulative IPC: 0.65093 (Simulation time: 0 hr 9 min 5 sec) 
Heartbeat CPU  0 instructions:  219000002 cycles:  236529129 heartbeat IPC: 0.68894 cumulative IPC: 0.65123 (Simulation time: 0 hr 9 min 8 sec) 
Heartbeat CPU  0 instructions:  220000000 cycles:  237962905 heartbeat IPC: 0.69746 cumulative IPC: 0.65159 (Simulation time: 0 hr 9 min 11 sec) 
Heartbeat CPU  0 instructions:  221000002 cycles:  239414136 heartbeat IPC: 0.68907 cumulative IPC: 0.65188 (Simulation time: 0 hr 9 min 14 sec) 
Heartbeat CPU  0 instructions:  222000000 cycles:  240864380 heartbeat IPC: 0.68954 cumulative IPC: 0.65217 (Simulation time: 0 hr 9 min 17 sec) 
Heartbeat CPU  0 instructions:  223000002 cycles:  242331939 heartbeat IPC: 0.68140 cumulative IPC: 0.65240 (Simulation time: 0 hr 9 min 19 sec) 
Heartbeat CPU  0 instructions:  224000000 cycles:  243774470 heartbeat IPC: 0.69322 cumulative IPC: 0.65271 (Simulation time: 0 hr 9 min 22 sec) 
Heartbeat CPU  0 instructions:  225000000 cycles:  245261626 heartbeat IPC: 0.67242 cumulative IPC: 0.65286 (Simulation time: 0 hr 9 min 25 sec) 
Heartbeat CPU  0 instructions:  226000000 cycles:  246699382 heartbeat IPC: 0.69553 cumulative IPC: 0.65318 (Simulation time: 0 hr 9 min 28 sec) 
Heartbeat CPU  0 instructions:  227000001 cycles:  248158735 heartbeat IPC: 0.68524 cumulative IPC: 0.65342 (Simulation time: 0 hr 9 min 30 sec) 
Heartbeat CPU  0 instructions:  228000000 cycles:  249584154 heartbeat IPC: 0.70155 cumulative IPC: 0.65377 (Simulation time: 0 hr 9 min 33 sec) 
Heartbeat CPU  0 instructions:  229000001 cycles:  251032630 heartbeat IPC: 0.69038 cumulative IPC: 0.65404 (Simulation time: 0 hr 9 min 36 sec) 
Heartbeat CPU  0 instructions:  230000001 cycles:  252472028 heartbeat IPC: 0.69473 cumulative IPC: 0.65434 (Simulation time: 0 hr 9 min 39 sec) 
Heartbeat CPU  0 instructions:  231000002 cycles:  253921392 heartbeat IPC: 0.68996 cumulative IPC: 0.65460 (Simulation time: 0 hr 9 min 41 sec) 
Heartbeat CPU  0 instructions:  232000000 cycles:  255378254 heartbeat IPC: 0.68641 cumulative IPC: 0.65482 (Simulation time: 0 hr 9 min 44 sec) 
Heartbeat CPU  0 instructions:  233000000 cycles:  256809216 heartbeat IPC: 0.69883 cumulative IPC: 0.65514 (Simulation time: 0 hr 9 min 47 sec) 
Heartbeat CPU  0 instructions:  234000001 cycles:  258258514 heartbeat IPC: 0.68999 cumulative IPC: 0.65538 (Simulation time: 0 hr 9 min 50 sec) 
Heartbeat CPU  0 instructions:  235000001 cycles:  259692658 heartbeat IPC: 0.69728 cumulative IPC: 0.65567 (Simulation time: 0 hr 9 min 53 sec) 
Heartbeat CPU  0 instructions:  236000000 cycles:  261173682 heartbeat IPC: 0.67521 cumulative IPC: 0.65581 (Simulation time: 0 hr 9 min 55 sec) 
Heartbeat CPU  0 instructions:  237000000 cycles:  262606448 heartbeat IPC: 0.69795 cumulative IPC: 0.65610 (Simulation time: 0 hr 9 min 58 sec) 
Heartbeat CPU  0 instructions:  238000000 cycles:  264062789 heartbeat IPC: 0.68665 cumulative IPC: 0.65631 (Simulation time: 0 hr 10 min 1 sec) 
Heartbeat CPU  0 instructions:  239000003 cycles:  265496961 heartbeat IPC: 0.69727 cumulative IPC: 0.65659 (Simulation time: 0 hr 10 min 4 sec) 
Heartbeat CPU  0 instructions:  240000000 cycles:  266956444 heartbeat IPC: 0.68517 cumulative IPC: 0.65679 (Simulation time: 0 hr 10 min 6 sec) 
Heartbeat CPU  0 instructions:  241000001 cycles:  268396238 heartbeat IPC: 0.69454 cumulative IPC: 0.65704 (Simulation time: 0 hr 10 min 9 sec) 
Heartbeat CPU  0 instructions:  242000001 cycles:  269856337 heartbeat IPC: 0.68489 cumulative IPC: 0.65723 (Simulation time: 0 hr 10 min 12 sec) 
Heartbeat CPU  0 instructions:  243000001 cycles:  271285167 heartbeat IPC: 0.69987 cumulative IPC: 0.65751 (Simulation time: 0 hr 10 min 15 sec) 
Heartbeat CPU  0 instructions:  244000000 cycles:  272742319 heartbeat IPC: 0.68627 cumulative IPC: 0.65770 (Simulation time: 0 hr 10 min 17 sec) 
Heartbeat CPU  0 instructions:  245000002 cycles:  274176807 heartbeat IPC: 0.69711 cumulative IPC: 0.65796 (Simulation time: 0 hr 10 min 20 sec) 
Heartbeat CPU  0 instructions:  246000003 cycles:  275652225 heartbeat IPC: 0.67777 cumulative IPC: 0.65809 (Simulation time: 0 hr 10 min 23 sec) 
Heartbeat CPU  0 instructions:  247000003 cycles:  277107007 heartbeat IPC: 0.68739 cumulative IPC: 0.65828 (Simulation time: 0 hr 10 min 26 sec) 
Heartbeat CPU  0 instructions:  248000000 cycles:  278559411 heartbeat IPC: 0.68851 cumulative IPC: 0.65848 (Simulation time: 0 hr 10 min 28 sec) 
Heartbeat CPU  0 instructions:  249000003 cycles:  280008214 heartbeat IPC: 0.69023 cumulative IPC: 0.65868 (Simulation time: 0 hr 10 min 31 sec) 
Heartbeat CPU  0 instructions:  250000000 cycles:  281434212 heartbeat IPC: 0.70126 cumulative IPC: 0.65895 (Simulation time: 0 hr 10 min 34 sec) 
Heartbeat CPU  0 instructions:  251000003 cycles:  282892739 heartbeat IPC: 0.68563 cumulative IPC: 0.65912 (Simulation time: 0 hr 10 min 37 sec) 
Heartbeat CPU  0 instructions:  252000000 cycles:  284328652 heartbeat IPC: 0.69642 cumulative IPC: 0.65935 (Simulation time: 0 hr 10 min 39 sec) 
Heartbeat CPU  0 instructions:  253000001 cycles:  285796193 heartbeat IPC: 0.68141 cumulative IPC: 0.65949 (Simulation time: 0 hr 10 min 42 sec) 
Heartbeat CPU  0 instructions:  254000000 cycles:  287235461 heartbeat IPC: 0.69480 cumulative IPC: 0.65970 (Simulation time: 0 hr 10 min 45 sec) 
Heartbeat CPU  0 instructions:  255000002 cycles:  288699193 heartbeat IPC: 0.68319 cumulative IPC: 0.65985 (Simulation time: 0 hr 10 min 48 sec) 
Heartbeat CPU  0 instructions:  256000000 cycles:  290131150 heartbeat IPC: 0.69834 cumulative IPC: 0.66008 (Simulation time: 0 hr 10 min 50 sec) 
Heartbeat CPU  0 instructions:  257000002 cycles:  291629866 heartbeat IPC: 0.66724 cumulative IPC: 0.66013 (Simulation time: 0 hr 10 min 53 sec) 
Heartbeat CPU  0 instructions:  258000003 cycles:  293056704 heartbeat IPC: 0.70085 cumulative IPC: 0.66037 (Simulation time: 0 hr 10 min 56 sec) 
Heartbeat CPU  0 instructions:  259000002 cycles:  294510226 heartbeat IPC: 0.68798 cumulative IPC: 0.66054 (Simulation time: 0 hr 10 min 59 sec) 
Heartbeat CPU  0 instructions:  260000000 cycles:  295946515 heartbeat IPC: 0.69624 cumulative IPC: 0.66075 (Simulation time: 0 hr 11 min 1 sec) 
Heartbeat CPU  0 instructions:  261000001 cycles:  297394303 heartbeat IPC: 0.69071 cumulative IPC: 0.66093 (Simulation time: 0 hr 11 min 4 sec) 
Heartbeat CPU  0 instructions:  262000002 cycles:  298837102 heartbeat IPC: 0.69310 cumulative IPC: 0.66112 (Simulation time: 0 hr 11 min 7 sec) 
Heartbeat CPU  0 instructions:  263000001 cycles:  300273826 heartbeat IPC: 0.69603 cumulative IPC: 0.66132 (Simulation time: 0 hr 11 min 10 sec) 
Heartbeat CPU  0 instructions:  264000000 cycles:  301726515 heartbeat IPC: 0.68838 cumulative IPC: 0.66148 (Simulation time: 0 hr 11 min 12 sec) 
Heartbeat CPU  0 instructions:  265000002 cycles:  303146570 heartbeat IPC: 0.70420 cumulative IPC: 0.66172 (Simulation time: 0 hr 11 min 15 sec) 
Heartbeat CPU  0 instructions:  266000000 cycles:  304592728 heartbeat IPC: 0.69149 cumulative IPC: 0.66189 (Simulation time: 0 hr 11 min 18 sec) 
Heartbeat CPU  0 instructions:  267000002 cycles:  305930280 heartbeat IPC: 0.74764 cumulative IPC: 0.66235 (Simulation time: 0 hr 11 min 20 sec) 
Heartbeat CPU  0 instructions:  268000000 cycles:  307281778 heartbeat IPC: 0.73992 cumulative IPC: 0.66276 (Simulation time: 0 hr 11 min 23 sec) 
Heartbeat CPU  0 instructions:  269000002 cycles:  309000017 heartbeat IPC: 0.58199 cumulative IPC: 0.66222 (Simulation time: 0 hr 11 min 26 sec) 
Heartbeat CPU  0 instructions:  270000003 cycles:  310719740 heartbeat IPC: 0.58149 cumulative IPC: 0.66168 (Simulation time: 0 hr 11 min 29 sec) 
Heartbeat CPU  0 instructions:  271000001 cycles:  312434598 heartbeat IPC: 0.58314 cumulative IPC: 0.66116 (Simulation time: 0 hr 11 min 32 sec) 
Heartbeat CPU  0 instructions:  272000000 cycles:  314154039 heartbeat IPC: 0.58158 cumulative IPC: 0.66063 (Simulation time: 0 hr 11 min 35 sec) 
Heartbeat CPU  0 instructions:  273000002 cycles:  315862769 heartbeat IPC: 0.58523 cumulative IPC: 0.66014 (Simulation time: 0 hr 11 min 38 sec) 
Heartbeat CPU  0 instructions:  274000003 cycles:  317554053 heartbeat IPC: 0.59127 cumulative IPC: 0.65970 (Simulation time: 0 hr 11 min 41 sec) 
Heartbeat CPU  0 instructions:  275000000 cycles:  319235001 heartbeat IPC: 0.59490 cumulative IPC: 0.65929 (Simulation time: 0 hr 11 min 43 sec) 
Heartbeat CPU  0 instructions:  276000000 cycles:  320884414 heartbeat IPC: 0.60628 cumulative IPC: 0.65896 (Simulation time: 0 hr 11 min 46 sec) 
Heartbeat CPU  0 instructions:  277000003 cycles:  322555150 heartbeat IPC: 0.59854 cumulative IPC: 0.65859 (Simulation time: 0 hr 11 min 49 sec) 
Heartbeat CPU  0 instructions:  278000003 cycles:  324199529 heartbeat IPC: 0.60813 cumulative IPC: 0.65828 (Simulation time: 0 hr 11 min 52 sec) 
Heartbeat CPU  0 instructions:  279000001 cycles:  325863226 heartbeat IPC: 0.60107 cumulative IPC: 0.65793 (Simulation time: 0 hr 11 min 55 sec) 
Heartbeat CPU  0 instructions:  280000000 cycles:  327535754 heartbeat IPC: 0.59790 cumulative IPC: 0.65756 (Simulation time: 0 hr 11 min 58 sec) 
Heartbeat CPU  0 instructions:  281000001 cycles:  328933455 heartbeat IPC: 0.71546 cumulative IPC: 0.65786 (Simulation time: 0 hr 12 min 0 sec) 
Heartbeat CPU  0 instructions:  282000003 cycles:  330289478 heartbeat IPC: 0.73745 cumulative IPC: 0.65825 (Simulation time: 0 hr 12 min 3 sec) 
Heartbeat CPU  0 instructions:  283000000 cycles:  331703441 heartbeat IPC: 0.70723 cumulative IPC: 0.65850 (Simulation time: 0 hr 12 min 6 sec) 
Heartbeat CPU  0 instructions:  284000000 cycles:  333113543 heartbeat IPC: 0.70917 cumulative IPC: 0.65875 (Simulation time: 0 hr 12 min 9 sec) 
Heartbeat CPU  0 instructions:  285000002 cycles:  334572709 heartbeat IPC: 0.68532 cumulative IPC: 0.65889 (Simulation time: 0 hr 12 min 11 sec) 
Heartbeat CPU  0 instructions:  286000002 cycles:  336025208 heartbeat IPC: 0.68847 cumulative IPC: 0.65904 (Simulation time: 0 hr 12 min 14 sec) 
Heartbeat CPU  0 instructions:  287000000 cycles:  337482950 heartbeat IPC: 0.68599 cumulative IPC: 0.65918 (Simulation time: 0 hr 12 min 17 sec) 
Heartbeat CPU  0 instructions:  288000000 cycles:  338938011 heartbeat IPC: 0.68726 cumulative IPC: 0.65932 (Simulation time: 0 hr 12 min 20 sec) 
Heartbeat CPU  0 instructions:  289000003 cycles:  340402034 heartbeat IPC: 0.68305 cumulative IPC: 0.65945 (Simulation time: 0 hr 12 min 23 sec) 
Heartbeat CPU  0 instructions:  290000000 cycles:  341807398 heartbeat IPC: 0.71156 cumulative IPC: 0.65970 (Simulation time: 0 hr 12 min 25 sec) 
Heartbeat CPU  0 instructions:  291000000 cycles:  343204184 heartbeat IPC: 0.71593 cumulative IPC: 0.65997 (Simulation time: 0 hr 12 min 28 sec) 
Heartbeat CPU  0 instructions:  292000000 cycles:  344552780 heartbeat IPC: 0.74151 cumulative IPC: 0.66035 (Simulation time: 0 hr 12 min 31 sec) 
Heartbeat CPU  0 instructions:  293000000 cycles:  345882897 heartbeat IPC: 0.75181 cumulative IPC: 0.66077 (Simulation time: 0 hr 12 min 34 sec) 
Heartbeat CPU  0 instructions:  294000002 cycles:  347349715 heartbeat IPC: 0.68175 cumulative IPC: 0.66087 (Simulation time: 0 hr 12 min 36 sec) 
Heartbeat CPU  0 instructions:  295000002 cycles:  348810793 heartbeat IPC: 0.68443 cumulative IPC: 0.66099 (Simulation time: 0 hr 12 min 39 sec) 
Heartbeat CPU  0 instructions:  296000000 cycles:  350230270 heartbeat IPC: 0.70448 cumulative IPC: 0.66120 (Simulation time: 0 hr 12 min 42 sec) 
Heartbeat CPU  0 instructions:  297000001 cycles:  351677263 heartbeat IPC: 0.69109 cumulative IPC: 0.66134 (Simulation time: 0 hr 12 min 45 sec) 
Heartbeat CPU  0 instructions:  298000000 cycles:  353156170 heartbeat IPC: 0.67617 cumulative IPC: 0.66141 (Simulation time: 0 hr 12 min 48 sec) 
Heartbeat CPU  0 instructions:  299000003 cycles:  354586984 heartbeat IPC: 0.69890 cumulative IPC: 0.66159 (Simulation time: 0 hr 12 min 50 sec) 
Heartbeat CPU  0 instructions:  300000000 cycles:  356008565 heartbeat IPC: 0.70344 cumulative IPC: 0.66179 (Simulation time: 0 hr 12 min 53 sec) 
Heartbeat CPU  0 instructions:  301000002 cycles:  357432858 heartbeat IPC: 0.70210 cumulative IPC: 0.66198 (Simulation time: 0 hr 12 min 56 sec) 
Heartbeat CPU  0 instructions:  302000002 cycles:  358894312 heartbeat IPC: 0.68425 cumulative IPC: 0.66209 (Simulation time: 0 hr 12 min 59 sec) 
Heartbeat CPU  0 instructions:  303000001 cycles:  360345810 heartbeat IPC: 0.68894 cumulative IPC: 0.66221 (Simulation time: 0 hr 13 min 1 sec) 
Heartbeat CPU  0 instructions:  304000000 cycles:  361805754 heartbeat IPC: 0.68496 cumulative IPC: 0.66232 (Simulation time: 0 hr 13 min 4 sec) 
Heartbeat CPU  0 instructions:  305000000 cycles:  363271252 heartbeat IPC: 0.68236 cumulative IPC: 0.66242 (Simulation time: 0 hr 13 min 7 sec) 
Heartbeat CPU  0 instructions:  306000001 cycles:  364691532 heartbeat IPC: 0.70409 cumulative IPC: 0.66261 (Simulation time: 0 hr 13 min 10 sec) 
Heartbeat CPU  0 instructions:  307000003 cycles:  366135240 heartbeat IPC: 0.69266 cumulative IPC: 0.66274 (Simulation time: 0 hr 13 min 13 sec) 
Heartbeat CPU  0 instructions:  308000000 cycles:  367597003 heartbeat IPC: 0.68410 cumulative IPC: 0.66284 (Simulation time: 0 hr 13 min 15 sec) 
Heartbeat CPU  0 instructions:  309000000 cycles:  369028467 heartbeat IPC: 0.69859 cumulative IPC: 0.66301 (Simulation time: 0 hr 13 min 18 sec) 
Heartbeat CPU  0 instructions:  310000000 cycles:  370477907 heartbeat IPC: 0.68992 cumulative IPC: 0.66313 (Simulation time: 0 hr 13 min 21 sec) 
Heartbeat CPU  0 instructions:  311000001 cycles:  371918704 heartbeat IPC: 0.69406 cumulative IPC: 0.66327 (Simulation time: 0 hr 13 min 24 sec) 
Heartbeat CPU  0 instructions:  312000000 cycles:  373327131 heartbeat IPC: 0.71001 cumulative IPC: 0.66348 (Simulation time: 0 hr 13 min 27 sec) 
Heartbeat CPU  0 instructions:  313000000 cycles:  374749597 heartbeat IPC: 0.70300 cumulative IPC: 0.66365 (Simulation time: 0 hr 13 min 29 sec) 
Heartbeat CPU  0 instructions:  314000000 cycles:  376224757 heartbeat IPC: 0.67789 cumulative IPC: 0.66372 (Simulation time: 0 hr 13 min 32 sec) 
Heartbeat CPU  0 instructions:  315000000 cycles:  377700267 heartbeat IPC: 0.67773 cumulative IPC: 0.66378 (Simulation time: 0 hr 13 min 35 sec) 
Heartbeat CPU  0 instructions:  316000000 cycles:  379146555 heartbeat IPC: 0.69143 cumulative IPC: 0.66390 (Simulation time: 0 hr 13 min 38 sec) 
Heartbeat CPU  0 instructions:  317000001 cycles:  380619102 heartbeat IPC: 0.67910 cumulative IPC: 0.66397 (Simulation time: 0 hr 13 min 41 sec) 
Heartbeat CPU  0 instructions:  318000001 cycles:  382093123 heartbeat IPC: 0.67842 cumulative IPC: 0.66404 (Simulation time: 0 hr 13 min 43 sec) 
Heartbeat CPU  0 instructions:  319000002 cycles:  383552494 heartbeat IPC: 0.68523 cumulative IPC: 0.66413 (Simulation time: 0 hr 13 min 46 sec) 
Heartbeat CPU  0 instructions:  320000000 cycles:  385023302 heartbeat IPC: 0.67990 cumulative IPC: 0.66420 (Simulation time: 0 hr 13 min 49 sec) 
Heartbeat CPU  0 instructions:  321000000 cycles:  386496033 heartbeat IPC: 0.67901 cumulative IPC: 0.66427 (Simulation time: 0 hr 13 min 52 sec) 
Heartbeat CPU  0 instructions:  322000003 cycles:  387973432 heartbeat IPC: 0.67687 cumulative IPC: 0.66432 (Simulation time: 0 hr 13 min 55 sec) 
Heartbeat CPU  0 instructions:  323000000 cycles:  389419527 heartbeat IPC: 0.69152 cumulative IPC: 0.66444 (Simulation time: 0 hr 13 min 57 sec) 
Heartbeat CPU  0 instructions:  324000000 cycles:  390860325 heartbeat IPC: 0.69406 cumulative IPC: 0.66456 (Simulation time: 0 hr 14 min 0 sec) 
Heartbeat CPU  0 instructions:  325000001 cycles:  392316542 heartbeat IPC: 0.68671 cumulative IPC: 0.66466 (Simulation time: 0 hr 14 min 3 sec) 
Heartbeat CPU  0 instructions:  326000000 cycles:  393770341 heartbeat IPC: 0.68785 cumulative IPC: 0.66476 (Simulation time: 0 hr 14 min 6 sec) 
Heartbeat CPU  0 instructions:  327000001 cycles:  395230805 heartbeat IPC: 0.68471 cumulative IPC: 0.66484 (Simulation time: 0 hr 14 min 8 sec) 
Heartbeat CPU  0 instructions:  328000000 cycles:  396682187 heartbeat IPC: 0.68900 cumulative IPC: 0.66495 (Simulation time: 0 hr 14 min 11 sec) 
Heartbeat CPU  0 instructions:  329000001 cycles:  398147944 heartbeat IPC: 0.68224 cumulative IPC: 0.66502 (Simulation time: 0 hr 14 min 14 sec) 
Heartbeat CPU  0 instructions:  330000000 cycles:  400150938 heartbeat IPC: 0.49925 cumulative IPC: 0.66406 (Simulation time: 0 hr 14 min 17 sec) 
Heartbeat CPU  0 instructions:  331000000 cycles:  402693854 heartbeat IPC: 0.39325 cumulative IPC: 0.66209 (Simulation time: 0 hr 14 min 20 sec) 
Heartbeat CPU  0 instructions:  332000000 cycles:  405225550 heartbeat IPC: 0.39499 cumulative IPC: 0.66016 (Simulation time: 0 hr 14 min 23 sec) 
Heartbeat CPU  0 instructions:  333000001 cycles:  407751212 heartbeat IPC: 0.39594 cumulative IPC: 0.65828 (Simulation time: 0 hr 14 min 27 sec) 
Heartbeat CPU  0 instructions:  334000002 cycles:  410283191 heartbeat IPC: 0.39495 cumulative IPC: 0.65641 (Simulation time: 0 hr 14 min 30 sec) 
Heartbeat CPU  0 instructions:  335000002 cycles:  412803151 heartbeat IPC: 0.39683 cumulative IPC: 0.65459 (Simulation time: 0 hr 14 min 33 sec) 
Heartbeat CPU  0 instructions:  336000000 cycles:  415321785 heartbeat IPC: 0.39704 cumulative IPC: 0.65279 (Simulation time: 0 hr 14 min 36 sec) 
Heartbeat CPU  0 instructions:  337000003 cycles:  417842820 heartbeat IPC: 0.39666 cumulative IPC: 0.65102 (Simulation time: 0 hr 14 min 39 sec) 
Heartbeat CPU  0 instructions:  338000000 cycles:  420367716 heartbeat IPC: 0.39605 cumulative IPC: 0.64926 (Simulation time: 0 hr 14 min 42 sec) 
Heartbeat CPU  0 instructions:  339000001 cycles:  422840610 heartbeat IPC: 0.40438 cumulative IPC: 0.64762 (Simulation time: 0 hr 14 min 45 sec) 
Heartbeat CPU  0 instructions:  340000000 cycles:  425286277 heartbeat IPC: 0.40889 cumulative IPC: 0.64605 (Simulation time: 0 hr 14 min 48 sec) 
Heartbeat CPU  0 instructions:  341000000 cycles:  427714370 heartbeat IPC: 0.41185 cumulative IPC: 0.64453 (Simulation time: 0 hr 14 min 51 sec) 
Heartbeat CPU  0 instructions:  342000000 cycles:  430181374 heartbeat IPC: 0.40535 cumulative IPC: 0.64296 (Simulation time: 0 hr 14 min 54 sec) 
Heartbeat CPU  0 instructions:  343000000 cycles:  432649431 heartbeat IPC: 0.40518 cumulative IPC: 0.64141 (Simulation time: 0 hr 14 min 57 sec) 
Heartbeat CPU  0 instructions:  344000000 cycles:  435117685 heartbeat IPC: 0.40514 cumulative IPC: 0.63988 (Simulation time: 0 hr 15 min 0 sec) 
Heartbeat CPU  0 instructions:  345000000 cycles:  437587302 heartbeat IPC: 0.40492 cumulative IPC: 0.63837 (Simulation time: 0 hr 15 min 3 sec) 
Heartbeat CPU  0 instructions:  346000003 cycles:  440056743 heartbeat IPC: 0.40495 cumulative IPC: 0.63688 (Simulation time: 0 hr 15 min 6 sec) 
Heartbeat CPU  0 instructions:  347000002 cycles:  442525451 heartbeat IPC: 0.40507 cumulative IPC: 0.63541 (Simulation time: 0 hr 15 min 9 sec) 
Heartbeat CPU  0 instructions:  348000000 cycles:  445036534 heartbeat IPC: 0.39823 cumulative IPC: 0.63388 (Simulation time: 0 hr 15 min 13 sec) 
Heartbeat CPU  0 instructions:  349000000 cycles:  447534734 heartbeat IPC: 0.40029 cumulative IPC: 0.63240 (Simulation time: 0 hr 15 min 16 sec) 
Heartbeat CPU  0 instructions:  350000003 cycles:  450019600 heartbeat IPC: 0.40244 cumulative IPC: 0.63096 (Simulation time: 0 hr 15 min 19 sec) 
Heartbeat CPU  0 instructions:  351000003 cycles:  452547453 heartbeat IPC: 0.39559 cumulative IPC: 0.62947 (Simulation time: 0 hr 15 min 22 sec) 
Heartbeat CPU  0 instructions:  352000000 cycles:  455064922 heartbeat IPC: 0.39722 cumulative IPC: 0.62801 (Simulation time: 0 hr 15 min 25 sec) 
Heartbeat CPU  0 instructions:  353000000 cycles:  457582078 heartbeat IPC: 0.39727 cumulative IPC: 0.62657 (Simulation time: 0 hr 15 min 28 sec) 
Heartbeat CPU  0 instructions:  354000000 cycles:  460101235 heartbeat IPC: 0.39696 cumulative IPC: 0.62515 (Simulation time: 0 hr 15 min 31 sec) 
Heartbeat CPU  0 instructions:  355000001 cycles:  462623676 heartbeat IPC: 0.39644 cumulative IPC: 0.62374 (Simulation time: 0 hr 15 min 34 sec) 
Heartbeat CPU  0 instructions:  356000000 cycles:  465028755 heartbeat IPC: 0.41579 cumulative IPC: 0.62252 (Simulation time: 0 hr 15 min 37 sec) 
Heartbeat CPU  0 instructions:  357000003 cycles:  467165010 heartbeat IPC: 0.46811 cumulative IPC: 0.62172 (Simulation time: 0 hr 15 min 41 sec) 
Heartbeat CPU  0 instructions:  358000000 cycles:  469330540 heartbeat IPC: 0.46178 cumulative IPC: 0.62089 (Simulation time: 0 hr 15 min 44 sec) 
Heartbeat CPU  0 instructions:  359000002 cycles:  471483344 heartbeat IPC: 0.46451 cumulative IPC: 0.62008 (Simulation time: 0 hr 15 min 48 sec) 
Heartbeat CPU  0 instructions:  360000000 cycles:  473558945 heartbeat IPC: 0.48179 cumulative IPC: 0.61940 (Simulation time: 0 hr 15 min 51 sec) 
Heartbeat CPU  0 instructions:  361000000 cycles:  475602512 heartbeat IPC: 0.48934 cumulative IPC: 0.61877 (Simulation time: 0 hr 15 min 55 sec) 
Heartbeat CPU  0 instructions:  362000000 cycles:  477637135 heartbeat IPC: 0.49149 cumulative IPC: 0.61816 (Simulation time: 0 hr 15 min 58 sec) 
Heartbeat CPU  0 instructions:  363000000 cycles:  479673641 heartbeat IPC: 0.49104 cumulative IPC: 0.61755 (Simulation time: 0 hr 16 min 1 sec) 
Heartbeat CPU  0 instructions:  364000000 cycles:  481722434 heartbeat IPC: 0.48809 cumulative IPC: 0.61693 (Simulation time: 0 hr 16 min 4 sec) 
Heartbeat CPU  0 instructions:  365000002 cycles:  483758389 heartbeat IPC: 0.49117 cumulative IPC: 0.61634 (Simulation time: 0 hr 16 min 8 sec) 
Heartbeat CPU  0 instructions:  366000001 cycles:  485792465 heartbeat IPC: 0.49162 cumulative IPC: 0.61575 (Simulation time: 0 hr 16 min 11 sec) 
Heartbeat CPU  0 instructions:  367000001 cycles:  487826417 heartbeat IPC: 0.49165 cumulative IPC: 0.61517 (Simulation time: 0 hr 16 min 14 sec) 
Heartbeat CPU  0 instructions:  368000000 cycles:  489868368 heartbeat IPC: 0.48973 cumulative IPC: 0.61458 (Simulation time: 0 hr 16 min 18 sec) 
Heartbeat CPU  0 instructions:  369000001 cycles:  491898535 heartbeat IPC: 0.49257 cumulative IPC: 0.61401 (Simulation time: 0 hr 16 min 21 sec) 
Heartbeat CPU  0 instructions:  370000002 cycles:  493954213 heartbeat IPC: 0.48646 cumulative IPC: 0.61342 (Simulation time: 0 hr 16 min 24 sec) 
Heartbeat CPU  0 instructions:  371000002 cycles:  495982386 heartbeat IPC: 0.49305 cumulative IPC: 0.61287 (Simulation time: 0 hr 16 min 28 sec) 
Heartbeat CPU  0 instructions:  372000000 cycles:  498012112 heartbeat IPC: 0.49268 cumulative IPC: 0.61232 (Simulation time: 0 hr 16 min 31 sec) 
Heartbeat CPU  0 instructions:  373000000 cycles:  500043703 heartbeat IPC: 0.49223 cumulative IPC: 0.61177 (Simulation time: 0 hr 16 min 34 sec) 
Heartbeat CPU  0 instructions:  374000003 cycles:  502061647 heartbeat IPC: 0.49556 cumulative IPC: 0.61125 (Simulation time: 0 hr 16 min 38 sec) 
Heartbeat CPU  0 instructions:  375000002 cycles:  504097903 heartbeat IPC: 0.49110 cumulative IPC: 0.61070 (Simulation time: 0 hr 16 min 41 sec) 
Heartbeat CPU  0 instructions:  376000000 cycles:  506128031 heartbeat IPC: 0.49258 cumulative IPC: 0.61017 (Simulation time: 0 hr 16 min 44 sec) 
Heartbeat CPU  0 instructions:  377000001 cycles:  508187568 heartbeat IPC: 0.48555 cumulative IPC: 0.60961 (Simulation time: 0 hr 16 min 48 sec) 
Heartbeat CPU  0 instructions:  378000000 cycles:  510235326 heartbeat IPC: 0.48834 cumulative IPC: 0.60906 (Simulation time: 0 hr 16 min 52 sec) 
Heartbeat CPU  0 instructions:  379000001 cycles:  512300819 heartbeat IPC: 0.48415 cumulative IPC: 0.60850 (Simulation time: 0 hr 16 min 55 sec) 
Heartbeat CPU  0 instructions:  380000000 cycles:  514359250 heartbeat IPC: 0.48581 cumulative IPC: 0.60795 (Simulation time: 0 hr 16 min 58 sec) 
Heartbeat CPU  0 instructions:  381000001 cycles:  516425887 heartbeat IPC: 0.48388 cumulative IPC: 0.60740 (Simulation time: 0 hr 17 min 1 sec) 
Heartbeat CPU  0 instructions:  382000000 cycles:  518493299 heartbeat IPC: 0.48370 cumulative IPC: 0.60685 (Simulation time: 0 hr 17 min 5 sec) 
Heartbeat CPU  0 instructions:  383000000 cycles:  520570965 heartbeat IPC: 0.48131 cumulative IPC: 0.60629 (Simulation time: 0 hr 17 min 8 sec) 
Heartbeat CPU  0 instructions:  384000000 cycles:  522640239 heartbeat IPC: 0.48326 cumulative IPC: 0.60575 (Simulation time: 0 hr 17 min 11 sec) 
Heartbeat CPU  0 instructions:  385000001 cycles:  524731236 heartbeat IPC: 0.47824 cumulative IPC: 0.60518 (Simulation time: 0 hr 17 min 15 sec) 
Heartbeat CPU  0 instructions:  386000001 cycles:  526818173 heartbeat IPC: 0.47917 cumulative IPC: 0.60462 (Simulation time: 0 hr 17 min 18 sec) 
Heartbeat CPU  0 instructions:  387000000 cycles:  528919247 heartbeat IPC: 0.47595 cumulative IPC: 0.60406 (Simulation time: 0 hr 17 min 21 sec) 
Heartbeat CPU  0 instructions:  388000000 cycles:  530995198 heartbeat IPC: 0.48171 cumulative IPC: 0.60352 (Simulation time: 0 hr 17 min 25 sec) 
Heartbeat CPU  0 instructions:  389000002 cycles:  533074869 heartbeat IPC: 0.48085 cumulative IPC: 0.60299 (Simulation time: 0 hr 17 min 28 sec) 
Heartbeat CPU  0 instructions:  390000002 cycles:  535153146 heartbeat IPC: 0.48117 cumulative IPC: 0.60247 (Simulation time: 0 hr 17 min 31 sec) 
Heartbeat CPU  0 instructions:  391000001 cycles:  537233674 heartbeat IPC: 0.48065 cumulative IPC: 0.60194 (Simulation time: 0 hr 17 min 35 sec) 
Heartbeat CPU  0 instructions:  392000000 cycles:  539311532 heartbeat IPC: 0.48126 cumulative IPC: 0.60142 (Simulation time: 0 hr 17 min 38 sec) 
Heartbeat CPU  0 instructions:  393000003 cycles:  541378295 heartbeat IPC: 0.48385 cumulative IPC: 0.60093 (Simulation time: 0 hr 17 min 41 sec) 
Heartbeat CPU  0 instructions:  394000002 cycles:  543191175 heartbeat IPC: 0.55161 cumulative IPC: 0.60074 (Simulation time: 0 hr 17 min 44 sec) 
Heartbeat CPU  0 instructions:  395000001 cycles:  544902907 heartbeat IPC: 0.58420 cumulative IPC: 0.60069 (Simulation time: 0 hr 17 min 47 sec) 
Heartbeat CPU  0 instructions:  396000000 cycles:  546591317 heartbeat IPC: 0.59227 cumulative IPC: 0.60066 (Simulation time: 0 hr 17 min 50 sec) 
Heartbeat CPU  0 instructions:  397000000 cycles:  548289123 heartbeat IPC: 0.58900 cumulative IPC: 0.60062 (Simulation time: 0 hr 17 min 53 sec) 
Heartbeat CPU  0 instructions:  398000001 cycles:  549978844 heartbeat IPC: 0.59181 cumulative IPC: 0.60059 (Simulation time: 0 hr 17 min 56 sec) 
Heartbeat CPU  0 instructions:  399000001 cycles:  551638362 heartbeat IPC: 0.60258 cumulative IPC: 0.60059 (Simulation time: 0 hr 17 min 59 sec) 
Heartbeat CPU  0 instructions:  400000000 cycles:  553274367 heartbeat IPC: 0.61124 cumulative IPC: 0.60063 (Simulation time: 0 hr 18 min 2 sec) 
Heartbeat CPU  0 instructions:  401000001 cycles:  554921216 heartbeat IPC: 0.60722 cumulative IPC: 0.60065 (Simulation time: 0 hr 18 min 5 sec) 
Heartbeat CPU  0 instructions:  402000000 cycles:  556585855 heartbeat IPC: 0.60073 cumulative IPC: 0.60065 (Simulation time: 0 hr 18 min 8 sec) 
Heartbeat CPU  0 instructions:  403000003 cycles:  558173980 heartbeat IPC: 0.62968 cumulative IPC: 0.60074 (Simulation time: 0 hr 18 min 10 sec) 
Heartbeat CPU  0 instructions:  404000000 cycles:  559791836 heartbeat IPC: 0.61810 cumulative IPC: 0.60080 (Simulation time: 0 hr 18 min 13 sec) 
Heartbeat CPU  0 instructions:  405000002 cycles:  561346537 heartbeat IPC: 0.64321 cumulative IPC: 0.60093 (Simulation time: 0 hr 18 min 16 sec) 
Heartbeat CPU  0 instructions:  406000002 cycles:  562900039 heartbeat IPC: 0.64371 cumulative IPC: 0.60106 (Simulation time: 0 hr 18 min 19 sec) 
Heartbeat CPU  0 instructions:  407000003 cycles:  564366860 heartbeat IPC: 0.68175 cumulative IPC: 0.60129 (Simulation time: 0 hr 18 min 22 sec) 
Heartbeat CPU  0 instructions:  408000000 cycles:  565703098 heartbeat IPC: 0.74837 cumulative IPC: 0.60167 (Simulation time: 0 hr 18 min 24 sec) 
Heartbeat CPU  0 instructions:  409000003 cycles:  567045517 heartbeat IPC: 0.74493 cumulative IPC: 0.60205 (Simulation time: 0 hr 18 min 27 sec) 
Heartbeat CPU  0 instructions:  410000002 cycles:  568579816 heartbeat IPC: 0.65176 cumulative IPC: 0.60220 (Simulation time: 0 hr 18 min 30 sec) 
Heartbeat CPU  0 instructions:  411000002 cycles:  570156326 heartbeat IPC: 0.63431 cumulative IPC: 0.60229 (Simulation time: 0 hr 18 min 33 sec) 
Heartbeat CPU  0 instructions:  412000000 cycles:  571731535 heartbeat IPC: 0.63484 cumulative IPC: 0.60239 (Simulation time: 0 hr 18 min 36 sec) 
Heartbeat CPU  0 instructions:  413000000 cycles:  573141000 heartbeat IPC: 0.70949 cumulative IPC: 0.60268 (Simulation time: 0 hr 18 min 38 sec) 
Heartbeat CPU  0 instructions:  414000002 cycles:  574564891 heartbeat IPC: 0.70230 cumulative IPC: 0.60296 (Simulation time: 0 hr 18 min 41 sec) 
Heartbeat CPU  0 instructions:  415000002 cycles:  576194458 heartbeat IPC: 0.61366 cumulative IPC: 0.60299 (Simulation time: 0 hr 18 min 44 sec) 
Heartbeat CPU  0 instructions:  416000000 cycles:  577762680 heartbeat IPC: 0.63766 cumulative IPC: 0.60309 (Simulation time: 0 hr 18 min 47 sec) 
Heartbeat CPU  0 instructions:  417000000 cycles:  579334570 heartbeat IPC: 0.63618 cumulative IPC: 0.60319 (Simulation time: 0 hr 18 min 49 sec) 
Heartbeat CPU  0 instructions:  418000002 cycles:  580759490 heartbeat IPC: 0.70180 cumulative IPC: 0.60346 (Simulation time: 0 hr 18 min 52 sec) 
Heartbeat CPU  0 instructions:  419000002 cycles:  582162330 heartbeat IPC: 0.71284 cumulative IPC: 0.60375 (Simulation time: 0 hr 18 min 55 sec) 
Heartbeat CPU  0 instructions:  420000000 cycles:  583675436 heartbeat IPC: 0.66089 cumulative IPC: 0.60391 (Simulation time: 0 hr 18 min 58 sec) 
Heartbeat CPU  0 instructions:  421000000 cycles:  585240696 heartbeat IPC: 0.63887 cumulative IPC: 0.60402 (Simulation time: 0 hr 19 min 1 sec) 
Heartbeat CPU  0 instructions:  422000001 cycles:  586795335 heartbeat IPC: 0.64324 cumulative IPC: 0.60413 (Simulation time: 0 hr 19 min 3 sec) 
Heartbeat CPU  0 instructions:  423000002 cycles:  588350295 heartbeat IPC: 0.64310 cumulative IPC: 0.60424 (Simulation time: 0 hr 19 min 6 sec) 
Heartbeat CPU  0 instructions:  424000000 cycles:  589868028 heartbeat IPC: 0.65888 cumulative IPC: 0.60440 (Simulation time: 0 hr 19 min 9 sec) 
Heartbeat CPU  0 instructions:  425000003 cycles:  591570936 heartbeat IPC: 0.58723 cumulative IPC: 0.60434 (Simulation time: 0 hr 19 min 12 sec) 
Heartbeat CPU  0 instructions:  426000003 cycles:  593166066 heartbeat IPC: 0.62691 cumulative IPC: 0.60441 (Simulation time: 0 hr 19 min 15 sec) 
Heartbeat CPU  0 instructions:  427000000 cycles:  594727700 heartbeat IPC: 0.64035 cumulative IPC: 0.60451 (Simulation time: 0 hr 19 min 17 sec) 
Heartbeat CPU  0 instructions:  428000000 cycles:  596260830 heartbeat IPC: 0.65226 cumulative IPC: 0.60465 (Simulation time: 0 hr 19 min 20 sec) 
Heartbeat CPU  0 instructions:  429000001 cycles:  597754592 heartbeat IPC: 0.66945 cumulative IPC: 0.60483 (Simulation time: 0 hr 19 min 23 sec) 
Heartbeat CPU  0 instructions:  430000003 cycles:  599258555 heartbeat IPC: 0.66491 cumulative IPC: 0.60499 (Simulation time: 0 hr 19 min 26 sec) 
Heartbeat CPU  0 instructions:  431000002 cycles:  600792204 heartbeat IPC: 0.65204 cumulative IPC: 0.60512 (Simulation time: 0 hr 19 min 29 sec) 
Heartbeat CPU  0 instructions:  432000000 cycles:  602368847 heartbeat IPC: 0.63426 cumulative IPC: 0.60521 (Simulation time: 0 hr 19 min 31 sec) 
Heartbeat CPU  0 instructions:  433000003 cycles:  603946178 heartbeat IPC: 0.63398 cumulative IPC: 0.60529 (Simulation time: 0 hr 19 min 34 sec) 
Heartbeat CPU  0 instructions:  434000001 cycles:  605386957 heartbeat IPC: 0.69407 cumulative IPC: 0.60552 (Simulation time: 0 hr 19 min 37 sec) 
Heartbeat CPU  0 instructions:  435000003 cycles:  607106052 heartbeat IPC: 0.58170 cumulative IPC: 0.60545 (Simulation time: 0 hr 19 min 40 sec) 
Heartbeat CPU  0 instructions:  436000000 cycles:  608772241 heartbeat IPC: 0.60017 cumulative IPC: 0.60543 (Simulation time: 0 hr 19 min 42 sec) 
Heartbeat CPU  0 instructions:  437000001 cycles:  610359917 heartbeat IPC: 0.62985 cumulative IPC: 0.60550 (Simulation time: 0 hr 19 min 45 sec) 
Heartbeat CPU  0 instructions:  438000000 cycles:  611917620 heartbeat IPC: 0.64197 cumulative IPC: 0.60560 (Simulation time: 0 hr 19 min 48 sec) 
Heartbeat CPU  0 instructions:  439000003 cycles:  613445703 heartbeat IPC: 0.65442 cumulative IPC: 0.60574 (Simulation time: 0 hr 19 min 51 sec) 
Heartbeat CPU  0 instructions:  440000000 cycles:  614989771 heartbeat IPC: 0.64764 cumulative IPC: 0.60585 (Simulation time: 0 hr 19 min 54 sec) 
Heartbeat CPU  0 instructions:  441000001 cycles:  616544707 heartbeat IPC: 0.64311 cumulative IPC: 0.60596 (Simulation time: 0 hr 19 min 56 sec) 
Heartbeat CPU  0 instructions:  442000000 cycles:  618109730 heartbeat IPC: 0.63897 cumulative IPC: 0.60605 (Simulation time: 0 hr 19 min 59 sec) 
Heartbeat CPU  0 instructions:  443000003 cycles:  619681150 heartbeat IPC: 0.63637 cumulative IPC: 0.60613 (Simulation time: 0 hr 20 min 2 sec) 
Heartbeat CPU  0 instructions:  444000000 cycles:  621195540 heartbeat IPC: 0.66033 cumulative IPC: 0.60628 (Simulation time: 0 hr 20 min 5 sec) 
Heartbeat CPU  0 instructions:  445000000 cycles:  622785449 heartbeat IPC: 0.62897 cumulative IPC: 0.60634 (Simulation time: 0 hr 20 min 8 sec) 
Heartbeat CPU  0 instructions:  446000000 cycles:  624495079 heartbeat IPC: 0.58492 cumulative IPC: 0.60628 (Simulation time: 0 hr 20 min 10 sec) 
Heartbeat CPU  0 instructions:  447000001 cycles:  626098668 heartbeat IPC: 0.62360 cumulative IPC: 0.60632 (Simulation time: 0 hr 20 min 13 sec) 
Heartbeat CPU  0 instructions:  448000000 cycles:  627675603 heartbeat IPC: 0.63414 cumulative IPC: 0.60640 (Simulation time: 0 hr 20 min 16 sec) 
Heartbeat CPU  0 instructions:  449000001 cycles:  629253386 heartbeat IPC: 0.63380 cumulative IPC: 0.60648 (Simulation time: 0 hr 20 min 19 sec) 
Heartbeat CPU  0 instructions:  450000000 cycles:  630821220 heartbeat IPC: 0.63782 cumulative IPC: 0.60656 (Simulation time: 0 hr 20 min 22 sec) 
Heartbeat CPU  0 instructions:  451000000 cycles:  632408101 heartbeat IPC: 0.63017 cumulative IPC: 0.60663 (Simulation time: 0 hr 20 min 24 sec) 
Heartbeat CPU  0 instructions:  452000000 cycles:  633979980 heartbeat IPC: 0.63618 cumulative IPC: 0.60671 (Simulation time: 0 hr 20 min 27 sec) 
Heartbeat CPU  0 instructions:  453000002 cycles:  635544716 heartbeat IPC: 0.63909 cumulative IPC: 0.60679 (Simulation time: 0 hr 20 min 30 sec) 
Heartbeat CPU  0 instructions:  454000000 cycles:  637121594 heartbeat IPC: 0.63416 cumulative IPC: 0.60687 (Simulation time: 0 hr 20 min 33 sec) 
Heartbeat CPU  0 instructions:  455000002 cycles:  638578439 heartbeat IPC: 0.68642 cumulative IPC: 0.60707 (Simulation time: 0 hr 20 min 36 sec) 
Heartbeat CPU  0 instructions:  456000000 cycles:  640299123 heartbeat IPC: 0.58116 cumulative IPC: 0.60699 (Simulation time: 0 hr 20 min 38 sec) 
Heartbeat CPU  0 instructions:  457000002 cycles:  641930668 heartbeat IPC: 0.61292 cumulative IPC: 0.60701 (Simulation time: 0 hr 20 min 41 sec) 
Heartbeat CPU  0 instructions:  458000000 cycles:  643499406 heartbeat IPC: 0.63745 cumulative IPC: 0.60709 (Simulation time: 0 hr 20 min 44 sec) 
Heartbeat CPU  0 instructions:  459000000 cycles:  645079508 heartbeat IPC: 0.63287 cumulative IPC: 0.60716 (Simulation time: 0 hr 20 min 47 sec) 
Heartbeat CPU  0 instructions:  460000000 cycles:  646651364 heartbeat IPC: 0.63619 cumulative IPC: 0.60723 (Simulation time: 0 hr 20 min 50 sec) 
Heartbeat CPU  0 instructions:  461000000 cycles:  648224151 heartbeat IPC: 0.63581 cumulative IPC: 0.60731 (Simulation time: 0 hr 20 min 53 sec) 
Heartbeat CPU  0 instructions:  462000000 cycles:  649789680 heartbeat IPC: 0.63876 cumulative IPC: 0.60739 (Simulation time: 0 hr 20 min 55 sec) 
Heartbeat CPU  0 instructions:  463000003 cycles:  651367165 heartbeat IPC: 0.63392 cumulative IPC: 0.60746 (Simulation time: 0 hr 20 min 58 sec) 
Heartbeat CPU  0 instructions:  464000000 cycles:  652939943 heartbeat IPC: 0.63582 cumulative IPC: 0.60754 (Simulation time: 0 hr 21 min 1 sec) 
Heartbeat CPU  0 instructions:  465000001 cycles:  654414035 heartbeat IPC: 0.67838 cumulative IPC: 0.60771 (Simulation time: 0 hr 21 min 4 sec) 
Heartbeat CPU  0 instructions:  466000001 cycles:  656024472 heartbeat IPC: 0.62095 cumulative IPC: 0.60774 (Simulation time: 0 hr 21 min 6 sec) 
Heartbeat CPU  0 instructions:  467000001 cycles:  657705589 heartbeat IPC: 0.59484 cumulative IPC: 0.60771 (Simulation time: 0 hr 21 min 9 sec) 
Heartbeat CPU  0 instructions:  468000000 cycles:  659303105 heartbeat IPC: 0.62597 cumulative IPC: 0.60776 (Simulation time: 0 hr 21 min 12 sec) 
Heartbeat CPU  0 instructions:  469000002 cycles:  660878268 heartbeat IPC: 0.63486 cumulative IPC: 0.60783 (Simulation time: 0 hr 21 min 15 sec) 
Heartbeat CPU  0 instructions:  470000003 cycles:  662454901 heartbeat IPC: 0.63426 cumulative IPC: 0.60790 (Simulation time: 0 hr 21 min 18 sec) 
Heartbeat CPU  0 instructions:  471000001 cycles:  664022665 heartbeat IPC: 0.63785 cumulative IPC: 0.60797 (Simulation time: 0 hr 21 min 21 sec) 
Heartbeat CPU  0 instructions:  472000000 cycles:  665591568 heartbeat IPC: 0.63739 cumulative IPC: 0.60805 (Simulation time: 0 hr 21 min 24 sec) 
Heartbeat CPU  0 instructions:  473000000 cycles:  667158512 heartbeat IPC: 0.63818 cumulative IPC: 0.60812 (Simulation time: 0 hr 21 min 26 sec) 
Heartbeat CPU  0 instructions:  474000002 cycles:  668727548 heartbeat IPC: 0.63734 cumulative IPC: 0.60820 (Simulation time: 0 hr 21 min 29 sec) 
Heartbeat CPU  0 instructions:  475000000 cycles:  670297236 heartbeat IPC: 0.63707 cumulative IPC: 0.60827 (Simulation time: 0 hr 21 min 32 sec) 
Heartbeat CPU  0 instructions:  476000000 cycles:  671759395 heartbeat IPC: 0.68392 cumulative IPC: 0.60845 (Simulation time: 0 hr 21 min 35 sec) 
Heartbeat CPU  0 instructions:  477000003 cycles:  673456672 heartbeat IPC: 0.58918 cumulative IPC: 0.60840 (Simulation time: 0 hr 21 min 38 sec) 
Heartbeat CPU  0 instructions:  478000001 cycles:  675078680 heartbeat IPC: 0.61652 cumulative IPC: 0.60842 (Simulation time: 0 hr 21 min 40 sec) 
Heartbeat CPU  0 instructions:  479000000 cycles:  676671116 heartbeat IPC: 0.62797 cumulative IPC: 0.60847 (Simulation time: 0 hr 21 min 43 sec) 
Heartbeat CPU  0 instructions:  480000000 cycles:  678250844 heartbeat IPC: 0.63302 cumulative IPC: 0.60853 (Simulation time: 0 hr 21 min 46 sec) 
Heartbeat CPU  0 instructions:  481000001 cycles:  679826659 heartbeat IPC: 0.63459 cumulative IPC: 0.60860 (Simulation time: 0 hr 21 min 49 sec) 
Heartbeat CPU  0 instructions:  482000003 cycles:  681387708 heartbeat IPC: 0.64060 cumulative IPC: 0.60868 (Simulation time: 0 hr 21 min 52 sec) 
Heartbeat CPU  0 instructions:  483000002 cycles:  682963775 heartbeat IPC: 0.63449 cumulative IPC: 0.60874 (Simulation time: 0 hr 21 min 54 sec) 
Heartbeat CPU  0 instructions:  484000000 cycles:  684533636 heartbeat IPC: 0.63700 cumulative IPC: 0.60881 (Simulation time: 0 hr 21 min 57 sec) 
Heartbeat CPU  0 instructions:  485000001 cycles:  686107704 heartbeat IPC: 0.63530 cumulative IPC: 0.60888 (Simulation time: 0 hr 22 min 0 sec) 
Heartbeat CPU  0 instructions:  486000000 cycles:  687558514 heartbeat IPC: 0.68927 cumulative IPC: 0.60906 (Simulation time: 0 hr 22 min 3 sec) 
Heartbeat CPU  0 instructions:  487000002 cycles:  689191379 heartbeat IPC: 0.61242 cumulative IPC: 0.60907 (Simulation time: 0 hr 22 min 6 sec) 
Heartbeat CPU  0 instructions:  488000000 cycles:  690873882 heartbeat IPC: 0.59435 cumulative IPC: 0.60903 (Simulation time: 0 hr 22 min 8 sec) 
Heartbeat CPU  0 instructions:  489000000 cycles:  692466434 heartbeat IPC: 0.62792 cumulative IPC: 0.60908 (Simulation time: 0 hr 22 min 11 sec) 
Heartbeat CPU  0 instructions:  490000001 cycles:  694038851 heartbeat IPC: 0.63596 cumulative IPC: 0.60915 (Simulation time: 0 hr 22 min 14 sec) 
Heartbeat CPU  0 instructions:  491000001 cycles:  695596886 heartbeat IPC: 0.64183 cumulative IPC: 0.60922 (Simulation time: 0 hr 22 min 17 sec) 
Heartbeat CPU  0 instructions:  492000000 cycles:  697166543 heartbeat IPC: 0.63708 cumulative IPC: 0.60929 (Simulation time: 0 hr 22 min 20 sec) 
Heartbeat CPU  0 instructions:  493000000 cycles:  698731268 heartbeat IPC: 0.63909 cumulative IPC: 0.60937 (Simulation time: 0 hr 22 min 22 sec) 
Heartbeat CPU  0 instructions:  494000003 cycles:  700316319 heartbeat IPC: 0.63090 cumulative IPC: 0.60942 (Simulation time: 0 hr 22 min 25 sec) 
Heartbeat CPU  0 instructions:  495000001 cycles:  701879985 heartbeat IPC: 0.63952 cumulative IPC: 0.60949 (Simulation time: 0 hr 22 min 28 sec) 
Heartbeat CPU  0 instructions:  496000000 cycles:  703462949 heartbeat IPC: 0.63173 cumulative IPC: 0.60954 (Simulation time: 0 hr 22 min 31 sec) 
Heartbeat CPU  0 instructions:  497000003 cycles:  704932025 heartbeat IPC: 0.68070 cumulative IPC: 0.60971 (Simulation time: 0 hr 22 min 34 sec) 
Heartbeat CPU  0 instructions:  498000002 cycles:  706632963 heartbeat IPC: 0.58791 cumulative IPC: 0.60965 (Simulation time: 0 hr 22 min 36 sec) 
Heartbeat CPU  0 instructions:  499000001 cycles:  708231136 heartbeat IPC: 0.62571 cumulative IPC: 0.60969 (Simulation time: 0 hr 22 min 39 sec) 
Heartbeat CPU  0 instructions:  500000000 cycles:  709797403 heartbeat IPC: 0.63846 cumulative IPC: 0.60976 (Simulation time: 0 hr 22 min 42 sec) 
Heartbeat CPU  0 instructions:  501000003 cycles:  711365528 heartbeat IPC: 0.63771 cumulative IPC: 0.60982 (Simulation time: 0 hr 22 min 45 sec) 
Heartbeat CPU  0 instructions:  502000003 cycles:  712941220 heartbeat IPC: 0.63464 cumulative IPC: 0.60988 (Simulation time: 0 hr 22 min 48 sec) 
Heartbeat CPU  0 instructions:  503000002 cycles:  714505523 heartbeat IPC: 0.63926 cumulative IPC: 0.60995 (Simulation time: 0 hr 22 min 50 sec) 
Heartbeat CPU  0 instructions:  504000000 cycles:  716078262 heartbeat IPC: 0.63583 cumulative IPC: 0.61001 (Simulation time: 0 hr 22 min 53 sec) 
Heartbeat CPU  0 instructions:  505000000 cycles:  717643300 heartbeat IPC: 0.63896 cumulative IPC: 0.61008 (Simulation time: 0 hr 22 min 56 sec) 
Heartbeat CPU  0 instructions:  506000002 cycles:  719212189 heartbeat IPC: 0.63740 cumulative IPC: 0.61015 (Simulation time: 0 hr 22 min 59 sec) 
Heartbeat CPU  0 instructions:  507000001 cycles:  720655196 heartbeat IPC: 0.69300 cumulative IPC: 0.61033 (Simulation time: 0 hr 23 min 2 sec) 
Heartbeat CPU  0 instructions:  508000000 cycles:  722319297 heartbeat IPC: 0.60092 cumulative IPC: 0.61030 (Simulation time: 0 hr 23 min 4 sec) 
Heartbeat CPU  0 instructions:  509000002 cycles:  723967133 heartbeat IPC: 0.60686 cumulative IPC: 0.61029 (Simulation time: 0 hr 23 min 7 sec) 
Heartbeat CPU  0 instructions:  510000002 cycles:  725560907 heartbeat IPC: 0.62744 cumulative IPC: 0.61033 (Simulation time: 0 hr 23 min 10 sec) 
Heartbeat CPU  0 instructions:  511000002 cycles:  727138476 heartbeat IPC: 0.63389 cumulative IPC: 0.61039 (Simulation time: 0 hr 23 min 13 sec) 
Heartbeat CPU  0 instructions:  512000000 cycles:  728700442 heartbeat IPC: 0.64022 cumulative IPC: 0.61046 (Simulation time: 0 hr 23 min 16 sec) 
Heartbeat CPU  0 instructions:  513000002 cycles:  730264433 heartbeat IPC: 0.63939 cumulative IPC: 0.61053 (Simulation time: 0 hr 23 min 18 sec) 
Heartbeat CPU  0 instructions:  514000000 cycles:  731853074 heartbeat IPC: 0.62947 cumulative IPC: 0.61057 (Simulation time: 0 hr 23 min 21 sec) 
Heartbeat CPU  0 instructions:  515000000 cycles:  733435470 heartbeat IPC: 0.63195 cumulative IPC: 0.61062 (Simulation time: 0 hr 23 min 24 sec) 
Heartbeat CPU  0 instructions:  516000000 cycles:  734987175 heartbeat IPC: 0.64445 cumulative IPC: 0.61070 (Simulation time: 0 hr 23 min 27 sec) 
Heartbeat CPU  0 instructions:  517000002 cycles:  736528775 heartbeat IPC: 0.64868 cumulative IPC: 0.61078 (Simulation time: 0 hr 23 min 30 sec) 
Heartbeat CPU  0 instructions:  518000000 cycles:  738051590 heartbeat IPC: 0.65668 cumulative IPC: 0.61088 (Simulation time: 0 hr 23 min 32 sec) 
Heartbeat CPU  0 instructions:  519000001 cycles:  739783120 heartbeat IPC: 0.57752 cumulative IPC: 0.61080 (Simulation time: 0 hr 23 min 35 sec) 
Heartbeat CPU  0 instructions:  520000000 cycles:  741385507 heartbeat IPC: 0.62407 cumulative IPC: 0.61083 (Simulation time: 0 hr 23 min 38 sec) 
Heartbeat CPU  0 instructions:  521000000 cycles:  742963452 heartbeat IPC: 0.63374 cumulative IPC: 0.61088 (Simulation time: 0 hr 23 min 41 sec) 
Heartbeat CPU  0 instructions:  522000003 cycles:  744542110 heartbeat IPC: 0.63345 cumulative IPC: 0.61094 (Simulation time: 0 hr 23 min 44 sec) 
Heartbeat CPU  0 instructions:  523000001 cycles:  746118904 heartbeat IPC: 0.63420 cumulative IPC: 0.61099 (Simulation time: 0 hr 23 min 46 sec) 
Heartbeat CPU  0 instructions:  524000000 cycles:  747682337 heartbeat IPC: 0.63962 cumulative IPC: 0.61105 (Simulation time: 0 hr 23 min 49 sec) 
Heartbeat CPU  0 instructions:  525000002 cycles:  749243261 heartbeat IPC: 0.64065 cumulative IPC: 0.61112 (Simulation time: 0 hr 23 min 52 sec) 
Heartbeat CPU  0 instructions:  526000002 cycles:  750822191 heartbeat IPC: 0.63334 cumulative IPC: 0.61117 (Simulation time: 0 hr 23 min 55 sec) 
Heartbeat CPU  0 instructions:  527000000 cycles:  752393215 heartbeat IPC: 0.63653 cumulative IPC: 0.61123 (Simulation time: 0 hr 23 min 58 sec) 
Heartbeat CPU  0 instructions:  528000000 cycles:  753849068 heartbeat IPC: 0.68688 cumulative IPC: 0.61138 (Simulation time: 0 hr 24 min 0 sec) 
Heartbeat CPU  0 instructions:  529000003 cycles:  755557144 heartbeat IPC: 0.58546 cumulative IPC: 0.61132 (Simulation time: 0 hr 24 min 3 sec) 
Heartbeat CPU  0 instructions:  530000002 cycles:  757197845 heartbeat IPC: 0.60949 cumulative IPC: 0.61132 (Simulation time: 0 hr 24 min 6 sec) 
Heartbeat CPU  0 instructions:  531000002 cycles:  758786415 heartbeat IPC: 0.62950 cumulative IPC: 0.61136 (Simulation time: 0 hr 24 min 9 sec) 
Heartbeat CPU  0 instructions:  532000000 cycles:  760365721 heartbeat IPC: 0.63319 cumulative IPC: 0.61141 (Simulation time: 0 hr 24 min 12 sec) 
Heartbeat CPU  0 instructions:  533000001 cycles:  761932927 heartbeat IPC: 0.63808 cumulative IPC: 0.61147 (Simulation time: 0 hr 24 min 15 sec) 
Heartbeat CPU  0 instructions:  534000003 cycles:  763502483 heartbeat IPC: 0.63712 cumulative IPC: 0.61152 (Simulation time: 0 hr 24 min 18 sec) 
Heartbeat CPU  0 instructions:  535000000 cycles:  765069908 heartbeat IPC: 0.63799 cumulative IPC: 0.61158 (Simulation time: 0 hr 24 min 20 sec) 
Heartbeat CPU  0 instructions:  536000000 cycles:  766632356 heartbeat IPC: 0.64002 cumulative IPC: 0.61164 (Simulation time: 0 hr 24 min 23 sec) 
Heartbeat CPU  0 instructions:  537000002 cycles:  768197330 heartbeat IPC: 0.63899 cumulative IPC: 0.61170 (Simulation time: 0 hr 24 min 26 sec) 
Heartbeat CPU  0 instructions:  538000003 cycles:  769714140 heartbeat IPC: 0.65928 cumulative IPC: 0.61180 (Simulation time: 0 hr 24 min 29 sec) 
Heartbeat CPU  0 instructions:  539000001 cycles:  771297891 heartbeat IPC: 0.63141 cumulative IPC: 0.61185 (Simulation time: 0 hr 24 min 31 sec) 
Heartbeat CPU  0 instructions:  540000000 cycles:  773312769 heartbeat IPC: 0.49631 cumulative IPC: 0.61152 (Simulation time: 0 hr 24 min 35 sec) 
Heartbeat CPU  0 instructions:  541000002 cycles:  775277722 heartbeat IPC: 0.50892 cumulative IPC: 0.61124 (Simulation time: 0 hr 24 min 38 sec) 
Heartbeat CPU  0 instructions:  542000003 cycles:  776932704 heartbeat IPC: 0.60424 cumulative IPC: 0.61123 (Simulation time: 0 hr 24 min 40 sec) 
Heartbeat CPU  0 instructions:  543000002 cycles:  778585282 heartbeat IPC: 0.60511 cumulative IPC: 0.61121 (Simulation time: 0 hr 24 min 43 sec) 
Heartbeat CPU  0 instructions:  544000000 cycles:  780239273 heartbeat IPC: 0.60460 cumulative IPC: 0.61120 (Simulation time: 0 hr 24 min 46 sec) 
Heartbeat CPU  0 instructions:  545000000 cycles:  781893799 heartbeat IPC: 0.60440 cumulative IPC: 0.61118 (Simulation time: 0 hr 24 min 49 sec) 
Heartbeat CPU  0 instructions:  546000001 cycles:  783547811 heartbeat IPC: 0.60459 cumulative IPC: 0.61117 (Simulation time: 0 hr 24 min 52 sec) 
Heartbeat CPU  0 instructions:  547000002 cycles:  785208087 heartbeat IPC: 0.60231 cumulative IPC: 0.61115 (Simulation time: 0 hr 24 min 55 sec) 
Heartbeat CPU  0 instructions:  548000000 cycles:  786867853 heartbeat IPC: 0.60249 cumulative IPC: 0.61113 (Simulation time: 0 hr 24 min 58 sec) 
Heartbeat CPU  0 instructions:  549000003 cycles:  788524345 heartbeat IPC: 0.60369 cumulative IPC: 0.61111 (Simulation time: 0 hr 25 min 1 sec) 
Heartbeat CPU  0 instructions:  550000000 cycles:  790178319 heartbeat IPC: 0.60460 cumulative IPC: 0.61110 (Simulation time: 0 hr 25 min 3 sec) 
Heartbeat CPU  0 instructions:  551000002 cycles:  792572907 heartbeat IPC: 0.41761 cumulative IPC: 0.61047 (Simulation time: 0 hr 25 min 7 sec) 
Heartbeat CPU  0 instructions:  552000000 cycles:  794239976 heartbeat IPC: 0.59985 cumulative IPC: 0.61045 (Simulation time: 0 hr 25 min 9 sec) 
Heartbeat CPU  0 instructions:  553000000 cycles:  795893142 heartbeat IPC: 0.60490 cumulative IPC: 0.61043 (Simulation time: 0 hr 25 min 12 sec) 
Heartbeat CPU  0 instructions:  554000001 cycles:  797548255 heartbeat IPC: 0.60419 cumulative IPC: 0.61042 (Simulation time: 0 hr 25 min 15 sec) 
Heartbeat CPU  0 instructions:  555000001 cycles:  799202502 heartbeat IPC: 0.60450 cumulative IPC: 0.61041 (Simulation time: 0 hr 25 min 18 sec) 
Heartbeat CPU  0 instructions:  556000000 cycles:  800870000 heartbeat IPC: 0.59970 cumulative IPC: 0.61038 (Simulation time: 0 hr 25 min 21 sec) 
Heartbeat CPU  0 instructions:  557000001 cycles:  802556361 heartbeat IPC: 0.59299 cumulative IPC: 0.61034 (Simulation time: 0 hr 25 min 24 sec) 
Heartbeat CPU  0 instructions:  558000001 cycles:  804212097 heartbeat IPC: 0.60396 cumulative IPC: 0.61033 (Simulation time: 0 hr 25 min 27 sec) 
Heartbeat CPU  0 instructions:  559000000 cycles:  805856875 heartbeat IPC: 0.60798 cumulative IPC: 0.61032 (Simulation time: 0 hr 25 min 30 sec) 
Heartbeat CPU  0 instructions:  560000000 cycles:  807511903 heartbeat IPC: 0.60422 cumulative IPC: 0.61031 (Simulation time: 0 hr 25 min 32 sec) 
Heartbeat CPU  0 instructions:  561000000 cycles:  809669468 heartbeat IPC: 0.46349 cumulative IPC: 0.60989 (Simulation time: 0 hr 25 min 35 sec) 
Heartbeat CPU  0 instructions:  562000000 cycles:  811537483 heartbeat IPC: 0.53533 cumulative IPC: 0.60971 (Simulation time: 0 hr 25 min 38 sec) 
Heartbeat CPU  0 instructions:  563000003 cycles:  813222630 heartbeat IPC: 0.59342 cumulative IPC: 0.60967 (Simulation time: 0 hr 25 min 41 sec) 
Heartbeat CPU  0 instructions:  564000000 cycles:  815060411 heartbeat IPC: 0.54413 cumulative IPC: 0.60951 (Simulation time: 0 hr 25 min 44 sec) 
Heartbeat CPU  0 instructions:  565000000 cycles:  816725471 heartbeat IPC: 0.60058 cumulative IPC: 0.60949 (Simulation time: 0 hr 25 min 47 sec) 
Heartbeat CPU  0 instructions:  566000003 cycles:  818374727 heartbeat IPC: 0.60634 cumulative IPC: 0.60949 (Simulation time: 0 hr 25 min 50 sec) 
Heartbeat CPU  0 instructions:  567000001 cycles:  820029376 heartbeat IPC: 0.60436 cumulative IPC: 0.60948 (Simulation time: 0 hr 25 min 53 sec) 
Heartbeat CPU  0 instructions:  568000000 cycles:  821682814 heartbeat IPC: 0.60480 cumulative IPC: 0.60947 (Simulation time: 0 hr 25 min 56 sec) 
Heartbeat CPU  0 instructions:  569000000 cycles:  823337333 heartbeat IPC: 0.60441 cumulative IPC: 0.60946 (Simulation time: 0 hr 25 min 59 sec) 
Heartbeat CPU  0 instructions:  570000000 cycles:  824991854 heartbeat IPC: 0.60440 cumulative IPC: 0.60944 (Simulation time: 0 hr 26 min 1 sec) 
Heartbeat CPU  0 instructions:  571000000 cycles:  826766020 heartbeat IPC: 0.56365 cumulative IPC: 0.60934 (Simulation time: 0 hr 26 min 4 sec) 
Heartbeat CPU  0 instructions:  572000000 cycles:  829103317 heartbeat IPC: 0.42784 cumulative IPC: 0.60879 (Simulation time: 0 hr 26 min 8 sec) 
Heartbeat CPU  0 instructions:  573000002 cycles:  830765691 heartbeat IPC: 0.60155 cumulative IPC: 0.60878 (Simulation time: 0 hr 26 min 10 sec) 
Heartbeat CPU  0 instructions:  574000000 cycles:  832412265 heartbeat IPC: 0.60732 cumulative IPC: 0.60877 (Simulation time: 0 hr 26 min 13 sec) 
Heartbeat CPU  0 instructions:  575000003 cycles:  834066951 heartbeat IPC: 0.60435 cumulative IPC: 0.60876 (Simulation time: 0 hr 26 min 16 sec) 
Heartbeat CPU  0 instructions:  576000000 cycles:  835711836 heartbeat IPC: 0.60794 cumulative IPC: 0.60876 (Simulation time: 0 hr 26 min 19 sec) 
Heartbeat CPU  0 instructions:  577000002 cycles:  837367157 heartbeat IPC: 0.60411 cumulative IPC: 0.60875 (Simulation time: 0 hr 26 min 22 sec) 
Heartbeat CPU  0 instructions:  578000002 cycles:  839012743 heartbeat IPC: 0.60769 cumulative IPC: 0.60875 (Simulation time: 0 hr 26 min 25 sec) 
Heartbeat CPU  0 instructions:  579000001 cycles:  840666950 heartbeat IPC: 0.60452 cumulative IPC: 0.60874 (Simulation time: 0 hr 26 min 27 sec) 
Heartbeat CPU  0 instructions:  580000000 cycles:  842321797 heartbeat IPC: 0.60428 cumulative IPC: 0.60873 (Simulation time: 0 hr 26 min 30 sec) 
Heartbeat CPU  0 instructions:  581000000 cycles:  843977084 heartbeat IPC: 0.60412 cumulative IPC: 0.60872 (Simulation time: 0 hr 26 min 33 sec) 
Heartbeat CPU  0 instructions:  582000002 cycles:  846232747 heartbeat IPC: 0.44333 cumulative IPC: 0.60825 (Simulation time: 0 hr 26 min 36 sec) 
Heartbeat CPU  0 instructions:  583000000 cycles:  848008882 heartbeat IPC: 0.56302 cumulative IPC: 0.60815 (Simulation time: 0 hr 26 min 39 sec) 
Heartbeat CPU  0 instructions:  584000000 cycles:  849673343 heartbeat IPC: 0.60080 cumulative IPC: 0.60814 (Simulation time: 0 hr 26 min 42 sec) 
Heartbeat CPU  0 instructions:  585000001 cycles:  851333175 heartbeat IPC: 0.60247 cumulative IPC: 0.60812 (Simulation time: 0 hr 26 min 45 sec) 
Heartbeat CPU  0 instructions:  586000002 cycles:  852980465 heartbeat IPC: 0.60706 cumulative IPC: 0.60812 (Simulation time: 0 hr 26 min 48 sec) 
Heartbeat CPU  0 instructions:  587000002 cycles:  854635225 heartbeat IPC: 0.60432 cumulative IPC: 0.60811 (Simulation time: 0 hr 26 min 50 sec) 
Heartbeat CPU  0 instructions:  588000000 cycles:  856289094 heartbeat IPC: 0.60464 cumulative IPC: 0.60811 (Simulation time: 0 hr 26 min 53 sec) 
Heartbeat CPU  0 instructions:  589000002 cycles:  857943669 heartbeat IPC: 0.60439 cumulative IPC: 0.60810 (Simulation time: 0 hr 26 min 56 sec) 
Heartbeat CPU  0 instructions:  590000002 cycles:  859599002 heartbeat IPC: 0.60411 cumulative IPC: 0.60809 (Simulation time: 0 hr 26 min 59 sec) 
Heartbeat CPU  0 instructions:  591000001 cycles:  861427812 heartbeat IPC: 0.54680 cumulative IPC: 0.60795 (Simulation time: 0 hr 27 min 2 sec) 
Heartbeat CPU  0 instructions:  592000000 cycles:  863509388 heartbeat IPC: 0.48040 cumulative IPC: 0.60762 (Simulation time: 0 hr 27 min 5 sec) 
Heartbeat CPU  0 instructions:  593000003 cycles:  866085394 heartbeat IPC: 0.38820 cumulative IPC: 0.60693 (Simulation time: 0 hr 27 min 8 sec) 
Heartbeat CPU  0 instructions:  594000003 cycles:  868645015 heartbeat IPC: 0.39068 cumulative IPC: 0.60625 (Simulation time: 0 hr 27 min 11 sec) 
Heartbeat CPU  0 instructions:  595000000 cycles:  871197052 heartbeat IPC: 0.39184 cumulative IPC: 0.60558 (Simulation time: 0 hr 27 min 15 sec) 
Heartbeat CPU  0 instructions:  596000000 cycles:  873737750 heartbeat IPC: 0.39359 cumulative IPC: 0.60492 (Simulation time: 0 hr 27 min 18 sec) 
Heartbeat CPU  0 instructions:  597000003 cycles:  876287176 heartbeat IPC: 0.39225 cumulative IPC: 0.60426 (Simulation time: 0 hr 27 min 21 sec) 
Heartbeat CPU  0 instructions:  598000003 cycles:  878830123 heartbeat IPC: 0.39324 cumulative IPC: 0.60361 (Simulation time: 0 hr 27 min 24 sec) 
Heartbeat CPU  0 instructions:  599000003 cycles:  881386096 heartbeat IPC: 0.39124 cumulative IPC: 0.60296 (Simulation time: 0 hr 27 min 27 sec) 
Heartbeat CPU  0 instructions:  600000000 cycles:  883892410 heartbeat IPC: 0.39899 cumulative IPC: 0.60234 (Simulation time: 0 hr 27 min 30 sec) 
Finished CPU 0 instructions: 500000003 cycles: 830094773 cumulative IPC: 0.60234 (Simulation time: 0 hr 27 min 30 sec) 

ChampSim completed all CPUs

[ROI Statistics]
Core_0_instructions 500000003
Core_0_cycles 830094773
Core_0_IPC 0.60234

Core_0_branch_prediction_accuracy 99.13980
Core_0_branch_MPKI 0.20639
Core_0_average_ROB_occupancy_at_mispredict 243.55638

Core_0_L1D_total_access 145654343
Core_0_L1D_total_hit 140332418
Core_0_L1D_total_miss 5321925
Core_0_L1D_loads 132591397
Core_0_L1D_load_hit 128571617
Core_0_L1D_load_miss 4019780
Core_0_L1D_RFOs 13062946
Core_0_L1D_RFO_hit 11760801
Core_0_L1D_RFO_miss 1302145
Core_0_L1D_prefetches 0
Core_0_L1D_prefetch_hit 0
Core_0_L1D_prefetch_miss 0
Core_0_L1D_writebacks 0
Core_0_L1D_writeback_hit 0
Core_0_L1D_writeback_miss 0
Core_0_L1D_prefetch_requested 0
Core_0_L1D_prefetch_dropped 0
Core_0_L1D_prefetch_issued 0
Core_0_L1D_prefetch_filled 0
Core_0_L1D_prefetch_useful 0
Core_0_L1D_prefetch_useless 0
Core_0_L1D_prefetch_late 0
Core_0_L1D_average_miss_latency 164.23451

Core_0_L1D_rq_access 197252899
Core_0_L1D_rq_forward 0
Core_0_L1D_rq_merged 62084958
Core_0_L1D_rq_to_cache 135167941
Core_0_L1D_rq_full 0

Core_0_L1D_wq_access 16646357
Core_0_L1D_wq_forward 0
Core_0_L1D_wq_merged 0
Core_0_L1D_wq_to_cache 16646357
Core_0_L1D_wq_full 156901

Core_0_L1D_pq_access 0
Core_0_L1D_pq_forward 0
Core_0_L1D_pq_merged 0
Core_0_L1D_pq_to_cache 0
Core_0_L1D_pq_full 0

Core_0_L1D_acc_epochs 859033
Core_0_L1D_acc_level_0 859033
Core_0_L1D_acc_level_1 0
Core_0_L1D_acc_level_2 0
Core_0_L1D_acc_level_3 0
Core_0_L1D_acc_level_4 0
Core_0_L1D_acc_level_5 0
Core_0_L1D_acc_level_6 0
Core_0_L1D_acc_level_7 0
Core_0_L1D_acc_level_8 0
Core_0_L1D_acc_level_9 0

Core_0_L1I_total_access 121168107
Core_0_L1I_total_hit 121167809
Core_0_L1I_total_miss 298
Core_0_L1I_loads 121168107
Core_0_L1I_load_hit 121167809
Core_0_L1I_load_miss 298
Core_0_L1I_RFOs 0
Core_0_L1I_RFO_hit 0
Core_0_L1I_RFO_miss 0
Core_0_L1I_prefetches 0
Core_0_L1I_prefetch_hit 0
Core_0_L1I_prefetch_miss 0
Core_0_L1I_writebacks 0
Core_0_L1I_writeback_hit 0
Core_0_L1I_writeback_miss 0
Core_0_L1I_prefetch_requested 0
Core_0_L1I_prefetch_dropped 0
Core_0_L1I_prefetch_issued 0
Core_0_L1I_prefetch_filled 0
Core_0_L1I_prefetch_useful 0
Core_0_L1I_prefetch_useless 0
Core_0_L1I_prefetch_late 0
Core_0_L1I_average_miss_latency 241.26846

Core_0_L1I_rq_access 500000208
Core_0_L1I_rq_forward 0
Core_0_L1I_rq_merged 378831080
Core_0_L1I_rq_to_cache 121169128
Core_0_L1I_rq_full 0

Core_0_L1I_wq_access 0
Core_0_L1I_wq_forward 0
Core_0_L1I_wq_merged 0
Core_0_L1I_wq_to_cache 0
Core_0_L1I_wq_full 0

Core_0_L1I_pq_access 0
Core_0_L1I_pq_forward 0
Core_0_L1I_pq_merged 0
Core_0_L1I_pq_to_cache 0
Core_0_L1I_pq_full 0

Core_0_L1I_acc_epochs 859033
Core_0_L1I_acc_level_0 859033
Core_0_L1I_acc_level_1 0
Core_0_L1I_acc_level_2 0
Core_0_L1I_acc_level_3 0
Core_0_L1I_acc_level_4 0
Core_0_L1I_acc_level_5 0
Core_0_L1I_acc_level_6 0
Core_0_L1I_acc_level_7 0
Core_0_L1I_acc_level_8 0
Core_0_L1I_acc_level_9 0

Core_0_L2C_total_access 6992877
Core_0_L2C_total_hit 3216376
Core_0_L2C_total_miss 3776501
Core_0_L2C_loads 4020037
Core_0_L2C_load_hit 1078982
Core_0_L2C_load_miss 2941055
Core_0_L2C_RFOs 1302025
Core_0_L2C_RFO_hit 466650
Core_0_L2C_RFO_miss 835375
Core_0_L2C_prefetches 0
Core_0_L2C_prefetch_hit 0
Core_0_L2C_prefetch_miss 0
Core_0_L2C_writebacks 1670815
Core_0_L2C_writeback_hit 1670744
Core_0_L2C_writeback_miss 71
Core_0_L2C_prefetch_requested 0
Core_0_L2C_prefetch_dropped 0
Core_0_L2C_prefetch_issued 0
Core_0_L2C_prefetch_filled 0
Core_0_L2C_prefetch_useful 0
Core_0_L2C_prefetch_useless 0
Core_0_L2C_prefetch_late 0
Core_0_L2C_average_miss_latency 211.60807

Core_0_L2C_rq_access 5322224
Core_0_L2C_rq_forward 0
Core_0_L2C_rq_merged 0
Core_0_L2C_rq_to_cache 5322063
Core_0_L2C_rq_full 0

Core_0_L2C_wq_access 1670815
Core_0_L2C_wq_forward 161
Core_0_L2C_wq_merged 0
Core_0_L2C_wq_to_cache 1670815
Core_0_L2C_wq_full 0

Core_0_L2C_pq_access 0
Core_0_L2C_pq_forward 0
Core_0_L2C_pq_merged 0
Core_0_L2C_pq_to_cache 0
Core_0_L2C_pq_full 0

Core_0_L2C_acc_epochs 859033
Core_0_L2C_acc_level_0 859033
Core_0_L2C_acc_level_1 0
Core_0_L2C_acc_level_2 0
Core_0_L2C_acc_level_3 0
Core_0_L2C_acc_level_4 0
Core_0_L2C_acc_level_5 0
Core_0_L2C_acc_level_6 0
Core_0_L2C_acc_level_7 0
Core_0_L2C_acc_level_8 0
Core_0_L2C_acc_level_9 0

Core_0_LLC_total_access 4743547
Core_0_LLC_total_hit 851405
Core_0_LLC_total_miss 3892142
Core_0_LLC_loads 2941055
Core_0_LLC_load_hit 430362
Core_0_LLC_load_miss 2510693
Core_0_LLC_RFOs 835375
Core_0_LLC_RFO_hit 122577
Core_0_LLC_RFO_miss 712798
Core_0_LLC_prefetches 0
Core_0_LLC_prefetch_hit 0
Core_0_LLC_prefetch_miss 0
Core_0_LLC_writebacks 967117
Core_0_LLC_writeback_hit 298466
Core_0_LLC_writeback_miss 668651
Core_0_LLC_prefetch_requested 0
Core_0_LLC_prefetch_dropped 0
Core_0_LLC_prefetch_issued 0
Core_0_LLC_prefetch_filled 0
Core_0_LLC_prefetch_useful 0
Core_0_LLC_prefetch_useless 0
Core_0_LLC_prefetch_late 0
Core_0_LLC_average_miss_latency 176.15081

Core_0_LLC_rq_access 3776431
Core_0_LLC_rq_forward 0
Core_0_LLC_rq_merged 0
Core_0_LLC_rq_to_cache 3776431
Core_0_LLC_rq_full 0

Core_0_LLC_wq_access 967117
Core_0_LLC_wq_forward 0
Core_0_LLC_wq_merged 0
Core_0_LLC_wq_to_cache 967117
Core_0_LLC_wq_full 0

Core_0_LLC_pq_access 0
Core_0_LLC_pq_forward 0
Core_0_LLC_pq_merged 0
Core_0_LLC_pq_to_cache 0
Core_0_LLC_pq_full 0

Core_0_LLC_acc_epochs 863177
Core_0_LLC_acc_level_0 863177
Core_0_LLC_acc_level_1 0
Core_0_LLC_acc_level_2 0
Core_0_LLC_acc_level_3 0
Core_0_LLC_acc_level_4 0
Core_0_LLC_acc_level_5 0
Core_0_LLC_acc_level_6 0
Core_0_LLC_acc_level_7 0
Core_0_LLC_acc_level_8 0
Core_0_LLC_acc_level_9 0

Core_0_major_page_fault 0
Core_0_minor_page_fault 14596

Channel_0_RQ_row_buffer_hit 780863
Channel_0_RQ_row_buffer_miss 2442628
Channel_0_WQ_row_buffer_hit 325749
Channel_0_WQ_row_buffer_miss 530967
Channel_0_WQ_full 1554
Channel_0_dbus_congested 238435

avg_congested_cycle 1

DRAM_bw_pochs 3452705
DRAM_bw_level_0 3452617
DRAM_bw_level_1 88
DRAM_bw_level_2 0
DRAM_bw_level_3 0
