*************************************************
   ChampSim Multicore Out-of-Order Simulator
   Last compiled: Dec 11 2024 17:59:53
*************************************************
parsing config file: /home/functionmain/桌面/Pythia/config/nopref.ini

trace_0 /home/functionmain/桌面/Pythia/traces/437.leslie3d-232B.champsimtrace.xz
adding L2C_PREFETCHER: NONE
Initialize SHIP state
warmup_instructions 100000000
simulation_instructions 500000000
champsim_seed 217
measure_ipc 0
measure_ipc_epoch 1000
measure_dram_bw 1
measure_dram_bw_epoch 256
measure_cache_acc 1
measure_cache_acc_epoch 1024
l1d_perfect 0
l2c_perfect 0
llc_perfect 0
l1d_semi_perfect 0
l2c_semi_perfect 0
llc_semi_perfect 0
semi_perfect_cache_page_buffer_size 64

num_cpus 1
cpu_freq 4000
dram_io_freq 150
page_size 4096
block_size 64
max_read_per_cycle 8
max_fill_per_cycle 1
dram_channels 1
log2_dram_channels 0
dram_ranks 1
dram_banks 8
dram_rows 65536
dram_columns 128
dram_row_size 8
dram_size 4096
dram_pages 1048576

fetch_width 6
decode_width 6
exec_width 4
lq_width 2
sq_width 2
retire_width 4
scheduler_size 128
branch_mispredict_penalty 20
rob_size 256
lq_size 72
sq_size 56
num_instr_destinations_sparc 4
num_instr_destinations 2
num_instr_sources 4

itlb_set 16
itlb_way 8
itlb_rq_size 16
itlb_wq_size 16
itlb_pq_size 0
itlb_mshr_size 8
itlb_latency 1

dtlb_set 16
dtlb_way 4
dtlb_rq_size 16
dtlb_wq_size 16
dtlb_pq_size 0
dtlb_mshr_size 8
dtlb_latency 1

stlb_set 128
stlb_way 12
stlb_rq_size 32
stlb_wq_size 32
stlb_pq_size 0
stlb_mshr_size 16
stlb_latency 8

l1i_size 32
l1i_set 64
l1i_way 8
l1i_rq_size 64
l1i_wq_size 64
l1i_pq_size 8
l1i_mshr_size 8
l1i_latency 1

l1d_size 32
l1d_set 64
l1d_way 8
l1d_rq_size 64
l1d_wq_size 64
l1d_pq_size 8
l1d_mshr_size 16
l1d_latency 4

l2c_size 256
l2c_set 512
l2c_way 8
l2c_rq_size 32
l2c_wq_size 32
l2c_pq_size 32
l2c_mshr_size 32
l2c_latency 10

llc_size 2048
llc_set 2048
llc_way 16
llc_rq_size 32
llc_wq_size 32
llc_pq_size 32
llc_mshr_size 64
llc_latency 20

dram_channel_width 8
dram_wq_size 64
dram_rq_size 64
tRP 15
tRCD 15
tCAS 12.5
dram_dbus_turn_around_time 30
dram_write_high_wm 56
dram_write_low_wm 48
min_dram_writes_per_switch 16
dram_mtps 150
dram_dbus_return_time 213


Heartbeat CPU  0 instructions:    1000000 cycles:     488175 heartbeat IPC: 2.04845 cumulative IPC: 2.04845 (Simulation time: 0 hr 0 min 1 sec) 
Heartbeat CPU  0 instructions:    2000001 cycles:     995179 heartbeat IPC: 1.97237 cumulative IPC: 2.00969 (Simulation time: 0 hr 0 min 3 sec) 
Heartbeat CPU  0 instructions:    3000003 cycles:    1550933 heartbeat IPC: 1.79936 cumulative IPC: 1.93432 (Simulation time: 0 hr 0 min 5 sec) 
Heartbeat CPU  0 instructions:    4000000 cycles:    2073909 heartbeat IPC: 1.91213 cumulative IPC: 1.92872 (Simulation time: 0 hr 0 min 7 sec) 
Heartbeat CPU  0 instructions:    5000002 cycles:    2561903 heartbeat IPC: 2.04921 cumulative IPC: 1.95167 (Simulation time: 0 hr 0 min 9 sec) 
Heartbeat CPU  0 instructions:    6000003 cycles:    3049484 heartbeat IPC: 2.05094 cumulative IPC: 1.96755 (Simulation time: 0 hr 0 min 11 sec) 
Heartbeat CPU  0 instructions:    7000001 cycles:    3537343 heartbeat IPC: 2.04977 cumulative IPC: 1.97889 (Simulation time: 0 hr 0 min 12 sec) 
Heartbeat CPU  0 instructions:    8000000 cycles:    4025245 heartbeat IPC: 2.04959 cumulative IPC: 1.98746 (Simulation time: 0 hr 0 min 14 sec) 
Heartbeat CPU  0 instructions:    9000000 cycles:    4513531 heartbeat IPC: 2.04798 cumulative IPC: 1.99400 (Simulation time: 0 hr 0 min 16 sec) 
Heartbeat CPU  0 instructions:   10000003 cycles:    5001900 heartbeat IPC: 2.04764 cumulative IPC: 1.99924 (Simulation time: 0 hr 0 min 18 sec) 
Heartbeat CPU  0 instructions:   11000000 cycles:    5490435 heartbeat IPC: 2.04693 cumulative IPC: 2.00348 (Simulation time: 0 hr 0 min 20 sec) 
Heartbeat CPU  0 instructions:   12000000 cycles:    5978549 heartbeat IPC: 2.04870 cumulative IPC: 2.00718 (Simulation time: 0 hr 0 min 22 sec) 
Heartbeat CPU  0 instructions:   13000001 cycles:    6523488 heartbeat IPC: 1.83507 cumulative IPC: 1.99280 (Simulation time: 0 hr 0 min 23 sec) 
Heartbeat CPU  0 instructions:   14000001 cycles:    7076920 heartbeat IPC: 1.80691 cumulative IPC: 1.97826 (Simulation time: 0 hr 0 min 25 sec) 
Heartbeat CPU  0 instructions:   15000000 cycles:    7564664 heartbeat IPC: 2.05025 cumulative IPC: 1.98290 (Simulation time: 0 hr 0 min 27 sec) 
Heartbeat CPU  0 instructions:   16000000 cycles:    8052612 heartbeat IPC: 2.04940 cumulative IPC: 1.98693 (Simulation time: 0 hr 0 min 29 sec) 
Heartbeat CPU  0 instructions:   17000003 cycles:    8540561 heartbeat IPC: 2.04940 cumulative IPC: 1.99050 (Simulation time: 0 hr 0 min 31 sec) 
Heartbeat CPU  0 instructions:   18000003 cycles:    9028618 heartbeat IPC: 2.04894 cumulative IPC: 1.99366 (Simulation time: 0 hr 0 min 33 sec) 
Heartbeat CPU  0 instructions:   19000001 cycles:    9516742 heartbeat IPC: 2.04866 cumulative IPC: 1.99648 (Simulation time: 0 hr 0 min 35 sec) 
Heartbeat CPU  0 instructions:   20000000 cycles:   10005291 heartbeat IPC: 2.04688 cumulative IPC: 1.99894 (Simulation time: 0 hr 0 min 37 sec) 
Heartbeat CPU  0 instructions:   21000000 cycles:   10493845 heartbeat IPC: 2.04686 cumulative IPC: 2.00117 (Simulation time: 0 hr 0 min 38 sec) 
Heartbeat CPU  0 instructions:   22000002 cycles:   10981862 heartbeat IPC: 2.04911 cumulative IPC: 2.00330 (Simulation time: 0 hr 0 min 40 sec) 
Heartbeat CPU  0 instructions:   23000002 cycles:   11495790 heartbeat IPC: 1.94580 cumulative IPC: 2.00073 (Simulation time: 0 hr 0 min 42 sec) 
Heartbeat CPU  0 instructions:   24000000 cycles:   12051931 heartbeat IPC: 1.79810 cumulative IPC: 1.99138 (Simulation time: 0 hr 0 min 44 sec) 
Heartbeat CPU  0 instructions:   25000001 cycles:   12566174 heartbeat IPC: 1.94461 cumulative IPC: 1.98947 (Simulation time: 0 hr 0 min 46 sec) 
Heartbeat CPU  0 instructions:   26000001 cycles:   13054456 heartbeat IPC: 2.04800 cumulative IPC: 1.99166 (Simulation time: 0 hr 0 min 48 sec) 
Heartbeat CPU  0 instructions:   27000000 cycles:   13542471 heartbeat IPC: 2.04912 cumulative IPC: 1.99373 (Simulation time: 0 hr 0 min 49 sec) 
Heartbeat CPU  0 instructions:   28000000 cycles:   14031002 heartbeat IPC: 2.04695 cumulative IPC: 1.99558 (Simulation time: 0 hr 0 min 51 sec) 
Heartbeat CPU  0 instructions:   29000002 cycles:   14519391 heartbeat IPC: 2.04755 cumulative IPC: 1.99733 (Simulation time: 0 hr 0 min 53 sec) 
Heartbeat CPU  0 instructions:   30000001 cycles:   15007994 heartbeat IPC: 2.04665 cumulative IPC: 1.99893 (Simulation time: 0 hr 0 min 55 sec) 
Heartbeat CPU  0 instructions:   31000001 cycles:   15495767 heartbeat IPC: 2.05013 cumulative IPC: 2.00055 (Simulation time: 0 hr 0 min 57 sec) 
Heartbeat CPU  0 instructions:   32000000 cycles:   15983503 heartbeat IPC: 2.05029 cumulative IPC: 2.00206 (Simulation time: 0 hr 0 min 59 sec) 
Heartbeat CPU  0 instructions:   33000002 cycles:   16471467 heartbeat IPC: 2.04934 cumulative IPC: 2.00346 (Simulation time: 0 hr 1 min 1 sec) 
Heartbeat CPU  0 instructions:   34000001 cycles:   17025132 heartbeat IPC: 1.80614 cumulative IPC: 1.99705 (Simulation time: 0 hr 1 min 2 sec) 
Heartbeat CPU  0 instructions:   35000001 cycles:   17570601 heartbeat IPC: 1.83328 cumulative IPC: 1.99196 (Simulation time: 0 hr 1 min 4 sec) 
Heartbeat CPU  0 instructions:   36000000 cycles:   18058603 heartbeat IPC: 2.04917 cumulative IPC: 1.99351 (Simulation time: 0 hr 1 min 6 sec) 
Heartbeat CPU  0 instructions:   37000003 cycles:   18547330 heartbeat IPC: 2.04614 cumulative IPC: 1.99490 (Simulation time: 0 hr 1 min 8 sec) 
Heartbeat CPU  0 instructions:   38000001 cycles:   19035699 heartbeat IPC: 2.04763 cumulative IPC: 1.99625 (Simulation time: 0 hr 1 min 10 sec) 
Heartbeat CPU  0 instructions:   39000002 cycles:   19523997 heartbeat IPC: 2.04793 cumulative IPC: 1.99754 (Simulation time: 0 hr 1 min 12 sec) 
Heartbeat CPU  0 instructions:   40000000 cycles:   20011591 heartbeat IPC: 2.05088 cumulative IPC: 1.99884 (Simulation time: 0 hr 1 min 13 sec) 
Heartbeat CPU  0 instructions:   41000001 cycles:   20499197 heartbeat IPC: 2.05084 cumulative IPC: 2.00008 (Simulation time: 0 hr 1 min 15 sec) 
Heartbeat CPU  0 instructions:   42000001 cycles:   20987050 heartbeat IPC: 2.04980 cumulative IPC: 2.00123 (Simulation time: 0 hr 1 min 17 sec) 
Heartbeat CPU  0 instructions:   43000001 cycles:   21475135 heartbeat IPC: 2.04882 cumulative IPC: 2.00232 (Simulation time: 0 hr 1 min 19 sec) 
Heartbeat CPU  0 instructions:   44000000 cycles:   21998034 heartbeat IPC: 1.91241 cumulative IPC: 2.00018 (Simulation time: 0 hr 1 min 21 sec) 
Heartbeat CPU  0 instructions:   45000000 cycles:   22555479 heartbeat IPC: 1.79390 cumulative IPC: 1.99508 (Simulation time: 0 hr 1 min 23 sec) 
Heartbeat CPU  0 instructions:   46000002 cycles:   23063076 heartbeat IPC: 1.97007 cumulative IPC: 1.99453 (Simulation time: 0 hr 1 min 24 sec) 
Heartbeat CPU  0 instructions:   47000002 cycles:   23551479 heartbeat IPC: 2.04749 cumulative IPC: 1.99563 (Simulation time: 0 hr 1 min 26 sec) 
Heartbeat CPU  0 instructions:   48000000 cycles:   24039394 heartbeat IPC: 2.04953 cumulative IPC: 1.99672 (Simulation time: 0 hr 1 min 28 sec) 
Heartbeat CPU  0 instructions:   49000002 cycles:   24527142 heartbeat IPC: 2.05024 cumulative IPC: 1.99779 (Simulation time: 0 hr 1 min 30 sec) 
Heartbeat CPU  0 instructions:   50000000 cycles:   25015211 heartbeat IPC: 2.04889 cumulative IPC: 1.99878 (Simulation time: 0 hr 1 min 32 sec) 
Heartbeat CPU  0 instructions:   51000002 cycles:   25503121 heartbeat IPC: 2.04956 cumulative IPC: 1.99976 (Simulation time: 0 hr 1 min 34 sec) 
Heartbeat CPU  0 instructions:   52000000 cycles:   25991435 heartbeat IPC: 2.04786 cumulative IPC: 2.00066 (Simulation time: 0 hr 1 min 36 sec) 
Heartbeat CPU  0 instructions:   53000000 cycles:   26479585 heartbeat IPC: 2.04855 cumulative IPC: 2.00154 (Simulation time: 0 hr 1 min 37 sec) 
Heartbeat CPU  0 instructions:   54000000 cycles:   26971967 heartbeat IPC: 2.03094 cumulative IPC: 2.00208 (Simulation time: 0 hr 1 min 39 sec) 
Heartbeat CPU  0 instructions:   55000002 cycles:   27528710 heartbeat IPC: 1.79616 cumulative IPC: 1.99791 (Simulation time: 0 hr 1 min 41 sec) 
Heartbeat CPU  0 instructions:   56000000 cycles:   28067272 heartbeat IPC: 1.85679 cumulative IPC: 1.99521 (Simulation time: 0 hr 1 min 43 sec) 
Heartbeat CPU  0 instructions:   57000000 cycles:   28554896 heartbeat IPC: 2.05076 cumulative IPC: 1.99616 (Simulation time: 0 hr 1 min 45 sec) 
Heartbeat CPU  0 instructions:   58000003 cycles:   29042493 heartbeat IPC: 2.05088 cumulative IPC: 1.99707 (Simulation time: 0 hr 1 min 47 sec) 
Heartbeat CPU  0 instructions:   59000001 cycles:   29530262 heartbeat IPC: 2.05015 cumulative IPC: 1.99795 (Simulation time: 0 hr 1 min 49 sec) 
Heartbeat CPU  0 instructions:   60000000 cycles:   30018388 heartbeat IPC: 2.04865 cumulative IPC: 1.99877 (Simulation time: 0 hr 1 min 50 sec) 
Heartbeat CPU  0 instructions:   61000000 cycles:   30506522 heartbeat IPC: 2.04862 cumulative IPC: 1.99957 (Simulation time: 0 hr 1 min 52 sec) 
Heartbeat CPU  0 instructions:   62000000 cycles:   30995110 heartbeat IPC: 2.04671 cumulative IPC: 2.00032 (Simulation time: 0 hr 1 min 54 sec) 
Heartbeat CPU  0 instructions:   63000002 cycles:   31483416 heartbeat IPC: 2.04790 cumulative IPC: 2.00105 (Simulation time: 0 hr 1 min 56 sec) 
Heartbeat CPU  0 instructions:   64000000 cycles:   31971698 heartbeat IPC: 2.04799 cumulative IPC: 2.00177 (Simulation time: 0 hr 1 min 58 sec) 
Heartbeat CPU  0 instructions:   65000000 cycles:   32500798 heartbeat IPC: 1.89000 cumulative IPC: 1.99995 (Simulation time: 0 hr 2 min 0 sec) 
Heartbeat CPU  0 instructions:   66000001 cycles:   33056972 heartbeat IPC: 1.79800 cumulative IPC: 1.99655 (Simulation time: 0 hr 2 min 1 sec) 
Heartbeat CPU  0 instructions:   67000000 cycles:   33556378 heartbeat IPC: 2.00238 cumulative IPC: 1.99664 (Simulation time: 0 hr 2 min 3 sec) 
Heartbeat CPU  0 instructions:   68000000 cycles:   34044205 heartbeat IPC: 2.04991 cumulative IPC: 1.99740 (Simulation time: 0 hr 2 min 5 sec) 
Heartbeat CPU  0 instructions:   69000001 cycles:   34532392 heartbeat IPC: 2.04840 cumulative IPC: 1.99812 (Simulation time: 0 hr 2 min 7 sec) 
Heartbeat CPU  0 instructions:   70000001 cycles:   35020431 heartbeat IPC: 2.04902 cumulative IPC: 1.99883 (Simulation time: 0 hr 2 min 9 sec) 
Heartbeat CPU  0 instructions:   71000003 cycles:   35508970 heartbeat IPC: 2.04692 cumulative IPC: 1.99949 (Simulation time: 0 hr 2 min 11 sec) 
Heartbeat CPU  0 instructions:   72000000 cycles:   35997443 heartbeat IPC: 2.04719 cumulative IPC: 2.00014 (Simulation time: 0 hr 2 min 13 sec) 
Heartbeat CPU  0 instructions:   73000001 cycles:   36486001 heartbeat IPC: 2.04684 cumulative IPC: 2.00077 (Simulation time: 0 hr 2 min 14 sec) 
Heartbeat CPU  0 instructions:   74000000 cycles:   36973706 heartbeat IPC: 2.05042 cumulative IPC: 2.00142 (Simulation time: 0 hr 2 min 16 sec) 
Heartbeat CPU  0 instructions:   75000001 cycles:   37472861 heartbeat IPC: 2.00339 cumulative IPC: 2.00145 (Simulation time: 0 hr 2 min 18 sec) 
Heartbeat CPU  0 instructions:   76000000 cycles:   38030323 heartbeat IPC: 1.79384 cumulative IPC: 1.99841 (Simulation time: 0 hr 2 min 20 sec) 
Heartbeat CPU  0 instructions:   77000002 cycles:   38560247 heartbeat IPC: 1.88707 cumulative IPC: 1.99688 (Simulation time: 0 hr 2 min 22 sec) 
Heartbeat CPU  0 instructions:   78000001 cycles:   39048297 heartbeat IPC: 2.04897 cumulative IPC: 1.99753 (Simulation time: 0 hr 2 min 24 sec) 
Heartbeat CPU  0 instructions:   79000001 cycles:   39536807 heartbeat IPC: 2.04704 cumulative IPC: 1.99814 (Simulation time: 0 hr 2 min 25 sec) 
Heartbeat CPU  0 instructions:   80000000 cycles:   40025145 heartbeat IPC: 2.04776 cumulative IPC: 1.99874 (Simulation time: 0 hr 2 min 27 sec) 
Heartbeat CPU  0 instructions:   81000003 cycles:   40513580 heartbeat IPC: 2.04736 cumulative IPC: 1.99933 (Simulation time: 0 hr 2 min 29 sec) 
Heartbeat CPU  0 instructions:   82000001 cycles:   41001565 heartbeat IPC: 2.04924 cumulative IPC: 1.99992 (Simulation time: 0 hr 2 min 31 sec) 
Heartbeat CPU  0 instructions:   83000000 cycles:   41489285 heartbeat IPC: 2.05035 cumulative IPC: 2.00052 (Simulation time: 0 hr 2 min 33 sec) 
Heartbeat CPU  0 instructions:   84000000 cycles:   41976959 heartbeat IPC: 2.05055 cumulative IPC: 2.00110 (Simulation time: 0 hr 2 min 35 sec) 
Heartbeat CPU  0 instructions:   85000002 cycles:   42464815 heartbeat IPC: 2.04979 cumulative IPC: 2.00166 (Simulation time: 0 hr 2 min 37 sec) 
Heartbeat CPU  0 instructions:   86000000 cycles:   43003768 heartbeat IPC: 1.85545 cumulative IPC: 1.99982 (Simulation time: 0 hr 2 min 38 sec) 
Heartbeat CPU  0 instructions:   87000002 cycles:   43561066 heartbeat IPC: 1.79438 cumulative IPC: 1.99720 (Simulation time: 0 hr 2 min 40 sec) 
Heartbeat CPU  0 instructions:   88000000 cycles:   44075332 heartbeat IPC: 1.94452 cumulative IPC: 1.99658 (Simulation time: 0 hr 2 min 42 sec) 
Heartbeat CPU  0 instructions:   89000002 cycles:   44605439 heartbeat IPC: 1.88642 cumulative IPC: 1.99527 (Simulation time: 0 hr 2 min 44 sec) 
Heartbeat CPU  0 instructions:   90000002 cycles:   45134897 heartbeat IPC: 1.88872 cumulative IPC: 1.99402 (Simulation time: 0 hr 2 min 46 sec) 
Heartbeat CPU  0 instructions:   91000003 cycles:   45664359 heartbeat IPC: 1.88871 cumulative IPC: 1.99280 (Simulation time: 0 hr 2 min 48 sec) 
Heartbeat CPU  0 instructions:   92000000 cycles:   46194023 heartbeat IPC: 1.88798 cumulative IPC: 1.99160 (Simulation time: 0 hr 2 min 49 sec) 
Heartbeat CPU  0 instructions:   93000001 cycles:   46723291 heartbeat IPC: 1.88940 cumulative IPC: 1.99044 (Simulation time: 0 hr 2 min 51 sec) 
Heartbeat CPU  0 instructions:   94000003 cycles:   47253444 heartbeat IPC: 1.88625 cumulative IPC: 1.98927 (Simulation time: 0 hr 2 min 53 sec) 
Heartbeat CPU  0 instructions:   95000003 cycles:   47782887 heartbeat IPC: 1.88878 cumulative IPC: 1.98816 (Simulation time: 0 hr 2 min 55 sec) 
Heartbeat CPU  0 instructions:   96000000 cycles:   48311847 heartbeat IPC: 1.89050 cumulative IPC: 1.98709 (Simulation time: 0 hr 2 min 57 sec) 
Heartbeat CPU  0 instructions:   97000003 cycles:   48842056 heartbeat IPC: 1.88605 cumulative IPC: 1.98599 (Simulation time: 0 hr 2 min 59 sec) 
Heartbeat CPU  0 instructions:   98000002 cycles:   49371697 heartbeat IPC: 1.88807 cumulative IPC: 1.98494 (Simulation time: 0 hr 3 min 1 sec) 
Heartbeat CPU  0 instructions:   99000002 cycles:   49901520 heartbeat IPC: 1.88742 cumulative IPC: 1.98391 (Simulation time: 0 hr 3 min 2 sec) 
Heartbeat CPU  0 instructions:  100000000 cycles:   50430913 heartbeat IPC: 1.88895 cumulative IPC: 1.98291 (Simulation time: 0 hr 3 min 4 sec) 

Warmup complete CPU  0 instructions:  100000001 cycles:   50430914 (Simulation time: 0 hr 3 min 4 sec) 

Heartbeat CPU  0 instructions:  101000002 cycles:   52545030 heartbeat IPC: 0.47301 cumulative IPC: 0.47301 (Simulation time: 0 hr 3 min 7 sec) 
Heartbeat CPU  0 instructions:  102000002 cycles:   54608233 heartbeat IPC: 0.48468 cumulative IPC: 0.47878 (Simulation time: 0 hr 3 min 10 sec) 
Heartbeat CPU  0 instructions:  103000000 cycles:   56567172 heartbeat IPC: 0.51048 cumulative IPC: 0.48890 (Simulation time: 0 hr 3 min 13 sec) 
Heartbeat CPU  0 instructions:  104000000 cycles:   58620507 heartbeat IPC: 0.48701 cumulative IPC: 0.48842 (Simulation time: 0 hr 3 min 16 sec) 
Heartbeat CPU  0 instructions:  105000002 cycles:   60662386 heartbeat IPC: 0.48975 cumulative IPC: 0.48869 (Simulation time: 0 hr 3 min 18 sec) 
Heartbeat CPU  0 instructions:  106000002 cycles:   62756259 heartbeat IPC: 0.47758 cumulative IPC: 0.48680 (Simulation time: 0 hr 3 min 21 sec) 
Heartbeat CPU  0 instructions:  107000003 cycles:   64868167 heartbeat IPC: 0.47351 cumulative IPC: 0.48486 (Simulation time: 0 hr 3 min 24 sec) 
Heartbeat CPU  0 instructions:  108000000 cycles:   66925404 heartbeat IPC: 0.48609 cumulative IPC: 0.48501 (Simulation time: 0 hr 3 min 27 sec) 
Heartbeat CPU  0 instructions:  109000002 cycles:   70142969 heartbeat IPC: 0.31079 cumulative IPC: 0.45657 (Simulation time: 0 hr 3 min 30 sec) 
Heartbeat CPU  0 instructions:  110000000 cycles:   72205485 heartbeat IPC: 0.48484 cumulative IPC: 0.45925 (Simulation time: 0 hr 3 min 33 sec) 
Heartbeat CPU  0 instructions:  111000000 cycles:   74074358 heartbeat IPC: 0.53508 cumulative IPC: 0.46525 (Simulation time: 0 hr 3 min 36 sec) 
Heartbeat CPU  0 instructions:  112000000 cycles:   76037981 heartbeat IPC: 0.50926 cumulative IPC: 0.46862 (Simulation time: 0 hr 3 min 39 sec) 
Heartbeat CPU  0 instructions:  113000001 cycles:   77957587 heartbeat IPC: 0.52094 cumulative IPC: 0.47227 (Simulation time: 0 hr 3 min 41 sec) 
Heartbeat CPU  0 instructions:  114000002 cycles:   80001420 heartbeat IPC: 0.48928 cumulative IPC: 0.47344 (Simulation time: 0 hr 3 min 44 sec) 
Heartbeat CPU  0 instructions:  115000001 cycles:   82021064 heartbeat IPC: 0.49514 cumulative IPC: 0.47483 (Simulation time: 0 hr 3 min 47 sec) 
Heartbeat CPU  0 instructions:  116000000 cycles:   84046354 heartbeat IPC: 0.49376 cumulative IPC: 0.47597 (Simulation time: 0 hr 3 min 50 sec) 
Heartbeat CPU  0 instructions:  117000002 cycles:   86129448 heartbeat IPC: 0.48006 cumulative IPC: 0.47621 (Simulation time: 0 hr 3 min 53 sec) 
Heartbeat CPU  0 instructions:  118000000 cycles:   88273561 heartbeat IPC: 0.46639 cumulative IPC: 0.47565 (Simulation time: 0 hr 3 min 55 sec) 
Heartbeat CPU  0 instructions:  119000002 cycles:   91273801 heartbeat IPC: 0.33331 cumulative IPC: 0.46520 (Simulation time: 0 hr 3 min 59 sec) 
Heartbeat CPU  0 instructions:  120000000 cycles:   93696634 heartbeat IPC: 0.41274 cumulative IPC: 0.46226 (Simulation time: 0 hr 4 min 2 sec) 
Heartbeat CPU  0 instructions:  121000003 cycles:   95605426 heartbeat IPC: 0.52389 cumulative IPC: 0.46486 (Simulation time: 0 hr 4 min 4 sec) 
Heartbeat CPU  0 instructions:  122000003 cycles:   97543812 heartbeat IPC: 0.51589 cumulative IPC: 0.46696 (Simulation time: 0 hr 4 min 7 sec) 
Heartbeat CPU  0 instructions:  123000000 cycles:   99526918 heartbeat IPC: 0.50426 cumulative IPC: 0.46847 (Simulation time: 0 hr 4 min 10 sec) 
Heartbeat CPU  0 instructions:  124000000 cycles:  101667337 heartbeat IPC: 0.46720 cumulative IPC: 0.46842 (Simulation time: 0 hr 4 min 13 sec) 
Heartbeat CPU  0 instructions:  125000003 cycles:  103818265 heartbeat IPC: 0.46492 cumulative IPC: 0.46828 (Simulation time: 0 hr 4 min 16 sec) 
Heartbeat CPU  0 instructions:  126000000 cycles:  105810892 heartbeat IPC: 0.50185 cumulative IPC: 0.46948 (Simulation time: 0 hr 4 min 18 sec) 
Heartbeat CPU  0 instructions:  127000000 cycles:  107913992 heartbeat IPC: 0.47549 cumulative IPC: 0.46970 (Simulation time: 0 hr 4 min 21 sec) 
Heartbeat CPU  0 instructions:  128000000 cycles:  110024902 heartbeat IPC: 0.47373 cumulative IPC: 0.46985 (Simulation time: 0 hr 4 min 24 sec) 
Heartbeat CPU  0 instructions:  129000002 cycles:  112237567 heartbeat IPC: 0.45194 cumulative IPC: 0.46921 (Simulation time: 0 hr 4 min 27 sec) 
Heartbeat CPU  0 instructions:  130000001 cycles:  115441125 heartbeat IPC: 0.31215 cumulative IPC: 0.46147 (Simulation time: 0 hr 4 min 30 sec) 
Heartbeat CPU  0 instructions:  131000002 cycles:  117422228 heartbeat IPC: 0.50477 cumulative IPC: 0.46275 (Simulation time: 0 hr 4 min 33 sec) 
Heartbeat CPU  0 instructions:  132000000 cycles:  119434575 heartbeat IPC: 0.49693 cumulative IPC: 0.46374 (Simulation time: 0 hr 4 min 36 sec) 
Heartbeat CPU  0 instructions:  133000000 cycles:  121852512 heartbeat IPC: 0.41358 cumulative IPC: 0.46205 (Simulation time: 0 hr 4 min 39 sec) 
Heartbeat CPU  0 instructions:  134000000 cycles:  123873711 heartbeat IPC: 0.49476 cumulative IPC: 0.46295 (Simulation time: 0 hr 4 min 42 sec) 
Heartbeat CPU  0 instructions:  135000002 cycles:  125946976 heartbeat IPC: 0.48233 cumulative IPC: 0.46348 (Simulation time: 0 hr 4 min 45 sec) 
Heartbeat CPU  0 instructions:  136000000 cycles:  127984338 heartbeat IPC: 0.49083 cumulative IPC: 0.46420 (Simulation time: 0 hr 4 min 47 sec) 
Heartbeat CPU  0 instructions:  137000001 cycles:  129981987 heartbeat IPC: 0.50059 cumulative IPC: 0.46511 (Simulation time: 0 hr 4 min 50 sec) 
Heartbeat CPU  0 instructions:  138000003 cycles:  131984404 heartbeat IPC: 0.49940 cumulative IPC: 0.46595 (Simulation time: 0 hr 4 min 53 sec) 
Heartbeat CPU  0 instructions:  139000000 cycles:  134103489 heartbeat IPC: 0.47190 cumulative IPC: 0.46610 (Simulation time: 0 hr 4 min 56 sec) 
Heartbeat CPU  0 instructions:  140000000 cycles:  137506455 heartbeat IPC: 0.29386 cumulative IPC: 0.45937 (Simulation time: 0 hr 4 min 59 sec) 
Heartbeat CPU  0 instructions:  141000001 cycles:  141387034 heartbeat IPC: 0.25769 cumulative IPC: 0.45077 (Simulation time: 0 hr 5 min 3 sec) 
Heartbeat CPU  0 instructions:  142000001 cycles:  145020811 heartbeat IPC: 0.27520 cumulative IPC: 0.44402 (Simulation time: 0 hr 5 min 6 sec) 
Heartbeat CPU  0 instructions:  143000000 cycles:  148216696 heartbeat IPC: 0.31290 cumulative IPC: 0.43974 (Simulation time: 0 hr 5 min 9 sec) 
Heartbeat CPU  0 instructions:  144000000 cycles:  151480735 heartbeat IPC: 0.30637 cumulative IPC: 0.43543 (Simulation time: 0 hr 5 min 12 sec) 
Heartbeat CPU  0 instructions:  145000001 cycles:  154671520 heartbeat IPC: 0.31340 cumulative IPC: 0.43169 (Simulation time: 0 hr 5 min 15 sec) 
Heartbeat CPU  0 instructions:  146000001 cycles:  157897120 heartbeat IPC: 0.31002 cumulative IPC: 0.42804 (Simulation time: 0 hr 5 min 18 sec) 
Heartbeat CPU  0 instructions:  147000002 cycles:  161369037 heartbeat IPC: 0.28803 cumulative IPC: 0.42366 (Simulation time: 0 hr 5 min 22 sec) 
Heartbeat CPU  0 instructions:  148000000 cycles:  165624944 heartbeat IPC: 0.23497 cumulative IPC: 0.41669 (Simulation time: 0 hr 5 min 25 sec) 
Heartbeat CPU  0 instructions:  149000000 cycles:  170462241 heartbeat IPC: 0.20673 cumulative IPC: 0.40823 (Simulation time: 0 hr 5 min 29 sec) 
Heartbeat CPU  0 instructions:  150000001 cycles:  174083852 heartbeat IPC: 0.27612 cumulative IPC: 0.40436 (Simulation time: 0 hr 5 min 32 sec) 
Heartbeat CPU  0 instructions:  151000002 cycles:  177538487 heartbeat IPC: 0.28947 cumulative IPC: 0.40123 (Simulation time: 0 hr 5 min 35 sec) 
Heartbeat CPU  0 instructions:  152000000 cycles:  180760245 heartbeat IPC: 0.31039 cumulative IPC: 0.39899 (Simulation time: 0 hr 5 min 39 sec) 
Heartbeat CPU  0 instructions:  153000002 cycles:  184019997 heartbeat IPC: 0.30677 cumulative IPC: 0.39674 (Simulation time: 0 hr 5 min 42 sec) 
Heartbeat CPU  0 instructions:  154000000 cycles:  187251418 heartbeat IPC: 0.30946 cumulative IPC: 0.39468 (Simulation time: 0 hr 5 min 45 sec) 
Heartbeat CPU  0 instructions:  155000003 cycles:  191134309 heartbeat IPC: 0.25754 cumulative IPC: 0.39089 (Simulation time: 0 hr 5 min 48 sec) 
Heartbeat CPU  0 instructions:  156000000 cycles:  195849155 heartbeat IPC: 0.21210 cumulative IPC: 0.38510 (Simulation time: 0 hr 5 min 52 sec) 
Heartbeat CPU  0 instructions:  157000003 cycles:  200216070 heartbeat IPC: 0.22900 cumulative IPC: 0.38055 (Simulation time: 0 hr 5 min 55 sec) 
Heartbeat CPU  0 instructions:  158000003 cycles:  204047342 heartbeat IPC: 0.26101 cumulative IPC: 0.37756 (Simulation time: 0 hr 5 min 59 sec) 
Heartbeat CPU  0 instructions:  159000003 cycles:  207573639 heartbeat IPC: 0.28358 cumulative IPC: 0.37545 (Simulation time: 0 hr 6 min 2 sec) 
Heartbeat CPU  0 instructions:  160000000 cycles:  210933394 heartbeat IPC: 0.29764 cumulative IPC: 0.37383 (Simulation time: 0 hr 6 min 5 sec) 
Heartbeat CPU  0 instructions:  161000001 cycles:  214175430 heartbeat IPC: 0.30845 cumulative IPC: 0.37253 (Simulation time: 0 hr 6 min 8 sec) 
Heartbeat CPU  0 instructions:  162000001 cycles:  217406686 heartbeat IPC: 0.30948 cumulative IPC: 0.37131 (Simulation time: 0 hr 6 min 11 sec) 
Heartbeat CPU  0 instructions:  163000002 cycles:  220597313 heartbeat IPC: 0.31342 cumulative IPC: 0.37023 (Simulation time: 0 hr 6 min 15 sec) 
Heartbeat CPU  0 instructions:  164000000 cycles:  224443176 heartbeat IPC: 0.26002 cumulative IPC: 0.36779 (Simulation time: 0 hr 6 min 19 sec) 
Heartbeat CPU  0 instructions:  165000000 cycles:  227970279 heartbeat IPC: 0.28352 cumulative IPC: 0.36612 (Simulation time: 0 hr 6 min 23 sec) 
Heartbeat CPU  0 instructions:  166000002 cycles:  230549133 heartbeat IPC: 0.38777 cumulative IPC: 0.36643 (Simulation time: 0 hr 6 min 26 sec) 
Heartbeat CPU  0 instructions:  167000002 cycles:  233115253 heartbeat IPC: 0.38969 cumulative IPC: 0.36675 (Simulation time: 0 hr 6 min 29 sec) 
Heartbeat CPU  0 instructions:  168000000 cycles:  235671369 heartbeat IPC: 0.39122 cumulative IPC: 0.36709 (Simulation time: 0 hr 6 min 32 sec) 
Heartbeat CPU  0 instructions:  169000002 cycles:  238189753 heartbeat IPC: 0.39708 cumulative IPC: 0.36749 (Simulation time: 0 hr 6 min 35 sec) 
Heartbeat CPU  0 instructions:  170000002 cycles:  240742286 heartbeat IPC: 0.39177 cumulative IPC: 0.36782 (Simulation time: 0 hr 6 min 38 sec) 
Heartbeat CPU  0 instructions:  171000003 cycles:  243301845 heartbeat IPC: 0.39069 cumulative IPC: 0.36812 (Simulation time: 0 hr 6 min 42 sec) 
Heartbeat CPU  0 instructions:  172000000 cycles:  245826121 heartbeat IPC: 0.39615 cumulative IPC: 0.36848 (Simulation time: 0 hr 6 min 45 sec) 
Heartbeat CPU  0 instructions:  173000003 cycles:  248364944 heartbeat IPC: 0.39388 cumulative IPC: 0.36881 (Simulation time: 0 hr 6 min 48 sec) 
Heartbeat CPU  0 instructions:  174000000 cycles:  250878209 heartbeat IPC: 0.39789 cumulative IPC: 0.36917 (Simulation time: 0 hr 6 min 51 sec) 
Heartbeat CPU  0 instructions:  175000000 cycles:  253422181 heartbeat IPC: 0.39309 cumulative IPC: 0.36947 (Simulation time: 0 hr 6 min 54 sec) 
Heartbeat CPU  0 instructions:  176000000 cycles:  255956497 heartbeat IPC: 0.39458 cumulative IPC: 0.36978 (Simulation time: 0 hr 6 min 57 sec) 
Heartbeat CPU  0 instructions:  177000003 cycles:  258479334 heartbeat IPC: 0.39638 cumulative IPC: 0.37011 (Simulation time: 0 hr 7 min 1 sec) 
Heartbeat CPU  0 instructions:  178000001 cycles:  260991815 heartbeat IPC: 0.39801 cumulative IPC: 0.37044 (Simulation time: 0 hr 7 min 4 sec) 
Heartbeat CPU  0 instructions:  179000000 cycles:  263548537 heartbeat IPC: 0.39113 cumulative IPC: 0.37069 (Simulation time: 0 hr 7 min 7 sec) 
Heartbeat CPU  0 instructions:  180000000 cycles:  266084392 heartbeat IPC: 0.39434 cumulative IPC: 0.37097 (Simulation time: 0 hr 7 min 10 sec) 
Heartbeat CPU  0 instructions:  181000000 cycles:  268661934 heartbeat IPC: 0.38797 cumulative IPC: 0.37117 (Simulation time: 0 hr 7 min 13 sec) 
Heartbeat CPU  0 instructions:  182000001 cycles:  271303341 heartbeat IPC: 0.37859 cumulative IPC: 0.37126 (Simulation time: 0 hr 7 min 16 sec) 
Heartbeat CPU  0 instructions:  183000003 cycles:  273905864 heartbeat IPC: 0.38424 cumulative IPC: 0.37141 (Simulation time: 0 hr 7 min 20 sec) 
Heartbeat CPU  0 instructions:  184000000 cycles:  276502971 heartbeat IPC: 0.38504 cumulative IPC: 0.37156 (Simulation time: 0 hr 7 min 23 sec) 
Heartbeat CPU  0 instructions:  185000000 cycles:  279120252 heartbeat IPC: 0.38208 cumulative IPC: 0.37168 (Simulation time: 0 hr 7 min 26 sec) 
Heartbeat CPU  0 instructions:  186000002 cycles:  281713406 heartbeat IPC: 0.38563 cumulative IPC: 0.37184 (Simulation time: 0 hr 7 min 29 sec) 
Heartbeat CPU  0 instructions:  187000001 cycles:  284347934 heartbeat IPC: 0.37957 cumulative IPC: 0.37193 (Simulation time: 0 hr 7 min 32 sec) 
Heartbeat CPU  0 instructions:  188000000 cycles:  286990670 heartbeat IPC: 0.37840 cumulative IPC: 0.37200 (Simulation time: 0 hr 7 min 36 sec) 
Heartbeat CPU  0 instructions:  189000001 cycles:  289635525 heartbeat IPC: 0.37809 cumulative IPC: 0.37207 (Simulation time: 0 hr 7 min 39 sec) 
Heartbeat CPU  0 instructions:  190000002 cycles:  292268171 heartbeat IPC: 0.37985 cumulative IPC: 0.37215 (Simulation time: 0 hr 7 min 42 sec) 
Heartbeat CPU  0 instructions:  191000001 cycles:  294914742 heartbeat IPC: 0.37785 cumulative IPC: 0.37221 (Simulation time: 0 hr 7 min 46 sec) 
Heartbeat CPU  0 instructions:  192000000 cycles:  297550763 heartbeat IPC: 0.37936 cumulative IPC: 0.37229 (Simulation time: 0 hr 7 min 49 sec) 
Heartbeat CPU  0 instructions:  193000003 cycles:  300167511 heartbeat IPC: 0.38215 cumulative IPC: 0.37239 (Simulation time: 0 hr 7 min 52 sec) 
Heartbeat CPU  0 instructions:  194000002 cycles:  302771950 heartbeat IPC: 0.38396 cumulative IPC: 0.37251 (Simulation time: 0 hr 7 min 55 sec) 
Heartbeat CPU  0 instructions:  195000001 cycles:  304839412 heartbeat IPC: 0.48368 cumulative IPC: 0.37342 (Simulation time: 0 hr 7 min 58 sec) 
Heartbeat CPU  0 instructions:  196000000 cycles:  306752050 heartbeat IPC: 0.52284 cumulative IPC: 0.37453 (Simulation time: 0 hr 8 min 1 sec) 
Heartbeat CPU  0 instructions:  197000003 cycles:  308570601 heartbeat IPC: 0.54989 cumulative IPC: 0.37577 (Simulation time: 0 hr 8 min 3 sec) 
Heartbeat CPU  0 instructions:  198000000 cycles:  310273287 heartbeat IPC: 0.58731 cumulative IPC: 0.37715 (Simulation time: 0 hr 8 min 6 sec) 
Heartbeat CPU  0 instructions:  199000000 cycles:  311998194 heartbeat IPC: 0.57974 cumulative IPC: 0.37849 (Simulation time: 0 hr 8 min 9 sec) 
Heartbeat CPU  0 instructions:  200000000 cycles:  313772433 heartbeat IPC: 0.56362 cumulative IPC: 0.37974 (Simulation time: 0 hr 8 min 11 sec) 
Heartbeat CPU  0 instructions:  201000002 cycles:  315428495 heartbeat IPC: 0.60384 cumulative IPC: 0.38114 (Simulation time: 0 hr 8 min 14 sec) 
Heartbeat CPU  0 instructions:  202000000 cycles:  317056483 heartbeat IPC: 0.61425 cumulative IPC: 0.38256 (Simulation time: 0 hr 8 min 17 sec) 
Heartbeat CPU  0 instructions:  203000001 cycles:  318510802 heartbeat IPC: 0.68761 cumulative IPC: 0.38421 (Simulation time: 0 hr 8 min 19 sec) 
Heartbeat CPU  0 instructions:  204000000 cycles:  320109820 heartbeat IPC: 0.62538 cumulative IPC: 0.38564 (Simulation time: 0 hr 8 min 21 sec) 
Heartbeat CPU  0 instructions:  205000002 cycles:  321703077 heartbeat IPC: 0.62765 cumulative IPC: 0.38707 (Simulation time: 0 hr 8 min 24 sec) 
Heartbeat CPU  0 instructions:  206000003 cycles:  323268390 heartbeat IPC: 0.63885 cumulative IPC: 0.38851 (Simulation time: 0 hr 8 min 26 sec) 
Heartbeat CPU  0 instructions:  207000001 cycles:  324768327 heartbeat IPC: 0.66669 cumulative IPC: 0.39003 (Simulation time: 0 hr 8 min 29 sec) 
Heartbeat CPU  0 instructions:  208000000 cycles:  326279294 heartbeat IPC: 0.66183 cumulative IPC: 0.39152 (Simulation time: 0 hr 8 min 31 sec) 
Heartbeat CPU  0 instructions:  209000001 cycles:  327863141 heartbeat IPC: 0.63137 cumulative IPC: 0.39289 (Simulation time: 0 hr 8 min 34 sec) 
Heartbeat CPU  0 instructions:  210000003 cycles:  329436645 heartbeat IPC: 0.63553 cumulative IPC: 0.39426 (Simulation time: 0 hr 8 min 36 sec) 
Heartbeat CPU  0 instructions:  211000002 cycles:  330985899 heartbeat IPC: 0.64547 cumulative IPC: 0.39564 (Simulation time: 0 hr 8 min 39 sec) 
Heartbeat CPU  0 instructions:  212000000 cycles:  332429630 heartbeat IPC: 0.69265 cumulative IPC: 0.39716 (Simulation time: 0 hr 8 min 41 sec) 
Heartbeat CPU  0 instructions:  213000003 cycles:  333994890 heartbeat IPC: 0.63887 cumulative IPC: 0.39850 (Simulation time: 0 hr 8 min 44 sec) 
Heartbeat CPU  0 instructions:  214000000 cycles:  335582415 heartbeat IPC: 0.62991 cumulative IPC: 0.39979 (Simulation time: 0 hr 8 min 46 sec) 
Heartbeat CPU  0 instructions:  215000002 cycles:  337186569 heartbeat IPC: 0.62338 cumulative IPC: 0.40104 (Simulation time: 0 hr 8 min 49 sec) 
Heartbeat CPU  0 instructions:  216000000 cycles:  338704132 heartbeat IPC: 0.65895 cumulative IPC: 0.40240 (Simulation time: 0 hr 8 min 51 sec) 
Heartbeat CPU  0 instructions:  217000002 cycles:  340193327 heartbeat IPC: 0.67151 cumulative IPC: 0.40378 (Simulation time: 0 hr 8 min 54 sec) 
Heartbeat CPU  0 instructions:  218000000 cycles:  341785836 heartbeat IPC: 0.62794 cumulative IPC: 0.40500 (Simulation time: 0 hr 8 min 57 sec) 
Heartbeat CPU  0 instructions:  219000003 cycles:  343377137 heartbeat IPC: 0.62842 cumulative IPC: 0.40622 (Simulation time: 0 hr 8 min 59 sec) 
Heartbeat CPU  0 instructions:  220000000 cycles:  344970077 heartbeat IPC: 0.62777 cumulative IPC: 0.40742 (Simulation time: 0 hr 9 min 2 sec) 
Heartbeat CPU  0 instructions:  221000002 cycles:  346437335 heartbeat IPC: 0.68154 cumulative IPC: 0.40877 (Simulation time: 0 hr 9 min 4 sec) 
Heartbeat CPU  0 instructions:  222000001 cycles:  348029868 heartbeat IPC: 0.62793 cumulative IPC: 0.40995 (Simulation time: 0 hr 9 min 7 sec) 
Heartbeat CPU  0 instructions:  223000000 cycles:  349638904 heartbeat IPC: 0.62149 cumulative IPC: 0.41109 (Simulation time: 0 hr 9 min 9 sec) 
Heartbeat CPU  0 instructions:  224000000 cycles:  351243695 heartbeat IPC: 0.62313 cumulative IPC: 0.41222 (Simulation time: 0 hr 9 min 12 sec) 
Heartbeat CPU  0 instructions:  225000001 cycles:  352847853 heartbeat IPC: 0.62338 cumulative IPC: 0.41334 (Simulation time: 0 hr 9 min 14 sec) 
Heartbeat CPU  0 instructions:  226000003 cycles:  354335137 heartbeat IPC: 0.67237 cumulative IPC: 0.41460 (Simulation time: 0 hr 9 min 17 sec) 
Heartbeat CPU  0 instructions:  227000001 cycles:  355931713 heartbeat IPC: 0.62634 cumulative IPC: 0.41571 (Simulation time: 0 hr 9 min 19 sec) 
Heartbeat CPU  0 instructions:  228000000 cycles:  357531025 heartbeat IPC: 0.62527 cumulative IPC: 0.41680 (Simulation time: 0 hr 9 min 22 sec) 
Heartbeat CPU  0 instructions:  229000002 cycles:  359118739 heartbeat IPC: 0.62984 cumulative IPC: 0.41790 (Simulation time: 0 hr 9 min 24 sec) 
Heartbeat CPU  0 instructions:  230000002 cycles:  360613487 heartbeat IPC: 0.66901 cumulative IPC: 0.41911 (Simulation time: 0 hr 9 min 27 sec) 
Heartbeat CPU  0 instructions:  231000001 cycles:  362176026 heartbeat IPC: 0.63998 cumulative IPC: 0.42022 (Simulation time: 0 hr 9 min 29 sec) 
Heartbeat CPU  0 instructions:  232000000 cycles:  363753238 heartbeat IPC: 0.63403 cumulative IPC: 0.42129 (Simulation time: 0 hr 9 min 32 sec) 
Heartbeat CPU  0 instructions:  233000000 cycles:  365353276 heartbeat IPC: 0.62499 cumulative IPC: 0.42233 (Simulation time: 0 hr 9 min 34 sec) 
Heartbeat CPU  0 instructions:  234000003 cycles:  366908980 heartbeat IPC: 0.64280 cumulative IPC: 0.42341 (Simulation time: 0 hr 9 min 37 sec) 
Heartbeat CPU  0 instructions:  235000002 cycles:  368390930 heartbeat IPC: 0.67479 cumulative IPC: 0.42458 (Simulation time: 0 hr 9 min 39 sec) 
Heartbeat CPU  0 instructions:  236000000 cycles:  370002338 heartbeat IPC: 0.62057 cumulative IPC: 0.42557 (Simulation time: 0 hr 9 min 42 sec) 
Heartbeat CPU  0 instructions:  237000000 cycles:  371582521 heartbeat IPC: 0.63284 cumulative IPC: 0.42659 (Simulation time: 0 hr 9 min 44 sec) 
Heartbeat CPU  0 instructions:  238000001 cycles:  373169179 heartbeat IPC: 0.63026 cumulative IPC: 0.42759 (Simulation time: 0 hr 9 min 47 sec) 
Heartbeat CPU  0 instructions:  239000003 cycles:  374659676 heartbeat IPC: 0.67092 cumulative IPC: 0.42871 (Simulation time: 0 hr 9 min 49 sec) 
Heartbeat CPU  0 instructions:  240000000 cycles:  376219335 heartbeat IPC: 0.64116 cumulative IPC: 0.42973 (Simulation time: 0 hr 9 min 52 sec) 
Heartbeat CPU  0 instructions:  241000000 cycles:  377804426 heartbeat IPC: 0.63088 cumulative IPC: 0.43070 (Simulation time: 0 hr 9 min 54 sec) 
Heartbeat CPU  0 instructions:  242000000 cycles:  379376043 heartbeat IPC: 0.63629 cumulative IPC: 0.43168 (Simulation time: 0 hr 9 min 57 sec) 
Heartbeat CPU  0 instructions:  243000003 cycles:  380946555 heartbeat IPC: 0.63674 cumulative IPC: 0.43266 (Simulation time: 0 hr 9 min 59 sec) 
Heartbeat CPU  0 instructions:  244000000 cycles:  382401202 heartbeat IPC: 0.68745 cumulative IPC: 0.43377 (Simulation time: 0 hr 10 min 2 sec) 
Heartbeat CPU  0 instructions:  245000000 cycles:  383988855 heartbeat IPC: 0.62986 cumulative IPC: 0.43471 (Simulation time: 0 hr 10 min 4 sec) 
Heartbeat CPU  0 instructions:  246000002 cycles:  385582746 heartbeat IPC: 0.62740 cumulative IPC: 0.43562 (Simulation time: 0 hr 10 min 7 sec) 
Heartbeat CPU  0 instructions:  247000000 cycles:  387170869 heartbeat IPC: 0.62967 cumulative IPC: 0.43654 (Simulation time: 0 hr 10 min 9 sec) 
Heartbeat CPU  0 instructions:  248000000 cycles:  388688338 heartbeat IPC: 0.65899 cumulative IPC: 0.43754 (Simulation time: 0 hr 10 min 12 sec) 
Heartbeat CPU  0 instructions:  249000000 cycles:  390209948 heartbeat IPC: 0.65720 cumulative IPC: 0.43852 (Simulation time: 0 hr 10 min 14 sec) 
Heartbeat CPU  0 instructions:  250000001 cycles:  391808973 heartbeat IPC: 0.62538 cumulative IPC: 0.43940 (Simulation time: 0 hr 10 min 17 sec) 
Heartbeat CPU  0 instructions:  251000003 cycles:  393402740 heartbeat IPC: 0.62745 cumulative IPC: 0.44027 (Simulation time: 0 hr 10 min 19 sec) 
Heartbeat CPU  0 instructions:  252000000 cycles:  394967209 heartbeat IPC: 0.63919 cumulative IPC: 0.44117 (Simulation time: 0 hr 10 min 22 sec) 
Heartbeat CPU  0 instructions:  253000000 cycles:  396405436 heartbeat IPC: 0.69530 cumulative IPC: 0.44223 (Simulation time: 0 hr 10 min 24 sec) 
Heartbeat CPU  0 instructions:  254000000 cycles:  397983035 heartbeat IPC: 0.63387 cumulative IPC: 0.44310 (Simulation time: 0 hr 10 min 27 sec) 
Heartbeat CPU  0 instructions:  255000003 cycles:  399549195 heartbeat IPC: 0.63851 cumulative IPC: 0.44398 (Simulation time: 0 hr 10 min 29 sec) 
Heartbeat CPU  0 instructions:  256000000 cycles:  401145052 heartbeat IPC: 0.62662 cumulative IPC: 0.44481 (Simulation time: 0 hr 10 min 32 sec) 
Heartbeat CPU  0 instructions:  257000003 cycles:  402679663 heartbeat IPC: 0.65163 cumulative IPC: 0.44571 (Simulation time: 0 hr 10 min 34 sec) 
Heartbeat CPU  0 instructions:  258000000 cycles:  404178248 heartbeat IPC: 0.66729 cumulative IPC: 0.44665 (Simulation time: 0 hr 10 min 37 sec) 
Heartbeat CPU  0 instructions:  259000003 cycles:  405764720 heartbeat IPC: 0.63033 cumulative IPC: 0.44747 (Simulation time: 0 hr 10 min 39 sec) 
Heartbeat CPU  0 instructions:  260000000 cycles:  407325162 heartbeat IPC: 0.64084 cumulative IPC: 0.44831 (Simulation time: 0 hr 10 min 42 sec) 
Heartbeat CPU  0 instructions:  261000001 cycles:  408901745 heartbeat IPC: 0.63428 cumulative IPC: 0.44913 (Simulation time: 0 hr 10 min 44 sec) 
Heartbeat CPU  0 instructions:  262000000 cycles:  410369811 heartbeat IPC: 0.68117 cumulative IPC: 0.45008 (Simulation time: 0 hr 10 min 47 sec) 
Heartbeat CPU  0 instructions:  263000000 cycles:  411933076 heartbeat IPC: 0.63969 cumulative IPC: 0.45090 (Simulation time: 0 hr 10 min 49 sec) 
Heartbeat CPU  0 instructions:  264000000 cycles:  413515932 heartbeat IPC: 0.63177 cumulative IPC: 0.45168 (Simulation time: 0 hr 10 min 52 sec) 
Heartbeat CPU  0 instructions:  265000000 cycles:  415086347 heartbeat IPC: 0.63677 cumulative IPC: 0.45248 (Simulation time: 0 hr 10 min 54 sec) 
Heartbeat CPU  0 instructions:  266000001 cycles:  416644438 heartbeat IPC: 0.64181 cumulative IPC: 0.45329 (Simulation time: 0 hr 10 min 57 sec) 
Heartbeat CPU  0 instructions:  267000000 cycles:  418146342 heartbeat IPC: 0.66582 cumulative IPC: 0.45416 (Simulation time: 0 hr 10 min 59 sec) 
Heartbeat CPU  0 instructions:  268000000 cycles:  419713546 heartbeat IPC: 0.63808 cumulative IPC: 0.45494 (Simulation time: 0 hr 11 min 2 sec) 
Heartbeat CPU  0 instructions:  269000003 cycles:  421307344 heartbeat IPC: 0.62743 cumulative IPC: 0.45568 (Simulation time: 0 hr 11 min 4 sec) 
Heartbeat CPU  0 instructions:  270000002 cycles:  422884421 heartbeat IPC: 0.63408 cumulative IPC: 0.45643 (Simulation time: 0 hr 11 min 7 sec) 
Heartbeat CPU  0 instructions:  271000000 cycles:  424365570 heartbeat IPC: 0.67515 cumulative IPC: 0.45730 (Simulation time: 0 hr 11 min 9 sec) 
Heartbeat CPU  0 instructions:  272000000 cycles:  425942861 heartbeat IPC: 0.63400 cumulative IPC: 0.45804 (Simulation time: 0 hr 11 min 12 sec) 
Heartbeat CPU  0 instructions:  273000002 cycles:  427528115 heartbeat IPC: 0.63081 cumulative IPC: 0.45877 (Simulation time: 0 hr 11 min 14 sec) 
Heartbeat CPU  0 instructions:  274000002 cycles:  429109264 heartbeat IPC: 0.63245 cumulative IPC: 0.45949 (Simulation time: 0 hr 11 min 17 sec) 
Heartbeat CPU  0 instructions:  275000001 cycles:  430660663 heartbeat IPC: 0.64458 cumulative IPC: 0.46025 (Simulation time: 0 hr 11 min 19 sec) 
Heartbeat CPU  0 instructions:  276000000 cycles:  432144703 heartbeat IPC: 0.67384 cumulative IPC: 0.46108 (Simulation time: 0 hr 11 min 22 sec) 
Heartbeat CPU  0 instructions:  277000003 cycles:  433758035 heartbeat IPC: 0.61984 cumulative IPC: 0.46175 (Simulation time: 0 hr 11 min 24 sec) 
Heartbeat CPU  0 instructions:  278000003 cycles:  435342163 heartbeat IPC: 0.63126 cumulative IPC: 0.46244 (Simulation time: 0 hr 11 min 27 sec) 
Heartbeat CPU  0 instructions:  279000003 cycles:  436934580 heartbeat IPC: 0.62798 cumulative IPC: 0.46313 (Simulation time: 0 hr 11 min 29 sec) 
Heartbeat CPU  0 instructions:  280000000 cycles:  438420519 heartbeat IPC: 0.67297 cumulative IPC: 0.46393 (Simulation time: 0 hr 11 min 32 sec) 
Heartbeat CPU  0 instructions:  281000002 cycles:  439973692 heartbeat IPC: 0.64384 cumulative IPC: 0.46465 (Simulation time: 0 hr 11 min 34 sec) 
Heartbeat CPU  0 instructions:  282000001 cycles:  441569856 heartbeat IPC: 0.62650 cumulative IPC: 0.46531 (Simulation time: 0 hr 11 min 37 sec) 
Heartbeat CPU  0 instructions:  283000003 cycles:  443134365 heartbeat IPC: 0.63918 cumulative IPC: 0.46600 (Simulation time: 0 hr 11 min 39 sec) 
Heartbeat CPU  0 instructions:  284000000 cycles:  444697872 heartbeat IPC: 0.63959 cumulative IPC: 0.46669 (Simulation time: 0 hr 11 min 42 sec) 
Heartbeat CPU  0 instructions:  285000002 cycles:  446144897 heartbeat IPC: 0.69107 cumulative IPC: 0.46751 (Simulation time: 0 hr 11 min 44 sec) 
Heartbeat CPU  0 instructions:  286000001 cycles:  447724131 heartbeat IPC: 0.63322 cumulative IPC: 0.46817 (Simulation time: 0 hr 11 min 47 sec) 
Heartbeat CPU  0 instructions:  287000001 cycles:  449299024 heartbeat IPC: 0.63496 cumulative IPC: 0.46883 (Simulation time: 0 hr 11 min 49 sec) 
Heartbeat CPU  0 instructions:  288000000 cycles:  450891809 heartbeat IPC: 0.62783 cumulative IPC: 0.46946 (Simulation time: 0 hr 11 min 52 sec) 
Heartbeat CPU  0 instructions:  289000000 cycles:  452398729 heartbeat IPC: 0.66361 cumulative IPC: 0.47019 (Simulation time: 0 hr 11 min 54 sec) 
Heartbeat CPU  0 instructions:  290000000 cycles:  453916526 heartbeat IPC: 0.65885 cumulative IPC: 0.47090 (Simulation time: 0 hr 11 min 57 sec) 
Heartbeat CPU  0 instructions:  291000002 cycles:  455509847 heartbeat IPC: 0.62762 cumulative IPC: 0.47151 (Simulation time: 0 hr 11 min 59 sec) 
Heartbeat CPU  0 instructions:  292000000 cycles:  457099641 heartbeat IPC: 0.62901 cumulative IPC: 0.47213 (Simulation time: 0 hr 12 min 2 sec) 
Heartbeat CPU  0 instructions:  293000001 cycles:  458688737 heartbeat IPC: 0.62929 cumulative IPC: 0.47274 (Simulation time: 0 hr 12 min 4 sec) 
Heartbeat CPU  0 instructions:  294000002 cycles:  460139646 heartbeat IPC: 0.68922 cumulative IPC: 0.47351 (Simulation time: 0 hr 12 min 7 sec) 
Heartbeat CPU  0 instructions:  295000003 cycles:  461718021 heartbeat IPC: 0.63356 cumulative IPC: 0.47412 (Simulation time: 0 hr 12 min 9 sec) 
Heartbeat CPU  0 instructions:  296000000 cycles:  463296848 heartbeat IPC: 0.63338 cumulative IPC: 0.47473 (Simulation time: 0 hr 12 min 12 sec) 
Heartbeat CPU  0 instructions:  297000003 cycles:  464896142 heartbeat IPC: 0.62528 cumulative IPC: 0.47531 (Simulation time: 0 hr 12 min 14 sec) 
Heartbeat CPU  0 instructions:  298000002 cycles:  466438122 heartbeat IPC: 0.64852 cumulative IPC: 0.47595 (Simulation time: 0 hr 12 min 17 sec) 
Heartbeat CPU  0 instructions:  299000003 cycles:  467950085 heartbeat IPC: 0.66139 cumulative IPC: 0.47662 (Simulation time: 0 hr 12 min 19 sec) 
Heartbeat CPU  0 instructions:  300000000 cycles:  469532206 heartbeat IPC: 0.63206 cumulative IPC: 0.47721 (Simulation time: 0 hr 12 min 22 sec) 
Heartbeat CPU  0 instructions:  301000000 cycles:  471111529 heartbeat IPC: 0.63318 cumulative IPC: 0.47780 (Simulation time: 0 hr 12 min 24 sec) 
Heartbeat CPU  0 instructions:  302000003 cycles:  472679502 heartbeat IPC: 0.63777 cumulative IPC: 0.47839 (Simulation time: 0 hr 12 min 27 sec) 
Heartbeat CPU  0 instructions:  303000002 cycles:  474158184 heartbeat IPC: 0.67628 cumulative IPC: 0.47908 (Simulation time: 0 hr 12 min 29 sec) 
Heartbeat CPU  0 instructions:  304000000 cycles:  475733821 heartbeat IPC: 0.63466 cumulative IPC: 0.47966 (Simulation time: 0 hr 12 min 32 sec) 
Heartbeat CPU  0 instructions:  305000001 cycles:  477309294 heartbeat IPC: 0.63473 cumulative IPC: 0.48023 (Simulation time: 0 hr 12 min 34 sec) 
Heartbeat CPU  0 instructions:  306000003 cycles:  478866203 heartbeat IPC: 0.64230 cumulative IPC: 0.48082 (Simulation time: 0 hr 12 min 37 sec) 
Heartbeat CPU  0 instructions:  307000000 cycles:  480406811 heartbeat IPC: 0.64909 cumulative IPC: 0.48142 (Simulation time: 0 hr 12 min 39 sec) 
Heartbeat CPU  0 instructions:  308000000 cycles:  481908847 heartbeat IPC: 0.66576 cumulative IPC: 0.48206 (Simulation time: 0 hr 12 min 42 sec) 
Heartbeat CPU  0 instructions:  309000000 cycles:  483491387 heartbeat IPC: 0.63190 cumulative IPC: 0.48261 (Simulation time: 0 hr 12 min 44 sec) 
Heartbeat CPU  0 instructions:  310000003 cycles:  485067679 heartbeat IPC: 0.63440 cumulative IPC: 0.48316 (Simulation time: 0 hr 12 min 47 sec) 
Heartbeat CPU  0 instructions:  311000001 cycles:  486645997 heartbeat IPC: 0.63358 cumulative IPC: 0.48371 (Simulation time: 0 hr 12 min 49 sec) 
Heartbeat CPU  0 instructions:  312000000 cycles:  488122492 heartbeat IPC: 0.67728 cumulative IPC: 0.48436 (Simulation time: 0 hr 12 min 52 sec) 
Heartbeat CPU  0 instructions:  313000001 cycles:  489700719 heartbeat IPC: 0.63362 cumulative IPC: 0.48490 (Simulation time: 0 hr 12 min 54 sec) 
Heartbeat CPU  0 instructions:  314000000 cycles:  491296808 heartbeat IPC: 0.62653 cumulative IPC: 0.48541 (Simulation time: 0 hr 12 min 57 sec) 
Heartbeat CPU  0 instructions:  315000000 cycles:  492879938 heartbeat IPC: 0.63166 cumulative IPC: 0.48593 (Simulation time: 0 hr 12 min 59 sec) 
Heartbeat CPU  0 instructions:  316000000 cycles:  494438264 heartbeat IPC: 0.64171 cumulative IPC: 0.48648 (Simulation time: 0 hr 13 min 2 sec) 
Heartbeat CPU  0 instructions:  317000000 cycles:  495923968 heartbeat IPC: 0.67308 cumulative IPC: 0.48710 (Simulation time: 0 hr 13 min 4 sec) 
Heartbeat CPU  0 instructions:  318000002 cycles:  497524139 heartbeat IPC: 0.62493 cumulative IPC: 0.48759 (Simulation time: 0 hr 13 min 7 sec) 
Heartbeat CPU  0 instructions:  319000001 cycles:  499122923 heartbeat IPC: 0.62547 cumulative IPC: 0.48809 (Simulation time: 0 hr 13 min 9 sec) 
Heartbeat CPU  0 instructions:  320000000 cycles:  500714970 heartbeat IPC: 0.62812 cumulative IPC: 0.48858 (Simulation time: 0 hr 13 min 12 sec) 
Heartbeat CPU  0 instructions:  321000003 cycles:  502200300 heartbeat IPC: 0.67325 cumulative IPC: 0.48919 (Simulation time: 0 hr 13 min 14 sec) 
Heartbeat CPU  0 instructions:  322000003 cycles:  503757909 heartbeat IPC: 0.64201 cumulative IPC: 0.48971 (Simulation time: 0 hr 13 min 17 sec) 
Heartbeat CPU  0 instructions:  323000003 cycles:  505353354 heartbeat IPC: 0.62678 cumulative IPC: 0.49019 (Simulation time: 0 hr 13 min 19 sec) 
Heartbeat CPU  0 instructions:  324000000 cycles:  506935435 heartbeat IPC: 0.63208 cumulative IPC: 0.49069 (Simulation time: 0 hr 13 min 22 sec) 
Heartbeat CPU  0 instructions:  325000000 cycles:  508511609 heartbeat IPC: 0.63445 cumulative IPC: 0.49118 (Simulation time: 0 hr 13 min 24 sec) 
Heartbeat CPU  0 instructions:  326000001 cycles:  509963565 heartbeat IPC: 0.68873 cumulative IPC: 0.49180 (Simulation time: 0 hr 13 min 27 sec) 
Heartbeat CPU  0 instructions:  327000001 cycles:  511542891 heartbeat IPC: 0.63318 cumulative IPC: 0.49229 (Simulation time: 0 hr 13 min 29 sec) 
Heartbeat CPU  0 instructions:  328000000 cycles:  513114202 heartbeat IPC: 0.63641 cumulative IPC: 0.49278 (Simulation time: 0 hr 13 min 32 sec) 
Heartbeat CPU  0 instructions:  329000000 cycles:  514682434 heartbeat IPC: 0.63766 cumulative IPC: 0.49327 (Simulation time: 0 hr 13 min 34 sec) 
Heartbeat CPU  0 instructions:  330000000 cycles:  516205524 heartbeat IPC: 0.65656 cumulative IPC: 0.49380 (Simulation time: 0 hr 13 min 37 sec) 
Heartbeat CPU  0 instructions:  331000003 cycles:  517722056 heartbeat IPC: 0.65940 cumulative IPC: 0.49434 (Simulation time: 0 hr 13 min 39 sec) 
Heartbeat CPU  0 instructions:  332000000 cycles:  519312276 heartbeat IPC: 0.62884 cumulative IPC: 0.49479 (Simulation time: 0 hr 13 min 42 sec) 
Heartbeat CPU  0 instructions:  333000002 cycles:  520880108 heartbeat IPC: 0.63782 cumulative IPC: 0.49527 (Simulation time: 0 hr 13 min 44 sec) 
Heartbeat CPU  0 instructions:  334000003 cycles:  522443870 heartbeat IPC: 0.63948 cumulative IPC: 0.49575 (Simulation time: 0 hr 13 min 47 sec) 
Heartbeat CPU  0 instructions:  335000000 cycles:  523906794 heartbeat IPC: 0.68356 cumulative IPC: 0.49633 (Simulation time: 0 hr 13 min 49 sec) 
Heartbeat CPU  0 instructions:  336000000 cycles:  525491545 heartbeat IPC: 0.63101 cumulative IPC: 0.49678 (Simulation time: 0 hr 13 min 52 sec) 
Heartbeat CPU  0 instructions:  337000001 cycles:  527048141 heartbeat IPC: 0.64243 cumulative IPC: 0.49725 (Simulation time: 0 hr 13 min 54 sec) 
Heartbeat CPU  0 instructions:  338000003 cycles:  528619207 heartbeat IPC: 0.63651 cumulative IPC: 0.49771 (Simulation time: 0 hr 13 min 57 sec) 
Heartbeat CPU  0 instructions:  339000000 cycles:  530137042 heartbeat IPC: 0.65883 cumulative IPC: 0.49822 (Simulation time: 0 hr 13 min 59 sec) 
Heartbeat CPU  0 instructions:  340000000 cycles:  531650167 heartbeat IPC: 0.66088 cumulative IPC: 0.49873 (Simulation time: 0 hr 14 min 2 sec) 
Heartbeat CPU  0 instructions:  341000002 cycles:  533225344 heartbeat IPC: 0.63485 cumulative IPC: 0.49918 (Simulation time: 0 hr 14 min 4 sec) 
Heartbeat CPU  0 instructions:  342000002 cycles:  534787886 heartbeat IPC: 0.63998 cumulative IPC: 0.49963 (Simulation time: 0 hr 14 min 7 sec) 
Heartbeat CPU  0 instructions:  343000001 cycles:  536344117 heartbeat IPC: 0.64258 cumulative IPC: 0.50009 (Simulation time: 0 hr 14 min 9 sec) 
Heartbeat CPU  0 instructions:  344000000 cycles:  537793766 heartbeat IPC: 0.68982 cumulative IPC: 0.50065 (Simulation time: 0 hr 14 min 12 sec) 
Heartbeat CPU  0 instructions:  345000003 cycles:  539376711 heartbeat IPC: 0.63174 cumulative IPC: 0.50108 (Simulation time: 0 hr 14 min 14 sec) 
Heartbeat CPU  0 instructions:  346000001 cycles:  540893857 heartbeat IPC: 0.65913 cumulative IPC: 0.50157 (Simulation time: 0 hr 14 min 17 sec) 
Heartbeat CPU  0 instructions:  347000003 cycles:  543417860 heartbeat IPC: 0.39620 cumulative IPC: 0.50103 (Simulation time: 0 hr 14 min 20 sec) 
Heartbeat CPU  0 instructions:  348000000 cycles:  548026993 heartbeat IPC: 0.21696 cumulative IPC: 0.49840 (Simulation time: 0 hr 14 min 23 sec) 
Heartbeat CPU  0 instructions:  349000002 cycles:  552249102 heartbeat IPC: 0.23685 cumulative IPC: 0.49620 (Simulation time: 0 hr 14 min 27 sec) 
Heartbeat CPU  0 instructions:  350000000 cycles:  556102519 heartbeat IPC: 0.25951 cumulative IPC: 0.49439 (Simulation time: 0 hr 14 min 30 sec) 
Heartbeat CPU  0 instructions:  351000002 cycles:  559925836 heartbeat IPC: 0.26155 cumulative IPC: 0.49264 (Simulation time: 0 hr 14 min 34 sec) 
Heartbeat CPU  0 instructions:  352000000 cycles:  563712567 heartbeat IPC: 0.26408 cumulative IPC: 0.49096 (Simulation time: 0 hr 14 min 37 sec) 
Heartbeat CPU  0 instructions:  353000000 cycles:  567602484 heartbeat IPC: 0.25707 cumulative IPC: 0.48920 (Simulation time: 0 hr 14 min 41 sec) 
Heartbeat CPU  0 instructions:  354000000 cycles:  571642524 heartbeat IPC: 0.24752 cumulative IPC: 0.48733 (Simulation time: 0 hr 14 min 44 sec) 
Heartbeat CPU  0 instructions:  355000003 cycles:  575669664 heartbeat IPC: 0.24832 cumulative IPC: 0.48549 (Simulation time: 0 hr 14 min 48 sec) 
Heartbeat CPU  0 instructions:  356000000 cycles:  580037750 heartbeat IPC: 0.22893 cumulative IPC: 0.48338 (Simulation time: 0 hr 14 min 51 sec) 
Heartbeat CPU  0 instructions:  357000000 cycles:  584501870 heartbeat IPC: 0.22401 cumulative IPC: 0.48121 (Simulation time: 0 hr 14 min 55 sec) 
Heartbeat CPU  0 instructions:  358000000 cycles:  588917967 heartbeat IPC: 0.22644 cumulative IPC: 0.47912 (Simulation time: 0 hr 14 min 59 sec) 
Heartbeat CPU  0 instructions:  359000000 cycles:  593398748 heartbeat IPC: 0.22318 cumulative IPC: 0.47701 (Simulation time: 0 hr 15 min 3 sec) 
Heartbeat CPU  0 instructions:  360000000 cycles:  597926328 heartbeat IPC: 0.22087 cumulative IPC: 0.47489 (Simulation time: 0 hr 15 min 6 sec) 
Heartbeat CPU  0 instructions:  361000000 cycles:  602415699 heartbeat IPC: 0.22275 cumulative IPC: 0.47284 (Simulation time: 0 hr 15 min 10 sec) 
Heartbeat CPU  0 instructions:  362000001 cycles:  606908592 heartbeat IPC: 0.22257 cumulative IPC: 0.47082 (Simulation time: 0 hr 15 min 14 sec) 
Heartbeat CPU  0 instructions:  363000003 cycles:  611510060 heartbeat IPC: 0.21732 cumulative IPC: 0.46874 (Simulation time: 0 hr 15 min 18 sec) 
Heartbeat CPU  0 instructions:  364000000 cycles:  616107525 heartbeat IPC: 0.21751 cumulative IPC: 0.46670 (Simulation time: 0 hr 15 min 21 sec) 
Heartbeat CPU  0 instructions:  365000000 cycles:  620621515 heartbeat IPC: 0.22153 cumulative IPC: 0.46476 (Simulation time: 0 hr 15 min 25 sec) 
Heartbeat CPU  0 instructions:  366000000 cycles:  625211164 heartbeat IPC: 0.21788 cumulative IPC: 0.46279 (Simulation time: 0 hr 15 min 29 sec) 
Heartbeat CPU  0 instructions:  367000001 cycles:  629785568 heartbeat IPC: 0.21861 cumulative IPC: 0.46086 (Simulation time: 0 hr 15 min 33 sec) 
Heartbeat CPU  0 instructions:  368000000 cycles:  634353324 heartbeat IPC: 0.21893 cumulative IPC: 0.45897 (Simulation time: 0 hr 15 min 37 sec) 
Heartbeat CPU  0 instructions:  369000000 cycles:  638881651 heartbeat IPC: 0.22083 cumulative IPC: 0.45713 (Simulation time: 0 hr 15 min 40 sec) 
Heartbeat CPU  0 instructions:  370000002 cycles:  643441249 heartbeat IPC: 0.21932 cumulative IPC: 0.45530 (Simulation time: 0 hr 15 min 44 sec) 
Heartbeat CPU  0 instructions:  371000002 cycles:  648024235 heartbeat IPC: 0.21820 cumulative IPC: 0.45349 (Simulation time: 0 hr 15 min 48 sec) 
Heartbeat CPU  0 instructions:  372000000 cycles:  652600697 heartbeat IPC: 0.21851 cumulative IPC: 0.45170 (Simulation time: 0 hr 15 min 52 sec) 
Heartbeat CPU  0 instructions:  373000002 cycles:  657163888 heartbeat IPC: 0.21915 cumulative IPC: 0.44995 (Simulation time: 0 hr 15 min 55 sec) 
Heartbeat CPU  0 instructions:  374000003 cycles:  661685210 heartbeat IPC: 0.22117 cumulative IPC: 0.44826 (Simulation time: 0 hr 15 min 59 sec) 
Heartbeat CPU  0 instructions:  375000003 cycles:  666307111 heartbeat IPC: 0.21636 cumulative IPC: 0.44652 (Simulation time: 0 hr 16 min 3 sec) 
Heartbeat CPU  0 instructions:  376000000 cycles:  670792569 heartbeat IPC: 0.22294 cumulative IPC: 0.44490 (Simulation time: 0 hr 16 min 7 sec) 
Heartbeat CPU  0 instructions:  377000003 cycles:  675372201 heartbeat IPC: 0.21836 cumulative IPC: 0.44324 (Simulation time: 0 hr 16 min 10 sec) 
Heartbeat CPU  0 instructions:  378000002 cycles:  679943043 heartbeat IPC: 0.21878 cumulative IPC: 0.44161 (Simulation time: 0 hr 16 min 14 sec) 
Heartbeat CPU  0 instructions:  379000003 cycles:  684507327 heartbeat IPC: 0.21909 cumulative IPC: 0.44001 (Simulation time: 0 hr 16 min 18 sec) 
Heartbeat CPU  0 instructions:  380000000 cycles:  689002067 heartbeat IPC: 0.22248 cumulative IPC: 0.43848 (Simulation time: 0 hr 16 min 22 sec) 
Heartbeat CPU  0 instructions:  381000002 cycles:  693657732 heartbeat IPC: 0.21479 cumulative IPC: 0.43686 (Simulation time: 0 hr 16 min 25 sec) 
Heartbeat CPU  0 instructions:  382000001 cycles:  698210774 heartbeat IPC: 0.21963 cumulative IPC: 0.43533 (Simulation time: 0 hr 16 min 29 sec) 
Heartbeat CPU  0 instructions:  383000000 cycles:  702758706 heartbeat IPC: 0.21988 cumulative IPC: 0.43383 (Simulation time: 0 hr 16 min 33 sec) 
Heartbeat CPU  0 instructions:  384000000 cycles:  707327427 heartbeat IPC: 0.21888 cumulative IPC: 0.43234 (Simulation time: 0 hr 16 min 37 sec) 
Heartbeat CPU  0 instructions:  385000000 cycles:  711858135 heartbeat IPC: 0.22072 cumulative IPC: 0.43089 (Simulation time: 0 hr 16 min 41 sec) 
Heartbeat CPU  0 instructions:  386000001 cycles:  716432689 heartbeat IPC: 0.21860 cumulative IPC: 0.42943 (Simulation time: 0 hr 16 min 44 sec) 
Heartbeat CPU  0 instructions:  387000003 cycles:  721036876 heartbeat IPC: 0.21719 cumulative IPC: 0.42797 (Simulation time: 0 hr 16 min 48 sec) 
Heartbeat CPU  0 instructions:  388000000 cycles:  725567440 heartbeat IPC: 0.22072 cumulative IPC: 0.42658 (Simulation time: 0 hr 16 min 52 sec) 
Heartbeat CPU  0 instructions:  389000001 cycles:  730092141 heartbeat IPC: 0.22101 cumulative IPC: 0.42521 (Simulation time: 0 hr 16 min 56 sec) 
Heartbeat CPU  0 instructions:  390000000 cycles:  734714170 heartbeat IPC: 0.21635 cumulative IPC: 0.42380 (Simulation time: 0 hr 16 min 59 sec) 
Heartbeat CPU  0 instructions:  391000000 cycles:  739262242 heartbeat IPC: 0.21987 cumulative IPC: 0.42245 (Simulation time: 0 hr 17 min 3 sec) 
Heartbeat CPU  0 instructions:  392000000 cycles:  743665770 heartbeat IPC: 0.22709 cumulative IPC: 0.42121 (Simulation time: 0 hr 17 min 7 sec) 
Heartbeat CPU  0 instructions:  393000002 cycles:  750812601 heartbeat IPC: 0.13992 cumulative IPC: 0.41834 (Simulation time: 0 hr 17 min 13 sec) 
Heartbeat CPU  0 instructions:  394000001 cycles:  765776159 heartbeat IPC: 0.06683 cumulative IPC: 0.41099 (Simulation time: 0 hr 17 min 22 sec) 
Heartbeat CPU  0 instructions:  395000000 cycles:  775347232 heartbeat IPC: 0.10448 cumulative IPC: 0.40694 (Simulation time: 0 hr 17 min 28 sec) 
Heartbeat CPU  0 instructions:  396000000 cycles:  779238230 heartbeat IPC: 0.25700 cumulative IPC: 0.40614 (Simulation time: 0 hr 17 min 32 sec) 
Heartbeat CPU  0 instructions:  397000000 cycles:  783438959 heartbeat IPC: 0.23805 cumulative IPC: 0.40518 (Simulation time: 0 hr 17 min 36 sec) 
Heartbeat CPU  0 instructions:  398000001 cycles:  787172696 heartbeat IPC: 0.26783 cumulative IPC: 0.40448 (Simulation time: 0 hr 17 min 40 sec) 
Heartbeat CPU  0 instructions:  399000002 cycles:  790335734 heartbeat IPC: 0.31615 cumulative IPC: 0.40411 (Simulation time: 0 hr 17 min 43 sec) 
Heartbeat CPU  0 instructions:  400000000 cycles:  793498539 heartbeat IPC: 0.31617 cumulative IPC: 0.40373 (Simulation time: 0 hr 17 min 47 sec) 
Heartbeat CPU  0 instructions:  401000003 cycles:  796677126 heartbeat IPC: 0.31461 cumulative IPC: 0.40335 (Simulation time: 0 hr 17 min 50 sec) 
Heartbeat CPU  0 instructions:  402000002 cycles:  800539939 heartbeat IPC: 0.25888 cumulative IPC: 0.40261 (Simulation time: 0 hr 17 min 54 sec) 
Heartbeat CPU  0 instructions:  403000002 cycles:  805381012 heartbeat IPC: 0.20657 cumulative IPC: 0.40135 (Simulation time: 0 hr 17 min 58 sec) 
Heartbeat CPU  0 instructions:  404000000 cycles:  810197271 heartbeat IPC: 0.20763 cumulative IPC: 0.40012 (Simulation time: 0 hr 18 min 2 sec) 
Heartbeat CPU  0 instructions:  405000000 cycles:  813681792 heartbeat IPC: 0.28698 cumulative IPC: 0.39961 (Simulation time: 0 hr 18 min 6 sec) 
Heartbeat CPU  0 instructions:  406000000 cycles:  816984843 heartbeat IPC: 0.30275 cumulative IPC: 0.39919 (Simulation time: 0 hr 18 min 9 sec) 
Heartbeat CPU  0 instructions:  407000000 cycles:  820306803 heartbeat IPC: 0.30103 cumulative IPC: 0.39877 (Simulation time: 0 hr 18 min 13 sec) 
Heartbeat CPU  0 instructions:  408000000 cycles:  824066522 heartbeat IPC: 0.26598 cumulative IPC: 0.39812 (Simulation time: 0 hr 18 min 17 sec) 
Heartbeat CPU  0 instructions:  409000001 cycles:  831066398 heartbeat IPC: 0.14286 cumulative IPC: 0.39583 (Simulation time: 0 hr 18 min 22 sec) 
Heartbeat CPU  0 instructions:  410000003 cycles:  836085340 heartbeat IPC: 0.19925 cumulative IPC: 0.39458 (Simulation time: 0 hr 18 min 27 sec) 
Heartbeat CPU  0 instructions:  411000002 cycles:  840102745 heartbeat IPC: 0.24892 cumulative IPC: 0.39383 (Simulation time: 0 hr 18 min 30 sec) 
Heartbeat CPU  0 instructions:  412000000 cycles:  841864991 heartbeat IPC: 0.56746 cumulative IPC: 0.39422 (Simulation time: 0 hr 18 min 33 sec) 
Heartbeat CPU  0 instructions:  413000003 cycles:  843148528 heartbeat IPC: 0.77910 cumulative IPC: 0.39484 (Simulation time: 0 hr 18 min 35 sec) 
Heartbeat CPU  0 instructions:  414000000 cycles:  844523396 heartbeat IPC: 0.72734 cumulative IPC: 0.39542 (Simulation time: 0 hr 18 min 38 sec) 
Heartbeat CPU  0 instructions:  415000002 cycles:  845985683 heartbeat IPC: 0.68386 cumulative IPC: 0.39595 (Simulation time: 0 hr 18 min 40 sec) 
Heartbeat CPU  0 instructions:  416000000 cycles:  847385985 heartbeat IPC: 0.71413 cumulative IPC: 0.39651 (Simulation time: 0 hr 18 min 42 sec) 
Heartbeat CPU  0 instructions:  417000000 cycles:  848763377 heartbeat IPC: 0.72601 cumulative IPC: 0.39708 (Simulation time: 0 hr 18 min 45 sec) 
Heartbeat CPU  0 instructions:  418000001 cycles:  850117427 heartbeat IPC: 0.73853 cumulative IPC: 0.39766 (Simulation time: 0 hr 18 min 47 sec) 
Heartbeat CPU  0 instructions:  419000003 cycles:  851531975 heartbeat IPC: 0.70694 cumulative IPC: 0.39820 (Simulation time: 0 hr 18 min 50 sec) 
Heartbeat CPU  0 instructions:  420000000 cycles:  852936512 heartbeat IPC: 0.71198 cumulative IPC: 0.39875 (Simulation time: 0 hr 18 min 52 sec) 
Heartbeat CPU  0 instructions:  421000001 cycles:  854518009 heartbeat IPC: 0.63231 cumulative IPC: 0.39921 (Simulation time: 0 hr 18 min 55 sec) 
Heartbeat CPU  0 instructions:  422000000 cycles:  856114477 heartbeat IPC: 0.62638 cumulative IPC: 0.39966 (Simulation time: 0 hr 18 min 57 sec) 
Heartbeat CPU  0 instructions:  423000002 cycles:  857688379 heartbeat IPC: 0.63536 cumulative IPC: 0.40012 (Simulation time: 0 hr 19 min 0 sec) 
Heartbeat CPU  0 instructions:  424000000 cycles:  859312142 heartbeat IPC: 0.61585 cumulative IPC: 0.40055 (Simulation time: 0 hr 19 min 2 sec) 
Heartbeat CPU  0 instructions:  425000000 cycles:  861015474 heartbeat IPC: 0.58708 cumulative IPC: 0.40095 (Simulation time: 0 hr 19 min 5 sec) 
Heartbeat CPU  0 instructions:  426000003 cycles:  862679944 heartbeat IPC: 0.60079 cumulative IPC: 0.40135 (Simulation time: 0 hr 19 min 7 sec) 
Heartbeat CPU  0 instructions:  427000003 cycles:  864464947 heartbeat IPC: 0.56022 cumulative IPC: 0.40170 (Simulation time: 0 hr 19 min 10 sec) 
Heartbeat CPU  0 instructions:  428000000 cycles:  866265223 heartbeat IPC: 0.55547 cumulative IPC: 0.40204 (Simulation time: 0 hr 19 min 12 sec) 
Heartbeat CPU  0 instructions:  429000002 cycles:  868072939 heartbeat IPC: 0.55319 cumulative IPC: 0.40238 (Simulation time: 0 hr 19 min 15 sec) 
Heartbeat CPU  0 instructions:  430000002 cycles:  869636575 heartbeat IPC: 0.63954 cumulative IPC: 0.40283 (Simulation time: 0 hr 19 min 18 sec) 
Heartbeat CPU  0 instructions:  431000003 cycles:  871433498 heartbeat IPC: 0.55651 cumulative IPC: 0.40317 (Simulation time: 0 hr 19 min 20 sec) 
Heartbeat CPU  0 instructions:  432000000 cycles:  873073772 heartbeat IPC: 0.60965 cumulative IPC: 0.40358 (Simulation time: 0 hr 19 min 23 sec) 
Heartbeat CPU  0 instructions:  433000001 cycles:  874801120 heartbeat IPC: 0.57892 cumulative IPC: 0.40394 (Simulation time: 0 hr 19 min 25 sec) 
Heartbeat CPU  0 instructions:  434000001 cycles:  876572732 heartbeat IPC: 0.56446 cumulative IPC: 0.40429 (Simulation time: 0 hr 19 min 28 sec) 
Heartbeat CPU  0 instructions:  435000000 cycles:  878325251 heartbeat IPC: 0.57061 cumulative IPC: 0.40464 (Simulation time: 0 hr 19 min 30 sec) 
Heartbeat CPU  0 instructions:  436000000 cycles:  880119354 heartbeat IPC: 0.55738 cumulative IPC: 0.40497 (Simulation time: 0 hr 19 min 33 sec) 
Heartbeat CPU  0 instructions:  437000002 cycles:  881873986 heartbeat IPC: 0.56992 cumulative IPC: 0.40532 (Simulation time: 0 hr 19 min 35 sec) 
Heartbeat CPU  0 instructions:  438000000 cycles:  883630616 heartbeat IPC: 0.56927 cumulative IPC: 0.40567 (Simulation time: 0 hr 19 min 38 sec) 
Heartbeat CPU  0 instructions:  439000003 cycles:  885377929 heartbeat IPC: 0.57231 cumulative IPC: 0.40601 (Simulation time: 0 hr 19 min 41 sec) 
Heartbeat CPU  0 instructions:  440000000 cycles:  887148290 heartbeat IPC: 0.56485 cumulative IPC: 0.40635 (Simulation time: 0 hr 19 min 43 sec) 
Heartbeat CPU  0 instructions:  441000000 cycles:  888944319 heartbeat IPC: 0.55678 cumulative IPC: 0.40667 (Simulation time: 0 hr 19 min 46 sec) 
Heartbeat CPU  0 instructions:  442000003 cycles:  890667731 heartbeat IPC: 0.58025 cumulative IPC: 0.40703 (Simulation time: 0 hr 19 min 48 sec) 
Heartbeat CPU  0 instructions:  443000002 cycles:  892557556 heartbeat IPC: 0.52915 cumulative IPC: 0.40730 (Simulation time: 0 hr 19 min 51 sec) 
Heartbeat CPU  0 instructions:  444000000 cycles:  894268731 heartbeat IPC: 0.58439 cumulative IPC: 0.40766 (Simulation time: 0 hr 19 min 54 sec) 
Heartbeat CPU  0 instructions:  445000003 cycles:  896050001 heartbeat IPC: 0.56140 cumulative IPC: 0.40799 (Simulation time: 0 hr 19 min 57 sec) 
Heartbeat CPU  0 instructions:  446000002 cycles:  897689102 heartbeat IPC: 0.61009 cumulative IPC: 0.40838 (Simulation time: 0 hr 19 min 59 sec) 
Heartbeat CPU  0 instructions:  447000000 cycles:  899457393 heartbeat IPC: 0.56552 cumulative IPC: 0.40870 (Simulation time: 0 hr 20 min 2 sec) 
Heartbeat CPU  0 instructions:  448000000 cycles:  901173834 heartbeat IPC: 0.58260 cumulative IPC: 0.40905 (Simulation time: 0 hr 20 min 4 sec) 
Heartbeat CPU  0 instructions:  449000003 cycles:  902988169 heartbeat IPC: 0.55117 cumulative IPC: 0.40936 (Simulation time: 0 hr 20 min 7 sec) 
Heartbeat CPU  0 instructions:  450000001 cycles:  904723059 heartbeat IPC: 0.57640 cumulative IPC: 0.40970 (Simulation time: 0 hr 20 min 10 sec) 
Heartbeat CPU  0 instructions:  451000003 cycles:  906502953 heartbeat IPC: 0.56183 cumulative IPC: 0.41001 (Simulation time: 0 hr 20 min 12 sec) 
Heartbeat CPU  0 instructions:  452000000 cycles:  908293587 heartbeat IPC: 0.55846 cumulative IPC: 0.41032 (Simulation time: 0 hr 20 min 15 sec) 
Heartbeat CPU  0 instructions:  453000000 cycles:  910049856 heartbeat IPC: 0.56939 cumulative IPC: 0.41065 (Simulation time: 0 hr 20 min 17 sec) 
Heartbeat CPU  0 instructions:  454000000 cycles:  911821201 heartbeat IPC: 0.56454 cumulative IPC: 0.41096 (Simulation time: 0 hr 20 min 20 sec) 
Heartbeat CPU  0 instructions:  455000002 cycles:  913637210 heartbeat IPC: 0.55066 cumulative IPC: 0.41126 (Simulation time: 0 hr 20 min 22 sec) 
Heartbeat CPU  0 instructions:  456000000 cycles:  915478093 heartbeat IPC: 0.54322 cumulative IPC: 0.41154 (Simulation time: 0 hr 20 min 25 sec) 
Heartbeat CPU  0 instructions:  457000000 cycles:  917226418 heartbeat IPC: 0.57198 cumulative IPC: 0.41186 (Simulation time: 0 hr 20 min 28 sec) 
Heartbeat CPU  0 instructions:  458000002 cycles:  919014237 heartbeat IPC: 0.55934 cumulative IPC: 0.41217 (Simulation time: 0 hr 20 min 30 sec) 
Heartbeat CPU  0 instructions:  459000001 cycles:  920777066 heartbeat IPC: 0.56727 cumulative IPC: 0.41248 (Simulation time: 0 hr 20 min 33 sec) 
Heartbeat CPU  0 instructions:  460000000 cycles:  922470784 heartbeat IPC: 0.59042 cumulative IPC: 0.41283 (Simulation time: 0 hr 20 min 35 sec) 
Heartbeat CPU  0 instructions:  461000003 cycles:  924192235 heartbeat IPC: 0.58091 cumulative IPC: 0.41316 (Simulation time: 0 hr 20 min 38 sec) 
Heartbeat CPU  0 instructions:  462000002 cycles:  925943141 heartbeat IPC: 0.57113 cumulative IPC: 0.41347 (Simulation time: 0 hr 20 min 40 sec) 
Heartbeat CPU  0 instructions:  463000002 cycles:  927716055 heartbeat IPC: 0.56404 cumulative IPC: 0.41378 (Simulation time: 0 hr 20 min 43 sec) 
Heartbeat CPU  0 instructions:  464000000 cycles:  929458850 heartbeat IPC: 0.57379 cumulative IPC: 0.41409 (Simulation time: 0 hr 20 min 46 sec) 
Heartbeat CPU  0 instructions:  465000001 cycles:  931208360 heartbeat IPC: 0.57159 cumulative IPC: 0.41441 (Simulation time: 0 hr 20 min 48 sec) 
Heartbeat CPU  0 instructions:  466000001 cycles:  933060490 heartbeat IPC: 0.53992 cumulative IPC: 0.41467 (Simulation time: 0 hr 20 min 51 sec) 
Heartbeat CPU  0 instructions:  467000001 cycles:  934816507 heartbeat IPC: 0.56947 cumulative IPC: 0.41498 (Simulation time: 0 hr 20 min 53 sec) 
Heartbeat CPU  0 instructions:  468000000 cycles:  936546313 heartbeat IPC: 0.57810 cumulative IPC: 0.41530 (Simulation time: 0 hr 20 min 56 sec) 
Heartbeat CPU  0 instructions:  469000000 cycles:  938444010 heartbeat IPC: 0.52695 cumulative IPC: 0.41553 (Simulation time: 0 hr 20 min 59 sec) 
Heartbeat CPU  0 instructions:  470000003 cycles:  940210501 heartbeat IPC: 0.56610 cumulative IPC: 0.41583 (Simulation time: 0 hr 21 min 1 sec) 
Heartbeat CPU  0 instructions:  471000002 cycles:  942015911 heartbeat IPC: 0.55389 cumulative IPC: 0.41611 (Simulation time: 0 hr 21 min 4 sec) 
Heartbeat CPU  0 instructions:  472000000 cycles:  943602080 heartbeat IPC: 0.63045 cumulative IPC: 0.41649 (Simulation time: 0 hr 21 min 6 sec) 
Heartbeat CPU  0 instructions:  473000003 cycles:  945470504 heartbeat IPC: 0.53521 cumulative IPC: 0.41674 (Simulation time: 0 hr 21 min 9 sec) 
Heartbeat CPU  0 instructions:  474000002 cycles:  947205822 heartbeat IPC: 0.57626 cumulative IPC: 0.41705 (Simulation time: 0 hr 21 min 11 sec) 
Heartbeat CPU  0 instructions:  475000003 cycles:  949011459 heartbeat IPC: 0.55382 cumulative IPC: 0.41732 (Simulation time: 0 hr 21 min 14 sec) 
Heartbeat CPU  0 instructions:  476000000 cycles:  950750329 heartbeat IPC: 0.57508 cumulative IPC: 0.41763 (Simulation time: 0 hr 21 min 17 sec) 
Heartbeat CPU  0 instructions:  477000002 cycles:  952492625 heartbeat IPC: 0.57396 cumulative IPC: 0.41793 (Simulation time: 0 hr 21 min 19 sec) 
Heartbeat CPU  0 instructions:  478000001 cycles:  954311373 heartbeat IPC: 0.54983 cumulative IPC: 0.41820 (Simulation time: 0 hr 21 min 22 sec) 
Heartbeat CPU  0 instructions:  479000002 cycles:  956096429 heartbeat IPC: 0.56021 cumulative IPC: 0.41848 (Simulation time: 0 hr 21 min 24 sec) 
Heartbeat CPU  0 instructions:  480000000 cycles:  957859683 heartbeat IPC: 0.56713 cumulative IPC: 0.41877 (Simulation time: 0 hr 21 min 27 sec) 
Heartbeat CPU  0 instructions:  481000001 cycles:  959658497 heartbeat IPC: 0.55592 cumulative IPC: 0.41904 (Simulation time: 0 hr 21 min 29 sec) 
Heartbeat CPU  0 instructions:  482000000 cycles:  963741196 heartbeat IPC: 0.24494 cumulative IPC: 0.41826 (Simulation time: 0 hr 21 min 33 sec) 
Heartbeat CPU  0 instructions:  483000003 cycles:  969389683 heartbeat IPC: 0.17704 cumulative IPC: 0.41678 (Simulation time: 0 hr 21 min 37 sec) 
Heartbeat CPU  0 instructions:  484000000 cycles:  974570358 heartbeat IPC: 0.19302 cumulative IPC: 0.41552 (Simulation time: 0 hr 21 min 41 sec) 
Heartbeat CPU  0 instructions:  485000003 cycles:  978321321 heartbeat IPC: 0.26660 cumulative IPC: 0.41492 (Simulation time: 0 hr 21 min 44 sec) 
Heartbeat CPU  0 instructions:  486000002 cycles:  981766828 heartbeat IPC: 0.29023 cumulative IPC: 0.41446 (Simulation time: 0 hr 21 min 48 sec) 
Heartbeat CPU  0 instructions:  487000002 cycles:  985193133 heartbeat IPC: 0.29186 cumulative IPC: 0.41401 (Simulation time: 0 hr 21 min 51 sec) 
Heartbeat CPU  0 instructions:  488000000 cycles:  988681658 heartbeat IPC: 0.28665 cumulative IPC: 0.41354 (Simulation time: 0 hr 21 min 54 sec) 
Heartbeat CPU  0 instructions:  489000001 cycles:  991977253 heartbeat IPC: 0.30344 cumulative IPC: 0.41315 (Simulation time: 0 hr 21 min 57 sec) 
Heartbeat CPU  0 instructions:  490000001 cycles:  995381538 heartbeat IPC: 0.29375 cumulative IPC: 0.41272 (Simulation time: 0 hr 22 min 0 sec) 
Heartbeat CPU  0 instructions:  491000003 cycles: 1000050732 heartbeat IPC: 0.21417 cumulative IPC: 0.41174 (Simulation time: 0 hr 22 min 4 sec) 
Heartbeat CPU  0 instructions:  492000000 cycles: 1005231083 heartbeat IPC: 0.19304 cumulative IPC: 0.41056 (Simulation time: 0 hr 22 min 8 sec) 
Heartbeat CPU  0 instructions:  493000002 cycles: 1009156574 heartbeat IPC: 0.25475 cumulative IPC: 0.40992 (Simulation time: 0 hr 22 min 11 sec) 
Heartbeat CPU  0 instructions:  494000001 cycles: 1012799416 heartbeat IPC: 0.27451 cumulative IPC: 0.40941 (Simulation time: 0 hr 22 min 14 sec) 
Heartbeat CPU  0 instructions:  495000000 cycles: 1016321366 heartbeat IPC: 0.28393 cumulative IPC: 0.40895 (Simulation time: 0 hr 22 min 18 sec) 
Heartbeat CPU  0 instructions:  496000000 cycles: 1019590063 heartbeat IPC: 0.30593 cumulative IPC: 0.40860 (Simulation time: 0 hr 22 min 21 sec) 
Heartbeat CPU  0 instructions:  497000000 cycles: 1022960592 heartbeat IPC: 0.29669 cumulative IPC: 0.40821 (Simulation time: 0 hr 22 min 24 sec) 
Heartbeat CPU  0 instructions:  498000001 cycles: 1026360132 heartbeat IPC: 0.29416 cumulative IPC: 0.40782 (Simulation time: 0 hr 22 min 27 sec) 
Heartbeat CPU  0 instructions:  499000000 cycles: 1029771398 heartbeat IPC: 0.29315 cumulative IPC: 0.40742 (Simulation time: 0 hr 22 min 30 sec) 
Heartbeat CPU  0 instructions:  500000000 cycles: 1034545346 heartbeat IPC: 0.20947 cumulative IPC: 0.40646 (Simulation time: 0 hr 22 min 34 sec) 
Heartbeat CPU  0 instructions:  501000002 cycles: 1039841475 heartbeat IPC: 0.18882 cumulative IPC: 0.40529 (Simulation time: 0 hr 22 min 38 sec) 
Heartbeat CPU  0 instructions:  502000003 cycles: 1043362919 heartbeat IPC: 0.28397 cumulative IPC: 0.40486 (Simulation time: 0 hr 22 min 41 sec) 
Heartbeat CPU  0 instructions:  503000000 cycles: 1047076362 heartbeat IPC: 0.26929 cumulative IPC: 0.40436 (Simulation time: 0 hr 22 min 44 sec) 
Heartbeat CPU  0 instructions:  504000000 cycles: 1050541827 heartbeat IPC: 0.28856 cumulative IPC: 0.40396 (Simulation time: 0 hr 22 min 47 sec) 
Heartbeat CPU  0 instructions:  505000003 cycles: 1053882867 heartbeat IPC: 0.29931 cumulative IPC: 0.40361 (Simulation time: 0 hr 22 min 50 sec) 
Heartbeat CPU  0 instructions:  506000002 cycles: 1057191755 heartbeat IPC: 0.30222 cumulative IPC: 0.40327 (Simulation time: 0 hr 22 min 53 sec) 
Heartbeat CPU  0 instructions:  507000000 cycles: 1060565923 heartbeat IPC: 0.29637 cumulative IPC: 0.40292 (Simulation time: 0 hr 22 min 56 sec) 
Heartbeat CPU  0 instructions:  508000000 cycles: 1063781591 heartbeat IPC: 0.31098 cumulative IPC: 0.40262 (Simulation time: 0 hr 23 min 0 sec) 
Heartbeat CPU  0 instructions:  509000002 cycles: 1067371174 heartbeat IPC: 0.27858 cumulative IPC: 0.40219 (Simulation time: 0 hr 23 min 4 sec) 
Heartbeat CPU  0 instructions:  510000002 cycles: 1071409064 heartbeat IPC: 0.24765 cumulative IPC: 0.40158 (Simulation time: 0 hr 23 min 8 sec) 
Heartbeat CPU  0 instructions:  511000003 cycles: 1075284060 heartbeat IPC: 0.25807 cumulative IPC: 0.40103 (Simulation time: 0 hr 23 min 12 sec) 
Heartbeat CPU  0 instructions:  512000000 cycles: 1077942654 heartbeat IPC: 0.37614 cumulative IPC: 0.40097 (Simulation time: 0 hr 23 min 15 sec) 
Heartbeat CPU  0 instructions:  513000003 cycles: 1080490115 heartbeat IPC: 0.39255 cumulative IPC: 0.40095 (Simulation time: 0 hr 23 min 18 sec) 
Heartbeat CPU  0 instructions:  514000003 cycles: 1083034110 heartbeat IPC: 0.39308 cumulative IPC: 0.40093 (Simulation time: 0 hr 23 min 21 sec) 
Heartbeat CPU  0 instructions:  515000000 cycles: 1085570154 heartbeat IPC: 0.39431 cumulative IPC: 0.40091 (Simulation time: 0 hr 23 min 24 sec) 
Heartbeat CPU  0 instructions:  516000000 cycles: 1088113307 heartbeat IPC: 0.39321 cumulative IPC: 0.40089 (Simulation time: 0 hr 23 min 27 sec) 
Heartbeat CPU  0 instructions:  517000001 cycles: 1090637374 heartbeat IPC: 0.39619 cumulative IPC: 0.40088 (Simulation time: 0 hr 23 min 31 sec) 
Heartbeat CPU  0 instructions:  518000002 cycles: 1093151671 heartbeat IPC: 0.39773 cumulative IPC: 0.40087 (Simulation time: 0 hr 23 min 34 sec) 
Heartbeat CPU  0 instructions:  519000000 cycles: 1095673402 heartbeat IPC: 0.39655 cumulative IPC: 0.40086 (Simulation time: 0 hr 23 min 37 sec) 
Heartbeat CPU  0 instructions:  520000000 cycles: 1098208987 heartbeat IPC: 0.39439 cumulative IPC: 0.40085 (Simulation time: 0 hr 23 min 40 sec) 
Heartbeat CPU  0 instructions:  521000003 cycles: 1100720393 heartbeat IPC: 0.39818 cumulative IPC: 0.40084 (Simulation time: 0 hr 23 min 43 sec) 
Heartbeat CPU  0 instructions:  522000002 cycles: 1103232370 heartbeat IPC: 0.39809 cumulative IPC: 0.40084 (Simulation time: 0 hr 23 min 46 sec) 
Heartbeat CPU  0 instructions:  523000001 cycles: 1105782228 heartbeat IPC: 0.39218 cumulative IPC: 0.40081 (Simulation time: 0 hr 23 min 49 sec) 
Heartbeat CPU  0 instructions:  524000000 cycles: 1108311004 heartbeat IPC: 0.39545 cumulative IPC: 0.40080 (Simulation time: 0 hr 23 min 53 sec) 
Heartbeat CPU  0 instructions:  525000000 cycles: 1110821419 heartbeat IPC: 0.39834 cumulative IPC: 0.40080 (Simulation time: 0 hr 23 min 56 sec) 
Heartbeat CPU  0 instructions:  526000001 cycles: 1113344820 heartbeat IPC: 0.39629 cumulative IPC: 0.40079 (Simulation time: 0 hr 23 min 59 sec) 
Heartbeat CPU  0 instructions:  527000000 cycles: 1115909441 heartbeat IPC: 0.38992 cumulative IPC: 0.40076 (Simulation time: 0 hr 24 min 2 sec) 
Heartbeat CPU  0 instructions:  528000000 cycles: 1118466630 heartbeat IPC: 0.39105 cumulative IPC: 0.40074 (Simulation time: 0 hr 24 min 5 sec) 
Heartbeat CPU  0 instructions:  529000002 cycles: 1121017515 heartbeat IPC: 0.39202 cumulative IPC: 0.40071 (Simulation time: 0 hr 24 min 8 sec) 
Heartbeat CPU  0 instructions:  530000003 cycles: 1123687917 heartbeat IPC: 0.37448 cumulative IPC: 0.40065 (Simulation time: 0 hr 24 min 12 sec) 
Heartbeat CPU  0 instructions:  531000002 cycles: 1126281308 heartbeat IPC: 0.38560 cumulative IPC: 0.40061 (Simulation time: 0 hr 24 min 15 sec) 
Heartbeat CPU  0 instructions:  532000000 cycles: 1128887561 heartbeat IPC: 0.38369 cumulative IPC: 0.40057 (Simulation time: 0 hr 24 min 18 sec) 
Heartbeat CPU  0 instructions:  533000000 cycles: 1131499633 heartbeat IPC: 0.38284 cumulative IPC: 0.40053 (Simulation time: 0 hr 24 min 22 sec) 
Heartbeat CPU  0 instructions:  534000000 cycles: 1134092369 heartbeat IPC: 0.38569 cumulative IPC: 0.40049 (Simulation time: 0 hr 24 min 25 sec) 
Heartbeat CPU  0 instructions:  535000000 cycles: 1136721598 heartbeat IPC: 0.38034 cumulative IPC: 0.40045 (Simulation time: 0 hr 24 min 28 sec) 
Heartbeat CPU  0 instructions:  536000000 cycles: 1139371851 heartbeat IPC: 0.37732 cumulative IPC: 0.40039 (Simulation time: 0 hr 24 min 31 sec) 
Heartbeat CPU  0 instructions:  537000001 cycles: 1141999562 heartbeat IPC: 0.38056 cumulative IPC: 0.40034 (Simulation time: 0 hr 24 min 35 sec) 
Heartbeat CPU  0 instructions:  538000002 cycles: 1144706783 heartbeat IPC: 0.36938 cumulative IPC: 0.40026 (Simulation time: 0 hr 24 min 38 sec) 
Heartbeat CPU  0 instructions:  539000000 cycles: 1147324961 heartbeat IPC: 0.38194 cumulative IPC: 0.40022 (Simulation time: 0 hr 24 min 41 sec) 
Heartbeat CPU  0 instructions:  540000000 cycles: 1149962069 heartbeat IPC: 0.37920 cumulative IPC: 0.40017 (Simulation time: 0 hr 24 min 45 sec) 
Heartbeat CPU  0 instructions:  541000002 cycles: 1152578628 heartbeat IPC: 0.38218 cumulative IPC: 0.40013 (Simulation time: 0 hr 24 min 48 sec) 
Heartbeat CPU  0 instructions:  542000000 cycles: 1155223782 heartbeat IPC: 0.37805 cumulative IPC: 0.40007 (Simulation time: 0 hr 24 min 51 sec) 
Heartbeat CPU  0 instructions:  543000001 cycles: 1157864401 heartbeat IPC: 0.37870 cumulative IPC: 0.40002 (Simulation time: 0 hr 24 min 54 sec) 
Heartbeat CPU  0 instructions:  544000000 cycles: 1160532143 heartbeat IPC: 0.37485 cumulative IPC: 0.39996 (Simulation time: 0 hr 24 min 58 sec) 
Heartbeat CPU  0 instructions:  545000002 cycles: 1163192608 heartbeat IPC: 0.37587 cumulative IPC: 0.39991 (Simulation time: 0 hr 25 min 1 sec) 
Heartbeat CPU  0 instructions:  546000001 cycles: 1165847457 heartbeat IPC: 0.37667 cumulative IPC: 0.39985 (Simulation time: 0 hr 25 min 4 sec) 
Heartbeat CPU  0 instructions:  547000001 cycles: 1168368689 heartbeat IPC: 0.39663 cumulative IPC: 0.39984 (Simulation time: 0 hr 25 min 7 sec) 
Heartbeat CPU  0 instructions:  548000000 cycles: 1170887175 heartbeat IPC: 0.39706 cumulative IPC: 0.39984 (Simulation time: 0 hr 25 min 10 sec) 
Heartbeat CPU  0 instructions:  549000000 cycles: 1173382045 heartbeat IPC: 0.40082 cumulative IPC: 0.39984 (Simulation time: 0 hr 25 min 14 sec) 
Heartbeat CPU  0 instructions:  550000002 cycles: 1175848387 heartbeat IPC: 0.40546 cumulative IPC: 0.39985 (Simulation time: 0 hr 25 min 17 sec) 
Heartbeat CPU  0 instructions:  551000001 cycles: 1178071351 heartbeat IPC: 0.44985 cumulative IPC: 0.39995 (Simulation time: 0 hr 25 min 20 sec) 
Heartbeat CPU  0 instructions:  552000000 cycles: 1180048705 heartbeat IPC: 0.50573 cumulative IPC: 0.40014 (Simulation time: 0 hr 25 min 22 sec) 
Heartbeat CPU  0 instructions:  553000000 cycles: 1181879011 heartbeat IPC: 0.54636 cumulative IPC: 0.40037 (Simulation time: 0 hr 25 min 25 sec) 
Heartbeat CPU  0 instructions:  554000001 cycles: 1183728560 heartbeat IPC: 0.54067 cumulative IPC: 0.40060 (Simulation time: 0 hr 25 min 28 sec) 
Heartbeat CPU  0 instructions:  555000002 cycles: 1185532544 heartbeat IPC: 0.55433 cumulative IPC: 0.40085 (Simulation time: 0 hr 25 min 30 sec) 
Heartbeat CPU  0 instructions:  556000000 cycles: 1187324869 heartbeat IPC: 0.55793 cumulative IPC: 0.40109 (Simulation time: 0 hr 25 min 33 sec) 
Heartbeat CPU  0 instructions:  557000002 cycles: 1188981326 heartbeat IPC: 0.60370 cumulative IPC: 0.40139 (Simulation time: 0 hr 25 min 36 sec) 
Heartbeat CPU  0 instructions:  558000003 cycles: 1190526162 heartbeat IPC: 0.64732 cumulative IPC: 0.40172 (Simulation time: 0 hr 25 min 38 sec) 
Heartbeat CPU  0 instructions:  559000002 cycles: 1192020161 heartbeat IPC: 0.66934 cumulative IPC: 0.40207 (Simulation time: 0 hr 25 min 41 sec) 
Heartbeat CPU  0 instructions:  560000000 cycles: 1193476723 heartbeat IPC: 0.68655 cumulative IPC: 0.40243 (Simulation time: 0 hr 25 min 43 sec) 
Heartbeat CPU  0 instructions:  561000002 cycles: 1194938717 heartbeat IPC: 0.68400 cumulative IPC: 0.40279 (Simulation time: 0 hr 25 min 46 sec) 
Heartbeat CPU  0 instructions:  562000002 cycles: 1196444476 heartbeat IPC: 0.66412 cumulative IPC: 0.40314 (Simulation time: 0 hr 25 min 48 sec) 
Heartbeat CPU  0 instructions:  563000001 cycles: 1198132753 heartbeat IPC: 0.59232 cumulative IPC: 0.40341 (Simulation time: 0 hr 25 min 51 sec) 
Heartbeat CPU  0 instructions:  564000000 cycles: 1199913246 heartbeat IPC: 0.56164 cumulative IPC: 0.40366 (Simulation time: 0 hr 25 min 54 sec) 
Heartbeat CPU  0 instructions:  565000003 cycles: 1201735937 heartbeat IPC: 0.54864 cumulative IPC: 0.40389 (Simulation time: 0 hr 25 min 56 sec) 
Heartbeat CPU  0 instructions:  566000002 cycles: 1203488258 heartbeat IPC: 0.57067 cumulative IPC: 0.40414 (Simulation time: 0 hr 25 min 59 sec) 
Heartbeat CPU  0 instructions:  567000001 cycles: 1205270643 heartbeat IPC: 0.56105 cumulative IPC: 0.40439 (Simulation time: 0 hr 26 min 1 sec) 
Heartbeat CPU  0 instructions:  568000000 cycles: 1206884022 heartbeat IPC: 0.61982 cumulative IPC: 0.40469 (Simulation time: 0 hr 26 min 4 sec) 
Heartbeat CPU  0 instructions:  569000001 cycles: 1208496480 heartbeat IPC: 0.62017 cumulative IPC: 0.40499 (Simulation time: 0 hr 26 min 7 sec) 
Heartbeat CPU  0 instructions:  570000001 cycles: 1210052286 heartbeat IPC: 0.64275 cumulative IPC: 0.40530 (Simulation time: 0 hr 26 min 9 sec) 
Heartbeat CPU  0 instructions:  571000003 cycles: 1211567360 heartbeat IPC: 0.66004 cumulative IPC: 0.40564 (Simulation time: 0 hr 26 min 12 sec) 
Heartbeat CPU  0 instructions:  572000000 cycles: 1213116032 heartbeat IPC: 0.64571 cumulative IPC: 0.40596 (Simulation time: 0 hr 26 min 14 sec) 
Heartbeat CPU  0 instructions:  573000001 cycles: 1214794157 heartbeat IPC: 0.59590 cumulative IPC: 0.40623 (Simulation time: 0 hr 26 min 17 sec) 
Heartbeat CPU  0 instructions:  574000003 cycles: 1216511154 heartbeat IPC: 0.58241 cumulative IPC: 0.40649 (Simulation time: 0 hr 26 min 19 sec) 
Heartbeat CPU  0 instructions:  575000000 cycles: 1218327979 heartbeat IPC: 0.55041 cumulative IPC: 0.40671 (Simulation time: 0 hr 26 min 22 sec) 
Heartbeat CPU  0 instructions:  576000000 cycles: 1220121050 heartbeat IPC: 0.55770 cumulative IPC: 0.40695 (Simulation time: 0 hr 26 min 25 sec) 
Heartbeat CPU  0 instructions:  577000002 cycles: 1221950502 heartbeat IPC: 0.54661 cumulative IPC: 0.40716 (Simulation time: 0 hr 26 min 27 sec) 
Heartbeat CPU  0 instructions:  578000003 cycles: 1223665527 heartbeat IPC: 0.58308 cumulative IPC: 0.40742 (Simulation time: 0 hr 26 min 30 sec) 
Heartbeat CPU  0 instructions:  579000000 cycles: 1225338805 heartbeat IPC: 0.59763 cumulative IPC: 0.40769 (Simulation time: 0 hr 26 min 33 sec) 
Heartbeat CPU  0 instructions:  580000000 cycles: 1227030312 heartbeat IPC: 0.59119 cumulative IPC: 0.40796 (Simulation time: 0 hr 26 min 35 sec) 
Heartbeat CPU  0 instructions:  581000002 cycles: 1228687752 heartbeat IPC: 0.60334 cumulative IPC: 0.40823 (Simulation time: 0 hr 26 min 38 sec) 
Heartbeat CPU  0 instructions:  582000000 cycles: 1230306040 heartbeat IPC: 0.61794 cumulative IPC: 0.40852 (Simulation time: 0 hr 26 min 40 sec) 
Heartbeat CPU  0 instructions:  583000000 cycles: 1231948584 heartbeat IPC: 0.60881 cumulative IPC: 0.40880 (Simulation time: 0 hr 26 min 43 sec) 
Heartbeat CPU  0 instructions:  584000000 cycles: 1233712986 heartbeat IPC: 0.56676 cumulative IPC: 0.40903 (Simulation time: 0 hr 26 min 46 sec) 
Heartbeat CPU  0 instructions:  585000001 cycles: 1235518135 heartbeat IPC: 0.55397 cumulative IPC: 0.40925 (Simulation time: 0 hr 26 min 48 sec) 
Heartbeat CPU  0 instructions:  586000000 cycles: 1237360187 heartbeat IPC: 0.54287 cumulative IPC: 0.40946 (Simulation time: 0 hr 26 min 51 sec) 
Heartbeat CPU  0 instructions:  587000000 cycles: 1239149076 heartbeat IPC: 0.55901 cumulative IPC: 0.40968 (Simulation time: 0 hr 26 min 54 sec) 
Heartbeat CPU  0 instructions:  588000000 cycles: 1240995634 heartbeat IPC: 0.54155 cumulative IPC: 0.40989 (Simulation time: 0 hr 26 min 56 sec) 
Heartbeat CPU  0 instructions:  589000001 cycles: 1242714115 heartbeat IPC: 0.58191 cumulative IPC: 0.41014 (Simulation time: 0 hr 26 min 59 sec) 
Heartbeat CPU  0 instructions:  590000003 cycles: 1244465241 heartbeat IPC: 0.57106 cumulative IPC: 0.41037 (Simulation time: 0 hr 27 min 2 sec) 
Heartbeat CPU  0 instructions:  591000002 cycles: 1246165217 heartbeat IPC: 0.58824 cumulative IPC: 0.41063 (Simulation time: 0 hr 27 min 4 sec) 
Heartbeat CPU  0 instructions:  592000000 cycles: 1247872612 heartbeat IPC: 0.58569 cumulative IPC: 0.41088 (Simulation time: 0 hr 27 min 7 sec) 
Heartbeat CPU  0 instructions:  593000000 cycles: 1249573146 heartbeat IPC: 0.58805 cumulative IPC: 0.41113 (Simulation time: 0 hr 27 min 10 sec) 
Heartbeat CPU  0 instructions:  594000003 cycles: 1251304872 heartbeat IPC: 0.57746 cumulative IPC: 0.41137 (Simulation time: 0 hr 27 min 12 sec) 
Heartbeat CPU  0 instructions:  595000000 cycles: 1253082294 heartbeat IPC: 0.56261 cumulative IPC: 0.41159 (Simulation time: 0 hr 27 min 15 sec) 
Heartbeat CPU  0 instructions:  596000000 cycles: 1254904967 heartbeat IPC: 0.54864 cumulative IPC: 0.41180 (Simulation time: 0 hr 27 min 18 sec) 
Heartbeat CPU  0 instructions:  597000001 cycles: 1256741636 heartbeat IPC: 0.54446 cumulative IPC: 0.41200 (Simulation time: 0 hr 27 min 20 sec) 
Heartbeat CPU  0 instructions:  598000001 cycles: 1258571796 heartbeat IPC: 0.54640 cumulative IPC: 0.41220 (Simulation time: 0 hr 27 min 23 sec) 
Heartbeat CPU  0 instructions:  599000000 cycles: 1260404500 heartbeat IPC: 0.54564 cumulative IPC: 0.41241 (Simulation time: 0 hr 27 min 26 sec) 
Heartbeat CPU  0 instructions:  600000000 cycles: 1262216440 heartbeat IPC: 0.55189 cumulative IPC: 0.41261 (Simulation time: 0 hr 27 min 29 sec) 
Finished CPU 0 instructions: 500000002 cycles: 1211785540 cumulative IPC: 0.41261 (Simulation time: 0 hr 27 min 29 sec) 

ChampSim completed all CPUs

[ROI Statistics]
Core_0_instructions 500000002
Core_0_cycles 1211785540
Core_0_IPC 0.41261

Core_0_branch_prediction_accuracy 99.14567
Core_0_branch_MPKI 0.22121
Core_0_average_ROB_occupancy_at_mispredict 245.42262

Core_0_L1D_total_access 142524006
Core_0_L1D_total_hit 136819281
Core_0_L1D_total_miss 5704725
Core_0_L1D_loads 129725839
Core_0_L1D_load_hit 125431452
Core_0_L1D_load_miss 4294387
Core_0_L1D_RFOs 12798167
Core_0_L1D_RFO_hit 11387829
Core_0_L1D_RFO_miss 1410338
Core_0_L1D_prefetches 0
Core_0_L1D_prefetch_hit 0
Core_0_L1D_prefetch_miss 0
Core_0_L1D_writebacks 0
Core_0_L1D_writeback_hit 0
Core_0_L1D_writeback_miss 0
Core_0_L1D_prefetch_requested 0
Core_0_L1D_prefetch_dropped 0
Core_0_L1D_prefetch_issued 0
Core_0_L1D_prefetch_filled 0
Core_0_L1D_prefetch_useful 0
Core_0_L1D_prefetch_useless 0
Core_0_L1D_prefetch_late 0
Core_0_L1D_average_miss_latency 349.15215

Core_0_L1D_rq_access 194156211
Core_0_L1D_rq_forward 0
Core_0_L1D_rq_merged 61559646
Core_0_L1D_rq_to_cache 132596565
Core_0_L1D_rq_full 0

Core_0_L1D_wq_access 17666329
Core_0_L1D_wq_forward 0
Core_0_L1D_wq_merged 10270
Core_0_L1D_wq_to_cache 17656059
Core_0_L1D_wq_full 1276679

Core_0_L1D_pq_access 0
Core_0_L1D_pq_forward 0
Core_0_L1D_pq_merged 0
Core_0_L1D_pq_to_cache 0
Core_0_L1D_pq_full 0

Core_0_L1D_acc_epochs 1226499
Core_0_L1D_acc_level_0 1226499
Core_0_L1D_acc_level_1 0
Core_0_L1D_acc_level_2 0
Core_0_L1D_acc_level_3 0
Core_0_L1D_acc_level_4 0
Core_0_L1D_acc_level_5 0
Core_0_L1D_acc_level_6 0
Core_0_L1D_acc_level_7 0
Core_0_L1D_acc_level_8 0
Core_0_L1D_acc_level_9 0

Core_0_L1I_total_access 115801020
Core_0_L1I_total_hit 115800214
Core_0_L1I_total_miss 806
Core_0_L1I_loads 115801020
Core_0_L1I_load_hit 115800214
Core_0_L1I_load_miss 806
Core_0_L1I_RFOs 0
Core_0_L1I_RFO_hit 0
Core_0_L1I_RFO_miss 0
Core_0_L1I_prefetches 0
Core_0_L1I_prefetch_hit 0
Core_0_L1I_prefetch_miss 0
Core_0_L1I_writebacks 0
Core_0_L1I_writeback_hit 0
Core_0_L1I_writeback_miss 0
Core_0_L1I_prefetch_requested 0
Core_0_L1I_prefetch_dropped 0
Core_0_L1I_prefetch_issued 0
Core_0_L1I_prefetch_filled 0
Core_0_L1I_prefetch_useful 0
Core_0_L1I_prefetch_useless 0
Core_0_L1I_prefetch_late 0
Core_0_L1I_average_miss_latency 1071.96030

Core_0_L1I_rq_access 500000001
Core_0_L1I_rq_forward 0
Core_0_L1I_rq_merged 384197718
Core_0_L1I_rq_to_cache 115802283
Core_0_L1I_rq_full 0

Core_0_L1I_wq_access 0
Core_0_L1I_wq_forward 0
Core_0_L1I_wq_merged 0
Core_0_L1I_wq_to_cache 0
Core_0_L1I_wq_full 0

Core_0_L1I_pq_access 0
Core_0_L1I_pq_forward 0
Core_0_L1I_pq_merged 0
Core_0_L1I_pq_to_cache 0
Core_0_L1I_pq_full 0

Core_0_L1I_acc_epochs 1226499
Core_0_L1I_acc_level_0 1226499
Core_0_L1I_acc_level_1 0
Core_0_L1I_acc_level_2 0
Core_0_L1I_acc_level_3 0
Core_0_L1I_acc_level_4 0
Core_0_L1I_acc_level_5 0
Core_0_L1I_acc_level_6 0
Core_0_L1I_acc_level_7 0
Core_0_L1I_acc_level_8 0
Core_0_L1I_acc_level_9 0

Core_0_L2C_total_access 7549841
Core_0_L2C_total_hit 3283373
Core_0_L2C_total_miss 4266468
Core_0_L2C_loads 4295167
Core_0_L2C_load_hit 1022414
Core_0_L2C_load_miss 3272753
Core_0_L2C_RFOs 1410075
Core_0_L2C_RFO_hit 418255
Core_0_L2C_RFO_miss 991820
Core_0_L2C_prefetches 0
Core_0_L2C_prefetch_hit 0
Core_0_L2C_prefetch_miss 0
Core_0_L2C_writebacks 1844599
Core_0_L2C_writeback_hit 1842704
Core_0_L2C_writeback_miss 1895
Core_0_L2C_prefetch_requested 0
Core_0_L2C_prefetch_dropped 0
Core_0_L2C_prefetch_issued 0
Core_0_L2C_prefetch_filled 0
Core_0_L2C_prefetch_useful 0
Core_0_L2C_prefetch_useless 0
Core_0_L2C_prefetch_late 0
Core_0_L2C_average_miss_latency 448.02526

Core_0_L2C_rq_access 5705531
Core_0_L2C_rq_forward 0
Core_0_L2C_rq_merged 0
Core_0_L2C_rq_to_cache 5705242
Core_0_L2C_rq_full 0

Core_0_L2C_wq_access 1844599
Core_0_L2C_wq_forward 289
Core_0_L2C_wq_merged 0
Core_0_L2C_wq_to_cache 1844599
Core_0_L2C_wq_full 0

Core_0_L2C_pq_access 0
Core_0_L2C_pq_forward 0
Core_0_L2C_pq_merged 0
Core_0_L2C_pq_to_cache 0
Core_0_L2C_pq_full 0

Core_0_L2C_acc_epochs 1226499
Core_0_L2C_acc_level_0 1226499
Core_0_L2C_acc_level_1 0
Core_0_L2C_acc_level_2 0
Core_0_L2C_acc_level_3 0
Core_0_L2C_acc_level_4 0
Core_0_L2C_acc_level_5 0
Core_0_L2C_acc_level_6 0
Core_0_L2C_acc_level_7 0
Core_0_L2C_acc_level_8 0
Core_0_L2C_acc_level_9 0

Core_0_LLC_total_access 5581446
Core_0_LLC_total_hit 1149417
Core_0_LLC_total_miss 4432029
Core_0_LLC_loads 3272753
Core_0_LLC_load_hit 658756
Core_0_LLC_load_miss 2613997
Core_0_LLC_RFOs 991820
Core_0_LLC_RFO_hit 92400
Core_0_LLC_RFO_miss 899420
Core_0_LLC_prefetches 0
Core_0_LLC_prefetch_hit 0
Core_0_LLC_prefetch_miss 0
Core_0_LLC_writebacks 1316873
Core_0_LLC_writeback_hit 398261
Core_0_LLC_writeback_miss 918612
Core_0_LLC_prefetch_requested 0
Core_0_LLC_prefetch_dropped 0
Core_0_LLC_prefetch_issued 0
Core_0_LLC_prefetch_filled 0
Core_0_LLC_prefetch_useful 0
Core_0_LLC_prefetch_useless 0
Core_0_LLC_prefetch_late 0
Core_0_LLC_average_miss_latency 402.34935

Core_0_LLC_rq_access 4264573
Core_0_LLC_rq_forward 0
Core_0_LLC_rq_merged 0
Core_0_LLC_rq_to_cache 4264573
Core_0_LLC_rq_full 0

Core_0_LLC_wq_access 1316873
Core_0_LLC_wq_forward 0
Core_0_LLC_wq_merged 0
Core_0_LLC_wq_to_cache 1316873
Core_0_LLC_wq_full 0

Core_0_LLC_pq_access 0
Core_0_LLC_pq_forward 0
Core_0_LLC_pq_merged 0
Core_0_LLC_pq_to_cache 0
Core_0_LLC_pq_full 0

Core_0_LLC_acc_epochs 1232634
Core_0_LLC_acc_level_0 1232634
Core_0_LLC_acc_level_1 0
Core_0_LLC_acc_level_2 0
Core_0_LLC_acc_level_3 0
Core_0_LLC_acc_level_4 0
Core_0_LLC_acc_level_5 0
Core_0_LLC_acc_level_6 0
Core_0_LLC_acc_level_7 0
Core_0_LLC_acc_level_8 0
Core_0_LLC_acc_level_9 0

Core_0_major_page_fault 0
Core_0_minor_page_fault 19646

Channel_0_RQ_row_buffer_hit 609639
Channel_0_RQ_row_buffer_miss 2903678
Channel_0_WQ_row_buffer_hit 844418
Channel_0_WQ_row_buffer_miss 318499
Channel_0_WQ_full 0
Channel_0_dbus_congested 4826416

avg_congested_cycle 144

DRAM_bw_pochs 4930534
DRAM_bw_level_0 1792772
DRAM_bw_level_1 0
DRAM_bw_level_2 0
DRAM_bw_level_3 3137762
