*************************************************
   ChampSim Multicore Out-of-Order Simulator
   Last compiled: Dec 11 2024 17:59:53
*************************************************
parsing config file: /home/functionmain/桌面/Pythia/config/nopref.ini

trace_0 /home/functionmain/桌面/Pythia/traces/437.leslie3d-271B.champsimtrace.xz
adding L2C_PREFETCHER: NONE
Initialize SHIP state
warmup_instructions 100000000
simulation_instructions 500000000
champsim_seed 220
measure_ipc 0
measure_ipc_epoch 1000
measure_dram_bw 1
measure_dram_bw_epoch 256
measure_cache_acc 1
measure_cache_acc_epoch 1024
l1d_perfect 0
l2c_perfect 0
llc_perfect 0
l1d_semi_perfect 0
l2c_semi_perfect 0
llc_semi_perfect 0
semi_perfect_cache_page_buffer_size 64

num_cpus 1
cpu_freq 4000
dram_io_freq 150
page_size 4096
block_size 64
max_read_per_cycle 8
max_fill_per_cycle 1
dram_channels 1
log2_dram_channels 0
dram_ranks 1
dram_banks 8
dram_rows 65536
dram_columns 128
dram_row_size 8
dram_size 4096
dram_pages 1048576

fetch_width 6
decode_width 6
exec_width 4
lq_width 2
sq_width 2
retire_width 4
scheduler_size 128
branch_mispredict_penalty 20
rob_size 256
lq_size 72
sq_size 56
num_instr_destinations_sparc 4
num_instr_destinations 2
num_instr_sources 4

itlb_set 16
itlb_way 8
itlb_rq_size 16
itlb_wq_size 16
itlb_pq_size 0
itlb_mshr_size 8
itlb_latency 1

dtlb_set 16
dtlb_way 4
dtlb_rq_size 16
dtlb_wq_size 16
dtlb_pq_size 0
dtlb_mshr_size 8
dtlb_latency 1

stlb_set 128
stlb_way 12
stlb_rq_size 32
stlb_wq_size 32
stlb_pq_size 0
stlb_mshr_size 16
stlb_latency 8

l1i_size 32
l1i_set 64
l1i_way 8
l1i_rq_size 64
l1i_wq_size 64
l1i_pq_size 8
l1i_mshr_size 8
l1i_latency 1

l1d_size 32
l1d_set 64
l1d_way 8
l1d_rq_size 64
l1d_wq_size 64
l1d_pq_size 8
l1d_mshr_size 16
l1d_latency 4

l2c_size 256
l2c_set 512
l2c_way 8
l2c_rq_size 32
l2c_wq_size 32
l2c_pq_size 32
l2c_mshr_size 32
l2c_latency 10

llc_size 2048
llc_set 2048
llc_way 16
llc_rq_size 32
llc_wq_size 32
llc_pq_size 32
llc_mshr_size 64
llc_latency 20

dram_channel_width 8
dram_wq_size 64
dram_rq_size 64
tRP 15
tRCD 15
tCAS 12.5
dram_dbus_turn_around_time 30
dram_write_high_wm 56
dram_write_low_wm 48
min_dram_writes_per_switch 16
dram_mtps 150
dram_dbus_return_time 213


Heartbeat CPU  0 instructions:    1000002 cycles:     516704 heartbeat IPC: 1.93535 cumulative IPC: 1.93535 (Simulation time: 0 hr 0 min 2 sec) 
Heartbeat CPU  0 instructions:    2000001 cycles:    1032706 heartbeat IPC: 1.93798 cumulative IPC: 1.93666 (Simulation time: 0 hr 0 min 4 sec) 
Heartbeat CPU  0 instructions:    3000003 cycles:    1548698 heartbeat IPC: 1.93802 cumulative IPC: 1.93711 (Simulation time: 0 hr 0 min 6 sec) 
Heartbeat CPU  0 instructions:    4000000 cycles:    2064926 heartbeat IPC: 1.93712 cumulative IPC: 1.93712 (Simulation time: 0 hr 0 min 9 sec) 
Heartbeat CPU  0 instructions:    5000001 cycles:    2581654 heartbeat IPC: 1.93526 cumulative IPC: 1.93674 (Simulation time: 0 hr 0 min 11 sec) 
Heartbeat CPU  0 instructions:    6000001 cycles:    3098172 heartbeat IPC: 1.93604 cumulative IPC: 1.93663 (Simulation time: 0 hr 0 min 13 sec) 
Heartbeat CPU  0 instructions:    7000003 cycles:    3614630 heartbeat IPC: 1.93627 cumulative IPC: 1.93658 (Simulation time: 0 hr 0 min 15 sec) 
Heartbeat CPU  0 instructions:    8000000 cycles:    4131078 heartbeat IPC: 1.93630 cumulative IPC: 1.93654 (Simulation time: 0 hr 0 min 17 sec) 
Heartbeat CPU  0 instructions:    9000000 cycles:    4647059 heartbeat IPC: 1.93806 cumulative IPC: 1.93671 (Simulation time: 0 hr 0 min 19 sec) 
Heartbeat CPU  0 instructions:   10000003 cycles:    5163365 heartbeat IPC: 1.93684 cumulative IPC: 1.93672 (Simulation time: 0 hr 0 min 21 sec) 
Heartbeat CPU  0 instructions:   11000000 cycles:    5680313 heartbeat IPC: 1.93442 cumulative IPC: 1.93651 (Simulation time: 0 hr 0 min 23 sec) 
Heartbeat CPU  0 instructions:   12000000 cycles:    6196856 heartbeat IPC: 1.93595 cumulative IPC: 1.93647 (Simulation time: 0 hr 0 min 25 sec) 
Heartbeat CPU  0 instructions:   13000001 cycles:    6713236 heartbeat IPC: 1.93656 cumulative IPC: 1.93647 (Simulation time: 0 hr 0 min 27 sec) 
Heartbeat CPU  0 instructions:   14000002 cycles:    7230112 heartbeat IPC: 1.93470 cumulative IPC: 1.93635 (Simulation time: 0 hr 0 min 29 sec) 
Heartbeat CPU  0 instructions:   15000000 cycles:    7746606 heartbeat IPC: 1.93613 cumulative IPC: 1.93633 (Simulation time: 0 hr 0 min 31 sec) 
Heartbeat CPU  0 instructions:   16000000 cycles:    8263029 heartbeat IPC: 1.93640 cumulative IPC: 1.93634 (Simulation time: 0 hr 0 min 33 sec) 
Heartbeat CPU  0 instructions:   17000003 cycles:    8779684 heartbeat IPC: 1.93553 cumulative IPC: 1.93629 (Simulation time: 0 hr 0 min 35 sec) 
Heartbeat CPU  0 instructions:   18000002 cycles:    9295474 heartbeat IPC: 1.93877 cumulative IPC: 1.93643 (Simulation time: 0 hr 0 min 37 sec) 
Heartbeat CPU  0 instructions:   19000003 cycles:    9811598 heartbeat IPC: 1.93752 cumulative IPC: 1.93648 (Simulation time: 0 hr 0 min 39 sec) 
Heartbeat CPU  0 instructions:   20000000 cycles:   10328282 heartbeat IPC: 1.93541 cumulative IPC: 1.93643 (Simulation time: 0 hr 0 min 41 sec) 
Heartbeat CPU  0 instructions:   21000001 cycles:   10844991 heartbeat IPC: 1.93533 cumulative IPC: 1.93638 (Simulation time: 0 hr 0 min 43 sec) 
Heartbeat CPU  0 instructions:   22000000 cycles:   11361471 heartbeat IPC: 1.93618 cumulative IPC: 1.93637 (Simulation time: 0 hr 0 min 45 sec) 
Heartbeat CPU  0 instructions:   23000003 cycles:   11877998 heartbeat IPC: 1.93601 cumulative IPC: 1.93635 (Simulation time: 0 hr 0 min 47 sec) 
Heartbeat CPU  0 instructions:   24000000 cycles:   12394091 heartbeat IPC: 1.93763 cumulative IPC: 1.93641 (Simulation time: 0 hr 0 min 49 sec) 
Heartbeat CPU  0 instructions:   25000000 cycles:   12910202 heartbeat IPC: 1.93757 cumulative IPC: 1.93645 (Simulation time: 0 hr 0 min 51 sec) 
Heartbeat CPU  0 instructions:   26000003 cycles:   13426683 heartbeat IPC: 1.93619 cumulative IPC: 1.93644 (Simulation time: 0 hr 0 min 53 sec) 
Heartbeat CPU  0 instructions:   27000002 cycles:   13943469 heartbeat IPC: 1.93503 cumulative IPC: 1.93639 (Simulation time: 0 hr 0 min 55 sec) 
Heartbeat CPU  0 instructions:   28000000 cycles:   14459960 heartbeat IPC: 1.93614 cumulative IPC: 1.93638 (Simulation time: 0 hr 0 min 57 sec) 
Heartbeat CPU  0 instructions:   29000000 cycles:   14976361 heartbeat IPC: 1.93648 cumulative IPC: 1.93638 (Simulation time: 0 hr 0 min 59 sec) 
Heartbeat CPU  0 instructions:   30000002 cycles:   15493100 heartbeat IPC: 1.93522 cumulative IPC: 1.93635 (Simulation time: 0 hr 1 min 1 sec) 
Heartbeat CPU  0 instructions:   31000001 cycles:   16009583 heartbeat IPC: 1.93617 cumulative IPC: 1.93634 (Simulation time: 0 hr 1 min 3 sec) 
Heartbeat CPU  0 instructions:   32000000 cycles:   16525916 heartbeat IPC: 1.93673 cumulative IPC: 1.93635 (Simulation time: 0 hr 1 min 5 sec) 
Heartbeat CPU  0 instructions:   33000000 cycles:   17042436 heartbeat IPC: 1.93603 cumulative IPC: 1.93634 (Simulation time: 0 hr 1 min 7 sec) 
Heartbeat CPU  0 instructions:   34000001 cycles:   17558464 heartbeat IPC: 1.93788 cumulative IPC: 1.93639 (Simulation time: 0 hr 1 min 9 sec) 
Heartbeat CPU  0 instructions:   35000000 cycles:   18074690 heartbeat IPC: 1.93713 cumulative IPC: 1.93641 (Simulation time: 0 hr 1 min 11 sec) 
Heartbeat CPU  0 instructions:   36000000 cycles:   18591568 heartbeat IPC: 1.93469 cumulative IPC: 1.93636 (Simulation time: 0 hr 1 min 13 sec) 
Heartbeat CPU  0 instructions:   37000001 cycles:   19108212 heartbeat IPC: 1.93557 cumulative IPC: 1.93634 (Simulation time: 0 hr 1 min 15 sec) 
Heartbeat CPU  0 instructions:   38000000 cycles:   19624555 heartbeat IPC: 1.93670 cumulative IPC: 1.93635 (Simulation time: 0 hr 1 min 17 sec) 
Heartbeat CPU  0 instructions:   39000002 cycles:   20141197 heartbeat IPC: 1.93558 cumulative IPC: 1.93633 (Simulation time: 0 hr 1 min 19 sec) 
Heartbeat CPU  0 instructions:   40000000 cycles:   20657170 heartbeat IPC: 1.93808 cumulative IPC: 1.93637 (Simulation time: 0 hr 1 min 21 sec) 
Heartbeat CPU  0 instructions:   41000000 cycles:   21173323 heartbeat IPC: 1.93741 cumulative IPC: 1.93640 (Simulation time: 0 hr 1 min 23 sec) 
Heartbeat CPU  0 instructions:   42000000 cycles:   21690049 heartbeat IPC: 1.93526 cumulative IPC: 1.93637 (Simulation time: 0 hr 1 min 26 sec) 
Heartbeat CPU  0 instructions:   43000003 cycles:   22205926 heartbeat IPC: 1.93845 cumulative IPC: 1.93642 (Simulation time: 0 hr 1 min 28 sec) 
Heartbeat CPU  0 instructions:   44000000 cycles:   22722010 heartbeat IPC: 1.93766 cumulative IPC: 1.93645 (Simulation time: 0 hr 1 min 30 sec) 
Heartbeat CPU  0 instructions:   45000003 cycles:   23238571 heartbeat IPC: 1.93589 cumulative IPC: 1.93644 (Simulation time: 0 hr 1 min 32 sec) 
Heartbeat CPU  0 instructions:   46000001 cycles:   23755235 heartbeat IPC: 1.93549 cumulative IPC: 1.93642 (Simulation time: 0 hr 1 min 34 sec) 
Heartbeat CPU  0 instructions:   47000000 cycles:   24271636 heartbeat IPC: 1.93648 cumulative IPC: 1.93642 (Simulation time: 0 hr 1 min 36 sec) 
Heartbeat CPU  0 instructions:   48000000 cycles:   24788180 heartbeat IPC: 1.93594 cumulative IPC: 1.93641 (Simulation time: 0 hr 1 min 38 sec) 
Heartbeat CPU  0 instructions:   49000000 cycles:   25304454 heartbeat IPC: 1.93696 cumulative IPC: 1.93642 (Simulation time: 0 hr 1 min 40 sec) 
Heartbeat CPU  0 instructions:   50000000 cycles:   25820500 heartbeat IPC: 1.93781 cumulative IPC: 1.93645 (Simulation time: 0 hr 1 min 42 sec) 
Heartbeat CPU  0 instructions:   51000003 cycles:   26336928 heartbeat IPC: 1.93638 cumulative IPC: 1.93644 (Simulation time: 0 hr 1 min 44 sec) 
Heartbeat CPU  0 instructions:   52000000 cycles:   26853662 heartbeat IPC: 1.93523 cumulative IPC: 1.93642 (Simulation time: 0 hr 1 min 46 sec) 
Heartbeat CPU  0 instructions:   53000001 cycles:   27370408 heartbeat IPC: 1.93519 cumulative IPC: 1.93640 (Simulation time: 0 hr 1 min 48 sec) 
Heartbeat CPU  0 instructions:   54000003 cycles:   27886830 heartbeat IPC: 1.93640 cumulative IPC: 1.93640 (Simulation time: 0 hr 1 min 50 sec) 
Heartbeat CPU  0 instructions:   55000003 cycles:   28403179 heartbeat IPC: 1.93667 cumulative IPC: 1.93640 (Simulation time: 0 hr 1 min 52 sec) 
Heartbeat CPU  0 instructions:   56000000 cycles:   28919226 heartbeat IPC: 1.93780 cumulative IPC: 1.93643 (Simulation time: 0 hr 1 min 54 sec) 
Heartbeat CPU  0 instructions:   57000002 cycles:   29460780 heartbeat IPC: 1.84654 cumulative IPC: 1.93478 (Simulation time: 0 hr 1 min 56 sec) 
Heartbeat CPU  0 instructions:   58000001 cycles:   30007295 heartbeat IPC: 1.82977 cumulative IPC: 1.93286 (Simulation time: 0 hr 1 min 58 sec) 
Heartbeat CPU  0 instructions:   59000001 cycles:   30553926 heartbeat IPC: 1.82939 cumulative IPC: 1.93101 (Simulation time: 0 hr 2 min 0 sec) 
Heartbeat CPU  0 instructions:   60000000 cycles:   31100790 heartbeat IPC: 1.82861 cumulative IPC: 1.92921 (Simulation time: 0 hr 2 min 2 sec) 
Heartbeat CPU  0 instructions:   61000003 cycles:   31647375 heartbeat IPC: 1.82955 cumulative IPC: 1.92749 (Simulation time: 0 hr 2 min 4 sec) 
Heartbeat CPU  0 instructions:   62000003 cycles:   32193838 heartbeat IPC: 1.82995 cumulative IPC: 1.92583 (Simulation time: 0 hr 2 min 6 sec) 
Heartbeat CPU  0 instructions:   63000003 cycles:   32740466 heartbeat IPC: 1.82940 cumulative IPC: 1.92422 (Simulation time: 0 hr 2 min 8 sec) 
Heartbeat CPU  0 instructions:   64000000 cycles:   33286899 heartbeat IPC: 1.83004 cumulative IPC: 1.92268 (Simulation time: 0 hr 2 min 10 sec) 
Heartbeat CPU  0 instructions:   65000002 cycles:   33829198 heartbeat IPC: 1.84400 cumulative IPC: 1.92142 (Simulation time: 0 hr 2 min 12 sec) 
Heartbeat CPU  0 instructions:   66000002 cycles:   34360205 heartbeat IPC: 1.88321 cumulative IPC: 1.92083 (Simulation time: 0 hr 2 min 14 sec) 
Heartbeat CPU  0 instructions:   67000001 cycles:   34891952 heartbeat IPC: 1.88059 cumulative IPC: 1.92021 (Simulation time: 0 hr 2 min 16 sec) 
Heartbeat CPU  0 instructions:   68000000 cycles:   35422965 heartbeat IPC: 1.88319 cumulative IPC: 1.91966 (Simulation time: 0 hr 2 min 18 sec) 
Heartbeat CPU  0 instructions:   69000003 cycles:   35954626 heartbeat IPC: 1.88090 cumulative IPC: 1.91909 (Simulation time: 0 hr 2 min 20 sec) 
Heartbeat CPU  0 instructions:   70000000 cycles:   36485709 heartbeat IPC: 1.88294 cumulative IPC: 1.91856 (Simulation time: 0 hr 2 min 22 sec) 
Heartbeat CPU  0 instructions:   71000001 cycles:   37017398 heartbeat IPC: 1.88080 cumulative IPC: 1.91802 (Simulation time: 0 hr 2 min 24 sec) 
Heartbeat CPU  0 instructions:   72000000 cycles:   37548428 heartbeat IPC: 1.88313 cumulative IPC: 1.91752 (Simulation time: 0 hr 2 min 26 sec) 
Heartbeat CPU  0 instructions:   73000000 cycles:   38080216 heartbeat IPC: 1.88045 cumulative IPC: 1.91701 (Simulation time: 0 hr 2 min 28 sec) 
Heartbeat CPU  0 instructions:   74000001 cycles:   38610471 heartbeat IPC: 1.88589 cumulative IPC: 1.91658 (Simulation time: 0 hr 2 min 30 sec) 
Heartbeat CPU  0 instructions:   75000002 cycles:   39139668 heartbeat IPC: 1.88966 cumulative IPC: 1.91621 (Simulation time: 0 hr 2 min 32 sec) 
Heartbeat CPU  0 instructions:   76000000 cycles:   39669240 heartbeat IPC: 1.88831 cumulative IPC: 1.91584 (Simulation time: 0 hr 2 min 34 sec) 
Heartbeat CPU  0 instructions:   77000003 cycles:   40198514 heartbeat IPC: 1.88939 cumulative IPC: 1.91549 (Simulation time: 0 hr 2 min 36 sec) 
Heartbeat CPU  0 instructions:   78000002 cycles:   40728092 heartbeat IPC: 1.88829 cumulative IPC: 1.91514 (Simulation time: 0 hr 2 min 37 sec) 
Heartbeat CPU  0 instructions:   79000000 cycles:   41257299 heartbeat IPC: 1.88962 cumulative IPC: 1.91481 (Simulation time: 0 hr 2 min 39 sec) 
Heartbeat CPU  0 instructions:   80000000 cycles:   41786868 heartbeat IPC: 1.88833 cumulative IPC: 1.91448 (Simulation time: 0 hr 2 min 41 sec) 
Heartbeat CPU  0 instructions:   81000003 cycles:   42316129 heartbeat IPC: 1.88943 cumulative IPC: 1.91416 (Simulation time: 0 hr 2 min 43 sec) 
Heartbeat CPU  0 instructions:   82000003 cycles:   42845742 heartbeat IPC: 1.88817 cumulative IPC: 1.91384 (Simulation time: 0 hr 2 min 45 sec) 
Heartbeat CPU  0 instructions:   83000000 cycles:   43433601 heartbeat IPC: 1.70108 cumulative IPC: 1.91096 (Simulation time: 0 hr 2 min 48 sec) 
Heartbeat CPU  0 instructions:   84000000 cycles:   44043004 heartbeat IPC: 1.64095 cumulative IPC: 1.90723 (Simulation time: 0 hr 2 min 50 sec) 
Heartbeat CPU  0 instructions:   85000001 cycles:   44652668 heartbeat IPC: 1.64025 cumulative IPC: 1.90358 (Simulation time: 0 hr 2 min 53 sec) 
Heartbeat CPU  0 instructions:   86000001 cycles:   45262171 heartbeat IPC: 1.64068 cumulative IPC: 1.90004 (Simulation time: 0 hr 2 min 55 sec) 
Heartbeat CPU  0 instructions:   87000002 cycles:   45871862 heartbeat IPC: 1.64018 cumulative IPC: 1.89659 (Simulation time: 0 hr 2 min 57 sec) 
Heartbeat CPU  0 instructions:   88000000 cycles:   46481577 heartbeat IPC: 1.64011 cumulative IPC: 1.89322 (Simulation time: 0 hr 3 min 0 sec) 
Heartbeat CPU  0 instructions:   89000002 cycles:   47091417 heartbeat IPC: 1.63978 cumulative IPC: 1.88994 (Simulation time: 0 hr 3 min 2 sec) 
Heartbeat CPU  0 instructions:   90000003 cycles:   47701028 heartbeat IPC: 1.64039 cumulative IPC: 1.88675 (Simulation time: 0 hr 3 min 5 sec) 
Heartbeat CPU  0 instructions:   91000000 cycles:   48310726 heartbeat IPC: 1.64015 cumulative IPC: 1.88364 (Simulation time: 0 hr 3 min 7 sec) 
Heartbeat CPU  0 instructions:   92000000 cycles:   48920286 heartbeat IPC: 1.64053 cumulative IPC: 1.88061 (Simulation time: 0 hr 3 min 10 sec) 
Heartbeat CPU  0 instructions:   93000000 cycles:   49529966 heartbeat IPC: 1.64020 cumulative IPC: 1.87765 (Simulation time: 0 hr 3 min 12 sec) 
Heartbeat CPU  0 instructions:   94000001 cycles:   50139605 heartbeat IPC: 1.64032 cumulative IPC: 1.87477 (Simulation time: 0 hr 3 min 14 sec) 
Heartbeat CPU  0 instructions:   95000003 cycles:   50749183 heartbeat IPC: 1.64048 cumulative IPC: 1.87195 (Simulation time: 0 hr 3 min 17 sec) 
Heartbeat CPU  0 instructions:   96000000 cycles:   51358996 heartbeat IPC: 1.63984 cumulative IPC: 1.86920 (Simulation time: 0 hr 3 min 19 sec) 
Heartbeat CPU  0 instructions:   97000000 cycles:   51968811 heartbeat IPC: 1.63984 cumulative IPC: 1.86650 (Simulation time: 0 hr 3 min 22 sec) 
Heartbeat CPU  0 instructions:   98000002 cycles:   52578509 heartbeat IPC: 1.64016 cumulative IPC: 1.86388 (Simulation time: 0 hr 3 min 24 sec) 
Heartbeat CPU  0 instructions:   99000003 cycles:   53188125 heartbeat IPC: 1.64038 cumulative IPC: 1.86132 (Simulation time: 0 hr 3 min 27 sec) 
Heartbeat CPU  0 instructions:  100000000 cycles:   53797658 heartbeat IPC: 1.64060 cumulative IPC: 1.85882 (Simulation time: 0 hr 3 min 29 sec) 

Warmup complete CPU  0 instructions:  100000002 cycles:   53797659 (Simulation time: 0 hr 3 min 29 sec) 

Heartbeat CPU  0 instructions:  101000003 cycles:   56342452 heartbeat IPC: 0.39296 cumulative IPC: 0.39296 (Simulation time: 0 hr 3 min 33 sec) 
Heartbeat CPU  0 instructions:  102000000 cycles:   58908612 heartbeat IPC: 0.38969 cumulative IPC: 0.39132 (Simulation time: 0 hr 3 min 37 sec) 
Heartbeat CPU  0 instructions:  103000000 cycles:   61492887 heartbeat IPC: 0.38696 cumulative IPC: 0.38985 (Simulation time: 0 hr 3 min 40 sec) 
Heartbeat CPU  0 instructions:  104000000 cycles:   64134905 heartbeat IPC: 0.37850 cumulative IPC: 0.38695 (Simulation time: 0 hr 3 min 44 sec) 
Heartbeat CPU  0 instructions:  105000001 cycles:   66759911 heartbeat IPC: 0.38095 cumulative IPC: 0.38574 (Simulation time: 0 hr 3 min 48 sec) 
Heartbeat CPU  0 instructions:  106000001 cycles:   69414834 heartbeat IPC: 0.37666 cumulative IPC: 0.38419 (Simulation time: 0 hr 3 min 51 sec) 
Heartbeat CPU  0 instructions:  107000002 cycles:   72043455 heartbeat IPC: 0.38043 cumulative IPC: 0.38365 (Simulation time: 0 hr 3 min 55 sec) 
Heartbeat CPU  0 instructions:  108000000 cycles:   74703219 heartbeat IPC: 0.37597 cumulative IPC: 0.38267 (Simulation time: 0 hr 3 min 59 sec) 
Heartbeat CPU  0 instructions:  109000002 cycles:   77386341 heartbeat IPC: 0.37270 cumulative IPC: 0.38154 (Simulation time: 0 hr 4 min 3 sec) 
Heartbeat CPU  0 instructions:  110000003 cycles:   80036361 heartbeat IPC: 0.37736 cumulative IPC: 0.38112 (Simulation time: 0 hr 4 min 6 sec) 
Heartbeat CPU  0 instructions:  111000000 cycles:   82686336 heartbeat IPC: 0.37736 cumulative IPC: 0.38077 (Simulation time: 0 hr 4 min 10 sec) 
Heartbeat CPU  0 instructions:  112000000 cycles:   85361293 heartbeat IPC: 0.37384 cumulative IPC: 0.38018 (Simulation time: 0 hr 4 min 14 sec) 
Heartbeat CPU  0 instructions:  113000000 cycles:   88002745 heartbeat IPC: 0.37858 cumulative IPC: 0.38006 (Simulation time: 0 hr 4 min 18 sec) 
Heartbeat CPU  0 instructions:  114000001 cycles:   90665739 heartbeat IPC: 0.37552 cumulative IPC: 0.37973 (Simulation time: 0 hr 4 min 21 sec) 
Heartbeat CPU  0 instructions:  115000002 cycles:   93316291 heartbeat IPC: 0.37728 cumulative IPC: 0.37957 (Simulation time: 0 hr 4 min 25 sec) 
Heartbeat CPU  0 instructions:  116000000 cycles:   95990663 heartbeat IPC: 0.37392 cumulative IPC: 0.37921 (Simulation time: 0 hr 4 min 29 sec) 
Heartbeat CPU  0 instructions:  117000001 cycles:   98610474 heartbeat IPC: 0.38171 cumulative IPC: 0.37936 (Simulation time: 0 hr 4 min 33 sec) 
Heartbeat CPU  0 instructions:  118000002 cycles:  101220044 heartbeat IPC: 0.38321 cumulative IPC: 0.37957 (Simulation time: 0 hr 4 min 36 sec) 
Heartbeat CPU  0 instructions:  119000003 cycles:  103849598 heartbeat IPC: 0.38029 cumulative IPC: 0.37961 (Simulation time: 0 hr 4 min 40 sec) 
Heartbeat CPU  0 instructions:  120000000 cycles:  106483389 heartbeat IPC: 0.37968 cumulative IPC: 0.37961 (Simulation time: 0 hr 4 min 44 sec) 
Heartbeat CPU  0 instructions:  121000003 cycles:  109039655 heartbeat IPC: 0.39120 cumulative IPC: 0.38015 (Simulation time: 0 hr 4 min 47 sec) 
Heartbeat CPU  0 instructions:  122000001 cycles:  111530912 heartbeat IPC: 0.40140 cumulative IPC: 0.38106 (Simulation time: 0 hr 4 min 51 sec) 
Heartbeat CPU  0 instructions:  123000002 cycles:  114026756 heartbeat IPC: 0.40067 cumulative IPC: 0.38188 (Simulation time: 0 hr 4 min 54 sec) 
Heartbeat CPU  0 instructions:  124000000 cycles:  116581636 heartbeat IPC: 0.39141 cumulative IPC: 0.38226 (Simulation time: 0 hr 4 min 58 sec) 
Heartbeat CPU  0 instructions:  125000000 cycles:  119097823 heartbeat IPC: 0.39743 cumulative IPC: 0.38285 (Simulation time: 0 hr 5 min 1 sec) 
Heartbeat CPU  0 instructions:  126000001 cycles:  121369569 heartbeat IPC: 0.44019 cumulative IPC: 0.38478 (Simulation time: 0 hr 5 min 5 sec) 
Heartbeat CPU  0 instructions:  127000002 cycles:  123217928 heartbeat IPC: 0.54102 cumulative IPC: 0.38894 (Simulation time: 0 hr 5 min 8 sec) 
Heartbeat CPU  0 instructions:  128000000 cycles:  125013089 heartbeat IPC: 0.55705 cumulative IPC: 0.39317 (Simulation time: 0 hr 5 min 11 sec) 
Heartbeat CPU  0 instructions:  129000003 cycles:  126822481 heartbeat IPC: 0.55267 cumulative IPC: 0.39713 (Simulation time: 0 hr 5 min 14 sec) 
Heartbeat CPU  0 instructions:  130000003 cycles:  128610947 heartbeat IPC: 0.55914 cumulative IPC: 0.40100 (Simulation time: 0 hr 5 min 17 sec) 
Heartbeat CPU  0 instructions:  131000000 cycles:  130440249 heartbeat IPC: 0.54665 cumulative IPC: 0.40447 (Simulation time: 0 hr 5 min 20 sec) 
Heartbeat CPU  0 instructions:  132000000 cycles:  132070435 heartbeat IPC: 0.61343 cumulative IPC: 0.40883 (Simulation time: 0 hr 5 min 23 sec) 
Heartbeat CPU  0 instructions:  133000002 cycles:  133543199 heartbeat IPC: 0.67900 cumulative IPC: 0.41382 (Simulation time: 0 hr 5 min 25 sec) 
Heartbeat CPU  0 instructions:  134000000 cycles:  135001561 heartbeat IPC: 0.68570 cumulative IPC: 0.41870 (Simulation time: 0 hr 5 min 28 sec) 
Heartbeat CPU  0 instructions:  135000000 cycles:  136406576 heartbeat IPC: 0.71174 cumulative IPC: 0.42368 (Simulation time: 0 hr 5 min 31 sec) 
Heartbeat CPU  0 instructions:  136000000 cycles:  137813128 heartbeat IPC: 0.71096 cumulative IPC: 0.42849 (Simulation time: 0 hr 5 min 34 sec) 
Heartbeat CPU  0 instructions:  137000000 cycles:  139313695 heartbeat IPC: 0.66641 cumulative IPC: 0.43267 (Simulation time: 0 hr 5 min 37 sec) 
Heartbeat CPU  0 instructions:  138000003 cycles:  141054535 heartbeat IPC: 0.57444 cumulative IPC: 0.43550 (Simulation time: 0 hr 5 min 40 sec) 
Heartbeat CPU  0 instructions:  139000000 cycles:  142866589 heartbeat IPC: 0.55186 cumulative IPC: 0.43786 (Simulation time: 0 hr 5 min 43 sec) 
Heartbeat CPU  0 instructions:  140000000 cycles:  144684590 heartbeat IPC: 0.55005 cumulative IPC: 0.44011 (Simulation time: 0 hr 5 min 46 sec) 
Heartbeat CPU  0 instructions:  141000000 cycles:  146486865 heartbeat IPC: 0.55485 cumulative IPC: 0.44234 (Simulation time: 0 hr 5 min 49 sec) 
Heartbeat CPU  0 instructions:  142000000 cycles:  148239998 heartbeat IPC: 0.57041 cumulative IPC: 0.44472 (Simulation time: 0 hr 5 min 52 sec) 
Heartbeat CPU  0 instructions:  143000001 cycles:  149896420 heartbeat IPC: 0.60371 cumulative IPC: 0.44746 (Simulation time: 0 hr 5 min 55 sec) 
Heartbeat CPU  0 instructions:  144000000 cycles:  151419355 heartbeat IPC: 0.65663 cumulative IPC: 0.45072 (Simulation time: 0 hr 5 min 57 sec) 
Heartbeat CPU  0 instructions:  145000003 cycles:  152931275 heartbeat IPC: 0.66141 cumulative IPC: 0.45393 (Simulation time: 0 hr 6 min 0 sec) 
Heartbeat CPU  0 instructions:  146000001 cycles:  154434005 heartbeat IPC: 0.66545 cumulative IPC: 0.45709 (Simulation time: 0 hr 6 min 3 sec) 
Heartbeat CPU  0 instructions:  147000002 cycles:  155958039 heartbeat IPC: 0.65615 cumulative IPC: 0.46006 (Simulation time: 0 hr 6 min 6 sec) 
Heartbeat CPU  0 instructions:  148000000 cycles:  157656615 heartbeat IPC: 0.58873 cumulative IPC: 0.46217 (Simulation time: 0 hr 6 min 9 sec) 
Heartbeat CPU  0 instructions:  149000000 cycles:  159457693 heartbeat IPC: 0.55522 cumulative IPC: 0.46375 (Simulation time: 0 hr 6 min 12 sec) 
Heartbeat CPU  0 instructions:  150000000 cycles:  161306966 heartbeat IPC: 0.54075 cumulative IPC: 0.46508 (Simulation time: 0 hr 6 min 15 sec) 
Heartbeat CPU  0 instructions:  151000001 cycles:  163100496 heartbeat IPC: 0.55756 cumulative IPC: 0.46659 (Simulation time: 0 hr 6 min 18 sec) 
Heartbeat CPU  0 instructions:  152000000 cycles:  164925841 heartbeat IPC: 0.54784 cumulative IPC: 0.46793 (Simulation time: 0 hr 6 min 21 sec) 
Heartbeat CPU  0 instructions:  153000001 cycles:  166603768 heartbeat IPC: 0.59597 cumulative IPC: 0.46983 (Simulation time: 0 hr 6 min 24 sec) 
Heartbeat CPU  0 instructions:  154000003 cycles:  168270954 heartbeat IPC: 0.59981 cumulative IPC: 0.47173 (Simulation time: 0 hr 6 min 27 sec) 
Heartbeat CPU  0 instructions:  155000003 cycles:  169884145 heartbeat IPC: 0.61989 cumulative IPC: 0.47378 (Simulation time: 0 hr 6 min 30 sec) 
Heartbeat CPU  0 instructions:  156000000 cycles:  171491780 heartbeat IPC: 0.62203 cumulative IPC: 0.47581 (Simulation time: 0 hr 6 min 33 sec) 
Heartbeat CPU  0 instructions:  157000000 cycles:  173099068 heartbeat IPC: 0.62217 cumulative IPC: 0.47778 (Simulation time: 0 hr 6 min 35 sec) 
Heartbeat CPU  0 instructions:  158000002 cycles:  174775734 heartbeat IPC: 0.59642 cumulative IPC: 0.47943 (Simulation time: 0 hr 6 min 38 sec) 
Heartbeat CPU  0 instructions:  159000002 cycles:  176589022 heartbeat IPC: 0.55148 cumulative IPC: 0.48049 (Simulation time: 0 hr 6 min 41 sec) 
Heartbeat CPU  0 instructions:  160000000 cycles:  178416817 heartbeat IPC: 0.54711 cumulative IPC: 0.48147 (Simulation time: 0 hr 6 min 44 sec) 
Heartbeat CPU  0 instructions:  161000003 cycles:  180265778 heartbeat IPC: 0.54085 cumulative IPC: 0.48234 (Simulation time: 0 hr 6 min 47 sec) 
Heartbeat CPU  0 instructions:  162000000 cycles:  182081616 heartbeat IPC: 0.55071 cumulative IPC: 0.48330 (Simulation time: 0 hr 6 min 50 sec) 
Heartbeat CPU  0 instructions:  163000001 cycles:  183904558 heartbeat IPC: 0.54856 cumulative IPC: 0.48422 (Simulation time: 0 hr 6 min 53 sec) 
Heartbeat CPU  0 instructions:  164000000 cycles:  185647113 heartbeat IPC: 0.57387 cumulative IPC: 0.48540 (Simulation time: 0 hr 6 min 56 sec) 
Heartbeat CPU  0 instructions:  165000001 cycles:  187386129 heartbeat IPC: 0.57504 cumulative IPC: 0.48657 (Simulation time: 0 hr 6 min 59 sec) 
Heartbeat CPU  0 instructions:  166000003 cycles:  189102091 heartbeat IPC: 0.58276 cumulative IPC: 0.48779 (Simulation time: 0 hr 7 min 2 sec) 
Heartbeat CPU  0 instructions:  167000001 cycles:  190813930 heartbeat IPC: 0.58417 cumulative IPC: 0.48899 (Simulation time: 0 hr 7 min 5 sec) 
Heartbeat CPU  0 instructions:  168000000 cycles:  192512865 heartbeat IPC: 0.58860 cumulative IPC: 0.49021 (Simulation time: 0 hr 7 min 8 sec) 
Heartbeat CPU  0 instructions:  169000001 cycles:  194310908 heartbeat IPC: 0.55616 cumulative IPC: 0.49106 (Simulation time: 0 hr 7 min 11 sec) 
Heartbeat CPU  0 instructions:  170000000 cycles:  196119291 heartbeat IPC: 0.55298 cumulative IPC: 0.49184 (Simulation time: 0 hr 7 min 14 sec) 
Heartbeat CPU  0 instructions:  171000000 cycles:  197968653 heartbeat IPC: 0.54073 cumulative IPC: 0.49247 (Simulation time: 0 hr 7 min 17 sec) 
Heartbeat CPU  0 instructions:  172000000 cycles:  199813571 heartbeat IPC: 0.54203 cumulative IPC: 0.49310 (Simulation time: 0 hr 7 min 20 sec) 
Heartbeat CPU  0 instructions:  173000002 cycles:  201647699 heartbeat IPC: 0.54522 cumulative IPC: 0.49374 (Simulation time: 0 hr 7 min 23 sec) 
Heartbeat CPU  0 instructions:  174000002 cycles:  203477060 heartbeat IPC: 0.54664 cumulative IPC: 0.49439 (Simulation time: 0 hr 7 min 26 sec) 
Heartbeat CPU  0 instructions:  175000000 cycles:  205292422 heartbeat IPC: 0.55085 cumulative IPC: 0.49507 (Simulation time: 0 hr 7 min 29 sec) 
Heartbeat CPU  0 instructions:  176000000 cycles:  207139737 heartbeat IPC: 0.54133 cumulative IPC: 0.49562 (Simulation time: 0 hr 7 min 32 sec) 
Heartbeat CPU  0 instructions:  177000001 cycles:  208929544 heartbeat IPC: 0.55872 cumulative IPC: 0.49635 (Simulation time: 0 hr 7 min 35 sec) 
Heartbeat CPU  0 instructions:  178000002 cycles:  210771781 heartbeat IPC: 0.54282 cumulative IPC: 0.49690 (Simulation time: 0 hr 7 min 38 sec) 
Heartbeat CPU  0 instructions:  179000001 cycles:  212576795 heartbeat IPC: 0.55401 cumulative IPC: 0.49755 (Simulation time: 0 hr 7 min 41 sec) 
Heartbeat CPU  0 instructions:  180000000 cycles:  214441040 heartbeat IPC: 0.53641 cumulative IPC: 0.49800 (Simulation time: 0 hr 7 min 44 sec) 
Heartbeat CPU  0 instructions:  181000000 cycles:  216248945 heartbeat IPC: 0.55313 cumulative IPC: 0.49861 (Simulation time: 0 hr 7 min 47 sec) 
Heartbeat CPU  0 instructions:  182000000 cycles:  218098072 heartbeat IPC: 0.54080 cumulative IPC: 0.49909 (Simulation time: 0 hr 7 min 50 sec) 
Heartbeat CPU  0 instructions:  183000003 cycles:  219908438 heartbeat IPC: 0.55238 cumulative IPC: 0.49967 (Simulation time: 0 hr 7 min 53 sec) 
Heartbeat CPU  0 instructions:  184000000 cycles:  221768407 heartbeat IPC: 0.53764 cumulative IPC: 0.50009 (Simulation time: 0 hr 7 min 56 sec) 
Heartbeat CPU  0 instructions:  185000002 cycles:  223590289 heartbeat IPC: 0.54888 cumulative IPC: 0.50061 (Simulation time: 0 hr 7 min 59 sec) 
Heartbeat CPU  0 instructions:  186000003 cycles:  225432673 heartbeat IPC: 0.54278 cumulative IPC: 0.50106 (Simulation time: 0 hr 8 min 2 sec) 
Heartbeat CPU  0 instructions:  187000003 cycles:  227273179 heartbeat IPC: 0.54333 cumulative IPC: 0.50151 (Simulation time: 0 hr 8 min 5 sec) 
Heartbeat CPU  0 instructions:  188000000 cycles:  229081445 heartbeat IPC: 0.55301 cumulative IPC: 0.50204 (Simulation time: 0 hr 8 min 8 sec) 
Heartbeat CPU  0 instructions:  189000001 cycles:  230894140 heartbeat IPC: 0.55167 cumulative IPC: 0.50255 (Simulation time: 0 hr 8 min 11 sec) 
Heartbeat CPU  0 instructions:  190000003 cycles:  232711276 heartbeat IPC: 0.55032 cumulative IPC: 0.50304 (Simulation time: 0 hr 8 min 14 sec) 
Heartbeat CPU  0 instructions:  191000001 cycles:  234572891 heartbeat IPC: 0.53717 cumulative IPC: 0.50339 (Simulation time: 0 hr 8 min 17 sec) 
Heartbeat CPU  0 instructions:  192000000 cycles:  236384009 heartbeat IPC: 0.55214 cumulative IPC: 0.50387 (Simulation time: 0 hr 8 min 20 sec) 
Heartbeat CPU  0 instructions:  193000000 cycles:  238231649 heartbeat IPC: 0.54123 cumulative IPC: 0.50425 (Simulation time: 0 hr 8 min 24 sec) 
Heartbeat CPU  0 instructions:  194000003 cycles:  240100572 heartbeat IPC: 0.53507 cumulative IPC: 0.50455 (Simulation time: 0 hr 8 min 27 sec) 
Heartbeat CPU  0 instructions:  195000002 cycles:  241945629 heartbeat IPC: 0.54199 cumulative IPC: 0.50492 (Simulation time: 0 hr 8 min 30 sec) 
Heartbeat CPU  0 instructions:  196000000 cycles:  243773706 heartbeat IPC: 0.54702 cumulative IPC: 0.50533 (Simulation time: 0 hr 8 min 33 sec) 
Heartbeat CPU  0 instructions:  197000000 cycles:  245629582 heartbeat IPC: 0.53883 cumulative IPC: 0.50565 (Simulation time: 0 hr 8 min 36 sec) 
Heartbeat CPU  0 instructions:  198000001 cycles:  247427870 heartbeat IPC: 0.55608 cumulative IPC: 0.50612 (Simulation time: 0 hr 8 min 39 sec) 
Heartbeat CPU  0 instructions:  199000003 cycles:  249254951 heartbeat IPC: 0.54732 cumulative IPC: 0.50650 (Simulation time: 0 hr 8 min 42 sec) 
Heartbeat CPU  0 instructions:  200000000 cycles:  251073484 heartbeat IPC: 0.54989 cumulative IPC: 0.50690 (Simulation time: 0 hr 8 min 45 sec) 
Heartbeat CPU  0 instructions:  201000002 cycles:  252912134 heartbeat IPC: 0.54388 cumulative IPC: 0.50725 (Simulation time: 0 hr 8 min 48 sec) 
Heartbeat CPU  0 instructions:  202000000 cycles:  254749756 heartbeat IPC: 0.54418 cumulative IPC: 0.50758 (Simulation time: 0 hr 8 min 51 sec) 
Heartbeat CPU  0 instructions:  203000000 cycles:  256581248 heartbeat IPC: 0.54600 cumulative IPC: 0.50793 (Simulation time: 0 hr 8 min 54 sec) 
Heartbeat CPU  0 instructions:  204000000 cycles:  258428973 heartbeat IPC: 0.54121 cumulative IPC: 0.50823 (Simulation time: 0 hr 8 min 57 sec) 
Heartbeat CPU  0 instructions:  205000000 cycles:  260276780 heartbeat IPC: 0.54118 cumulative IPC: 0.50853 (Simulation time: 0 hr 9 min 0 sec) 
Heartbeat CPU  0 instructions:  206000000 cycles:  262119140 heartbeat IPC: 0.54278 cumulative IPC: 0.50883 (Simulation time: 0 hr 9 min 3 sec) 
Heartbeat CPU  0 instructions:  207000003 cycles:  263946486 heartbeat IPC: 0.54724 cumulative IPC: 0.50916 (Simulation time: 0 hr 9 min 6 sec) 
Heartbeat CPU  0 instructions:  208000000 cycles:  265800649 heartbeat IPC: 0.53933 cumulative IPC: 0.50943 (Simulation time: 0 hr 9 min 9 sec) 
Heartbeat CPU  0 instructions:  209000000 cycles:  267600878 heartbeat IPC: 0.55548 cumulative IPC: 0.50981 (Simulation time: 0 hr 9 min 12 sec) 
Heartbeat CPU  0 instructions:  210000003 cycles:  269443271 heartbeat IPC: 0.54277 cumulative IPC: 0.51010 (Simulation time: 0 hr 9 min 15 sec) 
Heartbeat CPU  0 instructions:  211000002 cycles:  271252068 heartbeat IPC: 0.55285 cumulative IPC: 0.51045 (Simulation time: 0 hr 9 min 18 sec) 
Heartbeat CPU  0 instructions:  212000000 cycles:  273066477 heartbeat IPC: 0.55114 cumulative IPC: 0.51079 (Simulation time: 0 hr 9 min 21 sec) 
Heartbeat CPU  0 instructions:  213000002 cycles:  274871505 heartbeat IPC: 0.55401 cumulative IPC: 0.51114 (Simulation time: 0 hr 9 min 24 sec) 
Heartbeat CPU  0 instructions:  214000003 cycles:  276699992 heartbeat IPC: 0.54690 cumulative IPC: 0.51143 (Simulation time: 0 hr 9 min 27 sec) 
Heartbeat CPU  0 instructions:  215000000 cycles:  278571193 heartbeat IPC: 0.53441 cumulative IPC: 0.51163 (Simulation time: 0 hr 9 min 30 sec) 
Heartbeat CPU  0 instructions:  216000000 cycles:  280384441 heartbeat IPC: 0.55150 cumulative IPC: 0.51195 (Simulation time: 0 hr 9 min 33 sec) 
Heartbeat CPU  0 instructions:  217000002 cycles:  282218586 heartbeat IPC: 0.54521 cumulative IPC: 0.51221 (Simulation time: 0 hr 9 min 36 sec) 
Heartbeat CPU  0 instructions:  218000000 cycles:  284041394 heartbeat IPC: 0.54860 cumulative IPC: 0.51250 (Simulation time: 0 hr 9 min 39 sec) 
Heartbeat CPU  0 instructions:  219000002 cycles:  285886167 heartbeat IPC: 0.54207 cumulative IPC: 0.51274 (Simulation time: 0 hr 9 min 42 sec) 
Heartbeat CPU  0 instructions:  220000000 cycles:  287684481 heartbeat IPC: 0.55608 cumulative IPC: 0.51307 (Simulation time: 0 hr 9 min 45 sec) 
Heartbeat CPU  0 instructions:  221000002 cycles:  289510499 heartbeat IPC: 0.54764 cumulative IPC: 0.51334 (Simulation time: 0 hr 9 min 48 sec) 
Heartbeat CPU  0 instructions:  222000000 cycles:  291337051 heartbeat IPC: 0.54748 cumulative IPC: 0.51360 (Simulation time: 0 hr 9 min 51 sec) 
Heartbeat CPU  0 instructions:  223000002 cycles:  293179345 heartbeat IPC: 0.54280 cumulative IPC: 0.51382 (Simulation time: 0 hr 9 min 55 sec) 
Heartbeat CPU  0 instructions:  224000000 cycles:  294980463 heartbeat IPC: 0.55521 cumulative IPC: 0.51413 (Simulation time: 0 hr 9 min 58 sec) 
Heartbeat CPU  0 instructions:  225000000 cycles:  296858886 heartbeat IPC: 0.53236 cumulative IPC: 0.51427 (Simulation time: 0 hr 10 min 1 sec) 
Heartbeat CPU  0 instructions:  226000000 cycles:  298665416 heartbeat IPC: 0.55355 cumulative IPC: 0.51456 (Simulation time: 0 hr 10 min 4 sec) 
Heartbeat CPU  0 instructions:  227000001 cycles:  300521569 heartbeat IPC: 0.53875 cumulative IPC: 0.51475 (Simulation time: 0 hr 10 min 7 sec) 
Heartbeat CPU  0 instructions:  228000000 cycles:  302345123 heartbeat IPC: 0.54838 cumulative IPC: 0.51499 (Simulation time: 0 hr 10 min 10 sec) 
Heartbeat CPU  0 instructions:  229000001 cycles:  304177766 heartbeat IPC: 0.54566 cumulative IPC: 0.51522 (Simulation time: 0 hr 10 min 13 sec) 
Heartbeat CPU  0 instructions:  230000001 cycles:  305998057 heartbeat IPC: 0.54936 cumulative IPC: 0.51546 (Simulation time: 0 hr 10 min 16 sec) 
Heartbeat CPU  0 instructions:  231000002 cycles:  307819888 heartbeat IPC: 0.54890 cumulative IPC: 0.51570 (Simulation time: 0 hr 10 min 19 sec) 
Heartbeat CPU  0 instructions:  232000000 cycles:  309642462 heartbeat IPC: 0.54867 cumulative IPC: 0.51594 (Simulation time: 0 hr 10 min 22 sec) 
Heartbeat CPU  0 instructions:  233000000 cycles:  311466038 heartbeat IPC: 0.54837 cumulative IPC: 0.51617 (Simulation time: 0 hr 10 min 25 sec) 
Heartbeat CPU  0 instructions:  234000001 cycles:  313305075 heartbeat IPC: 0.54376 cumulative IPC: 0.51636 (Simulation time: 0 hr 10 min 28 sec) 
Heartbeat CPU  0 instructions:  235000001 cycles:  315125681 heartbeat IPC: 0.54927 cumulative IPC: 0.51659 (Simulation time: 0 hr 10 min 31 sec) 
Heartbeat CPU  0 instructions:  236000000 cycles:  317008003 heartbeat IPC: 0.53126 cumulative IPC: 0.51670 (Simulation time: 0 hr 10 min 34 sec) 
Heartbeat CPU  0 instructions:  237000000 cycles:  318823591 heartbeat IPC: 0.55079 cumulative IPC: 0.51693 (Simulation time: 0 hr 10 min 37 sec) 
Heartbeat CPU  0 instructions:  238000000 cycles:  320668810 heartbeat IPC: 0.54194 cumulative IPC: 0.51710 (Simulation time: 0 hr 10 min 40 sec) 
Heartbeat CPU  0 instructions:  239000003 cycles:  322487245 heartbeat IPC: 0.54993 cumulative IPC: 0.51733 (Simulation time: 0 hr 10 min 43 sec) 
Heartbeat CPU  0 instructions:  240000000 cycles:  324340837 heartbeat IPC: 0.53949 cumulative IPC: 0.51748 (Simulation time: 0 hr 10 min 46 sec) 
Heartbeat CPU  0 instructions:  241000001 cycles:  326138668 heartbeat IPC: 0.55623 cumulative IPC: 0.51773 (Simulation time: 0 hr 10 min 49 sec) 
Heartbeat CPU  0 instructions:  242000001 cycles:  327966226 heartbeat IPC: 0.54718 cumulative IPC: 0.51793 (Simulation time: 0 hr 10 min 52 sec) 
Heartbeat CPU  0 instructions:  243000001 cycles:  329767519 heartbeat IPC: 0.55516 cumulative IPC: 0.51817 (Simulation time: 0 hr 10 min 55 sec) 
Heartbeat CPU  0 instructions:  244000000 cycles:  331605832 heartbeat IPC: 0.54398 cumulative IPC: 0.51834 (Simulation time: 0 hr 10 min 58 sec) 
Heartbeat CPU  0 instructions:  245000002 cycles:  333447134 heartbeat IPC: 0.54310 cumulative IPC: 0.51851 (Simulation time: 0 hr 11 min 2 sec) 
Heartbeat CPU  0 instructions:  246000003 cycles:  335324740 heartbeat IPC: 0.53259 cumulative IPC: 0.51860 (Simulation time: 0 hr 11 min 5 sec) 
Heartbeat CPU  0 instructions:  247000003 cycles:  337159198 heartbeat IPC: 0.54512 cumulative IPC: 0.51877 (Simulation time: 0 hr 11 min 8 sec) 
Heartbeat CPU  0 instructions:  248000000 cycles:  338980835 heartbeat IPC: 0.54896 cumulative IPC: 0.51896 (Simulation time: 0 hr 11 min 11 sec) 
Heartbeat CPU  0 instructions:  249000003 cycles:  340782826 heartbeat IPC: 0.55494 cumulative IPC: 0.51919 (Simulation time: 0 hr 11 min 14 sec) 
Heartbeat CPU  0 instructions:  250000000 cycles:  342600894 heartbeat IPC: 0.55003 cumulative IPC: 0.51938 (Simulation time: 0 hr 11 min 17 sec) 
Heartbeat CPU  0 instructions:  251000003 cycles:  344441575 heartbeat IPC: 0.54328 cumulative IPC: 0.51954 (Simulation time: 0 hr 11 min 20 sec) 
Heartbeat CPU  0 instructions:  252000000 cycles:  346240628 heartbeat IPC: 0.55585 cumulative IPC: 0.51976 (Simulation time: 0 hr 11 min 23 sec) 
Heartbeat CPU  0 instructions:  253000001 cycles:  348087983 heartbeat IPC: 0.54132 cumulative IPC: 0.51989 (Simulation time: 0 hr 11 min 26 sec) 
Heartbeat CPU  0 instructions:  254000000 cycles:  349904010 heartbeat IPC: 0.55065 cumulative IPC: 0.52008 (Simulation time: 0 hr 11 min 29 sec) 
Heartbeat CPU  0 instructions:  255000002 cycles:  351748945 heartbeat IPC: 0.54203 cumulative IPC: 0.52022 (Simulation time: 0 hr 11 min 32 sec) 
Heartbeat CPU  0 instructions:  256000000 cycles:  353566119 heartbeat IPC: 0.55030 cumulative IPC: 0.52040 (Simulation time: 0 hr 11 min 35 sec) 
Heartbeat CPU  0 instructions:  257000002 cycles:  355444315 heartbeat IPC: 0.53243 cumulative IPC: 0.52048 (Simulation time: 0 hr 11 min 38 sec) 
Heartbeat CPU  0 instructions:  258000003 cycles:  357236778 heartbeat IPC: 0.55789 cumulative IPC: 0.52070 (Simulation time: 0 hr 11 min 41 sec) 
Heartbeat CPU  0 instructions:  259000002 cycles:  359080614 heartbeat IPC: 0.54235 cumulative IPC: 0.52083 (Simulation time: 0 hr 11 min 44 sec) 
Heartbeat CPU  0 instructions:  260000000 cycles:  360906838 heartbeat IPC: 0.54758 cumulative IPC: 0.52099 (Simulation time: 0 hr 11 min 47 sec) 
Heartbeat CPU  0 instructions:  261000001 cycles:  362716266 heartbeat IPC: 0.55266 cumulative IPC: 0.52117 (Simulation time: 0 hr 11 min 50 sec) 
Heartbeat CPU  0 instructions:  262000002 cycles:  364520573 heartbeat IPC: 0.55423 cumulative IPC: 0.52136 (Simulation time: 0 hr 11 min 53 sec) 
Heartbeat CPU  0 instructions:  263000001 cycles:  366353125 heartbeat IPC: 0.54569 cumulative IPC: 0.52151 (Simulation time: 0 hr 11 min 56 sec) 
Heartbeat CPU  0 instructions:  264000000 cycles:  368195650 heartbeat IPC: 0.54273 cumulative IPC: 0.52163 (Simulation time: 0 hr 11 min 59 sec) 
Heartbeat CPU  0 instructions:  265000002 cycles:  370023769 heartbeat IPC: 0.54701 cumulative IPC: 0.52178 (Simulation time: 0 hr 12 min 2 sec) 
Heartbeat CPU  0 instructions:  266000000 cycles:  371886549 heartbeat IPC: 0.53683 cumulative IPC: 0.52187 (Simulation time: 0 hr 12 min 5 sec) 
Heartbeat CPU  0 instructions:  267000002 cycles:  374981607 heartbeat IPC: 0.32310 cumulative IPC: 0.51995 (Simulation time: 0 hr 12 min 9 sec) 
Heartbeat CPU  0 instructions:  268000000 cycles:  380402028 heartbeat IPC: 0.18449 cumulative IPC: 0.51438 (Simulation time: 0 hr 12 min 14 sec) 
Heartbeat CPU  0 instructions:  269000002 cycles:  382784521 heartbeat IPC: 0.41973 cumulative IPC: 0.51370 (Simulation time: 0 hr 12 min 18 sec) 
Heartbeat CPU  0 instructions:  270000003 cycles:  385215734 heartbeat IPC: 0.41132 cumulative IPC: 0.51295 (Simulation time: 0 hr 12 min 21 sec) 
Heartbeat CPU  0 instructions:  271000001 cycles:  387659895 heartbeat IPC: 0.40914 cumulative IPC: 0.51219 (Simulation time: 0 hr 12 min 24 sec) 
Heartbeat CPU  0 instructions:  272000000 cycles:  390103503 heartbeat IPC: 0.40923 cumulative IPC: 0.51144 (Simulation time: 0 hr 12 min 28 sec) 
Heartbeat CPU  0 instructions:  273000002 cycles:  392257544 heartbeat IPC: 0.46424 cumulative IPC: 0.51114 (Simulation time: 0 hr 12 min 31 sec) 
Heartbeat CPU  0 instructions:  274000003 cycles:  394203685 heartbeat IPC: 0.51384 cumulative IPC: 0.51115 (Simulation time: 0 hr 12 min 34 sec) 
Heartbeat CPU  0 instructions:  275000000 cycles:  396110160 heartbeat IPC: 0.52453 cumulative IPC: 0.51123 (Simulation time: 0 hr 12 min 37 sec) 
Heartbeat CPU  0 instructions:  276000000 cycles:  397901012 heartbeat IPC: 0.55839 cumulative IPC: 0.51147 (Simulation time: 0 hr 12 min 40 sec) 
Heartbeat CPU  0 instructions:  277000003 cycles:  399718242 heartbeat IPC: 0.55029 cumulative IPC: 0.51168 (Simulation time: 0 hr 12 min 43 sec) 
Heartbeat CPU  0 instructions:  278000003 cycles:  401489322 heartbeat IPC: 0.56463 cumulative IPC: 0.51195 (Simulation time: 0 hr 12 min 46 sec) 
Heartbeat CPU  0 instructions:  279000001 cycles:  403312592 heartbeat IPC: 0.54846 cumulative IPC: 0.51214 (Simulation time: 0 hr 12 min 49 sec) 
Heartbeat CPU  0 instructions:  280000000 cycles:  405186752 heartbeat IPC: 0.53357 cumulative IPC: 0.51225 (Simulation time: 0 hr 12 min 52 sec) 
Heartbeat CPU  0 instructions:  281000001 cycles:  407020893 heartbeat IPC: 0.54521 cumulative IPC: 0.51242 (Simulation time: 0 hr 12 min 55 sec) 
Heartbeat CPU  0 instructions:  282000003 cycles:  408845559 heartbeat IPC: 0.54805 cumulative IPC: 0.51261 (Simulation time: 0 hr 12 min 58 sec) 
Heartbeat CPU  0 instructions:  283000000 cycles:  410819325 heartbeat IPC: 0.50664 cumulative IPC: 0.51257 (Simulation time: 0 hr 13 min 1 sec) 
Heartbeat CPU  0 instructions:  284000000 cycles:  412757277 heartbeat IPC: 0.51601 cumulative IPC: 0.51259 (Simulation time: 0 hr 13 min 5 sec) 
Heartbeat CPU  0 instructions:  285000002 cycles:  414736034 heartbeat IPC: 0.50537 cumulative IPC: 0.51255 (Simulation time: 0 hr 13 min 8 sec) 
Heartbeat CPU  0 instructions:  286000002 cycles:  416690089 heartbeat IPC: 0.51176 cumulative IPC: 0.51255 (Simulation time: 0 hr 13 min 11 sec) 
Heartbeat CPU  0 instructions:  287000000 cycles:  418674076 heartbeat IPC: 0.50403 cumulative IPC: 0.51250 (Simulation time: 0 hr 13 min 14 sec) 
Heartbeat CPU  0 instructions:  288000000 cycles:  420627877 heartbeat IPC: 0.51182 cumulative IPC: 0.51250 (Simulation time: 0 hr 13 min 17 sec) 
Heartbeat CPU  0 instructions:  289000003 cycles:  422657070 heartbeat IPC: 0.49281 cumulative IPC: 0.51239 (Simulation time: 0 hr 13 min 21 sec) 
Heartbeat CPU  0 instructions:  290000000 cycles:  424558845 heartbeat IPC: 0.52582 cumulative IPC: 0.51246 (Simulation time: 0 hr 13 min 24 sec) 
Heartbeat CPU  0 instructions:  291000000 cycles:  426354854 heartbeat IPC: 0.55679 cumulative IPC: 0.51267 (Simulation time: 0 hr 13 min 27 sec) 
Heartbeat CPU  0 instructions:  292000000 cycles:  428099005 heartbeat IPC: 0.57334 cumulative IPC: 0.51296 (Simulation time: 0 hr 13 min 30 sec) 
Heartbeat CPU  0 instructions:  293000000 cycles:  429806809 heartbeat IPC: 0.58555 cumulative IPC: 0.51329 (Simulation time: 0 hr 13 min 33 sec) 
Heartbeat CPU  0 instructions:  294000002 cycles:  431745328 heartbeat IPC: 0.51586 cumulative IPC: 0.51330 (Simulation time: 0 hr 13 min 36 sec) 
Heartbeat CPU  0 instructions:  295000002 cycles:  433796209 heartbeat IPC: 0.48760 cumulative IPC: 0.51316 (Simulation time: 0 hr 13 min 39 sec) 
Heartbeat CPU  0 instructions:  296000000 cycles:  435752205 heartbeat IPC: 0.51125 cumulative IPC: 0.51315 (Simulation time: 0 hr 13 min 42 sec) 
Heartbeat CPU  0 instructions:  297000001 cycles:  437665412 heartbeat IPC: 0.52268 cumulative IPC: 0.51320 (Simulation time: 0 hr 13 min 45 sec) 
Heartbeat CPU  0 instructions:  298000000 cycles:  439666175 heartbeat IPC: 0.49981 cumulative IPC: 0.51313 (Simulation time: 0 hr 13 min 48 sec) 
Heartbeat CPU  0 instructions:  299000003 cycles:  441655208 heartbeat IPC: 0.50276 cumulative IPC: 0.51307 (Simulation time: 0 hr 13 min 51 sec) 
Heartbeat CPU  0 instructions:  300000000 cycles:  443682132 heartbeat IPC: 0.49336 cumulative IPC: 0.51297 (Simulation time: 0 hr 13 min 55 sec) 
Heartbeat CPU  0 instructions:  301000002 cycles:  445580518 heartbeat IPC: 0.52676 cumulative IPC: 0.51304 (Simulation time: 0 hr 13 min 58 sec) 
Heartbeat CPU  0 instructions:  302000002 cycles:  447564210 heartbeat IPC: 0.50411 cumulative IPC: 0.51299 (Simulation time: 0 hr 14 min 1 sec) 
Heartbeat CPU  0 instructions:  303000001 cycles:  449525446 heartbeat IPC: 0.50988 cumulative IPC: 0.51298 (Simulation time: 0 hr 14 min 4 sec) 
Heartbeat CPU  0 instructions:  304000000 cycles:  451488718 heartbeat IPC: 0.50935 cumulative IPC: 0.51296 (Simulation time: 0 hr 14 min 7 sec) 
Heartbeat CPU  0 instructions:  305000000 cycles:  453533180 heartbeat IPC: 0.48913 cumulative IPC: 0.51284 (Simulation time: 0 hr 14 min 11 sec) 
Heartbeat CPU  0 instructions:  306000001 cycles:  455484615 heartbeat IPC: 0.51244 cumulative IPC: 0.51284 (Simulation time: 0 hr 14 min 14 sec) 
Heartbeat CPU  0 instructions:  307000003 cycles:  457459083 heartbeat IPC: 0.50647 cumulative IPC: 0.51281 (Simulation time: 0 hr 14 min 17 sec) 
Heartbeat CPU  0 instructions:  308000000 cycles:  459425287 heartbeat IPC: 0.50859 cumulative IPC: 0.51279 (Simulation time: 0 hr 14 min 20 sec) 
Heartbeat CPU  0 instructions:  309000000 cycles:  461376982 heartbeat IPC: 0.51238 cumulative IPC: 0.51278 (Simulation time: 0 hr 14 min 23 sec) 
Heartbeat CPU  0 instructions:  310000000 cycles:  463419472 heartbeat IPC: 0.48960 cumulative IPC: 0.51267 (Simulation time: 0 hr 14 min 26 sec) 
Heartbeat CPU  0 instructions:  311000001 cycles:  465416637 heartbeat IPC: 0.50071 cumulative IPC: 0.51261 (Simulation time: 0 hr 14 min 29 sec) 
Heartbeat CPU  0 instructions:  312000000 cycles:  467401226 heartbeat IPC: 0.50388 cumulative IPC: 0.51257 (Simulation time: 0 hr 14 min 33 sec) 
Heartbeat CPU  0 instructions:  313000000 cycles:  469296462 heartbeat IPC: 0.52764 cumulative IPC: 0.51264 (Simulation time: 0 hr 14 min 36 sec) 
Heartbeat CPU  0 instructions:  314000000 cycles:  471273887 heartbeat IPC: 0.50571 cumulative IPC: 0.51260 (Simulation time: 0 hr 14 min 39 sec) 
Heartbeat CPU  0 instructions:  315000000 cycles:  473291742 heartbeat IPC: 0.49558 cumulative IPC: 0.51252 (Simulation time: 0 hr 14 min 42 sec) 
Heartbeat CPU  0 instructions:  316000000 cycles:  475221681 heartbeat IPC: 0.51815 cumulative IPC: 0.51255 (Simulation time: 0 hr 14 min 45 sec) 
Heartbeat CPU  0 instructions:  317000001 cycles:  477175043 heartbeat IPC: 0.51194 cumulative IPC: 0.51255 (Simulation time: 0 hr 14 min 48 sec) 
Heartbeat CPU  0 instructions:  318000001 cycles:  479172271 heartbeat IPC: 0.50069 cumulative IPC: 0.51249 (Simulation time: 0 hr 14 min 51 sec) 
Heartbeat CPU  0 instructions:  319000002 cycles:  481110368 heartbeat IPC: 0.51597 cumulative IPC: 0.51251 (Simulation time: 0 hr 14 min 55 sec) 
Heartbeat CPU  0 instructions:  320000000 cycles:  483094985 heartbeat IPC: 0.50387 cumulative IPC: 0.51247 (Simulation time: 0 hr 14 min 58 sec) 
Heartbeat CPU  0 instructions:  321000000 cycles:  485061338 heartbeat IPC: 0.50856 cumulative IPC: 0.51245 (Simulation time: 0 hr 15 min 1 sec) 
Heartbeat CPU  0 instructions:  322000003 cycles:  487045100 heartbeat IPC: 0.50409 cumulative IPC: 0.51241 (Simulation time: 0 hr 15 min 4 sec) 
Heartbeat CPU  0 instructions:  323000000 cycles:  489020786 heartbeat IPC: 0.50615 cumulative IPC: 0.51238 (Simulation time: 0 hr 15 min 7 sec) 
Heartbeat CPU  0 instructions:  324000000 cycles:  490966356 heartbeat IPC: 0.51399 cumulative IPC: 0.51239 (Simulation time: 0 hr 15 min 10 sec) 
Heartbeat CPU  0 instructions:  325000001 cycles:  492944901 heartbeat IPC: 0.50542 cumulative IPC: 0.51236 (Simulation time: 0 hr 15 min 14 sec) 
Heartbeat CPU  0 instructions:  326000000 cycles:  494897147 heartbeat IPC: 0.51223 cumulative IPC: 0.51236 (Simulation time: 0 hr 15 min 17 sec) 
Heartbeat CPU  0 instructions:  327000001 cycles:  496881056 heartbeat IPC: 0.50406 cumulative IPC: 0.51232 (Simulation time: 0 hr 15 min 20 sec) 
Heartbeat CPU  0 instructions:  328000000 cycles:  498832596 heartbeat IPC: 0.51242 cumulative IPC: 0.51232 (Simulation time: 0 hr 15 min 23 sec) 
Heartbeat CPU  0 instructions:  329000001 cycles:  500842451 heartbeat IPC: 0.49755 cumulative IPC: 0.51225 (Simulation time: 0 hr 15 min 26 sec) 
Heartbeat CPU  0 instructions:  330000000 cycles:  504534931 heartbeat IPC: 0.27082 cumulative IPC: 0.51028 (Simulation time: 0 hr 15 min 30 sec) 
Heartbeat CPU  0 instructions:  331000000 cycles:  509215770 heartbeat IPC: 0.21364 cumulative IPC: 0.50723 (Simulation time: 0 hr 15 min 34 sec) 
Heartbeat CPU  0 instructions:  332000000 cycles:  513767686 heartbeat IPC: 0.21969 cumulative IPC: 0.50438 (Simulation time: 0 hr 15 min 39 sec) 
Heartbeat CPU  0 instructions:  333000001 cycles:  517315683 heartbeat IPC: 0.28185 cumulative IPC: 0.50268 (Simulation time: 0 hr 15 min 42 sec) 
Heartbeat CPU  0 instructions:  334000002 cycles:  521124420 heartbeat IPC: 0.26255 cumulative IPC: 0.50072 (Simulation time: 0 hr 15 min 46 sec) 
Heartbeat CPU  0 instructions:  335000002 cycles:  524939965 heartbeat IPC: 0.26209 cumulative IPC: 0.49879 (Simulation time: 0 hr 15 min 49 sec) 
Heartbeat CPU  0 instructions:  336000000 cycles:  528256095 heartbeat IPC: 0.30156 cumulative IPC: 0.49741 (Simulation time: 0 hr 15 min 53 sec) 
Heartbeat CPU  0 instructions:  337000003 cycles:  531380013 heartbeat IPC: 0.32011 cumulative IPC: 0.49625 (Simulation time: 0 hr 15 min 56 sec) 
Heartbeat CPU  0 instructions:  338000000 cycles:  535118362 heartbeat IPC: 0.26750 cumulative IPC: 0.49447 (Simulation time: 0 hr 16 min 0 sec) 
Heartbeat CPU  0 instructions:  339000001 cycles:  540016855 heartbeat IPC: 0.20414 cumulative IPC: 0.49155 (Simulation time: 0 hr 16 min 4 sec) 
Heartbeat CPU  0 instructions:  340000000 cycles:  544948624 heartbeat IPC: 0.20277 cumulative IPC: 0.48865 (Simulation time: 0 hr 16 min 8 sec) 
Heartbeat CPU  0 instructions:  341000000 cycles:  548362069 heartbeat IPC: 0.29296 cumulative IPC: 0.48730 (Simulation time: 0 hr 16 min 12 sec) 
Heartbeat CPU  0 instructions:  342000000 cycles:  551872726 heartbeat IPC: 0.28485 cumulative IPC: 0.48587 (Simulation time: 0 hr 16 min 15 sec) 
Heartbeat CPU  0 instructions:  343000000 cycles:  555316388 heartbeat IPC: 0.29039 cumulative IPC: 0.48453 (Simulation time: 0 hr 16 min 19 sec) 
Heartbeat CPU  0 instructions:  344000000 cycles:  558746032 heartbeat IPC: 0.29158 cumulative IPC: 0.48322 (Simulation time: 0 hr 16 min 22 sec) 
Heartbeat CPU  0 instructions:  345000000 cycles:  562102351 heartbeat IPC: 0.29795 cumulative IPC: 0.48199 (Simulation time: 0 hr 16 min 26 sec) 
Heartbeat CPU  0 instructions:  346000003 cycles:  565542635 heartbeat IPC: 0.29067 cumulative IPC: 0.48071 (Simulation time: 0 hr 16 min 29 sec) 
Heartbeat CPU  0 instructions:  347000002 cycles:  568922568 heartbeat IPC: 0.29586 cumulative IPC: 0.47950 (Simulation time: 0 hr 16 min 33 sec) 
Heartbeat CPU  0 instructions:  348000000 cycles:  573809092 heartbeat IPC: 0.20464 cumulative IPC: 0.47691 (Simulation time: 0 hr 16 min 37 sec) 
Heartbeat CPU  0 instructions:  349000000 cycles:  579034772 heartbeat IPC: 0.19136 cumulative IPC: 0.47407 (Simulation time: 0 hr 16 min 42 sec) 
Heartbeat CPU  0 instructions:  350000003 cycles:  582688553 heartbeat IPC: 0.27369 cumulative IPC: 0.47269 (Simulation time: 0 hr 16 min 45 sec) 
Heartbeat CPU  0 instructions:  351000003 cycles:  586340623 heartbeat IPC: 0.27382 cumulative IPC: 0.47132 (Simulation time: 0 hr 16 min 49 sec) 
Heartbeat CPU  0 instructions:  352000000 cycles:  589799949 heartbeat IPC: 0.28907 cumulative IPC: 0.47015 (Simulation time: 0 hr 16 min 52 sec) 
Heartbeat CPU  0 instructions:  353000000 cycles:  593311746 heartbeat IPC: 0.28475 cumulative IPC: 0.46894 (Simulation time: 0 hr 16 min 56 sec) 
Heartbeat CPU  0 instructions:  354000000 cycles:  596769400 heartbeat IPC: 0.28921 cumulative IPC: 0.46780 (Simulation time: 0 hr 16 min 59 sec) 
Heartbeat CPU  0 instructions:  355000001 cycles:  600149188 heartbeat IPC: 0.29588 cumulative IPC: 0.46673 (Simulation time: 0 hr 17 min 3 sec) 
Heartbeat CPU  0 instructions:  356000000 cycles:  603479417 heartbeat IPC: 0.30028 cumulative IPC: 0.46572 (Simulation time: 0 hr 17 min 6 sec) 
Heartbeat CPU  0 instructions:  357000003 cycles:  607242881 heartbeat IPC: 0.26571 cumulative IPC: 0.46436 (Simulation time: 0 hr 17 min 11 sec) 
Heartbeat CPU  0 instructions:  358000000 cycles:  611410903 heartbeat IPC: 0.23992 cumulative IPC: 0.46269 (Simulation time: 0 hr 17 min 15 sec) 
Heartbeat CPU  0 instructions:  359000002 cycles:  615399197 heartbeat IPC: 0.25073 cumulative IPC: 0.46118 (Simulation time: 0 hr 17 min 20 sec) 
Heartbeat CPU  0 instructions:  360000000 cycles:  618106661 heartbeat IPC: 0.36935 cumulative IPC: 0.46074 (Simulation time: 0 hr 17 min 24 sec) 
Heartbeat CPU  0 instructions:  361000000 cycles:  620686980 heartbeat IPC: 0.38755 cumulative IPC: 0.46041 (Simulation time: 0 hr 17 min 27 sec) 
Heartbeat CPU  0 instructions:  362000000 cycles:  623226144 heartbeat IPC: 0.39383 cumulative IPC: 0.46011 (Simulation time: 0 hr 17 min 31 sec) 
Heartbeat CPU  0 instructions:  363000000 cycles:  625792751 heartbeat IPC: 0.38962 cumulative IPC: 0.45979 (Simulation time: 0 hr 17 min 34 sec) 
Heartbeat CPU  0 instructions:  364000000 cycles:  628362870 heartbeat IPC: 0.38909 cumulative IPC: 0.45948 (Simulation time: 0 hr 17 min 38 sec) 
Heartbeat CPU  0 instructions:  365000002 cycles:  630918652 heartbeat IPC: 0.39127 cumulative IPC: 0.45918 (Simulation time: 0 hr 17 min 42 sec) 
Heartbeat CPU  0 instructions:  366000001 cycles:  633459754 heartbeat IPC: 0.39353 cumulative IPC: 0.45889 (Simulation time: 0 hr 17 min 45 sec) 
Heartbeat CPU  0 instructions:  367000001 cycles:  635993343 heartbeat IPC: 0.39470 cumulative IPC: 0.45861 (Simulation time: 0 hr 17 min 49 sec) 
Heartbeat CPU  0 instructions:  368000000 cycles:  638537646 heartbeat IPC: 0.39303 cumulative IPC: 0.45832 (Simulation time: 0 hr 17 min 52 sec) 
Heartbeat CPU  0 instructions:  369000001 cycles:  641077743 heartbeat IPC: 0.39369 cumulative IPC: 0.45804 (Simulation time: 0 hr 17 min 56 sec) 
Heartbeat CPU  0 instructions:  370000002 cycles:  643639698 heartbeat IPC: 0.39033 cumulative IPC: 0.45775 (Simulation time: 0 hr 17 min 59 sec) 
Heartbeat CPU  0 instructions:  371000002 cycles:  646187813 heartbeat IPC: 0.39245 cumulative IPC: 0.45747 (Simulation time: 0 hr 18 min 3 sec) 
Heartbeat CPU  0 instructions:  372000000 cycles:  648726067 heartbeat IPC: 0.39397 cumulative IPC: 0.45720 (Simulation time: 0 hr 18 min 6 sec) 
Heartbeat CPU  0 instructions:  373000000 cycles:  651272920 heartbeat IPC: 0.39264 cumulative IPC: 0.45692 (Simulation time: 0 hr 18 min 10 sec) 
Heartbeat CPU  0 instructions:  374000003 cycles:  653801360 heartbeat IPC: 0.39550 cumulative IPC: 0.45666 (Simulation time: 0 hr 18 min 14 sec) 
Heartbeat CPU  0 instructions:  375000002 cycles:  656341662 heartbeat IPC: 0.39365 cumulative IPC: 0.45640 (Simulation time: 0 hr 18 min 17 sec) 
Heartbeat CPU  0 instructions:  376000000 cycles:  658895726 heartbeat IPC: 0.39153 cumulative IPC: 0.45612 (Simulation time: 0 hr 18 min 21 sec) 
Heartbeat CPU  0 instructions:  377000001 cycles:  661482300 heartbeat IPC: 0.38661 cumulative IPC: 0.45583 (Simulation time: 0 hr 18 min 24 sec) 
Heartbeat CPU  0 instructions:  378000000 cycles:  664067070 heartbeat IPC: 0.38688 cumulative IPC: 0.45554 (Simulation time: 0 hr 18 min 28 sec) 
Heartbeat CPU  0 instructions:  379000001 cycles:  666697162 heartbeat IPC: 0.38022 cumulative IPC: 0.45521 (Simulation time: 0 hr 18 min 32 sec) 
Heartbeat CPU  0 instructions:  380000000 cycles:  669322903 heartbeat IPC: 0.38084 cumulative IPC: 0.45490 (Simulation time: 0 hr 18 min 35 sec) 
Heartbeat CPU  0 instructions:  381000001 cycles:  671976867 heartbeat IPC: 0.37680 cumulative IPC: 0.45456 (Simulation time: 0 hr 18 min 39 sec) 
Heartbeat CPU  0 instructions:  382000000 cycles:  674627322 heartbeat IPC: 0.37729 cumulative IPC: 0.45423 (Simulation time: 0 hr 18 min 43 sec) 
Heartbeat CPU  0 instructions:  383000000 cycles:  677311920 heartbeat IPC: 0.37250 cumulative IPC: 0.45388 (Simulation time: 0 hr 18 min 47 sec) 
Heartbeat CPU  0 instructions:  384000000 cycles:  679972937 heartbeat IPC: 0.37580 cumulative IPC: 0.45355 (Simulation time: 0 hr 18 min 50 sec) 
Heartbeat CPU  0 instructions:  385000001 cycles:  682664413 heartbeat IPC: 0.37154 cumulative IPC: 0.45320 (Simulation time: 0 hr 18 min 54 sec) 
Heartbeat CPU  0 instructions:  386000001 cycles:  685318370 heartbeat IPC: 0.37680 cumulative IPC: 0.45288 (Simulation time: 0 hr 18 min 58 sec) 
Heartbeat CPU  0 instructions:  387000000 cycles:  687978122 heartbeat IPC: 0.37597 cumulative IPC: 0.45255 (Simulation time: 0 hr 19 min 2 sec) 
Heartbeat CPU  0 instructions:  388000000 cycles:  690663613 heartbeat IPC: 0.37237 cumulative IPC: 0.45221 (Simulation time: 0 hr 19 min 5 sec) 
Heartbeat CPU  0 instructions:  389000002 cycles:  693318591 heartbeat IPC: 0.37665 cumulative IPC: 0.45190 (Simulation time: 0 hr 19 min 9 sec) 
Heartbeat CPU  0 instructions:  390000002 cycles:  696024957 heartbeat IPC: 0.36950 cumulative IPC: 0.45155 (Simulation time: 0 hr 19 min 13 sec) 
Heartbeat CPU  0 instructions:  391000001 cycles:  698683774 heartbeat IPC: 0.37611 cumulative IPC: 0.45124 (Simulation time: 0 hr 19 min 17 sec) 
Heartbeat CPU  0 instructions:  392000000 cycles:  701360373 heartbeat IPC: 0.37361 cumulative IPC: 0.45092 (Simulation time: 0 hr 19 min 20 sec) 
Heartbeat CPU  0 instructions:  393000003 cycles:  704057828 heartbeat IPC: 0.37072 cumulative IPC: 0.45059 (Simulation time: 0 hr 19 min 24 sec) 
Heartbeat CPU  0 instructions:  394000002 cycles:  706977989 heartbeat IPC: 0.34245 cumulative IPC: 0.45011 (Simulation time: 0 hr 19 min 28 sec) 
Heartbeat CPU  0 instructions:  395000001 cycles:  710046902 heartbeat IPC: 0.32585 cumulative IPC: 0.44952 (Simulation time: 0 hr 19 min 32 sec) 
Heartbeat CPU  0 instructions:  396000000 cycles:  713063357 heartbeat IPC: 0.33151 cumulative IPC: 0.44898 (Simulation time: 0 hr 19 min 35 sec) 
Heartbeat CPU  0 instructions:  397000000 cycles:  716102615 heartbeat IPC: 0.32903 cumulative IPC: 0.44843 (Simulation time: 0 hr 19 min 39 sec) 
Heartbeat CPU  0 instructions:  398000001 cycles:  718903522 heartbeat IPC: 0.35703 cumulative IPC: 0.44805 (Simulation time: 0 hr 19 min 43 sec) 
Heartbeat CPU  0 instructions:  399000001 cycles:  721071628 heartbeat IPC: 0.46123 cumulative IPC: 0.44809 (Simulation time: 0 hr 19 min 46 sec) 
Heartbeat CPU  0 instructions:  400000000 cycles:  723163766 heartbeat IPC: 0.47798 cumulative IPC: 0.44819 (Simulation time: 0 hr 19 min 49 sec) 
Heartbeat CPU  0 instructions:  401000001 cycles:  725263882 heartbeat IPC: 0.47616 cumulative IPC: 0.44827 (Simulation time: 0 hr 19 min 52 sec) 
Heartbeat CPU  0 instructions:  402000000 cycles:  727388792 heartbeat IPC: 0.47061 cumulative IPC: 0.44834 (Simulation time: 0 hr 19 min 55 sec) 
Heartbeat CPU  0 instructions:  403000003 cycles:  729664820 heartbeat IPC: 0.43936 cumulative IPC: 0.44831 (Simulation time: 0 hr 19 min 58 sec) 
Heartbeat CPU  0 instructions:  404000000 cycles:  731834269 heartbeat IPC: 0.46095 cumulative IPC: 0.44835 (Simulation time: 0 hr 20 min 1 sec) 
Heartbeat CPU  0 instructions:  405000002 cycles:  733686907 heartbeat IPC: 0.53977 cumulative IPC: 0.44860 (Simulation time: 0 hr 20 min 4 sec) 
Heartbeat CPU  0 instructions:  406000002 cycles:  735529470 heartbeat IPC: 0.54272 cumulative IPC: 0.44886 (Simulation time: 0 hr 20 min 7 sec) 
Heartbeat CPU  0 instructions:  407000003 cycles:  737225500 heartbeat IPC: 0.58961 cumulative IPC: 0.44921 (Simulation time: 0 hr 20 min 10 sec) 
Heartbeat CPU  0 instructions:  408000000 cycles:  738684522 heartbeat IPC: 0.68539 cumulative IPC: 0.44971 (Simulation time: 0 hr 20 min 13 sec) 
Heartbeat CPU  0 instructions:  409000003 cycles:  740181579 heartbeat IPC: 0.66798 cumulative IPC: 0.45019 (Simulation time: 0 hr 20 min 16 sec) 
Heartbeat CPU  0 instructions:  410000002 cycles:  741986768 heartbeat IPC: 0.55396 cumulative IPC: 0.45046 (Simulation time: 0 hr 20 min 18 sec) 
Heartbeat CPU  0 instructions:  411000002 cycles:  743859806 heartbeat IPC: 0.53389 cumulative IPC: 0.45068 (Simulation time: 0 hr 20 min 21 sec) 
Heartbeat CPU  0 instructions:  412000000 cycles:  745734163 heartbeat IPC: 0.53352 cumulative IPC: 0.45091 (Simulation time: 0 hr 20 min 24 sec) 
Heartbeat CPU  0 instructions:  413000000 cycles:  747303560 heartbeat IPC: 0.63719 cumulative IPC: 0.45133 (Simulation time: 0 hr 20 min 27 sec) 
Heartbeat CPU  0 instructions:  414000002 cycles:  749254710 heartbeat IPC: 0.51252 cumulative IPC: 0.45150 (Simulation time: 0 hr 20 min 30 sec) 
Heartbeat CPU  0 instructions:  415000002 cycles:  751442342 heartbeat IPC: 0.45712 cumulative IPC: 0.45152 (Simulation time: 0 hr 20 min 33 sec) 
Heartbeat CPU  0 instructions:  416000000 cycles:  753339432 heartbeat IPC: 0.52712 cumulative IPC: 0.45172 (Simulation time: 0 hr 20 min 36 sec) 
Heartbeat CPU  0 instructions:  417000000 cycles:  755189898 heartbeat IPC: 0.54040 cumulative IPC: 0.45196 (Simulation time: 0 hr 20 min 39 sec) 
Heartbeat CPU  0 instructions:  418000002 cycles:  756801197 heartbeat IPC: 0.62062 cumulative IPC: 0.45234 (Simulation time: 0 hr 20 min 42 sec) 
Heartbeat CPU  0 instructions:  419000002 cycles:  758359851 heartbeat IPC: 0.64158 cumulative IPC: 0.45276 (Simulation time: 0 hr 20 min 45 sec) 
Heartbeat CPU  0 instructions:  420000000 cycles:  760093656 heartbeat IPC: 0.57677 cumulative IPC: 0.45307 (Simulation time: 0 hr 20 min 47 sec) 
Heartbeat CPU  0 instructions:  421000000 cycles:  761938304 heartbeat IPC: 0.54211 cumulative IPC: 0.45330 (Simulation time: 0 hr 20 min 50 sec) 
Heartbeat CPU  0 instructions:  422000001 cycles:  763789029 heartbeat IPC: 0.54033 cumulative IPC: 0.45353 (Simulation time: 0 hr 20 min 53 sec) 
Heartbeat CPU  0 instructions:  423000002 cycles:  765619771 heartbeat IPC: 0.54623 cumulative IPC: 0.45377 (Simulation time: 0 hr 20 min 56 sec) 
Heartbeat CPU  0 instructions:  424000000 cycles:  767695177 heartbeat IPC: 0.48183 cumulative IPC: 0.45385 (Simulation time: 0 hr 20 min 59 sec) 
Heartbeat CPU  0 instructions:  425000003 cycles:  770361596 heartbeat IPC: 0.37504 cumulative IPC: 0.45355 (Simulation time: 0 hr 21 min 3 sec) 
Heartbeat CPU  0 instructions:  426000003 cycles:  772338480 heartbeat IPC: 0.50585 cumulative IPC: 0.45370 (Simulation time: 0 hr 21 min 6 sec) 
Heartbeat CPU  0 instructions:  427000000 cycles:  774197255 heartbeat IPC: 0.53799 cumulative IPC: 0.45391 (Simulation time: 0 hr 21 min 9 sec) 
Heartbeat CPU  0 instructions:  428000000 cycles:  775985940 heartbeat IPC: 0.55907 cumulative IPC: 0.45418 (Simulation time: 0 hr 21 min 12 sec) 
Heartbeat CPU  0 instructions:  429000001 cycles:  777678357 heartbeat IPC: 0.59087 cumulative IPC: 0.45449 (Simulation time: 0 hr 21 min 14 sec) 
Heartbeat CPU  0 instructions:  430000003 cycles:  779374972 heartbeat IPC: 0.58941 cumulative IPC: 0.45481 (Simulation time: 0 hr 21 min 17 sec) 
Heartbeat CPU  0 instructions:  431000002 cycles:  781199578 heartbeat IPC: 0.54806 cumulative IPC: 0.45504 (Simulation time: 0 hr 21 min 20 sec) 
Heartbeat CPU  0 instructions:  432000000 cycles:  783070887 heartbeat IPC: 0.53438 cumulative IPC: 0.45525 (Simulation time: 0 hr 21 min 23 sec) 
Heartbeat CPU  0 instructions:  433000003 cycles:  784948871 heartbeat IPC: 0.53249 cumulative IPC: 0.45545 (Simulation time: 0 hr 21 min 26 sec) 
Heartbeat CPU  0 instructions:  434000001 cycles:  786687290 heartbeat IPC: 0.57523 cumulative IPC: 0.45573 (Simulation time: 0 hr 21 min 29 sec) 
Heartbeat CPU  0 instructions:  435000003 cycles:  789380434 heartbeat IPC: 0.37131 cumulative IPC: 0.45542 (Simulation time: 0 hr 21 min 32 sec) 
Heartbeat CPU  0 instructions:  436000000 cycles:  791630044 heartbeat IPC: 0.44452 cumulative IPC: 0.45539 (Simulation time: 0 hr 21 min 36 sec) 
Heartbeat CPU  0 instructions:  437000001 cycles:  793530877 heartbeat IPC: 0.52609 cumulative IPC: 0.45557 (Simulation time: 0 hr 21 min 39 sec) 
Heartbeat CPU  0 instructions:  438000000 cycles:  795390269 heartbeat IPC: 0.53781 cumulative IPC: 0.45578 (Simulation time: 0 hr 21 min 42 sec) 
Heartbeat CPU  0 instructions:  439000003 cycles:  797169708 heartbeat IPC: 0.56198 cumulative IPC: 0.45603 (Simulation time: 0 hr 21 min 45 sec) 
Heartbeat CPU  0 instructions:  440000000 cycles:  798958704 heartbeat IPC: 0.55897 cumulative IPC: 0.45628 (Simulation time: 0 hr 21 min 47 sec) 
Heartbeat CPU  0 instructions:  441000001 cycles:  800815856 heartbeat IPC: 0.53846 cumulative IPC: 0.45648 (Simulation time: 0 hr 21 min 50 sec) 
Heartbeat CPU  0 instructions:  442000000 cycles:  802688651 heartbeat IPC: 0.53396 cumulative IPC: 0.45668 (Simulation time: 0 hr 21 min 53 sec) 
Heartbeat CPU  0 instructions:  443000003 cycles:  804562287 heartbeat IPC: 0.53372 cumulative IPC: 0.45687 (Simulation time: 0 hr 21 min 56 sec) 
Heartbeat CPU  0 instructions:  444000000 cycles:  806325387 heartbeat IPC: 0.56718 cumulative IPC: 0.45713 (Simulation time: 0 hr 21 min 59 sec) 
Heartbeat CPU  0 instructions:  445000000 cycles:  808588941 heartbeat IPC: 0.44178 cumulative IPC: 0.45708 (Simulation time: 0 hr 22 min 2 sec) 
Heartbeat CPU  0 instructions:  446000000 cycles:  811182257 heartbeat IPC: 0.38561 cumulative IPC: 0.45684 (Simulation time: 0 hr 22 min 6 sec) 
Heartbeat CPU  0 instructions:  447000001 cycles:  813135810 heartbeat IPC: 0.51189 cumulative IPC: 0.45698 (Simulation time: 0 hr 22 min 9 sec) 
Heartbeat CPU  0 instructions:  448000000 cycles:  815030010 heartbeat IPC: 0.52793 cumulative IPC: 0.45715 (Simulation time: 0 hr 22 min 12 sec) 
Heartbeat CPU  0 instructions:  449000001 cycles:  816904584 heartbeat IPC: 0.53346 cumulative IPC: 0.45734 (Simulation time: 0 hr 22 min 15 sec) 
Heartbeat CPU  0 instructions:  450000000 cycles:  818779433 heartbeat IPC: 0.53338 cumulative IPC: 0.45753 (Simulation time: 0 hr 22 min 18 sec) 
Heartbeat CPU  0 instructions:  451000000 cycles:  820661589 heartbeat IPC: 0.53131 cumulative IPC: 0.45771 (Simulation time: 0 hr 22 min 21 sec) 
Heartbeat CPU  0 instructions:  452000000 cycles:  822535103 heartbeat IPC: 0.53376 cumulative IPC: 0.45789 (Simulation time: 0 hr 22 min 24 sec) 
Heartbeat CPU  0 instructions:  453000002 cycles:  824408351 heartbeat IPC: 0.53383 cumulative IPC: 0.45808 (Simulation time: 0 hr 22 min 27 sec) 
Heartbeat CPU  0 instructions:  454000000 cycles:  826287588 heartbeat IPC: 0.53213 cumulative IPC: 0.45826 (Simulation time: 0 hr 22 min 30 sec) 
Heartbeat CPU  0 instructions:  455000002 cycles:  828081602 heartbeat IPC: 0.55741 cumulative IPC: 0.45849 (Simulation time: 0 hr 22 min 33 sec) 
Heartbeat CPU  0 instructions:  456000000 cycles:  830781996 heartbeat IPC: 0.37032 cumulative IPC: 0.45818 (Simulation time: 0 hr 22 min 36 sec) 
Heartbeat CPU  0 instructions:  457000002 cycles:  832953128 heartbeat IPC: 0.46059 cumulative IPC: 0.45819 (Simulation time: 0 hr 22 min 39 sec) 
Heartbeat CPU  0 instructions:  458000000 cycles:  834833936 heartbeat IPC: 0.53169 cumulative IPC: 0.45837 (Simulation time: 0 hr 22 min 42 sec) 
Heartbeat CPU  0 instructions:  459000000 cycles:  836713967 heartbeat IPC: 0.53191 cumulative IPC: 0.45854 (Simulation time: 0 hr 22 min 45 sec) 
Heartbeat CPU  0 instructions:  460000000 cycles:  838588335 heartbeat IPC: 0.53351 cumulative IPC: 0.45872 (Simulation time: 0 hr 22 min 48 sec) 
Heartbeat CPU  0 instructions:  461000000 cycles:  840462126 heartbeat IPC: 0.53368 cumulative IPC: 0.45890 (Simulation time: 0 hr 22 min 51 sec) 
Heartbeat CPU  0 instructions:  462000000 cycles:  842335035 heartbeat IPC: 0.53393 cumulative IPC: 0.45908 (Simulation time: 0 hr 22 min 54 sec) 
Heartbeat CPU  0 instructions:  463000003 cycles:  844215938 heartbeat IPC: 0.53166 cumulative IPC: 0.45925 (Simulation time: 0 hr 22 min 57 sec) 
Heartbeat CPU  0 instructions:  464000000 cycles:  846083557 heartbeat IPC: 0.53544 cumulative IPC: 0.45943 (Simulation time: 0 hr 23 min 0 sec) 
Heartbeat CPU  0 instructions:  465000001 cycles:  847778929 heartbeat IPC: 0.58984 cumulative IPC: 0.45971 (Simulation time: 0 hr 23 min 3 sec) 
Heartbeat CPU  0 instructions:  466000001 cycles:  850117029 heartbeat IPC: 0.42770 cumulative IPC: 0.45961 (Simulation time: 0 hr 23 min 6 sec) 
Heartbeat CPU  0 instructions:  467000001 cycles:  852629740 heartbeat IPC: 0.39798 cumulative IPC: 0.45942 (Simulation time: 0 hr 23 min 9 sec) 
Heartbeat CPU  0 instructions:  468000000 cycles:  854551447 heartbeat IPC: 0.52037 cumulative IPC: 0.45957 (Simulation time: 0 hr 23 min 12 sec) 
Heartbeat CPU  0 instructions:  469000002 cycles:  856433624 heartbeat IPC: 0.53130 cumulative IPC: 0.45974 (Simulation time: 0 hr 23 min 15 sec) 
Heartbeat CPU  0 instructions:  470000003 cycles:  858310626 heartbeat IPC: 0.53277 cumulative IPC: 0.45991 (Simulation time: 0 hr 23 min 18 sec) 
Heartbeat CPU  0 instructions:  471000001 cycles:  860187556 heartbeat IPC: 0.53278 cumulative IPC: 0.46008 (Simulation time: 0 hr 23 min 21 sec) 
Heartbeat CPU  0 instructions:  472000000 cycles:  862063836 heartbeat IPC: 0.53297 cumulative IPC: 0.46024 (Simulation time: 0 hr 23 min 24 sec) 
Heartbeat CPU  0 instructions:  473000000 cycles:  863920703 heartbeat IPC: 0.53854 cumulative IPC: 0.46042 (Simulation time: 0 hr 23 min 27 sec) 
Heartbeat CPU  0 instructions:  474000002 cycles:  865786694 heartbeat IPC: 0.53591 cumulative IPC: 0.46060 (Simulation time: 0 hr 23 min 30 sec) 
Heartbeat CPU  0 instructions:  475000000 cycles:  867661214 heartbeat IPC: 0.53347 cumulative IPC: 0.46077 (Simulation time: 0 hr 23 min 33 sec) 
Heartbeat CPU  0 instructions:  476000000 cycles:  869555012 heartbeat IPC: 0.52804 cumulative IPC: 0.46092 (Simulation time: 0 hr 23 min 36 sec) 
Heartbeat CPU  0 instructions:  477000003 cycles:  872189665 heartbeat IPC: 0.37956 cumulative IPC: 0.46066 (Simulation time: 0 hr 23 min 39 sec) 
Heartbeat CPU  0 instructions:  478000001 cycles:  874236874 heartbeat IPC: 0.48847 cumulative IPC: 0.46073 (Simulation time: 0 hr 23 min 43 sec) 
Heartbeat CPU  0 instructions:  479000000 cycles:  876171128 heartbeat IPC: 0.51699 cumulative IPC: 0.46086 (Simulation time: 0 hr 23 min 46 sec) 
Heartbeat CPU  0 instructions:  480000000 cycles:  878051999 heartbeat IPC: 0.53167 cumulative IPC: 0.46102 (Simulation time: 0 hr 23 min 49 sec) 
Heartbeat CPU  0 instructions:  481000001 cycles:  879926868 heartbeat IPC: 0.53337 cumulative IPC: 0.46119 (Simulation time: 0 hr 23 min 52 sec) 
Heartbeat CPU  0 instructions:  482000003 cycles:  881778171 heartbeat IPC: 0.54016 cumulative IPC: 0.46136 (Simulation time: 0 hr 23 min 54 sec) 
Heartbeat CPU  0 instructions:  483000002 cycles:  883652326 heartbeat IPC: 0.53357 cumulative IPC: 0.46153 (Simulation time: 0 hr 23 min 57 sec) 
Heartbeat CPU  0 instructions:  484000000 cycles:  885525914 heartbeat IPC: 0.53373 cumulative IPC: 0.46169 (Simulation time: 0 hr 24 min 0 sec) 
Heartbeat CPU  0 instructions:  485000001 cycles:  887403945 heartbeat IPC: 0.53247 cumulative IPC: 0.46185 (Simulation time: 0 hr 24 min 3 sec) 
Heartbeat CPU  0 instructions:  486000000 cycles:  889093156 heartbeat IPC: 0.59199 cumulative IPC: 0.46211 (Simulation time: 0 hr 24 min 6 sec) 
Heartbeat CPU  0 instructions:  487000002 cycles:  891562296 heartbeat IPC: 0.40500 cumulative IPC: 0.46194 (Simulation time: 0 hr 24 min 9 sec) 
Heartbeat CPU  0 instructions:  488000000 cycles:  893995344 heartbeat IPC: 0.41101 cumulative IPC: 0.46180 (Simulation time: 0 hr 24 min 13 sec) 
Heartbeat CPU  0 instructions:  489000000 cycles:  895919756 heartbeat IPC: 0.51964 cumulative IPC: 0.46193 (Simulation time: 0 hr 24 min 16 sec) 
Heartbeat CPU  0 instructions:  490000001 cycles:  897801264 heartbeat IPC: 0.53149 cumulative IPC: 0.46208 (Simulation time: 0 hr 24 min 19 sec) 
Heartbeat CPU  0 instructions:  491000001 cycles:  899660147 heartbeat IPC: 0.53796 cumulative IPC: 0.46225 (Simulation time: 0 hr 24 min 22 sec) 
Heartbeat CPU  0 instructions:  492000000 cycles:  901533338 heartbeat IPC: 0.53385 cumulative IPC: 0.46241 (Simulation time: 0 hr 24 min 25 sec) 
Heartbeat CPU  0 instructions:  493000000 cycles:  903405407 heartbeat IPC: 0.53417 cumulative IPC: 0.46257 (Simulation time: 0 hr 24 min 28 sec) 
Heartbeat CPU  0 instructions:  494000003 cycles:  905284444 heartbeat IPC: 0.53219 cumulative IPC: 0.46272 (Simulation time: 0 hr 24 min 31 sec) 
Heartbeat CPU  0 instructions:  495000001 cycles:  907156394 heartbeat IPC: 0.53420 cumulative IPC: 0.46288 (Simulation time: 0 hr 24 min 34 sec) 
Heartbeat CPU  0 instructions:  496000000 cycles:  909037181 heartbeat IPC: 0.53169 cumulative IPC: 0.46303 (Simulation time: 0 hr 24 min 37 sec) 
Heartbeat CPU  0 instructions:  497000003 cycles:  910928940 heartbeat IPC: 0.52861 cumulative IPC: 0.46317 (Simulation time: 0 hr 24 min 39 sec) 
Heartbeat CPU  0 instructions:  498000002 cycles:  913581802 heartbeat IPC: 0.37695 cumulative IPC: 0.46291 (Simulation time: 0 hr 24 min 43 sec) 
Heartbeat CPU  0 instructions:  499000001 cycles:  915578196 heartbeat IPC: 0.50090 cumulative IPC: 0.46299 (Simulation time: 0 hr 24 min 46 sec) 
Heartbeat CPU  0 instructions:  500000000 cycles:  917452129 heartbeat IPC: 0.53364 cumulative IPC: 0.46315 (Simulation time: 0 hr 24 min 49 sec) 
Heartbeat CPU  0 instructions:  501000003 cycles:  919325135 heartbeat IPC: 0.53390 cumulative IPC: 0.46330 (Simulation time: 0 hr 24 min 52 sec) 
Heartbeat CPU  0 instructions:  502000003 cycles:  921201415 heartbeat IPC: 0.53297 cumulative IPC: 0.46345 (Simulation time: 0 hr 24 min 55 sec) 
Heartbeat CPU  0 instructions:  503000002 cycles:  923075110 heartbeat IPC: 0.53370 cumulative IPC: 0.46360 (Simulation time: 0 hr 24 min 58 sec) 
Heartbeat CPU  0 instructions:  504000000 cycles:  924948223 heartbeat IPC: 0.53387 cumulative IPC: 0.46375 (Simulation time: 0 hr 25 min 1 sec) 
Heartbeat CPU  0 instructions:  505000000 cycles:  926821964 heartbeat IPC: 0.53369 cumulative IPC: 0.46390 (Simulation time: 0 hr 25 min 4 sec) 
Heartbeat CPU  0 instructions:  506000002 cycles:  928700022 heartbeat IPC: 0.53247 cumulative IPC: 0.46405 (Simulation time: 0 hr 25 min 7 sec) 
Heartbeat CPU  0 instructions:  507000001 cycles:  930401653 heartbeat IPC: 0.58767 cumulative IPC: 0.46429 (Simulation time: 0 hr 25 min 9 sec) 
Heartbeat CPU  0 instructions:  508000000 cycles:  933025379 heartbeat IPC: 0.38114 cumulative IPC: 0.46404 (Simulation time: 0 hr 25 min 13 sec) 
Heartbeat CPU  0 instructions:  509000002 cycles:  935298578 heartbeat IPC: 0.43991 cumulative IPC: 0.46398 (Simulation time: 0 hr 25 min 16 sec) 
Heartbeat CPU  0 instructions:  510000002 cycles:  937206326 heartbeat IPC: 0.52418 cumulative IPC: 0.46411 (Simulation time: 0 hr 25 min 19 sec) 
Heartbeat CPU  0 instructions:  511000002 cycles:  939087631 heartbeat IPC: 0.53155 cumulative IPC: 0.46425 (Simulation time: 0 hr 25 min 22 sec) 
Heartbeat CPU  0 instructions:  512000000 cycles:  940957934 heartbeat IPC: 0.53467 cumulative IPC: 0.46440 (Simulation time: 0 hr 25 min 25 sec) 
Heartbeat CPU  0 instructions:  513000002 cycles:  942829781 heartbeat IPC: 0.53423 cumulative IPC: 0.46455 (Simulation time: 0 hr 25 min 28 sec) 
Heartbeat CPU  0 instructions:  514000000 cycles:  944714696 heartbeat IPC: 0.53053 cumulative IPC: 0.46469 (Simulation time: 0 hr 25 min 31 sec) 
Heartbeat CPU  0 instructions:  515000000 cycles:  946596726 heartbeat IPC: 0.53134 cumulative IPC: 0.46483 (Simulation time: 0 hr 25 min 34 sec) 
Heartbeat CPU  0 instructions:  516000000 cycles:  948446534 heartbeat IPC: 0.54060 cumulative IPC: 0.46499 (Simulation time: 0 hr 25 min 37 sec) 
Heartbeat CPU  0 instructions:  517000002 cycles:  950268138 heartbeat IPC: 0.54897 cumulative IPC: 0.46516 (Simulation time: 0 hr 25 min 40 sec) 
Heartbeat CPU  0 instructions:  518000000 cycles:  952342270 heartbeat IPC: 0.48213 cumulative IPC: 0.46520 (Simulation time: 0 hr 25 min 43 sec) 
Heartbeat CPU  0 instructions:  519000001 cycles:  954982618 heartbeat IPC: 0.37874 cumulative IPC: 0.46494 (Simulation time: 0 hr 25 min 46 sec) 
Heartbeat CPU  0 instructions:  520000000 cycles:  956949839 heartbeat IPC: 0.50833 cumulative IPC: 0.46504 (Simulation time: 0 hr 25 min 49 sec) 
Heartbeat CPU  0 instructions:  521000000 cycles:  958836140 heartbeat IPC: 0.53014 cumulative IPC: 0.46517 (Simulation time: 0 hr 25 min 52 sec) 
Heartbeat CPU  0 instructions:  522000003 cycles:  960715743 heartbeat IPC: 0.53203 cumulative IPC: 0.46531 (Simulation time: 0 hr 25 min 55 sec) 
Heartbeat CPU  0 instructions:  523000001 cycles:  962594800 heartbeat IPC: 0.53218 cumulative IPC: 0.46545 (Simulation time: 0 hr 25 min 58 sec) 
Heartbeat CPU  0 instructions:  524000000 cycles:  964462993 heartbeat IPC: 0.53528 cumulative IPC: 0.46559 (Simulation time: 0 hr 26 min 1 sec) 
Heartbeat CPU  0 instructions:  525000002 cycles:  966315442 heartbeat IPC: 0.53983 cumulative IPC: 0.46574 (Simulation time: 0 hr 26 min 4 sec) 
Heartbeat CPU  0 instructions:  526000002 cycles:  968191514 heartbeat IPC: 0.53303 cumulative IPC: 0.46588 (Simulation time: 0 hr 26 min 7 sec) 
Heartbeat CPU  0 instructions:  527000000 cycles:  970065219 heartbeat IPC: 0.53370 cumulative IPC: 0.46602 (Simulation time: 0 hr 26 min 10 sec) 
Heartbeat CPU  0 instructions:  528000000 cycles:  971842353 heartbeat IPC: 0.56270 cumulative IPC: 0.46621 (Simulation time: 0 hr 26 min 13 sec) 
Heartbeat CPU  0 instructions:  529000003 cycles:  974502248 heartbeat IPC: 0.37596 cumulative IPC: 0.46595 (Simulation time: 0 hr 26 min 16 sec) 
Heartbeat CPU  0 instructions:  530000002 cycles:  976813670 heartbeat IPC: 0.43263 cumulative IPC: 0.46586 (Simulation time: 0 hr 26 min 20 sec) 
Heartbeat CPU  0 instructions:  531000002 cycles:  978719195 heartbeat IPC: 0.52479 cumulative IPC: 0.46599 (Simulation time: 0 hr 26 min 23 sec) 
Heartbeat CPU  0 instructions:  532000000 cycles:  980600419 heartbeat IPC: 0.53157 cumulative IPC: 0.46612 (Simulation time: 0 hr 26 min 26 sec) 
Heartbeat CPU  0 instructions:  533000001 cycles:  982462177 heartbeat IPC: 0.53713 cumulative IPC: 0.46626 (Simulation time: 0 hr 26 min 29 sec) 
Heartbeat CPU  0 instructions:  534000003 cycles:  984323706 heartbeat IPC: 0.53719 cumulative IPC: 0.46640 (Simulation time: 0 hr 26 min 32 sec) 
Heartbeat CPU  0 instructions:  535000000 cycles:  986196137 heartbeat IPC: 0.53406 cumulative IPC: 0.46654 (Simulation time: 0 hr 26 min 35 sec) 
Heartbeat CPU  0 instructions:  536000000 cycles:  988066595 heartbeat IPC: 0.53463 cumulative IPC: 0.46668 (Simulation time: 0 hr 26 min 37 sec) 
Heartbeat CPU  0 instructions:  537000002 cycles:  989941275 heartbeat IPC: 0.53343 cumulative IPC: 0.46681 (Simulation time: 0 hr 26 min 40 sec) 
Heartbeat CPU  0 instructions:  538000003 cycles:  991703517 heartbeat IPC: 0.56746 cumulative IPC: 0.46700 (Simulation time: 0 hr 26 min 43 sec) 
Heartbeat CPU  0 instructions:  539000001 cycles:  994009345 heartbeat IPC: 0.43368 cumulative IPC: 0.46692 (Simulation time: 0 hr 26 min 46 sec) 
Heartbeat CPU  0 instructions:  540000000 cycles:  997714512 heartbeat IPC: 0.26989 cumulative IPC: 0.46614 (Simulation time: 0 hr 26 min 50 sec) 
Heartbeat CPU  0 instructions:  541000002 cycles: 1001039894 heartbeat IPC: 0.30072 cumulative IPC: 0.46556 (Simulation time: 0 hr 26 min 54 sec) 
Heartbeat CPU  0 instructions:  542000003 cycles: 1003503085 heartbeat IPC: 0.40598 cumulative IPC: 0.46541 (Simulation time: 0 hr 26 min 58 sec) 
Heartbeat CPU  0 instructions:  543000002 cycles: 1005955930 heartbeat IPC: 0.40769 cumulative IPC: 0.46526 (Simulation time: 0 hr 27 min 1 sec) 
Heartbeat CPU  0 instructions:  544000000 cycles: 1008284945 heartbeat IPC: 0.42937 cumulative IPC: 0.46517 (Simulation time: 0 hr 27 min 4 sec) 
Heartbeat CPU  0 instructions:  545000000 cycles: 1010710932 heartbeat IPC: 0.41220 cumulative IPC: 0.46504 (Simulation time: 0 hr 27 min 8 sec) 
Heartbeat CPU  0 instructions:  546000001 cycles: 1013238717 heartbeat IPC: 0.39560 cumulative IPC: 0.46485 (Simulation time: 0 hr 27 min 11 sec) 
Heartbeat CPU  0 instructions:  547000002 cycles: 1015682864 heartbeat IPC: 0.40914 cumulative IPC: 0.46471 (Simulation time: 0 hr 27 min 15 sec) 
Heartbeat CPU  0 instructions:  548000000 cycles: 1018194837 heartbeat IPC: 0.39809 cumulative IPC: 0.46454 (Simulation time: 0 hr 27 min 18 sec) 
Heartbeat CPU  0 instructions:  549000003 cycles: 1020501140 heartbeat IPC: 0.43360 cumulative IPC: 0.46447 (Simulation time: 0 hr 27 min 21 sec) 
Heartbeat CPU  0 instructions:  550000000 cycles: 1022763921 heartbeat IPC: 0.44193 cumulative IPC: 0.46441 (Simulation time: 0 hr 27 min 25 sec) 
Heartbeat CPU  0 instructions:  551000002 cycles: 1025900500 heartbeat IPC: 0.31882 cumulative IPC: 0.46394 (Simulation time: 0 hr 27 min 28 sec) 
Heartbeat CPU  0 instructions:  552000000 cycles: 1027687337 heartbeat IPC: 0.55965 cumulative IPC: 0.46412 (Simulation time: 0 hr 27 min 31 sec) 
Heartbeat CPU  0 instructions:  553000000 cycles: 1029639989 heartbeat IPC: 0.51212 cumulative IPC: 0.46421 (Simulation time: 0 hr 27 min 34 sec) 
Heartbeat CPU  0 instructions:  554000001 cycles: 1031519595 heartbeat IPC: 0.53203 cumulative IPC: 0.46434 (Simulation time: 0 hr 27 min 38 sec) 
Heartbeat CPU  0 instructions:  555000001 cycles: 1033463719 heartbeat IPC: 0.51437 cumulative IPC: 0.46444 (Simulation time: 0 hr 27 min 41 sec) 
Heartbeat CPU  0 instructions:  556000000 cycles: 1035433659 heartbeat IPC: 0.50763 cumulative IPC: 0.46453 (Simulation time: 0 hr 27 min 44 sec) 
Heartbeat CPU  0 instructions:  557000001 cycles: 1037557693 heartbeat IPC: 0.47080 cumulative IPC: 0.46454 (Simulation time: 0 hr 27 min 47 sec) 
Heartbeat CPU  0 instructions:  558000001 cycles: 1039957396 heartbeat IPC: 0.41672 cumulative IPC: 0.46443 (Simulation time: 0 hr 27 min 50 sec) 
Heartbeat CPU  0 instructions:  559000000 cycles: 1041926658 heartbeat IPC: 0.50780 cumulative IPC: 0.46451 (Simulation time: 0 hr 27 min 53 sec) 
Heartbeat CPU  0 instructions:  560000000 cycles: 1043801438 heartbeat IPC: 0.53340 cumulative IPC: 0.46464 (Simulation time: 0 hr 27 min 57 sec) 
Heartbeat CPU  0 instructions:  561000000 cycles: 1046755620 heartbeat IPC: 0.33850 cumulative IPC: 0.46427 (Simulation time: 0 hr 28 min 0 sec) 
Heartbeat CPU  0 instructions:  562000000 cycles: 1049300443 heartbeat IPC: 0.39295 cumulative IPC: 0.46409 (Simulation time: 0 hr 28 min 4 sec) 
Heartbeat CPU  0 instructions:  563000003 cycles: 1051310868 heartbeat IPC: 0.49741 cumulative IPC: 0.46415 (Simulation time: 0 hr 28 min 7 sec) 
Heartbeat CPU  0 instructions:  564000000 cycles: 1053468829 heartbeat IPC: 0.46340 cumulative IPC: 0.46415 (Simulation time: 0 hr 28 min 10 sec) 
Heartbeat CPU  0 instructions:  565000000 cycles: 1055641404 heartbeat IPC: 0.46028 cumulative IPC: 0.46414 (Simulation time: 0 hr 28 min 13 sec) 
Heartbeat CPU  0 instructions:  566000003 cycles: 1057854761 heartbeat IPC: 0.45180 cumulative IPC: 0.46412 (Simulation time: 0 hr 28 min 16 sec) 
Heartbeat CPU  0 instructions:  567000001 cycles: 1059726618 heartbeat IPC: 0.53423 cumulative IPC: 0.46425 (Simulation time: 0 hr 28 min 19 sec) 
Heartbeat CPU  0 instructions:  568000000 cycles: 1061575615 heartbeat IPC: 0.54083 cumulative IPC: 0.46439 (Simulation time: 0 hr 28 min 23 sec) 
Heartbeat CPU  0 instructions:  569000000 cycles: 1063518810 heartbeat IPC: 0.51462 cumulative IPC: 0.46448 (Simulation time: 0 hr 28 min 26 sec) 
Heartbeat CPU  0 instructions:  570000000 cycles: 1065761846 heartbeat IPC: 0.44582 cumulative IPC: 0.46444 (Simulation time: 0 hr 28 min 29 sec) 
Heartbeat CPU  0 instructions:  571000000 cycles: 1067995237 heartbeat IPC: 0.44775 cumulative IPC: 0.46441 (Simulation time: 0 hr 28 min 32 sec) 
Heartbeat CPU  0 instructions:  572000000 cycles: 1071520051 heartbeat IPC: 0.28370 cumulative IPC: 0.46378 (Simulation time: 0 hr 28 min 36 sec) 
Heartbeat CPU  0 instructions:  573000002 cycles: 1073268942 heartbeat IPC: 0.57179 cumulative IPC: 0.46397 (Simulation time: 0 hr 28 min 39 sec) 
Heartbeat CPU  0 instructions:  574000000 cycles: 1075143211 heartbeat IPC: 0.53354 cumulative IPC: 0.46409 (Simulation time: 0 hr 28 min 43 sec) 
Heartbeat CPU  0 instructions:  575000003 cycles: 1077181709 heartbeat IPC: 0.49056 cumulative IPC: 0.46415 (Simulation time: 0 hr 28 min 46 sec) 
Heartbeat CPU  0 instructions:  576000000 cycles: 1079244492 heartbeat IPC: 0.48478 cumulative IPC: 0.46419 (Simulation time: 0 hr 28 min 49 sec) 
Heartbeat CPU  0 instructions:  577000002 cycles: 1081248066 heartbeat IPC: 0.49911 cumulative IPC: 0.46426 (Simulation time: 0 hr 28 min 52 sec) 
Heartbeat CPU  0 instructions:  578000002 cycles: 1083520591 heartbeat IPC: 0.44004 cumulative IPC: 0.46420 (Simulation time: 0 hr 28 min 55 sec) 
Heartbeat CPU  0 instructions:  579000001 cycles: 1085655606 heartbeat IPC: 0.46838 cumulative IPC: 0.46421 (Simulation time: 0 hr 28 min 59 sec) 
Heartbeat CPU  0 instructions:  580000000 cycles: 1087623265 heartbeat IPC: 0.50822 cumulative IPC: 0.46429 (Simulation time: 0 hr 29 min 2 sec) 
Heartbeat CPU  0 instructions:  581000000 cycles: 1089675823 heartbeat IPC: 0.48720 cumulative IPC: 0.46434 (Simulation time: 0 hr 29 min 5 sec) 
Heartbeat CPU  0 instructions:  582000002 cycles: 1092560926 heartbeat IPC: 0.34661 cumulative IPC: 0.46401 (Simulation time: 0 hr 29 min 8 sec) 
Heartbeat CPU  0 instructions:  583000000 cycles: 1094652936 heartbeat IPC: 0.47801 cumulative IPC: 0.46404 (Simulation time: 0 hr 29 min 12 sec) 
Heartbeat CPU  0 instructions:  584000000 cycles: 1096678468 heartbeat IPC: 0.49370 cumulative IPC: 0.46410 (Simulation time: 0 hr 29 min 15 sec) 
Heartbeat CPU  0 instructions:  585000001 cycles: 1098926893 heartbeat IPC: 0.44476 cumulative IPC: 0.46406 (Simulation time: 0 hr 29 min 18 sec) 
Heartbeat CPU  0 instructions:  586000002 cycles: 1101105532 heartbeat IPC: 0.45900 cumulative IPC: 0.46405 (Simulation time: 0 hr 29 min 21 sec) 
Heartbeat CPU  0 instructions:  587000002 cycles: 1102974819 heartbeat IPC: 0.53496 cumulative IPC: 0.46417 (Simulation time: 0 hr 29 min 24 sec) 
Heartbeat CPU  0 instructions:  588000000 cycles: 1104827944 heartbeat IPC: 0.53963 cumulative IPC: 0.46431 (Simulation time: 0 hr 29 min 28 sec) 
Heartbeat CPU  0 instructions:  589000002 cycles: 1106850223 heartbeat IPC: 0.49449 cumulative IPC: 0.46436 (Simulation time: 0 hr 29 min 31 sec) 
Heartbeat CPU  0 instructions:  590000002 cycles: 1109101570 heartbeat IPC: 0.44418 cumulative IPC: 0.46432 (Simulation time: 0 hr 29 min 34 sec) 
Heartbeat CPU  0 instructions:  591000001 cycles: 1111380438 heartbeat IPC: 0.43881 cumulative IPC: 0.46427 (Simulation time: 0 hr 29 min 37 sec) 
Heartbeat CPU  0 instructions:  592000000 cycles: 1113999080 heartbeat IPC: 0.38188 cumulative IPC: 0.46406 (Simulation time: 0 hr 29 min 41 sec) 
Heartbeat CPU  0 instructions:  593000003 cycles: 1118236190 heartbeat IPC: 0.23601 cumulative IPC: 0.46315 (Simulation time: 0 hr 29 min 45 sec) 
Heartbeat CPU  0 instructions:  594000003 cycles: 1122172169 heartbeat IPC: 0.25407 cumulative IPC: 0.46238 (Simulation time: 0 hr 29 min 49 sec) 
Heartbeat CPU  0 instructions:  595000000 cycles: 1125519742 heartbeat IPC: 0.29872 cumulative IPC: 0.46187 (Simulation time: 0 hr 29 min 52 sec) 
Heartbeat CPU  0 instructions:  596000000 cycles: 1128597903 heartbeat IPC: 0.32487 cumulative IPC: 0.46148 (Simulation time: 0 hr 29 min 56 sec) 
Heartbeat CPU  0 instructions:  597000003 cycles: 1131920241 heartbeat IPC: 0.30099 cumulative IPC: 0.46099 (Simulation time: 0 hr 29 min 59 sec) 
Heartbeat CPU  0 instructions:  598000003 cycles: 1135179244 heartbeat IPC: 0.30684 cumulative IPC: 0.46052 (Simulation time: 0 hr 30 min 3 sec) 
Heartbeat CPU  0 instructions:  599000003 cycles: 1138798577 heartbeat IPC: 0.27629 cumulative IPC: 0.45991 (Simulation time: 0 hr 30 min 6 sec) 
Heartbeat CPU  0 instructions:  600000000 cycles: 1143356622 heartbeat IPC: 0.21939 cumulative IPC: 0.45890 (Simulation time: 0 hr 30 min 11 sec) 
Finished CPU 0 instructions: 500000003 cycles: 1089558985 cumulative IPC: 0.45890 (Simulation time: 0 hr 30 min 11 sec) 

ChampSim completed all CPUs

[ROI Statistics]
Core_0_instructions 500000003
Core_0_cycles 1089558985
Core_0_IPC 0.45890

Core_0_branch_prediction_accuracy 99.13980
Core_0_branch_MPKI 0.20639
Core_0_average_ROB_occupancy_at_mispredict 243.60405

Core_0_L1D_total_access 145143713
Core_0_L1D_total_hit 139825836
Core_0_L1D_total_miss 5317877
Core_0_L1D_loads 132493024
Core_0_L1D_load_hit 128475155
Core_0_L1D_load_miss 4017869
Core_0_L1D_RFOs 12650689
Core_0_L1D_RFO_hit 11350681
Core_0_L1D_RFO_miss 1300008
Core_0_L1D_prefetches 0
Core_0_L1D_prefetch_hit 0
Core_0_L1D_prefetch_miss 0
Core_0_L1D_writebacks 0
Core_0_L1D_writeback_hit 0
Core_0_L1D_writeback_miss 0
Core_0_L1D_prefetch_requested 0
Core_0_L1D_prefetch_dropped 0
Core_0_L1D_prefetch_issued 0
Core_0_L1D_prefetch_filled 0
Core_0_L1D_prefetch_useful 0
Core_0_L1D_prefetch_useless 0
Core_0_L1D_prefetch_late 0
Core_0_L1D_average_miss_latency 327.43871

Core_0_L1D_rq_access 197254568
Core_0_L1D_rq_forward 0
Core_0_L1D_rq_merged 62109867
Core_0_L1D_rq_to_cache 135144701
Core_0_L1D_rq_full 0

Core_0_L1D_wq_access 16646357
Core_0_L1D_wq_forward 0
Core_0_L1D_wq_merged 0
Core_0_L1D_wq_to_cache 16646357
Core_0_L1D_wq_full 8522003

Core_0_L1D_pq_access 0
Core_0_L1D_pq_forward 0
Core_0_L1D_pq_merged 0
Core_0_L1D_pq_to_cache 0
Core_0_L1D_pq_full 0

Core_0_L1D_acc_epochs 1112416
Core_0_L1D_acc_level_0 1112416
Core_0_L1D_acc_level_1 0
Core_0_L1D_acc_level_2 0
Core_0_L1D_acc_level_3 0
Core_0_L1D_acc_level_4 0
Core_0_L1D_acc_level_5 0
Core_0_L1D_acc_level_6 0
Core_0_L1D_acc_level_7 0
Core_0_L1D_acc_level_8 0
Core_0_L1D_acc_level_9 0

Core_0_L1I_total_access 121108317
Core_0_L1I_total_hit 121108019
Core_0_L1I_total_miss 298
Core_0_L1I_loads 121108317
Core_0_L1I_load_hit 121108019
Core_0_L1I_load_miss 298
Core_0_L1I_RFOs 0
Core_0_L1I_RFO_hit 0
Core_0_L1I_RFO_miss 0
Core_0_L1I_prefetches 0
Core_0_L1I_prefetch_hit 0
Core_0_L1I_prefetch_miss 0
Core_0_L1I_writebacks 0
Core_0_L1I_writeback_hit 0
Core_0_L1I_writeback_miss 0
Core_0_L1I_prefetch_requested 0
Core_0_L1I_prefetch_dropped 0
Core_0_L1I_prefetch_issued 0
Core_0_L1I_prefetch_filled 0
Core_0_L1I_prefetch_useful 0
Core_0_L1I_prefetch_useless 0
Core_0_L1I_prefetch_late 0
Core_0_L1I_average_miss_latency 1327.45638

Core_0_L1I_rq_access 500000208
Core_0_L1I_rq_forward 0
Core_0_L1I_rq_merged 378890829
Core_0_L1I_rq_to_cache 121109379
Core_0_L1I_rq_full 0

Core_0_L1I_wq_access 0
Core_0_L1I_wq_forward 0
Core_0_L1I_wq_merged 0
Core_0_L1I_wq_to_cache 0
Core_0_L1I_wq_full 0

Core_0_L1I_pq_access 0
Core_0_L1I_pq_forward 0
Core_0_L1I_pq_merged 0
Core_0_L1I_pq_to_cache 0
Core_0_L1I_pq_full 0

Core_0_L1I_acc_epochs 1112416
Core_0_L1I_acc_level_0 1112416
Core_0_L1I_acc_level_1 0
Core_0_L1I_acc_level_2 0
Core_0_L1I_acc_level_3 0
Core_0_L1I_acc_level_4 0
Core_0_L1I_acc_level_5 0
Core_0_L1I_acc_level_6 0
Core_0_L1I_acc_level_7 0
Core_0_L1I_acc_level_8 0
Core_0_L1I_acc_level_9 0

Core_0_L2C_total_access 6986169
Core_0_L2C_total_hit 3209684
Core_0_L2C_total_miss 3776485
Core_0_L2C_loads 4018130
Core_0_L2C_load_hit 1077082
Core_0_L2C_load_miss 2941048
Core_0_L2C_RFOs 1299903
Core_0_L2C_RFO_hit 464528
Core_0_L2C_RFO_miss 835375
Core_0_L2C_prefetches 0
Core_0_L2C_prefetch_hit 0
Core_0_L2C_prefetch_miss 0
Core_0_L2C_writebacks 1668136
Core_0_L2C_writeback_hit 1668074
Core_0_L2C_writeback_miss 62
Core_0_L2C_prefetch_requested 0
Core_0_L2C_prefetch_dropped 0
Core_0_L2C_prefetch_issued 0
Core_0_L2C_prefetch_filled 0
Core_0_L2C_prefetch_useful 0
Core_0_L2C_prefetch_useless 0
Core_0_L2C_prefetch_late 0
Core_0_L2C_average_miss_latency 441.35605

Core_0_L2C_rq_access 5318176
Core_0_L2C_rq_forward 0
Core_0_L2C_rq_merged 0
Core_0_L2C_rq_to_cache 5318034
Core_0_L2C_rq_full 0

Core_0_L2C_wq_access 1668136
Core_0_L2C_wq_forward 142
Core_0_L2C_wq_merged 0
Core_0_L2C_wq_to_cache 1668136
Core_0_L2C_wq_full 0

Core_0_L2C_pq_access 0
Core_0_L2C_pq_forward 0
Core_0_L2C_pq_merged 0
Core_0_L2C_pq_to_cache 0
Core_0_L2C_pq_full 0

Core_0_L2C_acc_epochs 1112416
Core_0_L2C_acc_level_0 1112416
Core_0_L2C_acc_level_1 0
Core_0_L2C_acc_level_2 0
Core_0_L2C_acc_level_3 0
Core_0_L2C_acc_level_4 0
Core_0_L2C_acc_level_5 0
Core_0_L2C_acc_level_6 0
Core_0_L2C_acc_level_7 0
Core_0_L2C_acc_level_8 0
Core_0_L2C_acc_level_9 0

Core_0_LLC_total_access 4743531
Core_0_LLC_total_hit 851392
Core_0_LLC_total_miss 3892139
Core_0_LLC_loads 2941048
Core_0_LLC_load_hit 430357
Core_0_LLC_load_miss 2510691
Core_0_LLC_RFOs 835375
Core_0_LLC_RFO_hit 122577
Core_0_LLC_RFO_miss 712798
Core_0_LLC_prefetches 0
Core_0_LLC_prefetch_hit 0
Core_0_LLC_prefetch_miss 0
Core_0_LLC_writebacks 967108
Core_0_LLC_writeback_hit 298458
Core_0_LLC_writeback_miss 668650
Core_0_LLC_prefetch_requested 0
Core_0_LLC_prefetch_dropped 0
Core_0_LLC_prefetch_issued 0
Core_0_LLC_prefetch_filled 0
Core_0_LLC_prefetch_useful 0
Core_0_LLC_prefetch_useless 0
Core_0_LLC_prefetch_late 0
Core_0_LLC_average_miss_latency 398.99910

Core_0_LLC_rq_access 3776424
Core_0_LLC_rq_forward 0
Core_0_LLC_rq_merged 0
Core_0_LLC_rq_to_cache 3776424
Core_0_LLC_rq_full 0

Core_0_LLC_wq_access 967108
Core_0_LLC_wq_forward 0
Core_0_LLC_wq_merged 0
Core_0_LLC_wq_to_cache 967108
Core_0_LLC_wq_full 22932

Core_0_LLC_pq_access 0
Core_0_LLC_pq_forward 0
Core_0_LLC_pq_merged 0
Core_0_LLC_pq_to_cache 0
Core_0_LLC_pq_full 0

Core_0_LLC_acc_epochs 1116560
Core_0_LLC_acc_level_0 1116560
Core_0_LLC_acc_level_1 0
Core_0_LLC_acc_level_2 0
Core_0_LLC_acc_level_3 0
Core_0_LLC_acc_level_4 0
Core_0_LLC_acc_level_5 0
Core_0_LLC_acc_level_6 0
Core_0_LLC_acc_level_7 0
Core_0_LLC_acc_level_8 0
Core_0_LLC_acc_level_9 0

Core_0_major_page_fault 0
Core_0_minor_page_fault 14596

Channel_0_RQ_row_buffer_hit 698554
Channel_0_RQ_row_buffer_miss 2524895
Channel_0_WQ_row_buffer_hit 741466
Channel_0_WQ_row_buffer_miss 115236
Channel_0_WQ_full 30283
Channel_0_dbus_congested 3911127

avg_congested_cycle 137

DRAM_bw_pochs 4466237
DRAM_bw_level_0 1555703
DRAM_bw_level_1 0
DRAM_bw_level_2 0
DRAM_bw_level_3 2910534
