*************************************************
   ChampSim Multicore Out-of-Order Simulator
   Last compiled: Dec 11 2024 17:59:53
*************************************************
parsing config file: /home/functionmain/桌面/Pythia/config/bingo.ini

trace_0 /home/functionmain/桌面/Pythia/traces/437.leslie3d-149B.champsimtrace.xz
adding L2C_PREFETCHER: Bingo
Initialize SHIP state
warmup_instructions 100000000
simulation_instructions 500000000
champsim_seed 224
measure_ipc 0
measure_ipc_epoch 1000
measure_dram_bw 1
measure_dram_bw_epoch 256
measure_cache_acc 1
measure_cache_acc_epoch 1024
l1d_perfect 0
l2c_perfect 0
llc_perfect 0
l1d_semi_perfect 0
l2c_semi_perfect 0
llc_semi_perfect 0
semi_perfect_cache_page_buffer_size 64

num_cpus 1
cpu_freq 4000
dram_io_freq 600
page_size 4096
block_size 64
max_read_per_cycle 8
max_fill_per_cycle 1
dram_channels 1
log2_dram_channels 0
dram_ranks 1
dram_banks 8
dram_rows 65536
dram_columns 128
dram_row_size 8
dram_size 4096
dram_pages 1048576

fetch_width 6
decode_width 6
exec_width 4
lq_width 2
sq_width 2
retire_width 4
scheduler_size 128
branch_mispredict_penalty 20
rob_size 256
lq_size 72
sq_size 56
num_instr_destinations_sparc 4
num_instr_destinations 2
num_instr_sources 4

itlb_set 16
itlb_way 8
itlb_rq_size 16
itlb_wq_size 16
itlb_pq_size 0
itlb_mshr_size 8
itlb_latency 1

dtlb_set 16
dtlb_way 4
dtlb_rq_size 16
dtlb_wq_size 16
dtlb_pq_size 0
dtlb_mshr_size 8
dtlb_latency 1

stlb_set 128
stlb_way 12
stlb_rq_size 32
stlb_wq_size 32
stlb_pq_size 0
stlb_mshr_size 16
stlb_latency 8

l1i_size 32
l1i_set 64
l1i_way 8
l1i_rq_size 64
l1i_wq_size 64
l1i_pq_size 8
l1i_mshr_size 8
l1i_latency 1

l1d_size 32
l1d_set 64
l1d_way 8
l1d_rq_size 64
l1d_wq_size 64
l1d_pq_size 8
l1d_mshr_size 16
l1d_latency 4

l2c_size 256
l2c_set 512
l2c_way 8
l2c_rq_size 32
l2c_wq_size 32
l2c_pq_size 32
l2c_mshr_size 32
l2c_latency 10

llc_size 2048
llc_set 2048
llc_way 16
llc_rq_size 32
llc_wq_size 32
llc_pq_size 32
llc_mshr_size 64
llc_latency 20

dram_channel_width 8
dram_wq_size 64
dram_rq_size 64
tRP 15
tRCD 15
tCAS 12.5
dram_dbus_turn_around_time 30
dram_write_high_wm 56
dram_write_low_wm 48
min_dram_writes_per_switch 16
dram_mtps 600
dram_dbus_return_time 53

bingo_region_size 2048
bingo_pattern_len 32
bingo_pc_width 16
bingo_min_addr_width 5
bingo_max_addr_width 16
bingo_ft_size 64
bingo_at_size 128
bingo_pht_size 4096
bingo_pht_ways 16
bingo_pf_streamer_size 128
bingo_debug_level 0
bingo_l1d_thresh 1.01
bingo_l2c_thresh 0.8
bingo_llc_thresh 0.05
bingo_pc_address_fill_level L2


Heartbeat CPU  0 instructions:    1000002 cycles:     502443 heartbeat IPC: 1.99028 cumulative IPC: 1.99028 (Simulation time: 0 hr 0 min 1 sec) 
Heartbeat CPU  0 instructions:    2000001 cycles:     990594 heartbeat IPC: 2.04854 cumulative IPC: 2.01899 (Simulation time: 0 hr 0 min 3 sec) 
Heartbeat CPU  0 instructions:    3000003 cycles:    1492711 heartbeat IPC: 1.99157 cumulative IPC: 2.00977 (Simulation time: 0 hr 0 min 5 sec) 
Heartbeat CPU  0 instructions:    4000000 cycles:    1994642 heartbeat IPC: 1.99230 cumulative IPC: 2.00537 (Simulation time: 0 hr 0 min 7 sec) 
Heartbeat CPU  0 instructions:    5000000 cycles:    2496909 heartbeat IPC: 1.99097 cumulative IPC: 2.00248 (Simulation time: 0 hr 0 min 8 sec) 
Heartbeat CPU  0 instructions:    6000001 cycles:    2996822 heartbeat IPC: 2.00035 cumulative IPC: 2.00212 (Simulation time: 0 hr 0 min 10 sec) 
Heartbeat CPU  0 instructions:    7000000 cycles:    3487003 heartbeat IPC: 2.04006 cumulative IPC: 2.00745 (Simulation time: 0 hr 0 min 12 sec) 
Heartbeat CPU  0 instructions:    8000000 cycles:    3990157 heartbeat IPC: 1.98746 cumulative IPC: 2.00493 (Simulation time: 0 hr 0 min 14 sec) 
Heartbeat CPU  0 instructions:    9000002 cycles:    4492126 heartbeat IPC: 1.99216 cumulative IPC: 2.00351 (Simulation time: 0 hr 0 min 15 sec) 
Heartbeat CPU  0 instructions:   10000000 cycles:    4994191 heartbeat IPC: 1.99177 cumulative IPC: 2.00233 (Simulation time: 0 hr 0 min 17 sec) 
Heartbeat CPU  0 instructions:   11000002 cycles:    5485315 heartbeat IPC: 2.03615 cumulative IPC: 2.00535 (Simulation time: 0 hr 0 min 19 sec) 
Heartbeat CPU  0 instructions:   12000000 cycles:    5984380 heartbeat IPC: 2.00374 cumulative IPC: 2.00522 (Simulation time: 0 hr 0 min 20 sec) 
Heartbeat CPU  0 instructions:   13000002 cycles:    6486916 heartbeat IPC: 1.98991 cumulative IPC: 2.00403 (Simulation time: 0 hr 0 min 22 sec) 
Heartbeat CPU  0 instructions:   14000003 cycles:    6989389 heartbeat IPC: 1.99016 cumulative IPC: 2.00304 (Simulation time: 0 hr 0 min 24 sec) 
Heartbeat CPU  0 instructions:   15000002 cycles:    7491568 heartbeat IPC: 1.99132 cumulative IPC: 2.00225 (Simulation time: 0 hr 0 min 26 sec) 
Heartbeat CPU  0 instructions:   16000000 cycles:    7979131 heartbeat IPC: 2.05101 cumulative IPC: 2.00523 (Simulation time: 0 hr 0 min 27 sec) 
Heartbeat CPU  0 instructions:   17000001 cycles:    8482016 heartbeat IPC: 1.98853 cumulative IPC: 2.00424 (Simulation time: 0 hr 0 min 29 sec) 
Heartbeat CPU  0 instructions:   18000003 cycles:    8985180 heartbeat IPC: 1.98743 cumulative IPC: 2.00330 (Simulation time: 0 hr 0 min 31 sec) 
Heartbeat CPU  0 instructions:   19000003 cycles:    9487508 heartbeat IPC: 1.99073 cumulative IPC: 2.00263 (Simulation time: 0 hr 0 min 33 sec) 
Heartbeat CPU  0 instructions:   20000000 cycles:    9979600 heartbeat IPC: 2.03213 cumulative IPC: 2.00409 (Simulation time: 0 hr 0 min 34 sec) 
Heartbeat CPU  0 instructions:   21000003 cycles:   10477067 heartbeat IPC: 2.01019 cumulative IPC: 2.00438 (Simulation time: 0 hr 0 min 36 sec) 
Heartbeat CPU  0 instructions:   22000001 cycles:   10979879 heartbeat IPC: 1.98881 cumulative IPC: 2.00367 (Simulation time: 0 hr 0 min 38 sec) 
Heartbeat CPU  0 instructions:   23000002 cycles:   11482526 heartbeat IPC: 1.98947 cumulative IPC: 2.00304 (Simulation time: 0 hr 0 min 40 sec) 
Heartbeat CPU  0 instructions:   24000000 cycles:   11984661 heartbeat IPC: 1.99149 cumulative IPC: 2.00256 (Simulation time: 0 hr 0 min 41 sec) 
Heartbeat CPU  0 instructions:   25000002 cycles:   12472233 heartbeat IPC: 2.05098 cumulative IPC: 2.00445 (Simulation time: 0 hr 0 min 43 sec) 
Heartbeat CPU  0 instructions:   26000002 cycles:   12974128 heartbeat IPC: 1.99245 cumulative IPC: 2.00399 (Simulation time: 0 hr 0 min 45 sec) 
Heartbeat CPU  0 instructions:   27000001 cycles:   13476518 heartbeat IPC: 1.99048 cumulative IPC: 2.00348 (Simulation time: 0 hr 0 min 46 sec) 
Heartbeat CPU  0 instructions:   28000000 cycles:   13979215 heartbeat IPC: 1.98927 cumulative IPC: 2.00297 (Simulation time: 0 hr 0 min 48 sec) 
Heartbeat CPU  0 instructions:   29000003 cycles:   14474260 heartbeat IPC: 2.02002 cumulative IPC: 2.00356 (Simulation time: 0 hr 0 min 50 sec) 
Heartbeat CPU  0 instructions:   30000003 cycles:   14969007 heartbeat IPC: 2.02123 cumulative IPC: 2.00414 (Simulation time: 0 hr 0 min 52 sec) 
Heartbeat CPU  0 instructions:   31000001 cycles:   15471225 heartbeat IPC: 1.99116 cumulative IPC: 2.00372 (Simulation time: 0 hr 0 min 53 sec) 
Heartbeat CPU  0 instructions:   32000000 cycles:   15973569 heartbeat IPC: 1.99067 cumulative IPC: 2.00331 (Simulation time: 0 hr 0 min 55 sec) 
Heartbeat CPU  0 instructions:   33000000 cycles:   16476057 heartbeat IPC: 1.99010 cumulative IPC: 2.00291 (Simulation time: 0 hr 0 min 57 sec) 
Heartbeat CPU  0 instructions:   34000003 cycles:   16963971 heartbeat IPC: 2.04955 cumulative IPC: 2.00425 (Simulation time: 0 hr 0 min 59 sec) 
Heartbeat CPU  0 instructions:   35000003 cycles:   17466020 heartbeat IPC: 1.99184 cumulative IPC: 2.00389 (Simulation time: 0 hr 1 min 0 sec) 
Heartbeat CPU  0 instructions:   36000000 cycles:   17968096 heartbeat IPC: 1.99172 cumulative IPC: 2.00355 (Simulation time: 0 hr 1 min 2 sec) 
Heartbeat CPU  0 instructions:   37000001 cycles:   18471198 heartbeat IPC: 1.98767 cumulative IPC: 2.00312 (Simulation time: 0 hr 1 min 4 sec) 
Heartbeat CPU  0 instructions:   38000003 cycles:   18968875 heartbeat IPC: 2.00934 cumulative IPC: 2.00328 (Simulation time: 0 hr 1 min 5 sec) 
Heartbeat CPU  0 instructions:   39000001 cycles:   19461606 heartbeat IPC: 2.02950 cumulative IPC: 2.00395 (Simulation time: 0 hr 1 min 7 sec) 
Heartbeat CPU  0 instructions:   40000000 cycles:   19963829 heartbeat IPC: 1.99115 cumulative IPC: 2.00362 (Simulation time: 0 hr 1 min 9 sec) 
Heartbeat CPU  0 instructions:   41000002 cycles:   20466244 heartbeat IPC: 1.99039 cumulative IPC: 2.00330 (Simulation time: 0 hr 1 min 11 sec) 
Heartbeat CPU  0 instructions:   42000000 cycles:   20968930 heartbeat IPC: 1.98931 cumulative IPC: 2.00296 (Simulation time: 0 hr 1 min 12 sec) 
Heartbeat CPU  0 instructions:   43000000 cycles:   21457034 heartbeat IPC: 2.04874 cumulative IPC: 2.00400 (Simulation time: 0 hr 1 min 14 sec) 
Heartbeat CPU  0 instructions:   44000000 cycles:   21959394 heartbeat IPC: 1.99060 cumulative IPC: 2.00370 (Simulation time: 0 hr 1 min 16 sec) 
Heartbeat CPU  0 instructions:   45000002 cycles:   22462147 heartbeat IPC: 1.98905 cumulative IPC: 2.00337 (Simulation time: 0 hr 1 min 18 sec) 
Heartbeat CPU  0 instructions:   46000003 cycles:   22964044 heartbeat IPC: 1.99244 cumulative IPC: 2.00313 (Simulation time: 0 hr 1 min 19 sec) 
Heartbeat CPU  0 instructions:   47000000 cycles:   23463122 heartbeat IPC: 2.00369 cumulative IPC: 2.00314 (Simulation time: 0 hr 1 min 21 sec) 
Heartbeat CPU  0 instructions:   48000000 cycles:   23954223 heartbeat IPC: 2.03624 cumulative IPC: 2.00382 (Simulation time: 0 hr 1 min 23 sec) 
Heartbeat CPU  0 instructions:   49000002 cycles:   24457072 heartbeat IPC: 1.98867 cumulative IPC: 2.00351 (Simulation time: 0 hr 1 min 24 sec) 
Heartbeat CPU  0 instructions:   50000003 cycles:   24959524 heartbeat IPC: 1.99024 cumulative IPC: 2.00324 (Simulation time: 0 hr 1 min 26 sec) 
Heartbeat CPU  0 instructions:   51000001 cycles:   25461498 heartbeat IPC: 1.99213 cumulative IPC: 2.00302 (Simulation time: 0 hr 1 min 28 sec) 
Heartbeat CPU  0 instructions:   52000000 cycles:   25951670 heartbeat IPC: 2.04010 cumulative IPC: 2.00372 (Simulation time: 0 hr 1 min 30 sec) 
Heartbeat CPU  0 instructions:   53000003 cycles:   26451556 heartbeat IPC: 2.00046 cumulative IPC: 2.00366 (Simulation time: 0 hr 1 min 31 sec) 
Heartbeat CPU  0 instructions:   54000003 cycles:   26963057 heartbeat IPC: 1.95503 cumulative IPC: 2.00274 (Simulation time: 0 hr 1 min 33 sec) 
Heartbeat CPU  0 instructions:   55000001 cycles:   27482957 heartbeat IPC: 1.92344 cumulative IPC: 2.00124 (Simulation time: 0 hr 1 min 35 sec) 
Heartbeat CPU  0 instructions:   56000000 cycles:   27995649 heartbeat IPC: 1.95049 cumulative IPC: 2.00031 (Simulation time: 0 hr 1 min 36 sec) 
Heartbeat CPU  0 instructions:   57000000 cycles:   28507548 heartbeat IPC: 1.95351 cumulative IPC: 1.99947 (Simulation time: 0 hr 1 min 38 sec) 
Heartbeat CPU  0 instructions:   58000002 cycles:   29021449 heartbeat IPC: 1.94590 cumulative IPC: 1.99852 (Simulation time: 0 hr 1 min 40 sec) 
Heartbeat CPU  0 instructions:   59000003 cycles:   29532874 heartbeat IPC: 1.95532 cumulative IPC: 1.99777 (Simulation time: 0 hr 1 min 41 sec) 
Heartbeat CPU  0 instructions:   60000000 cycles:   30043389 heartbeat IPC: 1.95880 cumulative IPC: 1.99711 (Simulation time: 0 hr 1 min 43 sec) 
Heartbeat CPU  0 instructions:   61000001 cycles:   30555891 heartbeat IPC: 1.95121 cumulative IPC: 1.99634 (Simulation time: 0 hr 1 min 44 sec) 
Heartbeat CPU  0 instructions:   62000003 cycles:   31068504 heartbeat IPC: 1.95079 cumulative IPC: 1.99559 (Simulation time: 0 hr 1 min 46 sec) 
Heartbeat CPU  0 instructions:   63000001 cycles:   31580381 heartbeat IPC: 1.95359 cumulative IPC: 1.99491 (Simulation time: 0 hr 1 min 48 sec) 
Heartbeat CPU  0 instructions:   64000000 cycles:   32093727 heartbeat IPC: 1.94800 cumulative IPC: 1.99416 (Simulation time: 0 hr 1 min 49 sec) 
Heartbeat CPU  0 instructions:   65000000 cycles:   32607091 heartbeat IPC: 1.94794 cumulative IPC: 1.99343 (Simulation time: 0 hr 1 min 51 sec) 
Heartbeat CPU  0 instructions:   66000002 cycles:   33118979 heartbeat IPC: 1.95356 cumulative IPC: 1.99282 (Simulation time: 0 hr 1 min 52 sec) 
Heartbeat CPU  0 instructions:   67000002 cycles:   33632298 heartbeat IPC: 1.94811 cumulative IPC: 1.99213 (Simulation time: 0 hr 1 min 54 sec) 
Heartbeat CPU  0 instructions:   68000000 cycles:   34145466 heartbeat IPC: 1.94868 cumulative IPC: 1.99148 (Simulation time: 0 hr 1 min 55 sec) 
Heartbeat CPU  0 instructions:   69000001 cycles:   34657052 heartbeat IPC: 1.95471 cumulative IPC: 1.99094 (Simulation time: 0 hr 1 min 57 sec) 
Heartbeat CPU  0 instructions:   70000003 cycles:   35169934 heartbeat IPC: 1.94977 cumulative IPC: 1.99034 (Simulation time: 0 hr 1 min 59 sec) 
Heartbeat CPU  0 instructions:   71000002 cycles:   35682738 heartbeat IPC: 1.95006 cumulative IPC: 1.98976 (Simulation time: 0 hr 2 min 0 sec) 
Heartbeat CPU  0 instructions:   72000000 cycles:   36194191 heartbeat IPC: 1.95521 cumulative IPC: 1.98927 (Simulation time: 0 hr 2 min 2 sec) 
Heartbeat CPU  0 instructions:   73000003 cycles:   36706579 heartbeat IPC: 1.95165 cumulative IPC: 1.98874 (Simulation time: 0 hr 2 min 3 sec) 
Heartbeat CPU  0 instructions:   74000001 cycles:   37219201 heartbeat IPC: 1.95075 cumulative IPC: 1.98822 (Simulation time: 0 hr 2 min 5 sec) 
Heartbeat CPU  0 instructions:   75000001 cycles:   37731120 heartbeat IPC: 1.95343 cumulative IPC: 1.98775 (Simulation time: 0 hr 2 min 7 sec) 
Heartbeat CPU  0 instructions:   76000000 cycles:   38243821 heartbeat IPC: 1.95045 cumulative IPC: 1.98725 (Simulation time: 0 hr 2 min 8 sec) 
Heartbeat CPU  0 instructions:   77000001 cycles:   38757333 heartbeat IPC: 1.94738 cumulative IPC: 1.98672 (Simulation time: 0 hr 2 min 10 sec) 
Heartbeat CPU  0 instructions:   78000003 cycles:   39269390 heartbeat IPC: 1.95291 cumulative IPC: 1.98628 (Simulation time: 0 hr 2 min 11 sec) 
Heartbeat CPU  0 instructions:   79000000 cycles:   39781991 heartbeat IPC: 1.95083 cumulative IPC: 1.98582 (Simulation time: 0 hr 2 min 13 sec) 
Heartbeat CPU  0 instructions:   80000000 cycles:   40295403 heartbeat IPC: 1.94775 cumulative IPC: 1.98534 (Simulation time: 0 hr 2 min 15 sec) 
Heartbeat CPU  0 instructions:   81000000 cycles:   40807441 heartbeat IPC: 1.95298 cumulative IPC: 1.98493 (Simulation time: 0 hr 2 min 16 sec) 
Heartbeat CPU  0 instructions:   82000001 cycles:   41319742 heartbeat IPC: 1.95198 cumulative IPC: 1.98452 (Simulation time: 0 hr 2 min 18 sec) 
Heartbeat CPU  0 instructions:   83000001 cycles:   41833346 heartbeat IPC: 1.94703 cumulative IPC: 1.98406 (Simulation time: 0 hr 2 min 19 sec) 
Heartbeat CPU  0 instructions:   84000000 cycles:   42345240 heartbeat IPC: 1.95353 cumulative IPC: 1.98369 (Simulation time: 0 hr 2 min 21 sec) 
Heartbeat CPU  0 instructions:   85000001 cycles:   42857320 heartbeat IPC: 1.95282 cumulative IPC: 1.98333 (Simulation time: 0 hr 2 min 23 sec) 
Heartbeat CPU  0 instructions:   86000002 cycles:   43370778 heartbeat IPC: 1.94758 cumulative IPC: 1.98290 (Simulation time: 0 hr 2 min 24 sec) 
Heartbeat CPU  0 instructions:   87000003 cycles:   43882542 heartbeat IPC: 1.95403 cumulative IPC: 1.98257 (Simulation time: 0 hr 2 min 26 sec) 
Heartbeat CPU  0 instructions:   88000000 cycles:   44394665 heartbeat IPC: 1.95265 cumulative IPC: 1.98222 (Simulation time: 0 hr 2 min 27 sec) 
Heartbeat CPU  0 instructions:   89000002 cycles:   44908393 heartbeat IPC: 1.94656 cumulative IPC: 1.98181 (Simulation time: 0 hr 2 min 29 sec) 
Heartbeat CPU  0 instructions:   90000003 cycles:   45420495 heartbeat IPC: 1.95274 cumulative IPC: 1.98148 (Simulation time: 0 hr 2 min 31 sec) 
Heartbeat CPU  0 instructions:   91000002 cycles:   45931260 heartbeat IPC: 1.95785 cumulative IPC: 1.98122 (Simulation time: 0 hr 2 min 32 sec) 
Heartbeat CPU  0 instructions:   92000000 cycles:   46443838 heartbeat IPC: 1.95092 cumulative IPC: 1.98089 (Simulation time: 0 hr 2 min 34 sec) 
Heartbeat CPU  0 instructions:   93000001 cycles:   46955052 heartbeat IPC: 1.95613 cumulative IPC: 1.98062 (Simulation time: 0 hr 2 min 35 sec) 
Heartbeat CPU  0 instructions:   94000003 cycles:   47466612 heartbeat IPC: 1.95481 cumulative IPC: 1.98034 (Simulation time: 0 hr 2 min 37 sec) 
Heartbeat CPU  0 instructions:   95000003 cycles:   47980395 heartbeat IPC: 1.94635 cumulative IPC: 1.97998 (Simulation time: 0 hr 2 min 39 sec) 
Heartbeat CPU  0 instructions:   96000000 cycles:   48492774 heartbeat IPC: 1.95167 cumulative IPC: 1.97968 (Simulation time: 0 hr 2 min 40 sec) 
Heartbeat CPU  0 instructions:   97000002 cycles:   49004273 heartbeat IPC: 1.95504 cumulative IPC: 1.97942 (Simulation time: 0 hr 2 min 42 sec) 
Heartbeat CPU  0 instructions:   98000000 cycles:   49517396 heartbeat IPC: 1.94885 cumulative IPC: 1.97910 (Simulation time: 0 hr 2 min 43 sec) 
Heartbeat CPU  0 instructions:   99000000 cycles:   50029385 heartbeat IPC: 1.95317 cumulative IPC: 1.97884 (Simulation time: 0 hr 2 min 45 sec) 
Heartbeat CPU  0 instructions:  100000000 cycles:   50566236 heartbeat IPC: 1.86271 cumulative IPC: 1.97760 (Simulation time: 0 hr 2 min 47 sec) 

Warmup complete CPU  0 instructions:  100000001 cycles:   50566257 (Simulation time: 0 hr 2 min 47 sec) 

Heartbeat CPU  0 instructions:  101000003 cycles:   53081158 heartbeat IPC: 0.39763 cumulative IPC: 0.39763 (Simulation time: 0 hr 2 min 50 sec) 
Heartbeat CPU  0 instructions:  102000000 cycles:   58185577 heartbeat IPC: 0.19591 cumulative IPC: 0.26249 (Simulation time: 0 hr 2 min 54 sec) 
Heartbeat CPU  0 instructions:  103000002 cycles:   61024673 heartbeat IPC: 0.35223 cumulative IPC: 0.28685 (Simulation time: 0 hr 2 min 57 sec) 
Heartbeat CPU  0 instructions:  104000000 cycles:   62208231 heartbeat IPC: 0.84491 cumulative IPC: 0.34358 (Simulation time: 0 hr 3 min 0 sec) 
Heartbeat CPU  0 instructions:  105000002 cycles:   63181460 heartbeat IPC: 1.02751 cumulative IPC: 0.39635 (Simulation time: 0 hr 3 min 2 sec) 
Heartbeat CPU  0 instructions:  106000003 cycles:   64103881 heartbeat IPC: 1.08410 cumulative IPC: 0.44321 (Simulation time: 0 hr 3 min 4 sec) 
Heartbeat CPU  0 instructions:  107000000 cycles:   65032864 heartbeat IPC: 1.07644 cumulative IPC: 0.48387 (Simulation time: 0 hr 3 min 6 sec) 
Heartbeat CPU  0 instructions:  108000000 cycles:   65965960 heartbeat IPC: 1.07170 cumulative IPC: 0.51949 (Simulation time: 0 hr 3 min 9 sec) 
Heartbeat CPU  0 instructions:  109000001 cycles:   66912354 heartbeat IPC: 1.05664 cumulative IPC: 0.55059 (Simulation time: 0 hr 3 min 11 sec) 
Heartbeat CPU  0 instructions:  110000001 cycles:   68217361 heartbeat IPC: 0.76628 cumulative IPC: 0.56654 (Simulation time: 0 hr 3 min 13 sec) 
Heartbeat CPU  0 instructions:  111000001 cycles:   69481731 heartbeat IPC: 0.79091 cumulative IPC: 0.58153 (Simulation time: 0 hr 3 min 16 sec) 
Heartbeat CPU  0 instructions:  112000000 cycles:   70656301 heartbeat IPC: 0.85137 cumulative IPC: 0.59731 (Simulation time: 0 hr 3 min 18 sec) 
Heartbeat CPU  0 instructions:  113000003 cycles:   71672207 heartbeat IPC: 0.98435 cumulative IPC: 0.61594 (Simulation time: 0 hr 3 min 20 sec) 
Heartbeat CPU  0 instructions:  114000001 cycles:   72703400 heartbeat IPC: 0.96975 cumulative IPC: 0.63242 (Simulation time: 0 hr 3 min 22 sec) 
Heartbeat CPU  0 instructions:  115000003 cycles:   73736005 heartbeat IPC: 0.96843 cumulative IPC: 0.64740 (Simulation time: 0 hr 3 min 25 sec) 
Heartbeat CPU  0 instructions:  116000000 cycles:   74882788 heartbeat IPC: 0.87200 cumulative IPC: 0.65799 (Simulation time: 0 hr 3 min 27 sec) 
Heartbeat CPU  0 instructions:  117000000 cycles:   75907598 heartbeat IPC: 0.97579 cumulative IPC: 0.67084 (Simulation time: 0 hr 3 min 29 sec) 
Heartbeat CPU  0 instructions:  118000003 cycles:   76727407 heartbeat IPC: 1.21980 cumulative IPC: 0.68804 (Simulation time: 0 hr 3 min 31 sec) 
Heartbeat CPU  0 instructions:  119000000 cycles:   77544105 heartbeat IPC: 1.22444 cumulative IPC: 0.70428 (Simulation time: 0 hr 3 min 33 sec) 
Heartbeat CPU  0 instructions:  120000000 cycles:   78363103 heartbeat IPC: 1.22100 cumulative IPC: 0.71951 (Simulation time: 0 hr 3 min 35 sec) 
Heartbeat CPU  0 instructions:  121000001 cycles:   79178239 heartbeat IPC: 1.22679 cumulative IPC: 0.73396 (Simulation time: 0 hr 3 min 37 sec) 
Heartbeat CPU  0 instructions:  122000002 cycles:   79994553 heartbeat IPC: 1.22502 cumulative IPC: 0.74758 (Simulation time: 0 hr 3 min 39 sec) 
Heartbeat CPU  0 instructions:  123000000 cycles:   80812836 heartbeat IPC: 1.22207 cumulative IPC: 0.76042 (Simulation time: 0 hr 3 min 41 sec) 
Heartbeat CPU  0 instructions:  124000000 cycles:   81629079 heartbeat IPC: 1.22513 cumulative IPC: 0.77263 (Simulation time: 0 hr 3 min 44 sec) 
Heartbeat CPU  0 instructions:  125000002 cycles:   82444775 heartbeat IPC: 1.22595 cumulative IPC: 0.78423 (Simulation time: 0 hr 3 min 46 sec) 
Heartbeat CPU  0 instructions:  126000001 cycles:   83261933 heartbeat IPC: 1.22375 cumulative IPC: 0.79521 (Simulation time: 0 hr 3 min 48 sec) 
Heartbeat CPU  0 instructions:  127000003 cycles:   84079470 heartbeat IPC: 1.22319 cumulative IPC: 0.80565 (Simulation time: 0 hr 3 min 50 sec) 
Heartbeat CPU  0 instructions:  128000000 cycles:   84895425 heartbeat IPC: 1.22555 cumulative IPC: 0.81563 (Simulation time: 0 hr 3 min 52 sec) 
Heartbeat CPU  0 instructions:  129000001 cycles:   85710951 heartbeat IPC: 1.22620 cumulative IPC: 0.82516 (Simulation time: 0 hr 3 min 54 sec) 
Heartbeat CPU  0 instructions:  130000003 cycles:   86551756 heartbeat IPC: 1.18934 cumulative IPC: 0.83367 (Simulation time: 0 hr 3 min 56 sec) 
Heartbeat CPU  0 instructions:  131000000 cycles:   87366891 heartbeat IPC: 1.22679 cumulative IPC: 0.84238 (Simulation time: 0 hr 3 min 58 sec) 
Heartbeat CPU  0 instructions:  132000000 cycles:   88183498 heartbeat IPC: 1.22458 cumulative IPC: 0.85067 (Simulation time: 0 hr 4 min 0 sec) 
Heartbeat CPU  0 instructions:  133000000 cycles:   88998443 heartbeat IPC: 1.22708 cumulative IPC: 0.85866 (Simulation time: 0 hr 4 min 2 sec) 
Heartbeat CPU  0 instructions:  134000003 cycles:   89817201 heartbeat IPC: 1.22137 cumulative IPC: 0.86622 (Simulation time: 0 hr 4 min 4 sec) 
Heartbeat CPU  0 instructions:  135000003 cycles:   90632478 heartbeat IPC: 1.22658 cumulative IPC: 0.87355 (Simulation time: 0 hr 4 min 6 sec) 
Heartbeat CPU  0 instructions:  136000000 cycles:   91447075 heartbeat IPC: 1.22760 cumulative IPC: 0.88061 (Simulation time: 0 hr 4 min 8 sec) 
Heartbeat CPU  0 instructions:  137000003 cycles:   92265189 heartbeat IPC: 1.22233 cumulative IPC: 0.88731 (Simulation time: 0 hr 4 min 10 sec) 
Heartbeat CPU  0 instructions:  138000002 cycles:   93081212 heartbeat IPC: 1.22545 cumulative IPC: 0.89380 (Simulation time: 0 hr 4 min 12 sec) 
Heartbeat CPU  0 instructions:  139000002 cycles:   93897593 heartbeat IPC: 1.22492 cumulative IPC: 0.90004 (Simulation time: 0 hr 4 min 14 sec) 
Heartbeat CPU  0 instructions:  140000000 cycles:   94712279 heartbeat IPC: 1.22746 cumulative IPC: 0.90608 (Simulation time: 0 hr 4 min 16 sec) 
Heartbeat CPU  0 instructions:  141000000 cycles:   95536472 heartbeat IPC: 1.21331 cumulative IPC: 0.91171 (Simulation time: 0 hr 4 min 18 sec) 
Heartbeat CPU  0 instructions:  142000000 cycles:   96358424 heartbeat IPC: 1.21662 cumulative IPC: 0.91719 (Simulation time: 0 hr 4 min 20 sec) 
Heartbeat CPU  0 instructions:  143000003 cycles:   97178840 heartbeat IPC: 1.21890 cumulative IPC: 0.92250 (Simulation time: 0 hr 4 min 22 sec) 
Heartbeat CPU  0 instructions:  144000000 cycles:   98005741 heartbeat IPC: 1.20933 cumulative IPC: 0.92750 (Simulation time: 0 hr 4 min 24 sec) 
Heartbeat CPU  0 instructions:  145000001 cycles:   98851984 heartbeat IPC: 1.18169 cumulative IPC: 0.93195 (Simulation time: 0 hr 4 min 26 sec) 
Heartbeat CPU  0 instructions:  146000003 cycles:   99669967 heartbeat IPC: 1.22252 cumulative IPC: 0.93679 (Simulation time: 0 hr 4 min 28 sec) 
Heartbeat CPU  0 instructions:  147000000 cycles:  100490229 heartbeat IPC: 1.21912 cumulative IPC: 0.94143 (Simulation time: 0 hr 4 min 30 sec) 
Heartbeat CPU  0 instructions:  148000000 cycles:  101312497 heartbeat IPC: 1.21615 cumulative IPC: 0.94588 (Simulation time: 0 hr 4 min 32 sec) 
Heartbeat CPU  0 instructions:  149000003 cycles:  102139794 heartbeat IPC: 1.20876 cumulative IPC: 0.95010 (Simulation time: 0 hr 4 min 34 sec) 
Heartbeat CPU  0 instructions:  150000003 cycles:  102961634 heartbeat IPC: 1.21678 cumulative IPC: 0.95428 (Simulation time: 0 hr 4 min 36 sec) 
Heartbeat CPU  0 instructions:  151000000 cycles:  103785706 heartbeat IPC: 1.21348 cumulative IPC: 0.95830 (Simulation time: 0 hr 4 min 38 sec) 
Heartbeat CPU  0 instructions:  152000000 cycles:  104612237 heartbeat IPC: 1.20988 cumulative IPC: 0.96214 (Simulation time: 0 hr 4 min 40 sec) 
Heartbeat CPU  0 instructions:  153000002 cycles:  105434679 heartbeat IPC: 1.21589 cumulative IPC: 0.96595 (Simulation time: 0 hr 4 min 43 sec) 
Heartbeat CPU  0 instructions:  154000002 cycles:  106253509 heartbeat IPC: 1.22125 cumulative IPC: 0.96970 (Simulation time: 0 hr 4 min 45 sec) 
Heartbeat CPU  0 instructions:  155000001 cycles:  107076069 heartbeat IPC: 1.21572 cumulative IPC: 0.97328 (Simulation time: 0 hr 4 min 47 sec) 
Heartbeat CPU  0 instructions:  156000000 cycles:  107893968 heartbeat IPC: 1.22264 cumulative IPC: 0.97684 (Simulation time: 0 hr 4 min 49 sec) 
Heartbeat CPU  0 instructions:  157000000 cycles:  108711785 heartbeat IPC: 1.22277 cumulative IPC: 0.98030 (Simulation time: 0 hr 4 min 51 sec) 
Heartbeat CPU  0 instructions:  158000001 cycles:  109533093 heartbeat IPC: 1.21757 cumulative IPC: 0.98360 (Simulation time: 0 hr 4 min 53 sec) 
Heartbeat CPU  0 instructions:  159000003 cycles:  110367644 heartbeat IPC: 1.19825 cumulative IPC: 0.98660 (Simulation time: 0 hr 4 min 55 sec) 
Heartbeat CPU  0 instructions:  160000000 cycles:  111182393 heartbeat IPC: 1.22737 cumulative IPC: 0.98984 (Simulation time: 0 hr 4 min 57 sec) 
Heartbeat CPU  0 instructions:  161000001 cycles:  112000205 heartbeat IPC: 1.22278 cumulative IPC: 0.99294 (Simulation time: 0 hr 4 min 59 sec) 
Heartbeat CPU  0 instructions:  162000000 cycles:  112815549 heartbeat IPC: 1.22648 cumulative IPC: 0.99600 (Simulation time: 0 hr 5 min 1 sec) 
Heartbeat CPU  0 instructions:  163000003 cycles:  113635247 heartbeat IPC: 1.21997 cumulative IPC: 0.99891 (Simulation time: 0 hr 5 min 3 sec) 
Heartbeat CPU  0 instructions:  164000000 cycles:  114452559 heartbeat IPC: 1.22352 cumulative IPC: 1.00178 (Simulation time: 0 hr 5 min 5 sec) 
Heartbeat CPU  0 instructions:  165000000 cycles:  115267050 heartbeat IPC: 1.22776 cumulative IPC: 1.00462 (Simulation time: 0 hr 5 min 7 sec) 
Heartbeat CPU  0 instructions:  166000000 cycles:  116083264 heartbeat IPC: 1.22517 cumulative IPC: 1.00737 (Simulation time: 0 hr 5 min 9 sec) 
Heartbeat CPU  0 instructions:  167000003 cycles:  116897624 heartbeat IPC: 1.22796 cumulative IPC: 1.01008 (Simulation time: 0 hr 5 min 11 sec) 
Heartbeat CPU  0 instructions:  168000000 cycles:  117716243 heartbeat IPC: 1.22157 cumulative IPC: 1.01266 (Simulation time: 0 hr 5 min 13 sec) 
Heartbeat CPU  0 instructions:  169000003 cycles:  118534967 heartbeat IPC: 1.22142 cumulative IPC: 1.01517 (Simulation time: 0 hr 5 min 15 sec) 
Heartbeat CPU  0 instructions:  170000001 cycles:  119349658 heartbeat IPC: 1.22746 cumulative IPC: 1.01769 (Simulation time: 0 hr 5 min 17 sec) 
Heartbeat CPU  0 instructions:  171000002 cycles:  120164575 heartbeat IPC: 1.22712 cumulative IPC: 1.02014 (Simulation time: 0 hr 5 min 19 sec) 
Heartbeat CPU  0 instructions:  172000000 cycles:  120981479 heartbeat IPC: 1.22413 cumulative IPC: 1.02251 (Simulation time: 0 hr 5 min 21 sec) 
Heartbeat CPU  0 instructions:  173000002 cycles:  121820035 heartbeat IPC: 1.19253 cumulative IPC: 1.02451 (Simulation time: 0 hr 5 min 23 sec) 
Heartbeat CPU  0 instructions:  174000000 cycles:  122635734 heartbeat IPC: 1.22594 cumulative IPC: 1.02679 (Simulation time: 0 hr 5 min 25 sec) 
Heartbeat CPU  0 instructions:  175000001 cycles:  123451314 heartbeat IPC: 1.22612 cumulative IPC: 1.02902 (Simulation time: 0 hr 5 min 27 sec) 
Heartbeat CPU  0 instructions:  176000000 cycles:  124266662 heartbeat IPC: 1.22647 cumulative IPC: 1.03120 (Simulation time: 0 hr 5 min 29 sec) 
Heartbeat CPU  0 instructions:  177000000 cycles:  125081051 heartbeat IPC: 1.22791 cumulative IPC: 1.03335 (Simulation time: 0 hr 5 min 31 sec) 
Heartbeat CPU  0 instructions:  178000003 cycles:  125896609 heartbeat IPC: 1.22616 cumulative IPC: 1.03544 (Simulation time: 0 hr 5 min 33 sec) 
Heartbeat CPU  0 instructions:  179000000 cycles:  126719271 heartbeat IPC: 1.21556 cumulative IPC: 1.03739 (Simulation time: 0 hr 5 min 35 sec) 
Heartbeat CPU  0 instructions:  180000000 cycles:  127533474 heartbeat IPC: 1.22819 cumulative IPC: 1.03940 (Simulation time: 0 hr 5 min 37 sec) 
Heartbeat CPU  0 instructions:  181000003 cycles:  128348891 heartbeat IPC: 1.22637 cumulative IPC: 1.04136 (Simulation time: 0 hr 5 min 39 sec) 
Heartbeat CPU  0 instructions:  182000003 cycles:  129163815 heartbeat IPC: 1.22711 cumulative IPC: 1.04329 (Simulation time: 0 hr 5 min 41 sec) 
Heartbeat CPU  0 instructions:  183000003 cycles:  129977684 heartbeat IPC: 1.22870 cumulative IPC: 1.04519 (Simulation time: 0 hr 5 min 44 sec) 
Heartbeat CPU  0 instructions:  184000000 cycles:  130795693 heartbeat IPC: 1.22248 cumulative IPC: 1.04700 (Simulation time: 0 hr 5 min 46 sec) 
Heartbeat CPU  0 instructions:  185000002 cycles:  131615176 heartbeat IPC: 1.22028 cumulative IPC: 1.04875 (Simulation time: 0 hr 5 min 48 sec) 
Heartbeat CPU  0 instructions:  186000002 cycles:  132436552 heartbeat IPC: 1.21747 cumulative IPC: 1.05044 (Simulation time: 0 hr 5 min 50 sec) 
Heartbeat CPU  0 instructions:  187000001 cycles:  134359275 heartbeat IPC: 0.52010 cumulative IPC: 1.03827 (Simulation time: 0 hr 5 min 52 sec) 
Heartbeat CPU  0 instructions:  188000000 cycles:  135539929 heartbeat IPC: 0.84699 cumulative IPC: 1.03561 (Simulation time: 0 hr 5 min 54 sec) 
Heartbeat CPU  0 instructions:  189000000 cycles:  136609255 heartbeat IPC: 0.93517 cumulative IPC: 1.03437 (Simulation time: 0 hr 5 min 56 sec) 
Heartbeat CPU  0 instructions:  190000000 cycles:  137722182 heartbeat IPC: 0.89853 cumulative IPC: 1.03263 (Simulation time: 0 hr 5 min 58 sec) 
Heartbeat CPU  0 instructions:  191000003 cycles:  138862549 heartbeat IPC: 0.87691 cumulative IPC: 1.03062 (Simulation time: 0 hr 6 min 0 sec) 
Heartbeat CPU  0 instructions:  192000000 cycles:  140002117 heartbeat IPC: 0.87752 cumulative IPC: 1.02867 (Simulation time: 0 hr 6 min 3 sec) 
Heartbeat CPU  0 instructions:  193000003 cycles:  141102034 heartbeat IPC: 0.90916 cumulative IPC: 1.02722 (Simulation time: 0 hr 6 min 5 sec) 
Heartbeat CPU  0 instructions:  194000001 cycles:  142171628 heartbeat IPC: 0.93493 cumulative IPC: 1.02614 (Simulation time: 0 hr 6 min 7 sec) 
Heartbeat CPU  0 instructions:  195000000 cycles:  143322528 heartbeat IPC: 0.86888 cumulative IPC: 1.02419 (Simulation time: 0 hr 6 min 9 sec) 
Heartbeat CPU  0 instructions:  196000000 cycles:  145154832 heartbeat IPC: 0.54576 cumulative IPC: 1.01492 (Simulation time: 0 hr 6 min 11 sec) 
Heartbeat CPU  0 instructions:  197000000 cycles:  146283374 heartbeat IPC: 0.88610 cumulative IPC: 1.01340 (Simulation time: 0 hr 6 min 13 sec) 
Heartbeat CPU  0 instructions:  198000002 cycles:  147287217 heartbeat IPC: 0.99617 cumulative IPC: 1.01322 (Simulation time: 0 hr 6 min 15 sec) 
Heartbeat CPU  0 instructions:  199000001 cycles:  148389587 heartbeat IPC: 0.90714 cumulative IPC: 1.01203 (Simulation time: 0 hr 6 min 17 sec) 
Heartbeat CPU  0 instructions:  200000000 cycles:  149479446 heartbeat IPC: 0.91755 cumulative IPC: 1.01099 (Simulation time: 0 hr 6 min 20 sec) 
Heartbeat CPU  0 instructions:  201000001 cycles:  150561713 heartbeat IPC: 0.92399 cumulative IPC: 1.01005 (Simulation time: 0 hr 6 min 22 sec) 
Heartbeat CPU  0 instructions:  202000002 cycles:  151607776 heartbeat IPC: 0.95597 cumulative IPC: 1.00949 (Simulation time: 0 hr 6 min 24 sec) 
Heartbeat CPU  0 instructions:  203000002 cycles:  152633378 heartbeat IPC: 0.97504 cumulative IPC: 1.00914 (Simulation time: 0 hr 6 min 26 sec) 
Heartbeat CPU  0 instructions:  204000000 cycles:  154103145 heartbeat IPC: 0.68038 cumulative IPC: 1.00447 (Simulation time: 0 hr 6 min 28 sec) 
Heartbeat CPU  0 instructions:  205000003 cycles:  155693802 heartbeat IPC: 0.62867 cumulative IPC: 0.99879 (Simulation time: 0 hr 6 min 30 sec) 
Heartbeat CPU  0 instructions:  206000000 cycles:  156931101 heartbeat IPC: 0.80821 cumulative IPC: 0.99657 (Simulation time: 0 hr 6 min 32 sec) 
Heartbeat CPU  0 instructions:  207000001 cycles:  158087795 heartbeat IPC: 0.86453 cumulative IPC: 0.99515 (Simulation time: 0 hr 6 min 35 sec) 
Heartbeat CPU  0 instructions:  208000000 cycles:  159307054 heartbeat IPC: 0.82017 cumulative IPC: 0.99319 (Simulation time: 0 hr 6 min 37 sec) 
Heartbeat CPU  0 instructions:  209000001 cycles:  160542614 heartbeat IPC: 0.80935 cumulative IPC: 0.99112 (Simulation time: 0 hr 6 min 39 sec) 
Heartbeat CPU  0 instructions:  210000003 cycles:  161756355 heartbeat IPC: 0.82390 cumulative IPC: 0.98930 (Simulation time: 0 hr 6 min 41 sec) 
Heartbeat CPU  0 instructions:  211000001 cycles:  162943076 heartbeat IPC: 0.84266 cumulative IPC: 0.98775 (Simulation time: 0 hr 6 min 43 sec) 
Heartbeat CPU  0 instructions:  212000000 cycles:  164097042 heartbeat IPC: 0.86658 cumulative IPC: 0.98652 (Simulation time: 0 hr 6 min 45 sec) 
Heartbeat CPU  0 instructions:  213000001 cycles:  165730413 heartbeat IPC: 0.61223 cumulative IPC: 0.98121 (Simulation time: 0 hr 6 min 48 sec) 
Heartbeat CPU  0 instructions:  214000002 cycles:  167141322 heartbeat IPC: 0.70876 cumulative IPC: 0.97791 (Simulation time: 0 hr 6 min 50 sec) 
Heartbeat CPU  0 instructions:  215000002 cycles:  168550510 heartbeat IPC: 0.70963 cumulative IPC: 0.97471 (Simulation time: 0 hr 6 min 53 sec) 
Heartbeat CPU  0 instructions:  216000000 cycles:  169946175 heartbeat IPC: 0.71650 cumulative IPC: 0.97169 (Simulation time: 0 hr 6 min 55 sec) 
Heartbeat CPU  0 instructions:  217000002 cycles:  171354856 heartbeat IPC: 0.70989 cumulative IPC: 0.96863 (Simulation time: 0 hr 6 min 58 sec) 
Heartbeat CPU  0 instructions:  218000003 cycles:  172743460 heartbeat IPC: 0.72015 cumulative IPC: 0.96581 (Simulation time: 0 hr 7 min 0 sec) 
Heartbeat CPU  0 instructions:  219000000 cycles:  174174896 heartbeat IPC: 0.69860 cumulative IPC: 0.96272 (Simulation time: 0 hr 7 min 3 sec) 
Heartbeat CPU  0 instructions:  220000000 cycles:  175576575 heartbeat IPC: 0.71343 cumulative IPC: 0.95992 (Simulation time: 0 hr 7 min 6 sec) 
Heartbeat CPU  0 instructions:  221000000 cycles:  176981413 heartbeat IPC: 0.71183 cumulative IPC: 0.95716 (Simulation time: 0 hr 7 min 8 sec) 
Heartbeat CPU  0 instructions:  222000001 cycles:  178380869 heartbeat IPC: 0.71456 cumulative IPC: 0.95451 (Simulation time: 0 hr 7 min 11 sec) 
Heartbeat CPU  0 instructions:  223000000 cycles:  179780486 heartbeat IPC: 0.71448 cumulative IPC: 0.95191 (Simulation time: 0 hr 7 min 13 sec) 
Heartbeat CPU  0 instructions:  224000000 cycles:  181207365 heartbeat IPC: 0.70083 cumulative IPC: 0.94917 (Simulation time: 0 hr 7 min 16 sec) 
Heartbeat CPU  0 instructions:  225000002 cycles:  182606914 heartbeat IPC: 0.71452 cumulative IPC: 0.94668 (Simulation time: 0 hr 7 min 18 sec) 
Heartbeat CPU  0 instructions:  226000003 cycles:  184012016 heartbeat IPC: 0.71169 cumulative IPC: 0.94420 (Simulation time: 0 hr 7 min 21 sec) 
Heartbeat CPU  0 instructions:  227000002 cycles:  185410909 heartbeat IPC: 0.71485 cumulative IPC: 0.94182 (Simulation time: 0 hr 7 min 23 sec) 
Heartbeat CPU  0 instructions:  228000000 cycles:  186843929 heartbeat IPC: 0.69783 cumulative IPC: 0.93926 (Simulation time: 0 hr 7 min 26 sec) 
Heartbeat CPU  0 instructions:  229000002 cycles:  188238780 heartbeat IPC: 0.71692 cumulative IPC: 0.93701 (Simulation time: 0 hr 7 min 28 sec) 
Heartbeat CPU  0 instructions:  230000000 cycles:  189649123 heartbeat IPC: 0.70905 cumulative IPC: 0.93469 (Simulation time: 0 hr 7 min 31 sec) 
Heartbeat CPU  0 instructions:  231000001 cycles:  191033169 heartbeat IPC: 0.72252 cumulative IPC: 0.93260 (Simulation time: 0 hr 7 min 33 sec) 
Heartbeat CPU  0 instructions:  232000000 cycles:  192473128 heartbeat IPC: 0.69446 cumulative IPC: 0.93019 (Simulation time: 0 hr 7 min 36 sec) 
Heartbeat CPU  0 instructions:  233000001 cycles:  193858671 heartbeat IPC: 0.72174 cumulative IPC: 0.92817 (Simulation time: 0 hr 7 min 39 sec) 
Heartbeat CPU  0 instructions:  234000002 cycles:  195266271 heartbeat IPC: 0.71043 cumulative IPC: 0.92605 (Simulation time: 0 hr 7 min 41 sec) 
Heartbeat CPU  0 instructions:  235000002 cycles:  196656085 heartbeat IPC: 0.71952 cumulative IPC: 0.92409 (Simulation time: 0 hr 7 min 44 sec) 
Heartbeat CPU  0 instructions:  236000000 cycles:  198089098 heartbeat IPC: 0.69783 cumulative IPC: 0.92189 (Simulation time: 0 hr 7 min 46 sec) 
Heartbeat CPU  0 instructions:  237000003 cycles:  199484690 heartbeat IPC: 0.71654 cumulative IPC: 0.91997 (Simulation time: 0 hr 7 min 49 sec) 
Heartbeat CPU  0 instructions:  238000003 cycles:  200884680 heartbeat IPC: 0.71429 cumulative IPC: 0.91805 (Simulation time: 0 hr 7 min 51 sec) 
Heartbeat CPU  0 instructions:  239000000 cycles:  202294132 heartbeat IPC: 0.70949 cumulative IPC: 0.91611 (Simulation time: 0 hr 7 min 54 sec) 
Heartbeat CPU  0 instructions:  240000000 cycles:  203708425 heartbeat IPC: 0.70707 cumulative IPC: 0.91418 (Simulation time: 0 hr 7 min 56 sec) 
Heartbeat CPU  0 instructions:  241000000 cycles:  205122046 heartbeat IPC: 0.70740 cumulative IPC: 0.91229 (Simulation time: 0 hr 7 min 59 sec) 
Heartbeat CPU  0 instructions:  242000001 cycles:  206514057 heartbeat IPC: 0.71839 cumulative IPC: 0.91056 (Simulation time: 0 hr 8 min 1 sec) 
Heartbeat CPU  0 instructions:  243000000 cycles:  207925497 heartbeat IPC: 0.70850 cumulative IPC: 0.90875 (Simulation time: 0 hr 8 min 4 sec) 
Heartbeat CPU  0 instructions:  244000000 cycles:  209331801 heartbeat IPC: 0.71108 cumulative IPC: 0.90700 (Simulation time: 0 hr 8 min 6 sec) 
Heartbeat CPU  0 instructions:  245000002 cycles:  210745273 heartbeat IPC: 0.70748 cumulative IPC: 0.90524 (Simulation time: 0 hr 8 min 9 sec) 
Heartbeat CPU  0 instructions:  246000003 cycles:  212161305 heartbeat IPC: 0.70620 cumulative IPC: 0.90349 (Simulation time: 0 hr 8 min 12 sec) 
Heartbeat CPU  0 instructions:  247000003 cycles:  213560468 heartbeat IPC: 0.71471 cumulative IPC: 0.90187 (Simulation time: 0 hr 8 min 14 sec) 
Heartbeat CPU  0 instructions:  248000000 cycles:  214970089 heartbeat IPC: 0.70941 cumulative IPC: 0.90022 (Simulation time: 0 hr 8 min 17 sec) 
Heartbeat CPU  0 instructions:  249000003 cycles:  216388498 heartbeat IPC: 0.70502 cumulative IPC: 0.89855 (Simulation time: 0 hr 8 min 19 sec) 
Heartbeat CPU  0 instructions:  250000000 cycles:  217781363 heartbeat IPC: 0.71794 cumulative IPC: 0.89705 (Simulation time: 0 hr 8 min 22 sec) 
Heartbeat CPU  0 instructions:  251000000 cycles:  219295683 heartbeat IPC: 0.66036 cumulative IPC: 0.89492 (Simulation time: 0 hr 8 min 24 sec) 
Heartbeat CPU  0 instructions:  252000000 cycles:  220514123 heartbeat IPC: 0.82072 cumulative IPC: 0.89439 (Simulation time: 0 hr 8 min 26 sec) 
Heartbeat CPU  0 instructions:  253000002 cycles:  221499022 heartbeat IPC: 1.01533 cumulative IPC: 0.89509 (Simulation time: 0 hr 8 min 29 sec) 
Heartbeat CPU  0 instructions:  254000003 cycles:  222488054 heartbeat IPC: 1.01109 cumulative IPC: 0.89576 (Simulation time: 0 hr 8 min 31 sec) 
Heartbeat CPU  0 instructions:  255000000 cycles:  223468177 heartbeat IPC: 1.02028 cumulative IPC: 0.89646 (Simulation time: 0 hr 8 min 33 sec) 
Heartbeat CPU  0 instructions:  256000000 cycles:  224444513 heartbeat IPC: 1.02424 cumulative IPC: 0.89718 (Simulation time: 0 hr 8 min 35 sec) 
Heartbeat CPU  0 instructions:  257000000 cycles:  225399274 heartbeat IPC: 1.04738 cumulative IPC: 0.89800 (Simulation time: 0 hr 8 min 37 sec) 
Heartbeat CPU  0 instructions:  258000002 cycles:  226369909 heartbeat IPC: 1.03026 cumulative IPC: 0.89873 (Simulation time: 0 hr 8 min 39 sec) 
Heartbeat CPU  0 instructions:  259000000 cycles:  227347779 heartbeat IPC: 1.02263 cumulative IPC: 0.89942 (Simulation time: 0 hr 8 min 41 sec) 
Heartbeat CPU  0 instructions:  260000000 cycles:  228318869 heartbeat IPC: 1.02977 cumulative IPC: 0.90013 (Simulation time: 0 hr 8 min 44 sec) 
Heartbeat CPU  0 instructions:  261000001 cycles:  229279855 heartbeat IPC: 1.04060 cumulative IPC: 0.90088 (Simulation time: 0 hr 8 min 46 sec) 
Heartbeat CPU  0 instructions:  262000000 cycles:  230198757 heartbeat IPC: 1.08825 cumulative IPC: 0.90184 (Simulation time: 0 hr 8 min 48 sec) 
Heartbeat CPU  0 instructions:  263000002 cycles:  231132854 heartbeat IPC: 1.07055 cumulative IPC: 0.90271 (Simulation time: 0 hr 8 min 50 sec) 
Heartbeat CPU  0 instructions:  264000000 cycles:  232097282 heartbeat IPC: 1.03688 cumulative IPC: 0.90343 (Simulation time: 0 hr 8 min 52 sec) 
Heartbeat CPU  0 instructions:  265000002 cycles:  233058426 heartbeat IPC: 1.04043 cumulative IPC: 0.90415 (Simulation time: 0 hr 8 min 54 sec) 
Heartbeat CPU  0 instructions:  266000000 cycles:  234002990 heartbeat IPC: 1.05869 cumulative IPC: 0.90494 (Simulation time: 0 hr 8 min 56 sec) 
Heartbeat CPU  0 instructions:  267000000 cycles:  234944807 heartbeat IPC: 1.06178 cumulative IPC: 0.90575 (Simulation time: 0 hr 8 min 58 sec) 
Heartbeat CPU  0 instructions:  268000000 cycles:  235957632 heartbeat IPC: 0.98734 cumulative IPC: 0.90619 (Simulation time: 0 hr 9 min 0 sec) 
Heartbeat CPU  0 instructions:  269000000 cycles:  236903349 heartbeat IPC: 1.05740 cumulative IPC: 0.90696 (Simulation time: 0 hr 9 min 3 sec) 
Heartbeat CPU  0 instructions:  270000003 cycles:  237880751 heartbeat IPC: 1.02312 cumulative IPC: 0.90756 (Simulation time: 0 hr 9 min 5 sec) 
Heartbeat CPU  0 instructions:  271000000 cycles:  238852648 heartbeat IPC: 1.02891 cumulative IPC: 0.90819 (Simulation time: 0 hr 9 min 7 sec) 
Heartbeat CPU  0 instructions:  272000000 cycles:  239803605 heartbeat IPC: 1.05157 cumulative IPC: 0.90891 (Simulation time: 0 hr 9 min 9 sec) 
Heartbeat CPU  0 instructions:  273000000 cycles:  240750155 heartbeat IPC: 1.05647 cumulative IPC: 0.90965 (Simulation time: 0 hr 9 min 12 sec) 
Heartbeat CPU  0 instructions:  274000002 cycles:  241695948 heartbeat IPC: 1.05732 cumulative IPC: 0.91038 (Simulation time: 0 hr 9 min 14 sec) 
Heartbeat CPU  0 instructions:  275000000 cycles:  242667002 heartbeat IPC: 1.02981 cumulative IPC: 0.91098 (Simulation time: 0 hr 9 min 17 sec) 
Heartbeat CPU  0 instructions:  276000000 cycles:  243640994 heartbeat IPC: 1.02670 cumulative IPC: 0.91156 (Simulation time: 0 hr 9 min 19 sec) 
Heartbeat CPU  0 instructions:  277000002 cycles:  244607203 heartbeat IPC: 1.03497 cumulative IPC: 0.91218 (Simulation time: 0 hr 9 min 22 sec) 
Heartbeat CPU  0 instructions:  278000002 cycles:  245559366 heartbeat IPC: 1.05024 cumulative IPC: 0.91285 (Simulation time: 0 hr 9 min 24 sec) 
Heartbeat CPU  0 instructions:  279000000 cycles:  246522239 heartbeat IPC: 1.03856 cumulative IPC: 0.91347 (Simulation time: 0 hr 9 min 27 sec) 
Heartbeat CPU  0 instructions:  280000000 cycles:  247457976 heartbeat IPC: 1.06868 cumulative IPC: 0.91421 (Simulation time: 0 hr 9 min 30 sec) 
Heartbeat CPU  0 instructions:  281000002 cycles:  248424902 heartbeat IPC: 1.03421 cumulative IPC: 0.91479 (Simulation time: 0 hr 9 min 32 sec) 
Heartbeat CPU  0 instructions:  282000002 cycles:  249421687 heartbeat IPC: 1.00323 cumulative IPC: 0.91524 (Simulation time: 0 hr 9 min 34 sec) 
Heartbeat CPU  0 instructions:  283000001 cycles:  250355385 heartbeat IPC: 1.07101 cumulative IPC: 0.91597 (Simulation time: 0 hr 9 min 37 sec) 
Heartbeat CPU  0 instructions:  284000000 cycles:  251330036 heartbeat IPC: 1.02601 cumulative IPC: 0.91650 (Simulation time: 0 hr 9 min 39 sec) 
Heartbeat CPU  0 instructions:  285000003 cycles:  252278330 heartbeat IPC: 1.05453 cumulative IPC: 0.91715 (Simulation time: 0 hr 9 min 41 sec) 
Heartbeat CPU  0 instructions:  286000003 cycles:  253246091 heartbeat IPC: 1.03331 cumulative IPC: 0.91770 (Simulation time: 0 hr 9 min 44 sec) 
Heartbeat CPU  0 instructions:  287000001 cycles:  254220504 heartbeat IPC: 1.02626 cumulative IPC: 0.91822 (Simulation time: 0 hr 9 min 46 sec) 
Heartbeat CPU  0 instructions:  288000000 cycles:  255180443 heartbeat IPC: 1.04173 cumulative IPC: 0.91880 (Simulation time: 0 hr 9 min 49 sec) 
Heartbeat CPU  0 instructions:  289000001 cycles:  256134054 heartbeat IPC: 1.04865 cumulative IPC: 0.91940 (Simulation time: 0 hr 9 min 51 sec) 
Heartbeat CPU  0 instructions:  290000003 cycles:  257096639 heartbeat IPC: 1.03887 cumulative IPC: 0.91996 (Simulation time: 0 hr 9 min 53 sec) 
Heartbeat CPU  0 instructions:  291000003 cycles:  258036165 heartbeat IPC: 1.06437 cumulative IPC: 0.92062 (Simulation time: 0 hr 9 min 56 sec) 
Heartbeat CPU  0 instructions:  292000000 cycles:  259014256 heartbeat IPC: 1.02240 cumulative IPC: 0.92109 (Simulation time: 0 hr 9 min 58 sec) 
Heartbeat CPU  0 instructions:  293000002 cycles:  260019858 heartbeat IPC: 0.99443 cumulative IPC: 0.92145 (Simulation time: 0 hr 10 min 1 sec) 
Heartbeat CPU  0 instructions:  294000002 cycles:  260975190 heartbeat IPC: 1.04676 cumulative IPC: 0.92201 (Simulation time: 0 hr 10 min 4 sec) 
Heartbeat CPU  0 instructions:  295000001 cycles:  261953458 heartbeat IPC: 1.02221 cumulative IPC: 0.92248 (Simulation time: 0 hr 10 min 6 sec) 
Heartbeat CPU  0 instructions:  296000000 cycles:  262913066 heartbeat IPC: 1.04209 cumulative IPC: 0.92302 (Simulation time: 0 hr 10 min 9 sec) 
Heartbeat CPU  0 instructions:  297000003 cycles:  263855427 heartbeat IPC: 1.06117 cumulative IPC: 0.92363 (Simulation time: 0 hr 10 min 11 sec) 
Heartbeat CPU  0 instructions:  298000000 cycles:  264820204 heartbeat IPC: 1.03651 cumulative IPC: 0.92414 (Simulation time: 0 hr 10 min 13 sec) 
Heartbeat CPU  0 instructions:  299000003 cycles:  265771141 heartbeat IPC: 1.05160 cumulative IPC: 0.92470 (Simulation time: 0 hr 10 min 16 sec) 
Heartbeat CPU  0 instructions:  300000000 cycles:  266769466 heartbeat IPC: 1.00167 cumulative IPC: 0.92506 (Simulation time: 0 hr 10 min 18 sec) 
Heartbeat CPU  0 instructions:  301000000 cycles:  267744481 heartbeat IPC: 1.02563 cumulative IPC: 0.92551 (Simulation time: 0 hr 10 min 20 sec) 
Heartbeat CPU  0 instructions:  302000003 cycles:  268728683 heartbeat IPC: 1.01605 cumulative IPC: 0.92592 (Simulation time: 0 hr 10 min 23 sec) 
Heartbeat CPU  0 instructions:  303000000 cycles:  269737726 heartbeat IPC: 0.99104 cumulative IPC: 0.92622 (Simulation time: 0 hr 10 min 25 sec) 
Heartbeat CPU  0 instructions:  304000000 cycles:  270705587 heartbeat IPC: 1.03321 cumulative IPC: 0.92669 (Simulation time: 0 hr 10 min 27 sec) 
Heartbeat CPU  0 instructions:  305000003 cycles:  271676047 heartbeat IPC: 1.03044 cumulative IPC: 0.92714 (Simulation time: 0 hr 10 min 30 sec) 
Heartbeat CPU  0 instructions:  306000001 cycles:  272675103 heartbeat IPC: 1.00094 cumulative IPC: 0.92747 (Simulation time: 0 hr 10 min 32 sec) 
Heartbeat CPU  0 instructions:  307000001 cycles:  273660093 heartbeat IPC: 1.01524 cumulative IPC: 0.92786 (Simulation time: 0 hr 10 min 35 sec) 
Heartbeat CPU  0 instructions:  308000000 cycles:  274610228 heartbeat IPC: 1.05248 cumulative IPC: 0.92839 (Simulation time: 0 hr 10 min 37 sec) 
Heartbeat CPU  0 instructions:  309000001 cycles:  275579865 heartbeat IPC: 1.03131 cumulative IPC: 0.92883 (Simulation time: 0 hr 10 min 40 sec) 
Heartbeat CPU  0 instructions:  310000000 cycles:  276515249 heartbeat IPC: 1.06908 cumulative IPC: 0.92941 (Simulation time: 0 hr 10 min 42 sec) 
Heartbeat CPU  0 instructions:  311000000 cycles:  277487540 heartbeat IPC: 1.02850 cumulative IPC: 0.92984 (Simulation time: 0 hr 10 min 45 sec) 
Heartbeat CPU  0 instructions:  312000000 cycles:  278449577 heartbeat IPC: 1.03946 cumulative IPC: 0.93030 (Simulation time: 0 hr 10 min 47 sec) 
Heartbeat CPU  0 instructions:  313000003 cycles:  279400243 heartbeat IPC: 1.05190 cumulative IPC: 0.93081 (Simulation time: 0 hr 10 min 49 sec) 
Heartbeat CPU  0 instructions:  314000001 cycles:  280407867 heartbeat IPC: 0.99243 cumulative IPC: 0.93108 (Simulation time: 0 hr 10 min 52 sec) 
Heartbeat CPU  0 instructions:  315000000 cycles:  281373743 heartbeat IPC: 1.03533 cumulative IPC: 0.93151 (Simulation time: 0 hr 10 min 54 sec) 
Heartbeat CPU  0 instructions:  316000000 cycles:  282329038 heartbeat IPC: 1.04680 cumulative IPC: 0.93199 (Simulation time: 0 hr 10 min 56 sec) 
Heartbeat CPU  0 instructions:  317000003 cycles:  283304662 heartbeat IPC: 1.02499 cumulative IPC: 0.93238 (Simulation time: 0 hr 10 min 59 sec) 
Heartbeat CPU  0 instructions:  318000002 cycles:  284288082 heartbeat IPC: 1.01686 cumulative IPC: 0.93273 (Simulation time: 0 hr 11 min 1 sec) 
Heartbeat CPU  0 instructions:  319000002 cycles:  285252233 heartbeat IPC: 1.03718 cumulative IPC: 0.93316 (Simulation time: 0 hr 11 min 4 sec) 
Heartbeat CPU  0 instructions:  320000000 cycles:  286207783 heartbeat IPC: 1.04652 cumulative IPC: 0.93362 (Simulation time: 0 hr 11 min 6 sec) 
Heartbeat CPU  0 instructions:  321000002 cycles:  287148372 heartbeat IPC: 1.06317 cumulative IPC: 0.93414 (Simulation time: 0 hr 11 min 8 sec) 
Heartbeat CPU  0 instructions:  322000002 cycles:  288115087 heartbeat IPC: 1.03443 cumulative IPC: 0.93454 (Simulation time: 0 hr 11 min 10 sec) 
Heartbeat CPU  0 instructions:  323000002 cycles:  289078370 heartbeat IPC: 1.03812 cumulative IPC: 0.93496 (Simulation time: 0 hr 11 min 12 sec) 
Heartbeat CPU  0 instructions:  324000000 cycles:  290095512 heartbeat IPC: 0.98314 cumulative IPC: 0.93517 (Simulation time: 0 hr 11 min 15 sec) 
Heartbeat CPU  0 instructions:  325000002 cycles:  291041382 heartbeat IPC: 1.05723 cumulative IPC: 0.93565 (Simulation time: 0 hr 11 min 17 sec) 
Heartbeat CPU  0 instructions:  326000000 cycles:  292028634 heartbeat IPC: 1.01291 cumulative IPC: 0.93596 (Simulation time: 0 hr 11 min 19 sec) 
Heartbeat CPU  0 instructions:  327000002 cycles:  292987333 heartbeat IPC: 1.04308 cumulative IPC: 0.93639 (Simulation time: 0 hr 11 min 21 sec) 
Heartbeat CPU  0 instructions:  328000000 cycles:  293961156 heartbeat IPC: 1.02688 cumulative IPC: 0.93675 (Simulation time: 0 hr 11 min 23 sec) 
Heartbeat CPU  0 instructions:  329000001 cycles:  294947266 heartbeat IPC: 1.01409 cumulative IPC: 0.93706 (Simulation time: 0 hr 11 min 25 sec) 
Heartbeat CPU  0 instructions:  330000001 cycles:  295918385 heartbeat IPC: 1.02974 cumulative IPC: 0.93743 (Simulation time: 0 hr 11 min 27 sec) 
Heartbeat CPU  0 instructions:  331000001 cycles:  296867064 heartbeat IPC: 1.05410 cumulative IPC: 0.93788 (Simulation time: 0 hr 11 min 29 sec) 
Heartbeat CPU  0 instructions:  332000000 cycles:  297815231 heartbeat IPC: 1.05467 cumulative IPC: 0.93833 (Simulation time: 0 hr 11 min 32 sec) 
Heartbeat CPU  0 instructions:  333000001 cycles:  298766249 heartbeat IPC: 1.05151 cumulative IPC: 0.93876 (Simulation time: 0 hr 11 min 34 sec) 
Heartbeat CPU  0 instructions:  334000003 cycles:  299724615 heartbeat IPC: 1.04344 cumulative IPC: 0.93916 (Simulation time: 0 hr 11 min 36 sec) 
Heartbeat CPU  0 instructions:  335000002 cycles:  300744217 heartbeat IPC: 0.98077 cumulative IPC: 0.93933 (Simulation time: 0 hr 11 min 38 sec) 
Heartbeat CPU  0 instructions:  336000000 cycles:  301687899 heartbeat IPC: 1.05968 cumulative IPC: 0.93978 (Simulation time: 0 hr 11 min 40 sec) 
Heartbeat CPU  0 instructions:  337000002 cycles:  302676552 heartbeat IPC: 1.01148 cumulative IPC: 0.94006 (Simulation time: 0 hr 11 min 42 sec) 
Heartbeat CPU  0 instructions:  338000002 cycles:  303628913 heartbeat IPC: 1.05002 cumulative IPC: 0.94048 (Simulation time: 0 hr 11 min 44 sec) 
Heartbeat CPU  0 instructions:  339000002 cycles:  304598530 heartbeat IPC: 1.03133 cumulative IPC: 0.94083 (Simulation time: 0 hr 11 min 46 sec) 
Heartbeat CPU  0 instructions:  340000000 cycles:  305557970 heartbeat IPC: 1.04227 cumulative IPC: 0.94121 (Simulation time: 0 hr 11 min 49 sec) 
Heartbeat CPU  0 instructions:  341000001 cycles:  306515232 heartbeat IPC: 1.04465 cumulative IPC: 0.94159 (Simulation time: 0 hr 11 min 51 sec) 
Heartbeat CPU  0 instructions:  342000003 cycles:  307462868 heartbeat IPC: 1.05526 cumulative IPC: 0.94201 (Simulation time: 0 hr 11 min 53 sec) 
Heartbeat CPU  0 instructions:  343000003 cycles:  308420893 heartbeat IPC: 1.04381 cumulative IPC: 0.94239 (Simulation time: 0 hr 11 min 55 sec) 
Heartbeat CPU  0 instructions:  344000000 cycles:  309363182 heartbeat IPC: 1.06124 cumulative IPC: 0.94282 (Simulation time: 0 hr 11 min 57 sec) 
Heartbeat CPU  0 instructions:  345000001 cycles:  310386747 heartbeat IPC: 0.97698 cumulative IPC: 0.94296 (Simulation time: 0 hr 12 min 0 sec) 
Heartbeat CPU  0 instructions:  346000003 cycles:  311354664 heartbeat IPC: 1.03315 cumulative IPC: 0.94329 (Simulation time: 0 hr 12 min 2 sec) 
Heartbeat CPU  0 instructions:  347000003 cycles:  312322442 heartbeat IPC: 1.03329 cumulative IPC: 0.94363 (Simulation time: 0 hr 12 min 4 sec) 
Heartbeat CPU  0 instructions:  348000000 cycles:  313323982 heartbeat IPC: 0.99846 cumulative IPC: 0.94384 (Simulation time: 0 hr 12 min 6 sec) 
Heartbeat CPU  0 instructions:  349000000 cycles:  314282941 heartbeat IPC: 1.04280 cumulative IPC: 0.94420 (Simulation time: 0 hr 12 min 8 sec) 
Heartbeat CPU  0 instructions:  350000003 cycles:  315248426 heartbeat IPC: 1.03575 cumulative IPC: 0.94453 (Simulation time: 0 hr 12 min 10 sec) 
Heartbeat CPU  0 instructions:  351000002 cycles:  316231492 heartbeat IPC: 1.01722 cumulative IPC: 0.94480 (Simulation time: 0 hr 12 min 12 sec) 
Heartbeat CPU  0 instructions:  352000000 cycles:  317180167 heartbeat IPC: 1.05410 cumulative IPC: 0.94519 (Simulation time: 0 hr 12 min 14 sec) 
Heartbeat CPU  0 instructions:  353000003 cycles:  318147731 heartbeat IPC: 1.03353 cumulative IPC: 0.94551 (Simulation time: 0 hr 12 min 17 sec) 
Heartbeat CPU  0 instructions:  354000003 cycles:  319110277 heartbeat IPC: 1.03891 cumulative IPC: 0.94584 (Simulation time: 0 hr 12 min 19 sec) 
Heartbeat CPU  0 instructions:  355000000 cycles:  320054484 heartbeat IPC: 1.05909 cumulative IPC: 0.94624 (Simulation time: 0 hr 12 min 21 sec) 
Heartbeat CPU  0 instructions:  356000000 cycles:  321082425 heartbeat IPC: 0.97282 cumulative IPC: 0.94634 (Simulation time: 0 hr 12 min 23 sec) 
Heartbeat CPU  0 instructions:  357000001 cycles:  322045353 heartbeat IPC: 1.03850 cumulative IPC: 0.94667 (Simulation time: 0 hr 12 min 25 sec) 
Heartbeat CPU  0 instructions:  358000003 cycles:  323021728 heartbeat IPC: 1.02420 cumulative IPC: 0.94694 (Simulation time: 0 hr 12 min 27 sec) 
Heartbeat CPU  0 instructions:  359000000 cycles:  324017831 heartbeat IPC: 1.00391 cumulative IPC: 0.94715 (Simulation time: 0 hr 12 min 30 sec) 
Heartbeat CPU  0 instructions:  360000000 cycles:  324990221 heartbeat IPC: 1.02839 cumulative IPC: 0.94744 (Simulation time: 0 hr 12 min 32 sec) 
Heartbeat CPU  0 instructions:  361000002 cycles:  325969361 heartbeat IPC: 1.02131 cumulative IPC: 0.94770 (Simulation time: 0 hr 12 min 34 sec) 
Heartbeat CPU  0 instructions:  362000002 cycles:  326960602 heartbeat IPC: 1.00884 cumulative IPC: 0.94792 (Simulation time: 0 hr 12 min 36 sec) 
Heartbeat CPU  0 instructions:  363000002 cycles:  327896868 heartbeat IPC: 1.06807 cumulative IPC: 0.94833 (Simulation time: 0 hr 12 min 38 sec) 
Heartbeat CPU  0 instructions:  364000000 cycles:  328865850 heartbeat IPC: 1.03201 cumulative IPC: 0.94862 (Simulation time: 0 hr 12 min 40 sec) 
Heartbeat CPU  0 instructions:  365000001 cycles:  329831679 heartbeat IPC: 1.03538 cumulative IPC: 0.94892 (Simulation time: 0 hr 12 min 42 sec) 
Heartbeat CPU  0 instructions:  366000001 cycles:  330808659 heartbeat IPC: 1.02356 cumulative IPC: 0.94918 (Simulation time: 0 hr 12 min 44 sec) 
Heartbeat CPU  0 instructions:  367000003 cycles:  331778322 heartbeat IPC: 1.03129 cumulative IPC: 0.94946 (Simulation time: 0 hr 12 min 47 sec) 
Heartbeat CPU  0 instructions:  368000000 cycles:  332739690 heartbeat IPC: 1.04018 cumulative IPC: 0.94977 (Simulation time: 0 hr 12 min 49 sec) 
Heartbeat CPU  0 instructions:  369000001 cycles:  333712328 heartbeat IPC: 1.02813 cumulative IPC: 0.95004 (Simulation time: 0 hr 12 min 51 sec) 
Heartbeat CPU  0 instructions:  370000002 cycles:  334697556 heartbeat IPC: 1.01499 cumulative IPC: 0.95026 (Simulation time: 0 hr 12 min 53 sec) 
Heartbeat CPU  0 instructions:  371000002 cycles:  335661318 heartbeat IPC: 1.03760 cumulative IPC: 0.95056 (Simulation time: 0 hr 12 min 55 sec) 
Heartbeat CPU  0 instructions:  372000000 cycles:  336605381 heartbeat IPC: 1.05925 cumulative IPC: 0.95092 (Simulation time: 0 hr 12 min 57 sec) 
Heartbeat CPU  0 instructions:  373000001 cycles:  337553365 heartbeat IPC: 1.05487 cumulative IPC: 0.95126 (Simulation time: 0 hr 12 min 59 sec) 
Heartbeat CPU  0 instructions:  374000001 cycles:  338480699 heartbeat IPC: 1.07836 cumulative IPC: 0.95167 (Simulation time: 0 hr 13 min 1 sec) 
Heartbeat CPU  0 instructions:  375000000 cycles:  339446214 heartbeat IPC: 1.03572 cumulative IPC: 0.95195 (Simulation time: 0 hr 13 min 4 sec) 
Heartbeat CPU  0 instructions:  376000000 cycles:  340406564 heartbeat IPC: 1.04129 cumulative IPC: 0.95225 (Simulation time: 0 hr 13 min 6 sec) 
Heartbeat CPU  0 instructions:  377000002 cycles:  341411945 heartbeat IPC: 0.99465 cumulative IPC: 0.95240 (Simulation time: 0 hr 13 min 8 sec) 
Heartbeat CPU  0 instructions:  378000000 cycles:  342379946 heartbeat IPC: 1.03305 cumulative IPC: 0.95266 (Simulation time: 0 hr 13 min 10 sec) 
Heartbeat CPU  0 instructions:  379000000 cycles:  343324964 heartbeat IPC: 1.05818 cumulative IPC: 0.95300 (Simulation time: 0 hr 13 min 12 sec) 
Heartbeat CPU  0 instructions:  380000000 cycles:  344297601 heartbeat IPC: 1.02813 cumulative IPC: 0.95325 (Simulation time: 0 hr 13 min 14 sec) 
Heartbeat CPU  0 instructions:  381000002 cycles:  345257609 heartbeat IPC: 1.04166 cumulative IPC: 0.95354 (Simulation time: 0 hr 13 min 16 sec) 
Heartbeat CPU  0 instructions:  382000000 cycles:  346230584 heartbeat IPC: 1.02777 cumulative IPC: 0.95378 (Simulation time: 0 hr 13 min 18 sec) 
Heartbeat CPU  0 instructions:  383000000 cycles:  347171829 heartbeat IPC: 1.06242 cumulative IPC: 0.95413 (Simulation time: 0 hr 13 min 20 sec) 
Heartbeat CPU  0 instructions:  384000000 cycles:  348120011 heartbeat IPC: 1.05465 cumulative IPC: 0.95445 (Simulation time: 0 hr 13 min 23 sec) 
Heartbeat CPU  0 instructions:  385000001 cycles:  349056288 heartbeat IPC: 1.06806 cumulative IPC: 0.95481 (Simulation time: 0 hr 13 min 25 sec) 
Heartbeat CPU  0 instructions:  386000002 cycles:  350034317 heartbeat IPC: 1.02247 cumulative IPC: 0.95503 (Simulation time: 0 hr 13 min 27 sec) 
Heartbeat CPU  0 instructions:  387000000 cycles:  351064962 heartbeat IPC: 0.97026 cumulative IPC: 0.95508 (Simulation time: 0 hr 13 min 29 sec) 
Heartbeat CPU  0 instructions:  388000000 cycles:  352030978 heartbeat IPC: 1.03518 cumulative IPC: 0.95534 (Simulation time: 0 hr 13 min 31 sec) 
Heartbeat CPU  0 instructions:  389000003 cycles:  352983193 heartbeat IPC: 1.05019 cumulative IPC: 0.95563 (Simulation time: 0 hr 13 min 33 sec) 
Heartbeat CPU  0 instructions:  390000001 cycles:  353960314 heartbeat IPC: 1.02341 cumulative IPC: 0.95585 (Simulation time: 0 hr 13 min 35 sec) 
Heartbeat CPU  0 instructions:  391000002 cycles:  354916227 heartbeat IPC: 1.04612 cumulative IPC: 0.95614 (Simulation time: 0 hr 13 min 38 sec) 
Heartbeat CPU  0 instructions:  392000000 cycles:  355921325 heartbeat IPC: 0.99493 cumulative IPC: 0.95626 (Simulation time: 0 hr 13 min 40 sec) 
Heartbeat CPU  0 instructions:  393000003 cycles:  356898748 heartbeat IPC: 1.02310 cumulative IPC: 0.95648 (Simulation time: 0 hr 13 min 42 sec) 
Heartbeat CPU  0 instructions:  394000003 cycles:  357847403 heartbeat IPC: 1.05412 cumulative IPC: 0.95678 (Simulation time: 0 hr 13 min 44 sec) 
Heartbeat CPU  0 instructions:  395000003 cycles:  358806517 heartbeat IPC: 1.04263 cumulative IPC: 0.95705 (Simulation time: 0 hr 13 min 46 sec) 
Heartbeat CPU  0 instructions:  396000000 cycles:  359751401 heartbeat IPC: 1.05833 cumulative IPC: 0.95736 (Simulation time: 0 hr 13 min 48 sec) 
Heartbeat CPU  0 instructions:  397000001 cycles:  360711533 heartbeat IPC: 1.04152 cumulative IPC: 0.95762 (Simulation time: 0 hr 13 min 50 sec) 
Heartbeat CPU  0 instructions:  398000001 cycles:  363111858 heartbeat IPC: 0.41661 cumulative IPC: 0.95346 (Simulation time: 0 hr 13 min 53 sec) 
Heartbeat CPU  0 instructions:  399000000 cycles:  364638289 heartbeat IPC: 0.65512 cumulative IPC: 0.95201 (Simulation time: 0 hr 13 min 55 sec) 
Heartbeat CPU  0 instructions:  400000000 cycles:  365625264 heartbeat IPC: 1.01320 cumulative IPC: 0.95220 (Simulation time: 0 hr 13 min 58 sec) 
Heartbeat CPU  0 instructions:  401000001 cycles:  366597315 heartbeat IPC: 1.02875 cumulative IPC: 0.95244 (Simulation time: 0 hr 14 min 0 sec) 
Heartbeat CPU  0 instructions:  402000003 cycles:  367571154 heartbeat IPC: 1.02687 cumulative IPC: 0.95267 (Simulation time: 0 hr 14 min 2 sec) 
Heartbeat CPU  0 instructions:  403000000 cycles:  368543292 heartbeat IPC: 1.02866 cumulative IPC: 0.95290 (Simulation time: 0 hr 14 min 4 sec) 
Heartbeat CPU  0 instructions:  404000000 cycles:  369519469 heartbeat IPC: 1.02440 cumulative IPC: 0.95312 (Simulation time: 0 hr 14 min 6 sec) 
Heartbeat CPU  0 instructions:  405000003 cycles:  370494619 heartbeat IPC: 1.02549 cumulative IPC: 0.95334 (Simulation time: 0 hr 14 min 8 sec) 
Heartbeat CPU  0 instructions:  406000003 cycles:  371470522 heartbeat IPC: 1.02469 cumulative IPC: 0.95356 (Simulation time: 0 hr 14 min 11 sec) 
Heartbeat CPU  0 instructions:  407000000 cycles:  372438897 heartbeat IPC: 1.03265 cumulative IPC: 0.95379 (Simulation time: 0 hr 14 min 13 sec) 
Heartbeat CPU  0 instructions:  408000000 cycles:  373409833 heartbeat IPC: 1.02993 cumulative IPC: 0.95402 (Simulation time: 0 hr 14 min 15 sec) 
Heartbeat CPU  0 instructions:  409000002 cycles:  374377958 heartbeat IPC: 1.03293 cumulative IPC: 0.95426 (Simulation time: 0 hr 14 min 17 sec) 
Heartbeat CPU  0 instructions:  410000002 cycles:  375346528 heartbeat IPC: 1.03245 cumulative IPC: 0.95449 (Simulation time: 0 hr 14 min 19 sec) 
Heartbeat CPU  0 instructions:  411000000 cycles:  376323827 heartbeat IPC: 1.02323 cumulative IPC: 0.95470 (Simulation time: 0 hr 14 min 22 sec) 
Heartbeat CPU  0 instructions:  412000000 cycles:  377298000 heartbeat IPC: 1.02651 cumulative IPC: 0.95491 (Simulation time: 0 hr 14 min 24 sec) 
Heartbeat CPU  0 instructions:  413000001 cycles:  378271199 heartbeat IPC: 1.02754 cumulative IPC: 0.95513 (Simulation time: 0 hr 14 min 26 sec) 
Heartbeat CPU  0 instructions:  414000000 cycles:  379244575 heartbeat IPC: 1.02735 cumulative IPC: 0.95534 (Simulation time: 0 hr 14 min 28 sec) 
Heartbeat CPU  0 instructions:  415000002 cycles:  380215361 heartbeat IPC: 1.03010 cumulative IPC: 0.95556 (Simulation time: 0 hr 14 min 30 sec) 
Heartbeat CPU  0 instructions:  416000000 cycles:  381187019 heartbeat IPC: 1.02917 cumulative IPC: 0.95578 (Simulation time: 0 hr 14 min 32 sec) 
Heartbeat CPU  0 instructions:  417000001 cycles:  382159575 heartbeat IPC: 1.02822 cumulative IPC: 0.95599 (Simulation time: 0 hr 14 min 35 sec) 
Heartbeat CPU  0 instructions:  418000002 cycles:  383132003 heartbeat IPC: 1.02835 cumulative IPC: 0.95620 (Simulation time: 0 hr 14 min 37 sec) 
Heartbeat CPU  0 instructions:  419000003 cycles:  384103875 heartbeat IPC: 1.02894 cumulative IPC: 0.95641 (Simulation time: 0 hr 14 min 39 sec) 
Heartbeat CPU  0 instructions:  420000000 cycles:  385081882 heartbeat IPC: 1.02248 cumulative IPC: 0.95661 (Simulation time: 0 hr 14 min 41 sec) 
Heartbeat CPU  0 instructions:  421000002 cycles:  386065741 heartbeat IPC: 1.01641 cumulative IPC: 0.95678 (Simulation time: 0 hr 14 min 43 sec) 
Heartbeat CPU  0 instructions:  422000000 cycles:  387062952 heartbeat IPC: 1.00279 cumulative IPC: 0.95692 (Simulation time: 0 hr 14 min 45 sec) 
Heartbeat CPU  0 instructions:  423000003 cycles:  388044507 heartbeat IPC: 1.01879 cumulative IPC: 0.95710 (Simulation time: 0 hr 14 min 48 sec) 
Heartbeat CPU  0 instructions:  424000000 cycles:  389031929 heartbeat IPC: 1.01274 cumulative IPC: 0.95726 (Simulation time: 0 hr 14 min 50 sec) 
Heartbeat CPU  0 instructions:  425000000 cycles:  390016954 heartbeat IPC: 1.01520 cumulative IPC: 0.95743 (Simulation time: 0 hr 14 min 52 sec) 
Heartbeat CPU  0 instructions:  426000000 cycles:  391012904 heartbeat IPC: 1.00407 cumulative IPC: 0.95757 (Simulation time: 0 hr 14 min 54 sec) 
Heartbeat CPU  0 instructions:  427000003 cycles:  391996400 heartbeat IPC: 1.01678 cumulative IPC: 0.95774 (Simulation time: 0 hr 14 min 56 sec) 
Heartbeat CPU  0 instructions:  428000000 cycles:  392991879 heartbeat IPC: 1.00454 cumulative IPC: 0.95787 (Simulation time: 0 hr 14 min 58 sec) 
Heartbeat CPU  0 instructions:  429000000 cycles:  393975116 heartbeat IPC: 1.01705 cumulative IPC: 0.95804 (Simulation time: 0 hr 15 min 1 sec) 
Heartbeat CPU  0 instructions:  430000003 cycles:  394957805 heartbeat IPC: 1.01762 cumulative IPC: 0.95821 (Simulation time: 0 hr 15 min 3 sec) 
Heartbeat CPU  0 instructions:  431000003 cycles:  395946695 heartbeat IPC: 1.01123 cumulative IPC: 0.95836 (Simulation time: 0 hr 15 min 5 sec) 
Heartbeat CPU  0 instructions:  432000000 cycles:  396928092 heartbeat IPC: 1.01895 cumulative IPC: 0.95854 (Simulation time: 0 hr 15 min 7 sec) 
Heartbeat CPU  0 instructions:  433000001 cycles:  397912864 heartbeat IPC: 1.01546 cumulative IPC: 0.95870 (Simulation time: 0 hr 15 min 9 sec) 
Heartbeat CPU  0 instructions:  434000003 cycles:  398895875 heartbeat IPC: 1.01728 cumulative IPC: 0.95886 (Simulation time: 0 hr 15 min 12 sec) 
Heartbeat CPU  0 instructions:  435000001 cycles:  399883739 heartbeat IPC: 1.01228 cumulative IPC: 0.95901 (Simulation time: 0 hr 15 min 14 sec) 
Heartbeat CPU  0 instructions:  436000000 cycles:  400860340 heartbeat IPC: 1.02396 cumulative IPC: 0.95919 (Simulation time: 0 hr 15 min 16 sec) 
Heartbeat CPU  0 instructions:  437000000 cycles:  401843232 heartbeat IPC: 1.01741 cumulative IPC: 0.95936 (Simulation time: 0 hr 15 min 18 sec) 
Heartbeat CPU  0 instructions:  438000001 cycles:  402816033 heartbeat IPC: 1.02796 cumulative IPC: 0.95955 (Simulation time: 0 hr 15 min 20 sec) 
Heartbeat CPU  0 instructions:  439000002 cycles:  403787179 heartbeat IPC: 1.02971 cumulative IPC: 0.95974 (Simulation time: 0 hr 15 min 22 sec) 
Heartbeat CPU  0 instructions:  440000000 cycles:  404763486 heartbeat IPC: 1.02427 cumulative IPC: 0.95992 (Simulation time: 0 hr 15 min 25 sec) 
Heartbeat CPU  0 instructions:  441000001 cycles:  405738389 heartbeat IPC: 1.02574 cumulative IPC: 0.96010 (Simulation time: 0 hr 15 min 27 sec) 
Heartbeat CPU  0 instructions:  442000001 cycles:  406711776 heartbeat IPC: 1.02734 cumulative IPC: 0.96028 (Simulation time: 0 hr 15 min 29 sec) 
Heartbeat CPU  0 instructions:  443000003 cycles:  407686424 heartbeat IPC: 1.02601 cumulative IPC: 0.96046 (Simulation time: 0 hr 15 min 31 sec) 
Heartbeat CPU  0 instructions:  444000000 cycles:  408659593 heartbeat IPC: 1.02757 cumulative IPC: 0.96064 (Simulation time: 0 hr 15 min 33 sec) 
Heartbeat CPU  0 instructions:  445000001 cycles:  409632766 heartbeat IPC: 1.02757 cumulative IPC: 0.96082 (Simulation time: 0 hr 15 min 36 sec) 
Heartbeat CPU  0 instructions:  446000001 cycles:  410606333 heartbeat IPC: 1.02715 cumulative IPC: 0.96100 (Simulation time: 0 hr 15 min 38 sec) 
Heartbeat CPU  0 instructions:  447000002 cycles:  411578220 heartbeat IPC: 1.02893 cumulative IPC: 0.96119 (Simulation time: 0 hr 15 min 40 sec) 
Heartbeat CPU  0 instructions:  448000000 cycles:  412554039 heartbeat IPC: 1.02478 cumulative IPC: 0.96136 (Simulation time: 0 hr 15 min 42 sec) 
Heartbeat CPU  0 instructions:  449000003 cycles:  413524429 heartbeat IPC: 1.03052 cumulative IPC: 0.96154 (Simulation time: 0 hr 15 min 44 sec) 
Heartbeat CPU  0 instructions:  450000002 cycles:  414498371 heartbeat IPC: 1.02675 cumulative IPC: 0.96172 (Simulation time: 0 hr 15 min 46 sec) 
Heartbeat CPU  0 instructions:  451000000 cycles:  415471571 heartbeat IPC: 1.02754 cumulative IPC: 0.96189 (Simulation time: 0 hr 15 min 49 sec) 
Heartbeat CPU  0 instructions:  452000000 cycles:  416443125 heartbeat IPC: 1.02928 cumulative IPC: 0.96207 (Simulation time: 0 hr 15 min 51 sec) 
Heartbeat CPU  0 instructions:  453000003 cycles:  417415888 heartbeat IPC: 1.02800 cumulative IPC: 0.96225 (Simulation time: 0 hr 15 min 53 sec) 
Heartbeat CPU  0 instructions:  454000000 cycles:  418392610 heartbeat IPC: 1.02383 cumulative IPC: 0.96241 (Simulation time: 0 hr 15 min 55 sec) 
Heartbeat CPU  0 instructions:  455000002 cycles:  419368439 heartbeat IPC: 1.02477 cumulative IPC: 0.96258 (Simulation time: 0 hr 15 min 57 sec) 
Heartbeat CPU  0 instructions:  456000000 cycles:  420338035 heartbeat IPC: 1.03136 cumulative IPC: 0.96276 (Simulation time: 0 hr 15 min 59 sec) 
Heartbeat CPU  0 instructions:  457000000 cycles:  421310969 heartbeat IPC: 1.02782 cumulative IPC: 0.96293 (Simulation time: 0 hr 16 min 2 sec) 
Heartbeat CPU  0 instructions:  458000002 cycles:  422286373 heartbeat IPC: 1.02522 cumulative IPC: 0.96309 (Simulation time: 0 hr 16 min 4 sec) 
Heartbeat CPU  0 instructions:  459000003 cycles:  423258771 heartbeat IPC: 1.02839 cumulative IPC: 0.96326 (Simulation time: 0 hr 16 min 6 sec) 
Heartbeat CPU  0 instructions:  460000000 cycles:  424721941 heartbeat IPC: 0.68345 cumulative IPC: 0.96217 (Simulation time: 0 hr 16 min 8 sec) 
Heartbeat CPU  0 instructions:  461000000 cycles:  426101945 heartbeat IPC: 0.72464 cumulative IPC: 0.96129 (Simulation time: 0 hr 16 min 10 sec) 
Heartbeat CPU  0 instructions:  462000000 cycles:  427176884 heartbeat IPC: 0.93029 cumulative IPC: 0.96120 (Simulation time: 0 hr 16 min 13 sec) 
Heartbeat CPU  0 instructions:  463000001 cycles:  428220156 heartbeat IPC: 0.95852 cumulative IPC: 0.96120 (Simulation time: 0 hr 16 min 15 sec) 
Heartbeat CPU  0 instructions:  464000000 cycles:  429336968 heartbeat IPC: 0.89540 cumulative IPC: 0.96100 (Simulation time: 0 hr 16 min 17 sec) 
Heartbeat CPU  0 instructions:  465000002 cycles:  430456074 heartbeat IPC: 0.89357 cumulative IPC: 0.96080 (Simulation time: 0 hr 16 min 19 sec) 
Heartbeat CPU  0 instructions:  466000000 cycles:  431589161 heartbeat IPC: 0.88254 cumulative IPC: 0.96057 (Simulation time: 0 hr 16 min 21 sec) 
Heartbeat CPU  0 instructions:  467000001 cycles:  432706550 heartbeat IPC: 0.89494 cumulative IPC: 0.96038 (Simulation time: 0 hr 16 min 23 sec) 
Heartbeat CPU  0 instructions:  468000000 cycles:  433824618 heartbeat IPC: 0.89440 cumulative IPC: 0.96019 (Simulation time: 0 hr 16 min 25 sec) 
Heartbeat CPU  0 instructions:  469000003 cycles:  435746302 heartbeat IPC: 0.52038 cumulative IPC: 0.95799 (Simulation time: 0 hr 16 min 28 sec) 
Heartbeat CPU  0 instructions:  470000001 cycles:  436911959 heartbeat IPC: 0.85788 cumulative IPC: 0.95769 (Simulation time: 0 hr 16 min 30 sec) 
Heartbeat CPU  0 instructions:  471000001 cycles:  437984087 heartbeat IPC: 0.93272 cumulative IPC: 0.95762 (Simulation time: 0 hr 16 min 32 sec) 
Heartbeat CPU  0 instructions:  472000000 cycles:  439005550 heartbeat IPC: 0.97899 cumulative IPC: 0.95768 (Simulation time: 0 hr 16 min 34 sec) 
Heartbeat CPU  0 instructions:  473000002 cycles:  440082147 heartbeat IPC: 0.92885 cumulative IPC: 0.95760 (Simulation time: 0 hr 16 min 36 sec) 
Heartbeat CPU  0 instructions:  474000001 cycles:  441140600 heartbeat IPC: 0.94477 cumulative IPC: 0.95756 (Simulation time: 0 hr 16 min 38 sec) 
Heartbeat CPU  0 instructions:  475000001 cycles:  442208620 heartbeat IPC: 0.93631 cumulative IPC: 0.95751 (Simulation time: 0 hr 16 min 40 sec) 
Heartbeat CPU  0 instructions:  476000000 cycles:  443236979 heartbeat IPC: 0.97242 cumulative IPC: 0.95755 (Simulation time: 0 hr 16 min 42 sec) 
Heartbeat CPU  0 instructions:  477000002 cycles:  444271572 heartbeat IPC: 0.96657 cumulative IPC: 0.95757 (Simulation time: 0 hr 16 min 45 sec) 
Heartbeat CPU  0 instructions:  478000000 cycles:  446144830 heartbeat IPC: 0.53383 cumulative IPC: 0.95556 (Simulation time: 0 hr 16 min 47 sec) 
Heartbeat CPU  0 instructions:  479000002 cycles:  447429363 heartbeat IPC: 0.77849 cumulative IPC: 0.95499 (Simulation time: 0 hr 16 min 49 sec) 
Heartbeat CPU  0 instructions:  480000000 cycles:  448591930 heartbeat IPC: 0.86016 cumulative IPC: 0.95471 (Simulation time: 0 hr 16 min 51 sec) 
Heartbeat CPU  0 instructions:  481000003 cycles:  449828691 heartbeat IPC: 0.80857 cumulative IPC: 0.95426 (Simulation time: 0 hr 16 min 53 sec) 
Heartbeat CPU  0 instructions:  482000003 cycles:  451065603 heartbeat IPC: 0.80846 cumulative IPC: 0.95381 (Simulation time: 0 hr 16 min 55 sec) 
Heartbeat CPU  0 instructions:  483000003 cycles:  452280478 heartbeat IPC: 0.82313 cumulative IPC: 0.95341 (Simulation time: 0 hr 16 min 58 sec) 
Heartbeat CPU  0 instructions:  484000000 cycles:  453492824 heartbeat IPC: 0.82484 cumulative IPC: 0.95303 (Simulation time: 0 hr 17 min 0 sec) 
Heartbeat CPU  0 instructions:  485000002 cycles:  454686034 heartbeat IPC: 0.83808 cumulative IPC: 0.95269 (Simulation time: 0 hr 17 min 2 sec) 
Heartbeat CPU  0 instructions:  486000000 cycles:  455828113 heartbeat IPC: 0.87559 cumulative IPC: 0.95247 (Simulation time: 0 hr 17 min 4 sec) 
Heartbeat CPU  0 instructions:  487000000 cycles:  457651519 heartbeat IPC: 0.54842 cumulative IPC: 0.95066 (Simulation time: 0 hr 17 min 7 sec) 
Heartbeat CPU  0 instructions:  488000000 cycles:  459028180 heartbeat IPC: 0.72640 cumulative IPC: 0.94990 (Simulation time: 0 hr 17 min 9 sec) 
Heartbeat CPU  0 instructions:  489000000 cycles:  460445833 heartbeat IPC: 0.70539 cumulative IPC: 0.94906 (Simulation time: 0 hr 17 min 12 sec) 
Heartbeat CPU  0 instructions:  490000003 cycles:  461840676 heartbeat IPC: 0.71693 cumulative IPC: 0.94827 (Simulation time: 0 hr 17 min 14 sec) 
Heartbeat CPU  0 instructions:  491000003 cycles:  463280268 heartbeat IPC: 0.69464 cumulative IPC: 0.94739 (Simulation time: 0 hr 17 min 17 sec) 
Heartbeat CPU  0 instructions:  492000000 cycles:  464689943 heartbeat IPC: 0.70938 cumulative IPC: 0.94658 (Simulation time: 0 hr 17 min 19 sec) 
Heartbeat CPU  0 instructions:  493000001 cycles:  466103374 heartbeat IPC: 0.70750 cumulative IPC: 0.94576 (Simulation time: 0 hr 17 min 22 sec) 
Heartbeat CPU  0 instructions:  494000000 cycles:  467504635 heartbeat IPC: 0.71364 cumulative IPC: 0.94498 (Simulation time: 0 hr 17 min 24 sec) 
Heartbeat CPU  0 instructions:  495000000 cycles:  468936539 heartbeat IPC: 0.69837 cumulative IPC: 0.94414 (Simulation time: 0 hr 17 min 27 sec) 
Heartbeat CPU  0 instructions:  496000000 cycles:  470346475 heartbeat IPC: 0.70925 cumulative IPC: 0.94335 (Simulation time: 0 hr 17 min 30 sec) 
Heartbeat CPU  0 instructions:  497000002 cycles:  471749201 heartbeat IPC: 0.71290 cumulative IPC: 0.94258 (Simulation time: 0 hr 17 min 32 sec) 
Heartbeat CPU  0 instructions:  498000001 cycles:  473152376 heartbeat IPC: 0.71267 cumulative IPC: 0.94182 (Simulation time: 0 hr 17 min 35 sec) 
Heartbeat CPU  0 instructions:  499000000 cycles:  474588679 heartbeat IPC: 0.69623 cumulative IPC: 0.94099 (Simulation time: 0 hr 17 min 37 sec) 
Heartbeat CPU  0 instructions:  500000000 cycles:  475986770 heartbeat IPC: 0.71526 cumulative IPC: 0.94025 (Simulation time: 0 hr 17 min 40 sec) 
Heartbeat CPU  0 instructions:  501000003 cycles:  477398865 heartbeat IPC: 0.70817 cumulative IPC: 0.93948 (Simulation time: 0 hr 17 min 42 sec) 
Heartbeat CPU  0 instructions:  502000002 cycles:  478807487 heartbeat IPC: 0.70991 cumulative IPC: 0.93872 (Simulation time: 0 hr 17 min 45 sec) 
Heartbeat CPU  0 instructions:  503000000 cycles:  480238622 heartbeat IPC: 0.69874 cumulative IPC: 0.93792 (Simulation time: 0 hr 17 min 47 sec) 
Heartbeat CPU  0 instructions:  504000000 cycles:  481633400 heartbeat IPC: 0.71696 cumulative IPC: 0.93721 (Simulation time: 0 hr 17 min 50 sec) 
Heartbeat CPU  0 instructions:  505000000 cycles:  483047370 heartbeat IPC: 0.70723 cumulative IPC: 0.93646 (Simulation time: 0 hr 17 min 52 sec) 
Heartbeat CPU  0 instructions:  506000003 cycles:  484459540 heartbeat IPC: 0.70813 cumulative IPC: 0.93571 (Simulation time: 0 hr 17 min 55 sec) 
Heartbeat CPU  0 instructions:  507000002 cycles:  485890259 heartbeat IPC: 0.69895 cumulative IPC: 0.93494 (Simulation time: 0 hr 17 min 57 sec) 
Heartbeat CPU  0 instructions:  508000000 cycles:  487292240 heartbeat IPC: 0.71328 cumulative IPC: 0.93422 (Simulation time: 0 hr 18 min 0 sec) 
Heartbeat CPU  0 instructions:  509000001 cycles:  488703269 heartbeat IPC: 0.70870 cumulative IPC: 0.93350 (Simulation time: 0 hr 18 min 2 sec) 
Heartbeat CPU  0 instructions:  510000000 cycles:  490110041 heartbeat IPC: 0.71085 cumulative IPC: 0.93279 (Simulation time: 0 hr 18 min 5 sec) 
Heartbeat CPU  0 instructions:  511000001 cycles:  491516078 heartbeat IPC: 0.71122 cumulative IPC: 0.93208 (Simulation time: 0 hr 18 min 7 sec) 
Heartbeat CPU  0 instructions:  512000000 cycles:  492936021 heartbeat IPC: 0.70425 cumulative IPC: 0.93135 (Simulation time: 0 hr 18 min 10 sec) 
Heartbeat CPU  0 instructions:  513000000 cycles:  494347192 heartbeat IPC: 0.70863 cumulative IPC: 0.93064 (Simulation time: 0 hr 18 min 12 sec) 
Heartbeat CPU  0 instructions:  514000000 cycles:  495764804 heartbeat IPC: 0.70541 cumulative IPC: 0.92992 (Simulation time: 0 hr 18 min 15 sec) 
Heartbeat CPU  0 instructions:  515000003 cycles:  497163682 heartbeat IPC: 0.71486 cumulative IPC: 0.92925 (Simulation time: 0 hr 18 min 17 sec) 
Heartbeat CPU  0 instructions:  516000000 cycles:  498594676 heartbeat IPC: 0.69881 cumulative IPC: 0.92851 (Simulation time: 0 hr 18 min 20 sec) 
Heartbeat CPU  0 instructions:  517000001 cycles:  499998766 heartbeat IPC: 0.71221 cumulative IPC: 0.92784 (Simulation time: 0 hr 18 min 22 sec) 
Heartbeat CPU  0 instructions:  518000001 cycles:  501412338 heartbeat IPC: 0.70743 cumulative IPC: 0.92715 (Simulation time: 0 hr 18 min 25 sec) 
Heartbeat CPU  0 instructions:  519000000 cycles:  502835494 heartbeat IPC: 0.70266 cumulative IPC: 0.92644 (Simulation time: 0 hr 18 min 28 sec) 
Heartbeat CPU  0 instructions:  520000000 cycles:  504268306 heartbeat IPC: 0.69793 cumulative IPC: 0.92572 (Simulation time: 0 hr 18 min 30 sec) 
Heartbeat CPU  0 instructions:  521000002 cycles:  505671794 heartbeat IPC: 0.71251 cumulative IPC: 0.92506 (Simulation time: 0 hr 18 min 33 sec) 
Heartbeat CPU  0 instructions:  522000002 cycles:  507081362 heartbeat IPC: 0.70944 cumulative IPC: 0.92439 (Simulation time: 0 hr 18 min 35 sec) 
Heartbeat CPU  0 instructions:  523000001 cycles:  508491967 heartbeat IPC: 0.70891 cumulative IPC: 0.92373 (Simulation time: 0 hr 18 min 38 sec) 
Heartbeat CPU  0 instructions:  524000000 cycles:  510071581 heartbeat IPC: 0.63307 cumulative IPC: 0.92273 (Simulation time: 0 hr 18 min 40 sec) 
Heartbeat CPU  0 instructions:  525000000 cycles:  511294051 heartbeat IPC: 0.81802 cumulative IPC: 0.92245 (Simulation time: 0 hr 18 min 43 sec) 
Heartbeat CPU  0 instructions:  526000001 cycles:  512298828 heartbeat IPC: 0.99525 cumulative IPC: 0.92261 (Simulation time: 0 hr 18 min 45 sec) 
Heartbeat CPU  0 instructions:  527000001 cycles:  513327956 heartbeat IPC: 0.97170 cumulative IPC: 0.92272 (Simulation time: 0 hr 18 min 47 sec) 
Heartbeat CPU  0 instructions:  528000000 cycles:  514361529 heartbeat IPC: 0.96752 cumulative IPC: 0.92282 (Simulation time: 0 hr 18 min 49 sec) 
Heartbeat CPU  0 instructions:  529000003 cycles:  515395734 heartbeat IPC: 0.96693 cumulative IPC: 0.92292 (Simulation time: 0 hr 18 min 51 sec) 
Heartbeat CPU  0 instructions:  530000002 cycles:  516412787 heartbeat IPC: 0.98323 cumulative IPC: 0.92305 (Simulation time: 0 hr 18 min 53 sec) 
Heartbeat CPU  0 instructions:  531000001 cycles:  517431581 heartbeat IPC: 0.98155 cumulative IPC: 0.92318 (Simulation time: 0 hr 18 min 56 sec) 
Heartbeat CPU  0 instructions:  532000000 cycles:  518442572 heartbeat IPC: 0.98913 cumulative IPC: 0.92332 (Simulation time: 0 hr 18 min 58 sec) 
Heartbeat CPU  0 instructions:  533000003 cycles:  519586933 heartbeat IPC: 0.87385 cumulative IPC: 0.92320 (Simulation time: 0 hr 19 min 0 sec) 
Heartbeat CPU  0 instructions:  534000001 cycles:  520466024 heartbeat IPC: 1.13754 cumulative IPC: 0.92360 (Simulation time: 0 hr 19 min 2 sec) 
Heartbeat CPU  0 instructions:  535000000 cycles:  521458608 heartbeat IPC: 1.00747 cumulative IPC: 0.92378 (Simulation time: 0 hr 19 min 4 sec) 
Heartbeat CPU  0 instructions:  536000000 cycles:  522492598 heartbeat IPC: 0.96713 cumulative IPC: 0.92387 (Simulation time: 0 hr 19 min 6 sec) 
Heartbeat CPU  0 instructions:  537000003 cycles:  523501303 heartbeat IPC: 0.99137 cumulative IPC: 0.92402 (Simulation time: 0 hr 19 min 8 sec) 
Heartbeat CPU  0 instructions:  538000003 cycles:  524505670 heartbeat IPC: 0.99565 cumulative IPC: 0.92417 (Simulation time: 0 hr 19 min 11 sec) 
Heartbeat CPU  0 instructions:  539000001 cycles:  525497095 heartbeat IPC: 1.00865 cumulative IPC: 0.92435 (Simulation time: 0 hr 19 min 13 sec) 
Heartbeat CPU  0 instructions:  540000000 cycles:  526502514 heartbeat IPC: 0.99461 cumulative IPC: 0.92449 (Simulation time: 0 hr 19 min 15 sec) 
Heartbeat CPU  0 instructions:  541000003 cycles:  527495407 heartbeat IPC: 1.00716 cumulative IPC: 0.92467 (Simulation time: 0 hr 19 min 17 sec) 
Heartbeat CPU  0 instructions:  542000000 cycles:  528493751 heartbeat IPC: 1.00166 cumulative IPC: 0.92483 (Simulation time: 0 hr 19 min 19 sec) 
Heartbeat CPU  0 instructions:  543000000 cycles:  529421591 heartbeat IPC: 1.07777 cumulative IPC: 0.92512 (Simulation time: 0 hr 19 min 21 sec) 
Heartbeat CPU  0 instructions:  544000000 cycles:  530230593 heartbeat IPC: 1.23609 cumulative IPC: 0.92565 (Simulation time: 0 hr 19 min 23 sec) 
Heartbeat CPU  0 instructions:  545000003 cycles:  531198215 heartbeat IPC: 1.03346 cumulative IPC: 0.92586 (Simulation time: 0 hr 19 min 25 sec) 
Heartbeat CPU  0 instructions:  546000002 cycles:  532196937 heartbeat IPC: 1.00128 cumulative IPC: 0.92602 (Simulation time: 0 hr 19 min 27 sec) 
Heartbeat CPU  0 instructions:  547000002 cycles:  533192230 heartbeat IPC: 1.00473 cumulative IPC: 0.92618 (Simulation time: 0 hr 19 min 30 sec) 
Heartbeat CPU  0 instructions:  548000000 cycles:  534180666 heartbeat IPC: 1.01170 cumulative IPC: 0.92636 (Simulation time: 0 hr 19 min 32 sec) 
Heartbeat CPU  0 instructions:  549000003 cycles:  535184941 heartbeat IPC: 0.99575 cumulative IPC: 0.92650 (Simulation time: 0 hr 19 min 34 sec) 
Heartbeat CPU  0 instructions:  550000000 cycles:  536175372 heartbeat IPC: 1.00966 cumulative IPC: 0.92667 (Simulation time: 0 hr 19 min 36 sec) 
Heartbeat CPU  0 instructions:  551000000 cycles:  537167167 heartbeat IPC: 1.00827 cumulative IPC: 0.92684 (Simulation time: 0 hr 19 min 38 sec) 
Heartbeat CPU  0 instructions:  552000000 cycles:  538150484 heartbeat IPC: 1.01697 cumulative IPC: 0.92702 (Simulation time: 0 hr 19 min 40 sec) 
Heartbeat CPU  0 instructions:  553000000 cycles:  539145026 heartbeat IPC: 1.00549 cumulative IPC: 0.92718 (Simulation time: 0 hr 19 min 43 sec) 
Heartbeat CPU  0 instructions:  554000000 cycles:  539985434 heartbeat IPC: 1.18990 cumulative IPC: 0.92763 (Simulation time: 0 hr 19 min 45 sec) 
Heartbeat CPU  0 instructions:  555000002 cycles:  540902456 heartbeat IPC: 1.09049 cumulative IPC: 0.92793 (Simulation time: 0 hr 19 min 47 sec) 
Heartbeat CPU  0 instructions:  556000000 cycles:  541884334 heartbeat IPC: 1.01845 cumulative IPC: 0.92812 (Simulation time: 0 hr 19 min 49 sec) 
Heartbeat CPU  0 instructions:  557000000 cycles:  542870893 heartbeat IPC: 1.01362 cumulative IPC: 0.92829 (Simulation time: 0 hr 19 min 51 sec) 
Heartbeat CPU  0 instructions:  558000000 cycles:  543864810 heartbeat IPC: 1.00612 cumulative IPC: 0.92844 (Simulation time: 0 hr 19 min 53 sec) 
Heartbeat CPU  0 instructions:  559000000 cycles:  544868684 heartbeat IPC: 0.99614 cumulative IPC: 0.92858 (Simulation time: 0 hr 19 min 55 sec) 
Heartbeat CPU  0 instructions:  560000000 cycles:  545872640 heartbeat IPC: 0.99606 cumulative IPC: 0.92872 (Simulation time: 0 hr 19 min 57 sec) 
Heartbeat CPU  0 instructions:  561000001 cycles:  546859976 heartbeat IPC: 1.01283 cumulative IPC: 0.92889 (Simulation time: 0 hr 20 min 0 sec) 
Heartbeat CPU  0 instructions:  562000003 cycles:  547861191 heartbeat IPC: 0.99879 cumulative IPC: 0.92903 (Simulation time: 0 hr 20 min 2 sec) 
Heartbeat CPU  0 instructions:  563000000 cycles:  548857769 heartbeat IPC: 1.00343 cumulative IPC: 0.92917 (Simulation time: 0 hr 20 min 4 sec) 
Heartbeat CPU  0 instructions:  564000000 cycles:  549768796 heartbeat IPC: 1.09766 cumulative IPC: 0.92948 (Simulation time: 0 hr 20 min 6 sec) 
Heartbeat CPU  0 instructions:  565000003 cycles:  550588311 heartbeat IPC: 1.22024 cumulative IPC: 0.92996 (Simulation time: 0 hr 20 min 8 sec) 
Heartbeat CPU  0 instructions:  566000003 cycles:  551630414 heartbeat IPC: 0.95960 cumulative IPC: 0.93002 (Simulation time: 0 hr 20 min 10 sec) 
Heartbeat CPU  0 instructions:  567000001 cycles:  552622376 heartbeat IPC: 1.00810 cumulative IPC: 0.93017 (Simulation time: 0 hr 20 min 12 sec) 
Heartbeat CPU  0 instructions:  568000000 cycles:  553622225 heartbeat IPC: 1.00015 cumulative IPC: 0.93031 (Simulation time: 0 hr 20 min 14 sec) 
Heartbeat CPU  0 instructions:  569000002 cycles:  554623246 heartbeat IPC: 0.99898 cumulative IPC: 0.93045 (Simulation time: 0 hr 20 min 17 sec) 
Heartbeat CPU  0 instructions:  570000000 cycles:  555634131 heartbeat IPC: 0.98923 cumulative IPC: 0.93057 (Simulation time: 0 hr 20 min 19 sec) 
Heartbeat CPU  0 instructions:  571000002 cycles:  556632950 heartbeat IPC: 1.00118 cumulative IPC: 0.93071 (Simulation time: 0 hr 20 min 21 sec) 
Heartbeat CPU  0 instructions:  572000000 cycles:  557624051 heartbeat IPC: 1.00898 cumulative IPC: 0.93086 (Simulation time: 0 hr 20 min 23 sec) 
Heartbeat CPU  0 instructions:  573000001 cycles:  558613204 heartbeat IPC: 1.01097 cumulative IPC: 0.93102 (Simulation time: 0 hr 20 min 25 sec) 
Heartbeat CPU  0 instructions:  574000003 cycles:  559606994 heartbeat IPC: 1.00625 cumulative IPC: 0.93116 (Simulation time: 0 hr 20 min 27 sec) 
Heartbeat CPU  0 instructions:  575000000 cycles:  560413996 heartbeat IPC: 1.23915 cumulative IPC: 0.93165 (Simulation time: 0 hr 20 min 29 sec) 
Heartbeat CPU  0 instructions:  576000000 cycles:  561376049 heartbeat IPC: 1.03944 cumulative IPC: 0.93185 (Simulation time: 0 hr 20 min 31 sec) 
Heartbeat CPU  0 instructions:  577000000 cycles:  562377922 heartbeat IPC: 0.99813 cumulative IPC: 0.93198 (Simulation time: 0 hr 20 min 34 sec) 
Heartbeat CPU  0 instructions:  578000002 cycles:  563389556 heartbeat IPC: 0.98850 cumulative IPC: 0.93209 (Simulation time: 0 hr 20 min 36 sec) 
Heartbeat CPU  0 instructions:  579000001 cycles:  564384963 heartbeat IPC: 1.00461 cumulative IPC: 0.93224 (Simulation time: 0 hr 20 min 38 sec) 
Heartbeat CPU  0 instructions:  580000000 cycles:  565401953 heartbeat IPC: 0.98329 cumulative IPC: 0.93234 (Simulation time: 0 hr 20 min 40 sec) 
Heartbeat CPU  0 instructions:  581000002 cycles:  566414871 heartbeat IPC: 0.98725 cumulative IPC: 0.93244 (Simulation time: 0 hr 20 min 42 sec) 
Heartbeat CPU  0 instructions:  582000000 cycles:  567401575 heartbeat IPC: 1.01347 cumulative IPC: 0.93260 (Simulation time: 0 hr 20 min 44 sec) 
Heartbeat CPU  0 instructions:  583000003 cycles:  568395079 heartbeat IPC: 1.00654 cumulative IPC: 0.93274 (Simulation time: 0 hr 20 min 47 sec) 
Heartbeat CPU  0 instructions:  584000000 cycles:  569389203 heartbeat IPC: 1.00591 cumulative IPC: 0.93288 (Simulation time: 0 hr 20 min 49 sec) 
Heartbeat CPU  0 instructions:  585000002 cycles:  570277146 heartbeat IPC: 1.12620 cumulative IPC: 0.93321 (Simulation time: 0 hr 20 min 51 sec) 
Heartbeat CPU  0 instructions:  586000003 cycles:  571086614 heartbeat IPC: 1.23538 cumulative IPC: 0.93368 (Simulation time: 0 hr 20 min 53 sec) 
Heartbeat CPU  0 instructions:  587000001 cycles:  572157341 heartbeat IPC: 0.93394 cumulative IPC: 0.93368 (Simulation time: 0 hr 20 min 55 sec) 
Heartbeat CPU  0 instructions:  588000000 cycles:  573146398 heartbeat IPC: 1.01106 cumulative IPC: 0.93383 (Simulation time: 0 hr 20 min 57 sec) 
Heartbeat CPU  0 instructions:  589000002 cycles:  574154800 heartbeat IPC: 0.99167 cumulative IPC: 0.93394 (Simulation time: 0 hr 20 min 59 sec) 
Heartbeat CPU  0 instructions:  590000001 cycles:  575167913 heartbeat IPC: 0.98706 cumulative IPC: 0.93404 (Simulation time: 0 hr 21 min 1 sec) 
Heartbeat CPU  0 instructions:  591000002 cycles:  576180374 heartbeat IPC: 0.98769 cumulative IPC: 0.93415 (Simulation time: 0 hr 21 min 4 sec) 
Heartbeat CPU  0 instructions:  592000000 cycles:  577172116 heartbeat IPC: 1.00832 cumulative IPC: 0.93429 (Simulation time: 0 hr 21 min 6 sec) 
Heartbeat CPU  0 instructions:  593000003 cycles:  578161462 heartbeat IPC: 1.01077 cumulative IPC: 0.93443 (Simulation time: 0 hr 21 min 8 sec) 
Heartbeat CPU  0 instructions:  594000000 cycles:  579153854 heartbeat IPC: 1.00766 cumulative IPC: 0.93457 (Simulation time: 0 hr 21 min 10 sec) 
Heartbeat CPU  0 instructions:  595000003 cycles:  580126090 heartbeat IPC: 1.02856 cumulative IPC: 0.93474 (Simulation time: 0 hr 21 min 12 sec) 
Heartbeat CPU  0 instructions:  596000000 cycles:  580936259 heartbeat IPC: 1.23431 cumulative IPC: 0.93520 (Simulation time: 0 hr 21 min 14 sec) 
Heartbeat CPU  0 instructions:  597000001 cycles:  581915585 heartbeat IPC: 1.02111 cumulative IPC: 0.93535 (Simulation time: 0 hr 21 min 16 sec) 
Heartbeat CPU  0 instructions:  598000002 cycles:  582919604 heartbeat IPC: 0.99600 cumulative IPC: 0.93547 (Simulation time: 0 hr 21 min 18 sec) 
Heartbeat CPU  0 instructions:  599000000 cycles:  583919757 heartbeat IPC: 0.99985 cumulative IPC: 0.93559 (Simulation time: 0 hr 21 min 21 sec) 
Heartbeat CPU  0 instructions:  600000000 cycles:  584929048 heartbeat IPC: 0.99079 cumulative IPC: 0.93569 (Simulation time: 0 hr 21 min 23 sec) 
Finished CPU 0 instructions: 500000001 cycles: 534362807 cumulative IPC: 0.93569 (Simulation time: 0 hr 21 min 23 sec) 

ChampSim completed all CPUs

[ROI Statistics]
Core_0_instructions 500000001
Core_0_cycles 534362807
Core_0_IPC 0.93569

Core_0_branch_prediction_accuracy 99.14585
Core_0_branch_MPKI 0.18961
Core_0_average_ROB_occupancy_at_mispredict 243.85943

Core_0_L1D_total_access 146501067
Core_0_L1D_total_hit 141650074
Core_0_L1D_total_miss 4850993
Core_0_L1D_loads 135650073
Core_0_L1D_load_hit 132189984
Core_0_L1D_load_miss 3460089
Core_0_L1D_RFOs 10850994
Core_0_L1D_RFO_hit 9460090
Core_0_L1D_RFO_miss 1390904
Core_0_L1D_prefetches 0
Core_0_L1D_prefetch_hit 0
Core_0_L1D_prefetch_miss 0
Core_0_L1D_writebacks 0
Core_0_L1D_writeback_hit 0
Core_0_L1D_writeback_miss 0
Core_0_L1D_prefetch_requested 0
Core_0_L1D_prefetch_dropped 0
Core_0_L1D_prefetch_issued 0
Core_0_L1D_prefetch_filled 0
Core_0_L1D_prefetch_useful 0
Core_0_L1D_prefetch_useless 0
Core_0_L1D_prefetch_late 0
Core_0_L1D_average_miss_latency 146.13149

Core_0_L1D_rq_access 196253946
Core_0_L1D_rq_forward 0
Core_0_L1D_rq_merged 59755222
Core_0_L1D_rq_to_cache 136498724
Core_0_L1D_rq_full 0

Core_0_L1D_wq_access 15647860
Core_0_L1D_wq_forward 0
Core_0_L1D_wq_merged 1
Core_0_L1D_wq_to_cache 15647859
Core_0_L1D_wq_full 1480657

Core_0_L1D_pq_access 0
Core_0_L1D_pq_forward 0
Core_0_L1D_pq_merged 0
Core_0_L1D_pq_to_cache 0
Core_0_L1D_pq_full 0

Core_0_L1D_acc_epochs 565545
Core_0_L1D_acc_level_0 565545
Core_0_L1D_acc_level_1 0
Core_0_L1D_acc_level_2 0
Core_0_L1D_acc_level_3 0
Core_0_L1D_acc_level_4 0
Core_0_L1D_acc_level_5 0
Core_0_L1D_acc_level_6 0
Core_0_L1D_acc_level_7 0
Core_0_L1D_acc_level_8 0
Core_0_L1D_acc_level_9 0

Core_0_L1I_total_access 116434839
Core_0_L1I_total_hit 116434463
Core_0_L1I_total_miss 376
Core_0_L1I_loads 116434839
Core_0_L1I_load_hit 116434463
Core_0_L1I_load_miss 376
Core_0_L1I_RFOs 0
Core_0_L1I_RFO_hit 0
Core_0_L1I_RFO_miss 0
Core_0_L1I_prefetches 0
Core_0_L1I_prefetch_hit 0
Core_0_L1I_prefetch_miss 0
Core_0_L1I_writebacks 0
Core_0_L1I_writeback_hit 0
Core_0_L1I_writeback_miss 0
Core_0_L1I_prefetch_requested 0
Core_0_L1I_prefetch_dropped 0
Core_0_L1I_prefetch_issued 0
Core_0_L1I_prefetch_filled 0
Core_0_L1I_prefetch_useful 0
Core_0_L1I_prefetch_useless 0
Core_0_L1I_prefetch_late 0
Core_0_L1I_average_miss_latency 575.60372

Core_0_L1I_rq_access 500000000
Core_0_L1I_rq_forward 0
Core_0_L1I_rq_merged 383564093
Core_0_L1I_rq_to_cache 116435907
Core_0_L1I_rq_full 0

Core_0_L1I_wq_access 0
Core_0_L1I_wq_forward 0
Core_0_L1I_wq_merged 0
Core_0_L1I_wq_to_cache 0
Core_0_L1I_wq_full 0

Core_0_L1I_pq_access 0
Core_0_L1I_pq_forward 0
Core_0_L1I_pq_merged 0
Core_0_L1I_pq_to_cache 0
Core_0_L1I_pq_full 0

Core_0_L1I_acc_epochs 565545
Core_0_L1I_acc_level_0 565545
Core_0_L1I_acc_level_1 0
Core_0_L1I_acc_level_2 0
Core_0_L1I_acc_level_3 0
Core_0_L1I_acc_level_4 0
Core_0_L1I_acc_level_5 0
Core_0_L1I_acc_level_6 0
Core_0_L1I_acc_level_7 0
Core_0_L1I_acc_level_8 0
Core_0_L1I_acc_level_9 0

Core_0_L2C_total_access 8954679
Core_0_L2C_total_hit 5277895
Core_0_L2C_total_miss 3676784
Core_0_L2C_loads 3460433
Core_0_L2C_load_hit 3221636
Core_0_L2C_load_miss 238797
Core_0_L2C_RFOs 1390872
Core_0_L2C_RFO_hit 379675
Core_0_L2C_RFO_miss 1011197
Core_0_L2C_prefetches 2444665
Core_0_L2C_prefetch_hit 18505
Core_0_L2C_prefetch_miss 2426160
Core_0_L2C_writebacks 1658709
Core_0_L2C_writeback_hit 1658079
Core_0_L2C_writeback_miss 630
Core_0_L2C_prefetch_requested 3329546
Core_0_L2C_prefetch_dropped 0
Core_0_L2C_prefetch_issued 3329546
Core_0_L2C_prefetch_filled 3173983
Core_0_L2C_prefetch_useful 3139963
Core_0_L2C_prefetch_useless 33486
Core_0_L2C_prefetch_late 7545
Core_0_L2C_average_miss_latency 872.71732

Core_0_L2C_rq_access 4851369
Core_0_L2C_rq_forward 0
Core_0_L2C_rq_merged 0
Core_0_L2C_rq_to_cache 4851305
Core_0_L2C_rq_full 0

Core_0_L2C_wq_access 1658709
Core_0_L2C_wq_forward 64
Core_0_L2C_wq_merged 0
Core_0_L2C_wq_to_cache 1658709
Core_0_L2C_wq_full 0

Core_0_L2C_pq_access 3329546
Core_0_L2C_pq_forward 0
Core_0_L2C_pq_merged 0
Core_0_L2C_pq_to_cache 3329546
Core_0_L2C_pq_full 0

Core_0_L2C_acc_epochs 565545
Core_0_L2C_acc_level_0 295254
Core_0_L2C_acc_level_1 64394
Core_0_L2C_acc_level_2 39967
Core_0_L2C_acc_level_3 25644
Core_0_L2C_acc_level_4 20472
Core_0_L2C_acc_level_5 22553
Core_0_L2C_acc_level_6 11647
Core_0_L2C_acc_level_7 11248
Core_0_L2C_acc_level_8 9451
Core_0_L2C_acc_level_9 64915

Core_0_LLC_total_access 4824441
Core_0_LLC_total_hit 546161
Core_0_LLC_total_miss 4278280
Core_0_LLC_loads 231367
Core_0_LLC_load_hit 28913
Core_0_LLC_load_miss 202454
Core_0_LLC_RFOs 1011197
Core_0_LLC_RFO_hit 61649
Core_0_LLC_RFO_miss 949548
Core_0_LLC_prefetches 2472020
Core_0_LLC_prefetch_hit 118914
Core_0_LLC_prefetch_miss 2353106
Core_0_LLC_writebacks 1109857
Core_0_LLC_writeback_hit 336685
Core_0_LLC_writeback_miss 773172
Core_0_LLC_prefetch_requested 0
Core_0_LLC_prefetch_dropped 0
Core_0_LLC_prefetch_issued 0
Core_0_LLC_prefetch_filled 2992746
Core_0_LLC_prefetch_useful 52253
Core_0_LLC_prefetch_useless 2928325
Core_0_LLC_prefetch_late 203
Core_0_LLC_average_miss_latency 734.29266

Core_0_LLC_rq_access 1242564
Core_0_LLC_rq_forward 0
Core_0_LLC_rq_merged 0
Core_0_LLC_rq_to_cache 1242564
Core_0_LLC_rq_full 0

Core_0_LLC_wq_access 1109857
Core_0_LLC_wq_forward 0
Core_0_LLC_wq_merged 0
Core_0_LLC_wq_to_cache 1109857
Core_0_LLC_wq_full 0

Core_0_LLC_pq_access 3271808
Core_0_LLC_pq_forward 0
Core_0_LLC_pq_merged 0
Core_0_LLC_pq_to_cache 3271808
Core_0_LLC_pq_full 0

Core_0_LLC_acc_epochs 571220
Core_0_LLC_acc_level_0 559839
Core_0_LLC_acc_level_1 3639
Core_0_LLC_acc_level_2 2106
Core_0_LLC_acc_level_3 1371
Core_0_LLC_acc_level_4 890
Core_0_LLC_acc_level_5 857
Core_0_LLC_acc_level_6 487
Core_0_LLC_acc_level_7 434
Core_0_LLC_acc_level_8 287
Core_0_LLC_acc_level_9 1310

Core_0_major_page_fault 0
Core_0_minor_page_fault 19121

[Bingo] PHT Access: 147623
[Bingo] PHT Hit PC+Addr: 3723
[Bingo] PHT Hit PC+Offs: 134579
[Bingo] PHT Miss: 9321
[Bingo] Prefetch PC+Addr: 0
[Bingo] Prefetch PC+Offs: 0
[Bingo] Useful PC+Addr: 0
[Bingo] Useful PC+Offs: 0
[Bingo] Useless PC+Addr: 0
[Bingo] Useless PC+Offs: 0
[Bingo] L1 Prefetch per Region: 0.00000
[Bingo] L2 Prefetch per Region: 24.66054
[Bingo] L3 Prefetch per Region: 0.69556
[Bingo] No Prefetch per Region: 6.64390
[Bingo] Number of Voters Mean: 13.80858
[Bingo] Number of Voters SD: 4.07963

Channel_0_RQ_row_buffer_hit 1965090
Channel_0_RQ_row_buffer_miss 1539984
Channel_0_WQ_row_buffer_hit 458718
Channel_0_WQ_row_buffer_miss 592358
Channel_0_WQ_full 4409
Channel_0_dbus_congested 3844788

avg_congested_cycle 49

DRAM_bw_pochs 2284880
DRAM_bw_level_0 1545849
DRAM_bw_level_1 230317
DRAM_bw_level_2 101875
DRAM_bw_level_3 406839
