*************************************************
   ChampSim Multicore Out-of-Order Simulator
   Last compiled: Dec 11 2024 17:59:53
*************************************************
parsing config file: /home/functionmain/桌面/Pythia/config/mlop.ini

trace_0 /home/functionmain/桌面/Pythia/traces/437.leslie3d-149B.champsimtrace.xz
adding L2C_PREFETCHER: MLOP
Initialize SHIP state
warmup_instructions 100000000
simulation_instructions 500000000
champsim_seed 224
measure_ipc 0
measure_ipc_epoch 1000
measure_dram_bw 1
measure_dram_bw_epoch 256
measure_cache_acc 1
measure_cache_acc_epoch 1024
l1d_perfect 0
l2c_perfect 0
llc_perfect 0
l1d_semi_perfect 0
l2c_semi_perfect 0
llc_semi_perfect 0
semi_perfect_cache_page_buffer_size 64

num_cpus 1
cpu_freq 4000
dram_io_freq 9600
page_size 4096
block_size 64
max_read_per_cycle 8
max_fill_per_cycle 1
dram_channels 1
log2_dram_channels 0
dram_ranks 1
dram_banks 8
dram_rows 65536
dram_columns 128
dram_row_size 8
dram_size 4096
dram_pages 1048576

fetch_width 6
decode_width 6
exec_width 4
lq_width 2
sq_width 2
retire_width 4
scheduler_size 128
branch_mispredict_penalty 20
rob_size 256
lq_size 72
sq_size 56
num_instr_destinations_sparc 4
num_instr_destinations 2
num_instr_sources 4

itlb_set 16
itlb_way 8
itlb_rq_size 16
itlb_wq_size 16
itlb_pq_size 0
itlb_mshr_size 8
itlb_latency 1

dtlb_set 16
dtlb_way 4
dtlb_rq_size 16
dtlb_wq_size 16
dtlb_pq_size 0
dtlb_mshr_size 8
dtlb_latency 1

stlb_set 128
stlb_way 12
stlb_rq_size 32
stlb_wq_size 32
stlb_pq_size 0
stlb_mshr_size 16
stlb_latency 8

l1i_size 32
l1i_set 64
l1i_way 8
l1i_rq_size 64
l1i_wq_size 64
l1i_pq_size 8
l1i_mshr_size 8
l1i_latency 1

l1d_size 32
l1d_set 64
l1d_way 8
l1d_rq_size 64
l1d_wq_size 64
l1d_pq_size 8
l1d_mshr_size 16
l1d_latency 4

l2c_size 256
l2c_set 512
l2c_way 8
l2c_rq_size 32
l2c_wq_size 32
l2c_pq_size 32
l2c_mshr_size 32
l2c_latency 10

llc_size 2048
llc_set 2048
llc_way 16
llc_rq_size 32
llc_wq_size 32
llc_pq_size 32
llc_mshr_size 64
llc_latency 20

dram_channel_width 8
dram_wq_size 64
dram_rq_size 64
tRP 15
tRCD 15
tCAS 12.5
dram_dbus_turn_around_time 30
dram_write_high_wm 56
dram_write_low_wm 48
min_dram_writes_per_switch 16
dram_mtps 9600
dram_dbus_return_time 3

mlop_pref_degree 16
mlop_num_updates 500
mlop_l1d_thresh 2
mlop_l2c_thresh 0.75
mlop_llc_thresh 0.3
mlop_debug_level 0
mlop_blocks_in_cache 4096
mlop_blocks_in_zone 64
mlop_amt_size 2048
mlop_PF_DEGREE 16
mlop_NUM_UPDATES 500
mlop_L1D_THRESH 1000
mlop_L2C_THRESH 375
mlop_LLC_THRESH 150
mlop_ORIGIN 63
mlop_MAX_OFFSET 63
mlop_MIN_OFFSET -63
mlop_ORIGIN 63
mlop_NUM_OFFSETS 127


Heartbeat CPU  0 instructions:    1000002 cycles:     502917 heartbeat IPC: 1.98840 cumulative IPC: 1.98840 (Simulation time: 0 hr 0 min 1 sec) 
Heartbeat CPU  0 instructions:    2000001 cycles:     991178 heartbeat IPC: 2.04808 cumulative IPC: 2.01780 (Simulation time: 0 hr 0 min 3 sec) 
Heartbeat CPU  0 instructions:    3000003 cycles:    1493319 heartbeat IPC: 1.99148 cumulative IPC: 2.00895 (Simulation time: 0 hr 0 min 5 sec) 
Heartbeat CPU  0 instructions:    4000000 cycles:    1995187 heartbeat IPC: 1.99255 cumulative IPC: 2.00482 (Simulation time: 0 hr 0 min 7 sec) 
Heartbeat CPU  0 instructions:    5000000 cycles:    2497528 heartbeat IPC: 1.99068 cumulative IPC: 2.00198 (Simulation time: 0 hr 0 min 8 sec) 
Heartbeat CPU  0 instructions:    6000001 cycles:    2997467 heartbeat IPC: 2.00025 cumulative IPC: 2.00169 (Simulation time: 0 hr 0 min 10 sec) 
Heartbeat CPU  0 instructions:    7000000 cycles:    3487670 heartbeat IPC: 2.03997 cumulative IPC: 2.00707 (Simulation time: 0 hr 0 min 12 sec) 
Heartbeat CPU  0 instructions:    8000000 cycles:    3990780 heartbeat IPC: 1.98764 cumulative IPC: 2.00462 (Simulation time: 0 hr 0 min 14 sec) 
Heartbeat CPU  0 instructions:    9000002 cycles:    4492720 heartbeat IPC: 1.99227 cumulative IPC: 2.00324 (Simulation time: 0 hr 0 min 15 sec) 
Heartbeat CPU  0 instructions:   10000000 cycles:    4994706 heartbeat IPC: 1.99208 cumulative IPC: 2.00212 (Simulation time: 0 hr 0 min 17 sec) 
Heartbeat CPU  0 instructions:   11000002 cycles:    5485785 heartbeat IPC: 2.03634 cumulative IPC: 2.00518 (Simulation time: 0 hr 0 min 19 sec) 
Heartbeat CPU  0 instructions:   12000000 cycles:    5984786 heartbeat IPC: 2.00400 cumulative IPC: 2.00508 (Simulation time: 0 hr 0 min 21 sec) 
Heartbeat CPU  0 instructions:   13000002 cycles:    6487299 heartbeat IPC: 1.99000 cumulative IPC: 2.00392 (Simulation time: 0 hr 0 min 23 sec) 
Heartbeat CPU  0 instructions:   14000003 cycles:    6989761 heartbeat IPC: 1.99020 cumulative IPC: 2.00293 (Simulation time: 0 hr 0 min 24 sec) 
Heartbeat CPU  0 instructions:   15000002 cycles:    7491998 heartbeat IPC: 1.99109 cumulative IPC: 2.00214 (Simulation time: 0 hr 0 min 26 sec) 
Heartbeat CPU  0 instructions:   16000000 cycles:    7979632 heartbeat IPC: 2.05071 cumulative IPC: 2.00511 (Simulation time: 0 hr 0 min 28 sec) 
Heartbeat CPU  0 instructions:   17000001 cycles:    8482462 heartbeat IPC: 1.98875 cumulative IPC: 2.00414 (Simulation time: 0 hr 0 min 30 sec) 
Heartbeat CPU  0 instructions:   18000003 cycles:    8985644 heartbeat IPC: 1.98736 cumulative IPC: 2.00320 (Simulation time: 0 hr 0 min 31 sec) 
Heartbeat CPU  0 instructions:   19000003 cycles:    9487962 heartbeat IPC: 1.99077 cumulative IPC: 2.00254 (Simulation time: 0 hr 0 min 33 sec) 
Heartbeat CPU  0 instructions:   20000000 cycles:    9980074 heartbeat IPC: 2.03205 cumulative IPC: 2.00399 (Simulation time: 0 hr 0 min 35 sec) 
Heartbeat CPU  0 instructions:   21000003 cycles:   10477474 heartbeat IPC: 2.01046 cumulative IPC: 2.00430 (Simulation time: 0 hr 0 min 37 sec) 
Heartbeat CPU  0 instructions:   22000001 cycles:   10980217 heartbeat IPC: 1.98908 cumulative IPC: 2.00360 (Simulation time: 0 hr 0 min 38 sec) 
Heartbeat CPU  0 instructions:   23000002 cycles:   11482920 heartbeat IPC: 1.98925 cumulative IPC: 2.00297 (Simulation time: 0 hr 0 min 40 sec) 
Heartbeat CPU  0 instructions:   24000000 cycles:   11984996 heartbeat IPC: 1.99173 cumulative IPC: 2.00250 (Simulation time: 0 hr 0 min 42 sec) 
Heartbeat CPU  0 instructions:   25000002 cycles:   12472585 heartbeat IPC: 2.05091 cumulative IPC: 2.00440 (Simulation time: 0 hr 0 min 44 sec) 
Heartbeat CPU  0 instructions:   26000002 cycles:   12974433 heartbeat IPC: 1.99264 cumulative IPC: 2.00394 (Simulation time: 0 hr 0 min 45 sec) 
Heartbeat CPU  0 instructions:   27000001 cycles:   13476807 heartbeat IPC: 1.99055 cumulative IPC: 2.00344 (Simulation time: 0 hr 0 min 47 sec) 
Heartbeat CPU  0 instructions:   28000000 cycles:   13979427 heartbeat IPC: 1.98957 cumulative IPC: 2.00294 (Simulation time: 0 hr 0 min 49 sec) 
Heartbeat CPU  0 instructions:   29000003 cycles:   14474460 heartbeat IPC: 2.02007 cumulative IPC: 2.00353 (Simulation time: 0 hr 0 min 51 sec) 
Heartbeat CPU  0 instructions:   30000003 cycles:   14969142 heartbeat IPC: 2.02150 cumulative IPC: 2.00412 (Simulation time: 0 hr 0 min 52 sec) 
Heartbeat CPU  0 instructions:   31000001 cycles:   15471296 heartbeat IPC: 1.99142 cumulative IPC: 2.00371 (Simulation time: 0 hr 0 min 54 sec) 
Heartbeat CPU  0 instructions:   32000000 cycles:   15973641 heartbeat IPC: 1.99066 cumulative IPC: 2.00330 (Simulation time: 0 hr 0 min 56 sec) 
Heartbeat CPU  0 instructions:   33000000 cycles:   16476150 heartbeat IPC: 1.99001 cumulative IPC: 2.00290 (Simulation time: 0 hr 0 min 58 sec) 
Heartbeat CPU  0 instructions:   34000003 cycles:   16963966 heartbeat IPC: 2.04996 cumulative IPC: 2.00425 (Simulation time: 0 hr 1 min 0 sec) 
Heartbeat CPU  0 instructions:   35000003 cycles:   17466026 heartbeat IPC: 1.99179 cumulative IPC: 2.00389 (Simulation time: 0 hr 1 min 1 sec) 
Heartbeat CPU  0 instructions:   36000000 cycles:   17968002 heartbeat IPC: 1.99212 cumulative IPC: 2.00356 (Simulation time: 0 hr 1 min 3 sec) 
Heartbeat CPU  0 instructions:   37000001 cycles:   18471045 heartbeat IPC: 1.98790 cumulative IPC: 2.00314 (Simulation time: 0 hr 1 min 5 sec) 
Heartbeat CPU  0 instructions:   38000003 cycles:   18968700 heartbeat IPC: 2.00943 cumulative IPC: 2.00330 (Simulation time: 0 hr 1 min 7 sec) 
Heartbeat CPU  0 instructions:   39000001 cycles:   19461372 heartbeat IPC: 2.02974 cumulative IPC: 2.00397 (Simulation time: 0 hr 1 min 8 sec) 
Heartbeat CPU  0 instructions:   40000000 cycles:   19963600 heartbeat IPC: 1.99113 cumulative IPC: 2.00365 (Simulation time: 0 hr 1 min 10 sec) 
Heartbeat CPU  0 instructions:   41000002 cycles:   20466024 heartbeat IPC: 1.99035 cumulative IPC: 2.00332 (Simulation time: 0 hr 1 min 12 sec) 
Heartbeat CPU  0 instructions:   42000000 cycles:   20968700 heartbeat IPC: 1.98935 cumulative IPC: 2.00299 (Simulation time: 0 hr 1 min 14 sec) 
Heartbeat CPU  0 instructions:   43000000 cycles:   21456825 heartbeat IPC: 2.04866 cumulative IPC: 2.00402 (Simulation time: 0 hr 1 min 15 sec) 
Heartbeat CPU  0 instructions:   44000000 cycles:   21959114 heartbeat IPC: 1.99089 cumulative IPC: 2.00372 (Simulation time: 0 hr 1 min 17 sec) 
Heartbeat CPU  0 instructions:   45000002 cycles:   22461791 heartbeat IPC: 1.98935 cumulative IPC: 2.00340 (Simulation time: 0 hr 1 min 19 sec) 
Heartbeat CPU  0 instructions:   46000003 cycles:   22963718 heartbeat IPC: 1.99232 cumulative IPC: 2.00316 (Simulation time: 0 hr 1 min 21 sec) 
Heartbeat CPU  0 instructions:   47000000 cycles:   23462742 heartbeat IPC: 2.00391 cumulative IPC: 2.00318 (Simulation time: 0 hr 1 min 22 sec) 
Heartbeat CPU  0 instructions:   48000000 cycles:   23953728 heartbeat IPC: 2.03672 cumulative IPC: 2.00386 (Simulation time: 0 hr 1 min 24 sec) 
Heartbeat CPU  0 instructions:   49000002 cycles:   24456589 heartbeat IPC: 1.98863 cumulative IPC: 2.00355 (Simulation time: 0 hr 1 min 26 sec) 
Heartbeat CPU  0 instructions:   50000003 cycles:   24958942 heartbeat IPC: 1.99063 cumulative IPC: 2.00329 (Simulation time: 0 hr 1 min 28 sec) 
Heartbeat CPU  0 instructions:   51000001 cycles:   25460994 heartbeat IPC: 1.99182 cumulative IPC: 2.00306 (Simulation time: 0 hr 1 min 29 sec) 
Heartbeat CPU  0 instructions:   52000000 cycles:   25951122 heartbeat IPC: 2.04028 cumulative IPC: 2.00377 (Simulation time: 0 hr 1 min 31 sec) 
Heartbeat CPU  0 instructions:   53000003 cycles:   26450957 heartbeat IPC: 2.00067 cumulative IPC: 2.00371 (Simulation time: 0 hr 1 min 33 sec) 
Heartbeat CPU  0 instructions:   54000003 cycles:   26962397 heartbeat IPC: 1.95526 cumulative IPC: 2.00279 (Simulation time: 0 hr 1 min 35 sec) 
Heartbeat CPU  0 instructions:   55000001 cycles:   27481526 heartbeat IPC: 1.92630 cumulative IPC: 2.00134 (Simulation time: 0 hr 1 min 36 sec) 
Heartbeat CPU  0 instructions:   56000000 cycles:   27993987 heartbeat IPC: 1.95137 cumulative IPC: 2.00043 (Simulation time: 0 hr 1 min 38 sec) 
Heartbeat CPU  0 instructions:   57000000 cycles:   28505879 heartbeat IPC: 1.95354 cumulative IPC: 1.99959 (Simulation time: 0 hr 1 min 40 sec) 
Heartbeat CPU  0 instructions:   58000002 cycles:   29019797 heartbeat IPC: 1.94584 cumulative IPC: 1.99864 (Simulation time: 0 hr 1 min 41 sec) 
Heartbeat CPU  0 instructions:   59000003 cycles:   29531182 heartbeat IPC: 1.95548 cumulative IPC: 1.99789 (Simulation time: 0 hr 1 min 43 sec) 
Heartbeat CPU  0 instructions:   60000000 cycles:   30041726 heartbeat IPC: 1.95869 cumulative IPC: 1.99722 (Simulation time: 0 hr 1 min 45 sec) 
Heartbeat CPU  0 instructions:   61000001 cycles:   30554220 heartbeat IPC: 1.95124 cumulative IPC: 1.99645 (Simulation time: 0 hr 1 min 46 sec) 
Heartbeat CPU  0 instructions:   62000003 cycles:   31066800 heartbeat IPC: 1.95092 cumulative IPC: 1.99570 (Simulation time: 0 hr 1 min 48 sec) 
Heartbeat CPU  0 instructions:   63000001 cycles:   31578645 heartbeat IPC: 1.95371 cumulative IPC: 1.99502 (Simulation time: 0 hr 1 min 50 sec) 
Heartbeat CPU  0 instructions:   64000000 cycles:   32091967 heartbeat IPC: 1.94809 cumulative IPC: 1.99427 (Simulation time: 0 hr 1 min 51 sec) 
Heartbeat CPU  0 instructions:   65000000 cycles:   32605326 heartbeat IPC: 1.94795 cumulative IPC: 1.99354 (Simulation time: 0 hr 1 min 53 sec) 
Heartbeat CPU  0 instructions:   66000002 cycles:   33117184 heartbeat IPC: 1.95367 cumulative IPC: 1.99292 (Simulation time: 0 hr 1 min 54 sec) 
Heartbeat CPU  0 instructions:   67000002 cycles:   33630502 heartbeat IPC: 1.94811 cumulative IPC: 1.99224 (Simulation time: 0 hr 1 min 56 sec) 
Heartbeat CPU  0 instructions:   68000000 cycles:   34143709 heartbeat IPC: 1.94853 cumulative IPC: 1.99158 (Simulation time: 0 hr 1 min 58 sec) 
Heartbeat CPU  0 instructions:   69000001 cycles:   34655272 heartbeat IPC: 1.95480 cumulative IPC: 1.99104 (Simulation time: 0 hr 1 min 59 sec) 
Heartbeat CPU  0 instructions:   70000003 cycles:   35168163 heartbeat IPC: 1.94974 cumulative IPC: 1.99044 (Simulation time: 0 hr 2 min 1 sec) 
Heartbeat CPU  0 instructions:   71000002 cycles:   35680939 heartbeat IPC: 1.95017 cumulative IPC: 1.98986 (Simulation time: 0 hr 2 min 3 sec) 
Heartbeat CPU  0 instructions:   72000000 cycles:   36192366 heartbeat IPC: 1.95531 cumulative IPC: 1.98937 (Simulation time: 0 hr 2 min 4 sec) 
Heartbeat CPU  0 instructions:   73000003 cycles:   36704766 heartbeat IPC: 1.95161 cumulative IPC: 1.98884 (Simulation time: 0 hr 2 min 6 sec) 
Heartbeat CPU  0 instructions:   74000001 cycles:   37217385 heartbeat IPC: 1.95076 cumulative IPC: 1.98832 (Simulation time: 0 hr 2 min 7 sec) 
Heartbeat CPU  0 instructions:   75000001 cycles:   37729318 heartbeat IPC: 1.95338 cumulative IPC: 1.98784 (Simulation time: 0 hr 2 min 9 sec) 
Heartbeat CPU  0 instructions:   76000000 cycles:   38242079 heartbeat IPC: 1.95022 cumulative IPC: 1.98734 (Simulation time: 0 hr 2 min 11 sec) 
Heartbeat CPU  0 instructions:   77000001 cycles:   38755556 heartbeat IPC: 1.94751 cumulative IPC: 1.98681 (Simulation time: 0 hr 2 min 12 sec) 
Heartbeat CPU  0 instructions:   78000003 cycles:   39267551 heartbeat IPC: 1.95315 cumulative IPC: 1.98637 (Simulation time: 0 hr 2 min 14 sec) 
Heartbeat CPU  0 instructions:   79000000 cycles:   39780141 heartbeat IPC: 1.95087 cumulative IPC: 1.98592 (Simulation time: 0 hr 2 min 16 sec) 
Heartbeat CPU  0 instructions:   80000000 cycles:   40293512 heartbeat IPC: 1.94791 cumulative IPC: 1.98543 (Simulation time: 0 hr 2 min 17 sec) 
Heartbeat CPU  0 instructions:   81000000 cycles:   40805492 heartbeat IPC: 1.95320 cumulative IPC: 1.98503 (Simulation time: 0 hr 2 min 19 sec) 
Heartbeat CPU  0 instructions:   82000001 cycles:   41317748 heartbeat IPC: 1.95215 cumulative IPC: 1.98462 (Simulation time: 0 hr 2 min 21 sec) 
Heartbeat CPU  0 instructions:   83000001 cycles:   41831362 heartbeat IPC: 1.94699 cumulative IPC: 1.98416 (Simulation time: 0 hr 2 min 22 sec) 
Heartbeat CPU  0 instructions:   84000000 cycles:   42343247 heartbeat IPC: 1.95356 cumulative IPC: 1.98379 (Simulation time: 0 hr 2 min 24 sec) 
Heartbeat CPU  0 instructions:   85000001 cycles:   42855341 heartbeat IPC: 1.95277 cumulative IPC: 1.98342 (Simulation time: 0 hr 2 min 25 sec) 
Heartbeat CPU  0 instructions:   86000002 cycles:   43368828 heartbeat IPC: 1.94747 cumulative IPC: 1.98299 (Simulation time: 0 hr 2 min 27 sec) 
Heartbeat CPU  0 instructions:   87000003 cycles:   43880660 heartbeat IPC: 1.95377 cumulative IPC: 1.98265 (Simulation time: 0 hr 2 min 29 sec) 
Heartbeat CPU  0 instructions:   88000000 cycles:   44392792 heartbeat IPC: 1.95262 cumulative IPC: 1.98230 (Simulation time: 0 hr 2 min 30 sec) 
Heartbeat CPU  0 instructions:   89000002 cycles:   44906519 heartbeat IPC: 1.94656 cumulative IPC: 1.98189 (Simulation time: 0 hr 2 min 32 sec) 
Heartbeat CPU  0 instructions:   90000003 cycles:   45418620 heartbeat IPC: 1.95274 cumulative IPC: 1.98157 (Simulation time: 0 hr 2 min 34 sec) 
Heartbeat CPU  0 instructions:   91000002 cycles:   45929365 heartbeat IPC: 1.95792 cumulative IPC: 1.98130 (Simulation time: 0 hr 2 min 35 sec) 
Heartbeat CPU  0 instructions:   92000000 cycles:   46441957 heartbeat IPC: 1.95087 cumulative IPC: 1.98097 (Simulation time: 0 hr 2 min 37 sec) 
Heartbeat CPU  0 instructions:   93000001 cycles:   46953122 heartbeat IPC: 1.95632 cumulative IPC: 1.98070 (Simulation time: 0 hr 2 min 39 sec) 
Heartbeat CPU  0 instructions:   94000003 cycles:   47464662 heartbeat IPC: 1.95489 cumulative IPC: 1.98042 (Simulation time: 0 hr 2 min 40 sec) 
Heartbeat CPU  0 instructions:   95000003 cycles:   47978486 heartbeat IPC: 1.94619 cumulative IPC: 1.98005 (Simulation time: 0 hr 2 min 42 sec) 
Heartbeat CPU  0 instructions:   96000000 cycles:   48490863 heartbeat IPC: 1.95168 cumulative IPC: 1.97975 (Simulation time: 0 hr 2 min 43 sec) 
Heartbeat CPU  0 instructions:   97000002 cycles:   49002330 heartbeat IPC: 1.95516 cumulative IPC: 1.97950 (Simulation time: 0 hr 2 min 45 sec) 
Heartbeat CPU  0 instructions:   98000000 cycles:   49515417 heartbeat IPC: 1.94898 cumulative IPC: 1.97918 (Simulation time: 0 hr 2 min 47 sec) 
Heartbeat CPU  0 instructions:   99000000 cycles:   50027393 heartbeat IPC: 1.95322 cumulative IPC: 1.97892 (Simulation time: 0 hr 2 min 48 sec) 
Heartbeat CPU  0 instructions:  100000000 cycles:   50563799 heartbeat IPC: 1.86426 cumulative IPC: 1.97770 (Simulation time: 0 hr 2 min 50 sec) 

Warmup complete CPU  0 instructions:  100000001 cycles:   50563820 (Simulation time: 0 hr 2 min 50 sec) 

Heartbeat CPU  0 instructions:  101000003 cycles:   52165804 heartbeat IPC: 0.62422 cumulative IPC: 0.62423 (Simulation time: 0 hr 2 min 53 sec) 
Heartbeat CPU  0 instructions:  102000000 cycles:   55196668 heartbeat IPC: 0.32994 cumulative IPC: 0.43170 (Simulation time: 0 hr 2 min 56 sec) 
Heartbeat CPU  0 instructions:  103000002 cycles:   57354458 heartbeat IPC: 0.46344 cumulative IPC: 0.44178 (Simulation time: 0 hr 2 min 59 sec) 
Heartbeat CPU  0 instructions:  104000000 cycles:   58082381 heartbeat IPC: 1.37377 cumulative IPC: 0.53202 (Simulation time: 0 hr 3 min 1 sec) 
Heartbeat CPU  0 instructions:  105000002 cycles:   58814597 heartbeat IPC: 1.36572 cumulative IPC: 0.60600 (Simulation time: 0 hr 3 min 3 sec) 
Heartbeat CPU  0 instructions:  106000003 cycles:   59546483 heartbeat IPC: 1.36633 cumulative IPC: 0.66795 (Simulation time: 0 hr 3 min 5 sec) 
Heartbeat CPU  0 instructions:  107000000 cycles:   60280857 heartbeat IPC: 1.36170 cumulative IPC: 0.72038 (Simulation time: 0 hr 3 min 7 sec) 
Heartbeat CPU  0 instructions:  108000000 cycles:   61010919 heartbeat IPC: 1.36975 cumulative IPC: 0.76576 (Simulation time: 0 hr 3 min 10 sec) 
Heartbeat CPU  0 instructions:  109000001 cycles:   61743853 heartbeat IPC: 1.36438 cumulative IPC: 0.80501 (Simulation time: 0 hr 3 min 12 sec) 
Heartbeat CPU  0 instructions:  110000001 cycles:   62509468 heartbeat IPC: 1.30614 cumulative IPC: 0.83712 (Simulation time: 0 hr 3 min 14 sec) 
Heartbeat CPU  0 instructions:  111000001 cycles:   63293150 heartbeat IPC: 1.27603 cumulative IPC: 0.86415 (Simulation time: 0 hr 3 min 16 sec) 
Heartbeat CPU  0 instructions:  112000000 cycles:   64076110 heartbeat IPC: 1.27720 cumulative IPC: 0.88808 (Simulation time: 0 hr 3 min 18 sec) 
Heartbeat CPU  0 instructions:  113000003 cycles:   64862577 heartbeat IPC: 1.27151 cumulative IPC: 0.90917 (Simulation time: 0 hr 3 min 20 sec) 
Heartbeat CPU  0 instructions:  114000001 cycles:   65638695 heartbeat IPC: 1.28846 cumulative IPC: 0.92870 (Simulation time: 0 hr 3 min 22 sec) 
Heartbeat CPU  0 instructions:  115000001 cycles:   66423168 heartbeat IPC: 1.27474 cumulative IPC: 0.94581 (Simulation time: 0 hr 3 min 25 sec) 
Heartbeat CPU  0 instructions:  116000000 cycles:   67225379 heartbeat IPC: 1.24655 cumulative IPC: 0.96029 (Simulation time: 0 hr 3 min 27 sec) 
Heartbeat CPU  0 instructions:  117000000 cycles:   68024981 heartbeat IPC: 1.25062 cumulative IPC: 0.97359 (Simulation time: 0 hr 3 min 29 sec) 
Heartbeat CPU  0 instructions:  118000003 cycles:   68977747 heartbeat IPC: 1.04958 cumulative IPC: 0.97752 (Simulation time: 0 hr 3 min 31 sec) 
Heartbeat CPU  0 instructions:  119000000 cycles:   70053262 heartbeat IPC: 0.92978 cumulative IPC: 0.97489 (Simulation time: 0 hr 3 min 33 sec) 
Heartbeat CPU  0 instructions:  120000000 cycles:   70859553 heartbeat IPC: 1.24025 cumulative IPC: 0.98543 (Simulation time: 0 hr 3 min 35 sec) 
Heartbeat CPU  0 instructions:  121000001 cycles:   71666419 heartbeat IPC: 1.23936 cumulative IPC: 0.99514 (Simulation time: 0 hr 3 min 37 sec) 
Heartbeat CPU  0 instructions:  122000002 cycles:   72472428 heartbeat IPC: 1.24068 cumulative IPC: 1.00417 (Simulation time: 0 hr 3 min 39 sec) 
Heartbeat CPU  0 instructions:  123000000 cycles:   73279740 heartbeat IPC: 1.23868 cumulative IPC: 1.01251 (Simulation time: 0 hr 3 min 41 sec) 
Heartbeat CPU  0 instructions:  124000000 cycles:   74085741 heartbeat IPC: 1.24069 cumulative IPC: 1.02032 (Simulation time: 0 hr 3 min 43 sec) 
Heartbeat CPU  0 instructions:  125000002 cycles:   74891590 heartbeat IPC: 1.24093 cumulative IPC: 1.02763 (Simulation time: 0 hr 3 min 45 sec) 
Heartbeat CPU  0 instructions:  126000001 cycles:   75702502 heartbeat IPC: 1.23318 cumulative IPC: 1.03426 (Simulation time: 0 hr 3 min 47 sec) 
Heartbeat CPU  0 instructions:  127000003 cycles:   76581481 heartbeat IPC: 1.13769 cumulative IPC: 1.03776 (Simulation time: 0 hr 3 min 49 sec) 
Heartbeat CPU  0 instructions:  128000000 cycles:   77638984 heartbeat IPC: 0.94562 cumulative IPC: 1.03416 (Simulation time: 0 hr 3 min 51 sec) 
Heartbeat CPU  0 instructions:  129000001 cycles:   78519829 heartbeat IPC: 1.13527 cumulative IPC: 1.03734 (Simulation time: 0 hr 3 min 53 sec) 
Heartbeat CPU  0 instructions:  130000003 cycles:   79331943 heartbeat IPC: 1.23136 cumulative IPC: 1.04282 (Simulation time: 0 hr 3 min 55 sec) 
Heartbeat CPU  0 instructions:  131000000 cycles:   80138577 heartbeat IPC: 1.23972 cumulative IPC: 1.04819 (Simulation time: 0 hr 3 min 57 sec) 
Heartbeat CPU  0 instructions:  132000000 cycles:   81062006 heartbeat IPC: 1.08292 cumulative IPC: 1.04924 (Simulation time: 0 hr 3 min 59 sec) 
Heartbeat CPU  0 instructions:  133000000 cycles:   82119883 heartbeat IPC: 0.94529 cumulative IPC: 1.04576 (Simulation time: 0 hr 4 min 2 sec) 
Heartbeat CPU  0 instructions:  134000003 cycles:   82946113 heartbeat IPC: 1.21032 cumulative IPC: 1.04996 (Simulation time: 0 hr 4 min 4 sec) 
Heartbeat CPU  0 instructions:  135000003 cycles:   83753100 heartbeat IPC: 1.23918 cumulative IPC: 1.05456 (Simulation time: 0 hr 4 min 6 sec) 
Heartbeat CPU  0 instructions:  136000000 cycles:   84558642 heartbeat IPC: 1.24140 cumulative IPC: 1.05898 (Simulation time: 0 hr 4 min 8 sec) 
Heartbeat CPU  0 instructions:  137000003 cycles:   85366054 heartbeat IPC: 1.23853 cumulative IPC: 1.06315 (Simulation time: 0 hr 4 min 10 sec) 
Heartbeat CPU  0 instructions:  138000002 cycles:   86172678 heartbeat IPC: 1.23973 cumulative IPC: 1.06715 (Simulation time: 0 hr 4 min 12 sec) 
Heartbeat CPU  0 instructions:  139000002 cycles:   86979292 heartbeat IPC: 1.23975 cumulative IPC: 1.07097 (Simulation time: 0 hr 4 min 14 sec) 
Heartbeat CPU  0 instructions:  140000000 cycles:   87784268 heartbeat IPC: 1.24227 cumulative IPC: 1.07468 (Simulation time: 0 hr 4 min 16 sec) 
Heartbeat CPU  0 instructions:  141000000 cycles:   88595617 heartbeat IPC: 1.23252 cumulative IPC: 1.07805 (Simulation time: 0 hr 4 min 18 sec) 
Heartbeat CPU  0 instructions:  142000000 cycles:   89662061 heartbeat IPC: 0.93770 cumulative IPC: 1.07422 (Simulation time: 0 hr 4 min 20 sec) 
Heartbeat CPU  0 instructions:  143000003 cycles:   90601821 heartbeat IPC: 1.06410 cumulative IPC: 1.07398 (Simulation time: 0 hr 4 min 22 sec) 
Heartbeat CPU  0 instructions:  144000000 cycles:   91410385 heartbeat IPC: 1.23676 cumulative IPC: 1.07720 (Simulation time: 0 hr 4 min 24 sec) 
Heartbeat CPU  0 instructions:  145000001 cycles:   92217800 heartbeat IPC: 1.23852 cumulative IPC: 1.08033 (Simulation time: 0 hr 4 min 26 sec) 
Heartbeat CPU  0 instructions:  146000003 cycles:   93068561 heartbeat IPC: 1.17542 cumulative IPC: 1.08223 (Simulation time: 0 hr 4 min 28 sec) 
Heartbeat CPU  0 instructions:  147000000 cycles:   94026963 heartbeat IPC: 1.04340 cumulative IPC: 1.08138 (Simulation time: 0 hr 4 min 30 sec) 
Heartbeat CPU  0 instructions:  148000000 cycles:   94865816 heartbeat IPC: 1.19210 cumulative IPC: 1.08347 (Simulation time: 0 hr 4 min 32 sec) 
Heartbeat CPU  0 instructions:  149000003 cycles:   95671545 heartbeat IPC: 1.24112 cumulative IPC: 1.08629 (Simulation time: 0 hr 4 min 34 sec) 
Heartbeat CPU  0 instructions:  150000003 cycles:   96478009 heartbeat IPC: 1.23998 cumulative IPC: 1.08899 (Simulation time: 0 hr 4 min 36 sec) 
Heartbeat CPU  0 instructions:  151000000 cycles:   97283388 heartbeat IPC: 1.24165 cumulative IPC: 1.09162 (Simulation time: 0 hr 4 min 38 sec) 
Heartbeat CPU  0 instructions:  152000000 cycles:   98089414 heartbeat IPC: 1.24065 cumulative IPC: 1.09415 (Simulation time: 0 hr 4 min 40 sec) 
Heartbeat CPU  0 instructions:  153000002 cycles:   98896485 heartbeat IPC: 1.23905 cumulative IPC: 1.09657 (Simulation time: 0 hr 4 min 43 sec) 
Heartbeat CPU  0 instructions:  154000002 cycles:   99702922 heartbeat IPC: 1.24002 cumulative IPC: 1.09892 (Simulation time: 0 hr 4 min 45 sec) 
Heartbeat CPU  0 instructions:  155000001 cycles:  100510220 heartbeat IPC: 1.23870 cumulative IPC: 1.10118 (Simulation time: 0 hr 4 min 47 sec) 
Heartbeat CPU  0 instructions:  156000000 cycles:  101454588 heartbeat IPC: 1.05891 cumulative IPC: 1.10040 (Simulation time: 0 hr 4 min 49 sec) 
Heartbeat CPU  0 instructions:  157000000 cycles:  102360433 heartbeat IPC: 1.10394 cumulative IPC: 1.10046 (Simulation time: 0 hr 4 min 51 sec) 
Heartbeat CPU  0 instructions:  158000001 cycles:  103167365 heartbeat IPC: 1.23926 cumulative IPC: 1.10259 (Simulation time: 0 hr 4 min 53 sec) 
Heartbeat CPU  0 instructions:  159000003 cycles:  103973238 heartbeat IPC: 1.24089 cumulative IPC: 1.10467 (Simulation time: 0 hr 4 min 55 sec) 
Heartbeat CPU  0 instructions:  160000000 cycles:  104779251 heartbeat IPC: 1.24067 cumulative IPC: 1.10670 (Simulation time: 0 hr 4 min 57 sec) 
Heartbeat CPU  0 instructions:  161000001 cycles:  105644690 heartbeat IPC: 1.15548 cumulative IPC: 1.10746 (Simulation time: 0 hr 4 min 59 sec) 
Heartbeat CPU  0 instructions:  162000000 cycles:  106473831 heartbeat IPC: 1.20607 cumulative IPC: 1.10892 (Simulation time: 0 hr 5 min 1 sec) 
Heartbeat CPU  0 instructions:  163000003 cycles:  107281210 heartbeat IPC: 1.23858 cumulative IPC: 1.11077 (Simulation time: 0 hr 5 min 3 sec) 
Heartbeat CPU  0 instructions:  164000000 cycles:  108087897 heartbeat IPC: 1.23963 cumulative IPC: 1.11258 (Simulation time: 0 hr 5 min 5 sec) 
Heartbeat CPU  0 instructions:  165000000 cycles:  108894038 heartbeat IPC: 1.24048 cumulative IPC: 1.11435 (Simulation time: 0 hr 5 min 7 sec) 
Heartbeat CPU  0 instructions:  166000000 cycles:  109700724 heartbeat IPC: 1.23964 cumulative IPC: 1.11605 (Simulation time: 0 hr 5 min 9 sec) 
Heartbeat CPU  0 instructions:  167000003 cycles:  110505873 heartbeat IPC: 1.24201 cumulative IPC: 1.11775 (Simulation time: 0 hr 5 min 11 sec) 
Heartbeat CPU  0 instructions:  168000000 cycles:  111312432 heartbeat IPC: 1.23983 cumulative IPC: 1.11937 (Simulation time: 0 hr 5 min 13 sec) 
Heartbeat CPU  0 instructions:  169000003 cycles:  112119131 heartbeat IPC: 1.23962 cumulative IPC: 1.12094 (Simulation time: 0 hr 5 min 15 sec) 
Heartbeat CPU  0 instructions:  170000001 cycles:  112942749 heartbeat IPC: 1.21415 cumulative IPC: 1.12217 (Simulation time: 0 hr 5 min 17 sec) 
Heartbeat CPU  0 instructions:  171000002 cycles:  113786958 heartbeat IPC: 1.18454 cumulative IPC: 1.12301 (Simulation time: 0 hr 5 min 19 sec) 
Heartbeat CPU  0 instructions:  172000000 cycles:  114592191 heartbeat IPC: 1.24187 cumulative IPC: 1.12450 (Simulation time: 0 hr 5 min 21 sec) 
Heartbeat CPU  0 instructions:  173000002 cycles:  115398139 heartbeat IPC: 1.24078 cumulative IPC: 1.12595 (Simulation time: 0 hr 5 min 24 sec) 
Heartbeat CPU  0 instructions:  174000000 cycles:  116213384 heartbeat IPC: 1.22662 cumulative IPC: 1.12720 (Simulation time: 0 hr 5 min 26 sec) 
Heartbeat CPU  0 instructions:  175000001 cycles:  117032037 heartbeat IPC: 1.22152 cumulative IPC: 1.12836 (Simulation time: 0 hr 5 min 28 sec) 
Heartbeat CPU  0 instructions:  176000000 cycles:  117852075 heartbeat IPC: 1.21945 cumulative IPC: 1.12947 (Simulation time: 0 hr 5 min 30 sec) 
Heartbeat CPU  0 instructions:  177000000 cycles:  118658240 heartbeat IPC: 1.24044 cumulative IPC: 1.13078 (Simulation time: 0 hr 5 min 32 sec) 
Heartbeat CPU  0 instructions:  178000003 cycles:  119465497 heartbeat IPC: 1.23877 cumulative IPC: 1.13205 (Simulation time: 0 hr 5 min 34 sec) 
Heartbeat CPU  0 instructions:  179000000 cycles:  120272289 heartbeat IPC: 1.23947 cumulative IPC: 1.13329 (Simulation time: 0 hr 5 min 36 sec) 
Heartbeat CPU  0 instructions:  180000000 cycles:  121078166 heartbeat IPC: 1.24088 cumulative IPC: 1.13452 (Simulation time: 0 hr 5 min 38 sec) 
Heartbeat CPU  0 instructions:  181000003 cycles:  121884285 heartbeat IPC: 1.24052 cumulative IPC: 1.13572 (Simulation time: 0 hr 5 min 40 sec) 
Heartbeat CPU  0 instructions:  182000003 cycles:  122690686 heartbeat IPC: 1.24008 cumulative IPC: 1.13689 (Simulation time: 0 hr 5 min 42 sec) 
Heartbeat CPU  0 instructions:  183000003 cycles:  123496452 heartbeat IPC: 1.24106 cumulative IPC: 1.13804 (Simulation time: 0 hr 5 min 44 sec) 
Heartbeat CPU  0 instructions:  184000000 cycles:  124304402 heartbeat IPC: 1.23770 cumulative IPC: 1.13913 (Simulation time: 0 hr 5 min 46 sec) 
Heartbeat CPU  0 instructions:  185000002 cycles:  125144387 heartbeat IPC: 1.19050 cumulative IPC: 1.13971 (Simulation time: 0 hr 5 min 48 sec) 
Heartbeat CPU  0 instructions:  186000002 cycles:  125950614 heartbeat IPC: 1.24035 cumulative IPC: 1.14078 (Simulation time: 0 hr 5 min 50 sec) 
Heartbeat CPU  0 instructions:  187000001 cycles:  126785965 heartbeat IPC: 1.19710 cumulative IPC: 1.14140 (Simulation time: 0 hr 5 min 52 sec) 
Heartbeat CPU  0 instructions:  188000000 cycles:  127629869 heartbeat IPC: 1.18497 cumulative IPC: 1.14188 (Simulation time: 0 hr 5 min 54 sec) 
Heartbeat CPU  0 instructions:  189000000 cycles:  128472990 heartbeat IPC: 1.18607 cumulative IPC: 1.14236 (Simulation time: 0 hr 5 min 56 sec) 
Heartbeat CPU  0 instructions:  190000000 cycles:  129319003 heartbeat IPC: 1.18201 cumulative IPC: 1.14278 (Simulation time: 0 hr 5 min 58 sec) 
Heartbeat CPU  0 instructions:  191000003 cycles:  130164669 heartbeat IPC: 1.18250 cumulative IPC: 1.14320 (Simulation time: 0 hr 6 min 0 sec) 
Heartbeat CPU  0 instructions:  192000000 cycles:  131010321 heartbeat IPC: 1.18252 cumulative IPC: 1.14362 (Simulation time: 0 hr 6 min 2 sec) 
Heartbeat CPU  0 instructions:  193000003 cycles:  131854473 heartbeat IPC: 1.18462 cumulative IPC: 1.14404 (Simulation time: 0 hr 6 min 4 sec) 
Heartbeat CPU  0 instructions:  194000001 cycles:  132702078 heartbeat IPC: 1.17979 cumulative IPC: 1.14441 (Simulation time: 0 hr 6 min 6 sec) 
Heartbeat CPU  0 instructions:  195000003 cycles:  133547085 heartbeat IPC: 1.18342 cumulative IPC: 1.14481 (Simulation time: 0 hr 6 min 8 sec) 
Heartbeat CPU  0 instructions:  196000000 cycles:  134483242 heartbeat IPC: 1.06819 cumulative IPC: 1.14395 (Simulation time: 0 hr 6 min 10 sec) 
Heartbeat CPU  0 instructions:  197000000 cycles:  135543445 heartbeat IPC: 0.94322 cumulative IPC: 1.14145 (Simulation time: 0 hr 6 min 12 sec) 
Heartbeat CPU  0 instructions:  198000002 cycles:  136618613 heartbeat IPC: 0.93009 cumulative IPC: 1.13881 (Simulation time: 0 hr 6 min 14 sec) 
Heartbeat CPU  0 instructions:  199000001 cycles:  137639929 heartbeat IPC: 0.97913 cumulative IPC: 1.13694 (Simulation time: 0 hr 6 min 16 sec) 
Heartbeat CPU  0 instructions:  200000000 cycles:  138703526 heartbeat IPC: 0.94020 cumulative IPC: 1.13456 (Simulation time: 0 hr 6 min 18 sec) 
Heartbeat CPU  0 instructions:  201000001 cycles:  139742107 heartbeat IPC: 0.96285 cumulative IPC: 1.13256 (Simulation time: 0 hr 6 min 20 sec) 
Heartbeat CPU  0 instructions:  202000002 cycles:  140779671 heartbeat IPC: 0.96380 cumulative IPC: 1.13062 (Simulation time: 0 hr 6 min 22 sec) 
Heartbeat CPU  0 instructions:  203000002 cycles:  141800539 heartbeat IPC: 0.97956 cumulative IPC: 1.12893 (Simulation time: 0 hr 6 min 25 sec) 
Heartbeat CPU  0 instructions:  204000000 cycles:  142818098 heartbeat IPC: 0.98274 cumulative IPC: 1.12732 (Simulation time: 0 hr 6 min 27 sec) 
Heartbeat CPU  0 instructions:  205000003 cycles:  144015397 heartbeat IPC: 0.83522 cumulative IPC: 1.12358 (Simulation time: 0 hr 6 min 29 sec) 
Heartbeat CPU  0 instructions:  206000000 cycles:  145216460 heartbeat IPC: 0.83259 cumulative IPC: 1.11988 (Simulation time: 0 hr 6 min 31 sec) 
Heartbeat CPU  0 instructions:  207000001 cycles:  146362140 heartbeat IPC: 0.87284 cumulative IPC: 1.11693 (Simulation time: 0 hr 6 min 33 sec) 
Heartbeat CPU  0 instructions:  208000000 cycles:  147467890 heartbeat IPC: 0.90436 cumulative IPC: 1.11450 (Simulation time: 0 hr 6 min 35 sec) 
Heartbeat CPU  0 instructions:  209000001 cycles:  148629120 heartbeat IPC: 0.86116 cumulative IPC: 1.11150 (Simulation time: 0 hr 6 min 37 sec) 
Heartbeat CPU  0 instructions:  210000003 cycles:  149751962 heartbeat IPC: 0.89060 cumulative IPC: 1.10900 (Simulation time: 0 hr 6 min 39 sec) 
Heartbeat CPU  0 instructions:  211000001 cycles:  150926965 heartbeat IPC: 0.85106 cumulative IPC: 1.10598 (Simulation time: 0 hr 6 min 41 sec) 
Heartbeat CPU  0 instructions:  212000000 cycles:  151904250 heartbeat IPC: 1.02324 cumulative IPC: 1.10519 (Simulation time: 0 hr 6 min 43 sec) 
Heartbeat CPU  0 instructions:  213000001 cycles:  153237771 heartbeat IPC: 0.74990 cumulative IPC: 1.10057 (Simulation time: 0 hr 6 min 46 sec) 
Heartbeat CPU  0 instructions:  214000002 cycles:  154799901 heartbeat IPC: 0.64015 cumulative IPC: 1.09367 (Simulation time: 0 hr 6 min 48 sec) 
Heartbeat CPU  0 instructions:  215000002 cycles:  156368184 heartbeat IPC: 0.63764 cumulative IPC: 1.08691 (Simulation time: 0 hr 6 min 51 sec) 
Heartbeat CPU  0 instructions:  216000000 cycles:  157883506 heartbeat IPC: 0.65992 cumulative IPC: 1.08088 (Simulation time: 0 hr 6 min 54 sec) 
Heartbeat CPU  0 instructions:  217000002 cycles:  159369807 heartbeat IPC: 0.67281 cumulative IPC: 1.07531 (Simulation time: 0 hr 6 min 56 sec) 
Heartbeat CPU  0 instructions:  218000003 cycles:  160955881 heartbeat IPC: 0.63049 cumulative IPC: 1.06892 (Simulation time: 0 hr 6 min 59 sec) 
Heartbeat CPU  0 instructions:  219000000 cycles:  162411544 heartbeat IPC: 0.68697 cumulative IPC: 1.06395 (Simulation time: 0 hr 7 min 1 sec) 
Heartbeat CPU  0 instructions:  220000000 cycles:  163943226 heartbeat IPC: 0.65288 cumulative IPC: 1.05839 (Simulation time: 0 hr 7 min 4 sec) 
Heartbeat CPU  0 instructions:  221000000 cycles:  165406109 heartbeat IPC: 0.68358 cumulative IPC: 1.05362 (Simulation time: 0 hr 7 min 7 sec) 
Heartbeat CPU  0 instructions:  222000001 cycles:  166961305 heartbeat IPC: 0.64301 cumulative IPC: 1.04813 (Simulation time: 0 hr 7 min 9 sec) 
Heartbeat CPU  0 instructions:  223000000 cycles:  168376511 heartbeat IPC: 0.70661 cumulative IPC: 1.04403 (Simulation time: 0 hr 7 min 12 sec) 
Heartbeat CPU  0 instructions:  224000000 cycles:  169934585 heartbeat IPC: 0.64182 cumulative IPC: 1.03878 (Simulation time: 0 hr 7 min 15 sec) 
Heartbeat CPU  0 instructions:  225000002 cycles:  171421747 heartbeat IPC: 0.67242 cumulative IPC: 1.03427 (Simulation time: 0 hr 7 min 17 sec) 
Heartbeat CPU  0 instructions:  226000003 cycles:  172970553 heartbeat IPC: 0.64566 cumulative IPC: 1.02936 (Simulation time: 0 hr 7 min 20 sec) 
Heartbeat CPU  0 instructions:  227000002 cycles:  174450468 heartbeat IPC: 0.67571 cumulative IPC: 1.02513 (Simulation time: 0 hr 7 min 22 sec) 
Heartbeat CPU  0 instructions:  228000000 cycles:  175958561 heartbeat IPC: 0.66309 cumulative IPC: 1.02078 (Simulation time: 0 hr 7 min 25 sec) 
Heartbeat CPU  0 instructions:  229000002 cycles:  177430933 heartbeat IPC: 0.67918 cumulative IPC: 1.01681 (Simulation time: 0 hr 7 min 28 sec) 
Heartbeat CPU  0 instructions:  230000000 cycles:  178909650 heartbeat IPC: 0.67626 cumulative IPC: 1.01289 (Simulation time: 0 hr 7 min 30 sec) 
Heartbeat CPU  0 instructions:  231000001 cycles:  180417592 heartbeat IPC: 0.66316 cumulative IPC: 1.00883 (Simulation time: 0 hr 7 min 33 sec) 
Heartbeat CPU  0 instructions:  232000000 cycles:  181906577 heartbeat IPC: 0.67160 cumulative IPC: 1.00500 (Simulation time: 0 hr 7 min 36 sec) 
Heartbeat CPU  0 instructions:  233000001 cycles:  183405925 heartbeat IPC: 0.66696 cumulative IPC: 1.00119 (Simulation time: 0 hr 7 min 38 sec) 
Heartbeat CPU  0 instructions:  234000002 cycles:  184861738 heartbeat IPC: 0.68690 cumulative IPC: 0.99778 (Simulation time: 0 hr 7 min 41 sec) 
Heartbeat CPU  0 instructions:  235000002 cycles:  186393143 heartbeat IPC: 0.65300 cumulative IPC: 0.99389 (Simulation time: 0 hr 7 min 43 sec) 
Heartbeat CPU  0 instructions:  236000000 cycles:  187833113 heartbeat IPC: 0.69446 cumulative IPC: 0.99075 (Simulation time: 0 hr 7 min 46 sec) 
Heartbeat CPU  0 instructions:  237000003 cycles:  189378840 heartbeat IPC: 0.64695 cumulative IPC: 0.98692 (Simulation time: 0 hr 7 min 49 sec) 
Heartbeat CPU  0 instructions:  238000003 cycles:  190793365 heartbeat IPC: 0.70695 cumulative IPC: 0.98410 (Simulation time: 0 hr 7 min 51 sec) 
Heartbeat CPU  0 instructions:  239000000 cycles:  192334488 heartbeat IPC: 0.64888 cumulative IPC: 0.98046 (Simulation time: 0 hr 7 min 54 sec) 
Heartbeat CPU  0 instructions:  240000000 cycles:  193773087 heartbeat IPC: 0.69512 cumulative IPC: 0.97759 (Simulation time: 0 hr 7 min 56 sec) 
Heartbeat CPU  0 instructions:  241000000 cycles:  195324978 heartbeat IPC: 0.64438 cumulative IPC: 0.97402 (Simulation time: 0 hr 7 min 59 sec) 
Heartbeat CPU  0 instructions:  242000001 cycles:  196788034 heartbeat IPC: 0.68350 cumulative IPC: 0.97111 (Simulation time: 0 hr 8 min 2 sec) 
Heartbeat CPU  0 instructions:  243000000 cycles:  198318180 heartbeat IPC: 0.65353 cumulative IPC: 0.96782 (Simulation time: 0 hr 8 min 4 sec) 
Heartbeat CPU  0 instructions:  244000000 cycles:  199771720 heartbeat IPC: 0.68798 cumulative IPC: 0.96510 (Simulation time: 0 hr 8 min 7 sec) 
Heartbeat CPU  0 instructions:  245000002 cycles:  201287195 heartbeat IPC: 0.65986 cumulative IPC: 0.96203 (Simulation time: 0 hr 8 min 10 sec) 
Heartbeat CPU  0 instructions:  246000003 cycles:  202755381 heartbeat IPC: 0.68111 cumulative IPC: 0.95932 (Simulation time: 0 hr 8 min 12 sec) 
Heartbeat CPU  0 instructions:  247000003 cycles:  204262651 heartbeat IPC: 0.66345 cumulative IPC: 0.95642 (Simulation time: 0 hr 8 min 15 sec) 
Heartbeat CPU  0 instructions:  248000000 cycles:  205802071 heartbeat IPC: 0.64959 cumulative IPC: 0.95337 (Simulation time: 0 hr 8 min 17 sec) 
Heartbeat CPU  0 instructions:  249000003 cycles:  207351552 heartbeat IPC: 0.64538 cumulative IPC: 0.95033 (Simulation time: 0 hr 8 min 20 sec) 
Heartbeat CPU  0 instructions:  250000000 cycles:  208899418 heartbeat IPC: 0.64605 cumulative IPC: 0.94735 (Simulation time: 0 hr 8 min 23 sec) 
Heartbeat CPU  0 instructions:  251000000 cycles:  210111663 heartbeat IPC: 0.82492 cumulative IPC: 0.94642 (Simulation time: 0 hr 8 min 25 sec) 
Heartbeat CPU  0 instructions:  252000000 cycles:  210935138 heartbeat IPC: 1.21437 cumulative IPC: 0.94780 (Simulation time: 0 hr 8 min 27 sec) 
Heartbeat CPU  0 instructions:  253000002 cycles:  211763387 heartbeat IPC: 1.20737 cumulative IPC: 0.94913 (Simulation time: 0 hr 8 min 29 sec) 
Heartbeat CPU  0 instructions:  254000003 cycles:  212592465 heartbeat IPC: 1.20616 cumulative IPC: 0.95045 (Simulation time: 0 hr 8 min 32 sec) 
Heartbeat CPU  0 instructions:  255000000 cycles:  213423358 heartbeat IPC: 1.20352 cumulative IPC: 0.95174 (Simulation time: 0 hr 8 min 34 sec) 
Heartbeat CPU  0 instructions:  256000000 cycles:  214252496 heartbeat IPC: 1.20607 cumulative IPC: 0.95303 (Simulation time: 0 hr 8 min 36 sec) 
Heartbeat CPU  0 instructions:  257000000 cycles:  215075772 heartbeat IPC: 1.21466 cumulative IPC: 0.95434 (Simulation time: 0 hr 8 min 38 sec) 
Heartbeat CPU  0 instructions:  258000002 cycles:  215899198 heartbeat IPC: 1.21444 cumulative IPC: 0.95563 (Simulation time: 0 hr 8 min 40 sec) 
Heartbeat CPU  0 instructions:  259000000 cycles:  216723817 heartbeat IPC: 1.21268 cumulative IPC: 0.95691 (Simulation time: 0 hr 8 min 42 sec) 
Heartbeat CPU  0 instructions:  260000000 cycles:  217549522 heartbeat IPC: 1.21109 cumulative IPC: 0.95817 (Simulation time: 0 hr 8 min 44 sec) 
Heartbeat CPU  0 instructions:  261000001 cycles:  218376053 heartbeat IPC: 1.20988 cumulative IPC: 0.95941 (Simulation time: 0 hr 8 min 46 sec) 
Heartbeat CPU  0 instructions:  262000000 cycles:  219269904 heartbeat IPC: 1.11875 cumulative IPC: 0.96025 (Simulation time: 0 hr 8 min 48 sec) 
Heartbeat CPU  0 instructions:  263000002 cycles:  220163771 heartbeat IPC: 1.11874 cumulative IPC: 0.96109 (Simulation time: 0 hr 8 min 50 sec) 
Heartbeat CPU  0 instructions:  264000000 cycles:  221060330 heartbeat IPC: 1.11537 cumulative IPC: 0.96190 (Simulation time: 0 hr 8 min 53 sec) 
Heartbeat CPU  0 instructions:  265000002 cycles:  221954917 heartbeat IPC: 1.11784 cumulative IPC: 0.96271 (Simulation time: 0 hr 8 min 55 sec) 
Heartbeat CPU  0 instructions:  266000000 cycles:  222887441 heartbeat IPC: 1.07236 cumulative IPC: 0.96330 (Simulation time: 0 hr 8 min 57 sec) 
Heartbeat CPU  0 instructions:  267000000 cycles:  223776317 heartbeat IPC: 1.12502 cumulative IPC: 0.96413 (Simulation time: 0 hr 8 min 59 sec) 
Heartbeat CPU  0 instructions:  268000000 cycles:  224661155 heartbeat IPC: 1.13015 cumulative IPC: 0.96498 (Simulation time: 0 hr 9 min 1 sec) 
Heartbeat CPU  0 instructions:  269000000 cycles:  225533513 heartbeat IPC: 1.14632 cumulative IPC: 0.96588 (Simulation time: 0 hr 9 min 3 sec) 
Heartbeat CPU  0 instructions:  270000003 cycles:  226401506 heartbeat IPC: 1.15209 cumulative IPC: 0.96680 (Simulation time: 0 hr 9 min 5 sec) 
Heartbeat CPU  0 instructions:  271000000 cycles:  227266970 heartbeat IPC: 1.15545 cumulative IPC: 0.96772 (Simulation time: 0 hr 9 min 7 sec) 
Heartbeat CPU  0 instructions:  272000000 cycles:  228136721 heartbeat IPC: 1.14975 cumulative IPC: 0.96862 (Simulation time: 0 hr 9 min 10 sec) 
Heartbeat CPU  0 instructions:  273000000 cycles:  229051074 heartbeat IPC: 1.09367 cumulative IPC: 0.96926 (Simulation time: 0 hr 9 min 12 sec) 
Heartbeat CPU  0 instructions:  274000002 cycles:  229925436 heartbeat IPC: 1.14369 cumulative IPC: 0.97011 (Simulation time: 0 hr 9 min 14 sec) 
Heartbeat CPU  0 instructions:  275000000 cycles:  230823918 heartbeat IPC: 1.11299 cumulative IPC: 0.97082 (Simulation time: 0 hr 9 min 16 sec) 
Heartbeat CPU  0 instructions:  276000000 cycles:  231715502 heartbeat IPC: 1.12160 cumulative IPC: 0.97156 (Simulation time: 0 hr 9 min 18 sec) 
Heartbeat CPU  0 instructions:  277000002 cycles:  232634892 heartbeat IPC: 1.08768 cumulative IPC: 0.97215 (Simulation time: 0 hr 9 min 20 sec) 
Heartbeat CPU  0 instructions:  278000002 cycles:  233498998 heartbeat IPC: 1.15727 cumulative IPC: 0.97302 (Simulation time: 0 hr 9 min 22 sec) 
Heartbeat CPU  0 instructions:  279000000 cycles:  234383640 heartbeat IPC: 1.13040 cumulative IPC: 0.97378 (Simulation time: 0 hr 9 min 24 sec) 
Heartbeat CPU  0 instructions:  280000000 cycles:  235262912 heartbeat IPC: 1.13730 cumulative IPC: 0.97456 (Simulation time: 0 hr 9 min 27 sec) 
Heartbeat CPU  0 instructions:  281000002 cycles:  236127543 heartbeat IPC: 1.15657 cumulative IPC: 0.97541 (Simulation time: 0 hr 9 min 29 sec) 
Heartbeat CPU  0 instructions:  282000002 cycles:  237010497 heartbeat IPC: 1.13256 cumulative IPC: 0.97615 (Simulation time: 0 hr 9 min 31 sec) 
Heartbeat CPU  0 instructions:  283000001 cycles:  237932436 heartbeat IPC: 1.08467 cumulative IPC: 0.97668 (Simulation time: 0 hr 9 min 33 sec) 
Heartbeat CPU  0 instructions:  284000000 cycles:  238828315 heartbeat IPC: 1.11622 cumulative IPC: 0.97735 (Simulation time: 0 hr 9 min 35 sec) 
Heartbeat CPU  0 instructions:  285000003 cycles:  239734543 heartbeat IPC: 1.10348 cumulative IPC: 0.97795 (Simulation time: 0 hr 9 min 37 sec) 
Heartbeat CPU  0 instructions:  286000003 cycles:  240626983 heartbeat IPC: 1.12052 cumulative IPC: 0.97862 (Simulation time: 0 hr 9 min 39 sec) 
Heartbeat CPU  0 instructions:  287000003 cycles:  241524581 heartbeat IPC: 1.11408 cumulative IPC: 0.97926 (Simulation time: 0 hr 9 min 41 sec) 
Heartbeat CPU  0 instructions:  288000000 cycles:  242430639 heartbeat IPC: 1.10368 cumulative IPC: 0.97985 (Simulation time: 0 hr 9 min 44 sec) 
Heartbeat CPU  0 instructions:  289000001 cycles:  243323235 heartbeat IPC: 1.12033 cumulative IPC: 0.98050 (Simulation time: 0 hr 9 min 46 sec) 
Heartbeat CPU  0 instructions:  290000003 cycles:  244211777 heartbeat IPC: 1.12544 cumulative IPC: 0.98116 (Simulation time: 0 hr 9 min 48 sec) 
Heartbeat CPU  0 instructions:  291000003 cycles:  245077206 heartbeat IPC: 1.15550 cumulative IPC: 0.98194 (Simulation time: 0 hr 9 min 50 sec) 
Heartbeat CPU  0 instructions:  292000000 cycles:  245959511 heartbeat IPC: 1.13339 cumulative IPC: 0.98262 (Simulation time: 0 hr 9 min 52 sec) 
Heartbeat CPU  0 instructions:  293000002 cycles:  246869319 heartbeat IPC: 1.09914 cumulative IPC: 0.98316 (Simulation time: 0 hr 9 min 54 sec) 
Heartbeat CPU  0 instructions:  294000002 cycles:  247787811 heartbeat IPC: 1.08874 cumulative IPC: 0.98365 (Simulation time: 0 hr 9 min 56 sec) 
Heartbeat CPU  0 instructions:  295000001 cycles:  248694389 heartbeat IPC: 1.10305 cumulative IPC: 0.98420 (Simulation time: 0 hr 9 min 58 sec) 
Heartbeat CPU  0 instructions:  296000000 cycles:  249603585 heartbeat IPC: 1.09987 cumulative IPC: 0.98473 (Simulation time: 0 hr 10 min 0 sec) 
Heartbeat CPU  0 instructions:  297000003 cycles:  250499658 heartbeat IPC: 1.11598 cumulative IPC: 0.98532 (Simulation time: 0 hr 10 min 3 sec) 
Heartbeat CPU  0 instructions:  298000002 cycles:  251396291 heartbeat IPC: 1.11528 cumulative IPC: 0.98590 (Simulation time: 0 hr 10 min 5 sec) 
Heartbeat CPU  0 instructions:  299000003 cycles:  252309231 heartbeat IPC: 1.09536 cumulative IPC: 0.98639 (Simulation time: 0 hr 10 min 7 sec) 
Heartbeat CPU  0 instructions:  300000000 cycles:  253199708 heartbeat IPC: 1.12299 cumulative IPC: 0.98699 (Simulation time: 0 hr 10 min 9 sec) 
Heartbeat CPU  0 instructions:  301000000 cycles:  254087129 heartbeat IPC: 1.12686 cumulative IPC: 0.98760 (Simulation time: 0 hr 10 min 11 sec) 
Heartbeat CPU  0 instructions:  302000003 cycles:  254966603 heartbeat IPC: 1.13705 cumulative IPC: 0.98824 (Simulation time: 0 hr 10 min 13 sec) 
Heartbeat CPU  0 instructions:  303000002 cycles:  255856905 heartbeat IPC: 1.12321 cumulative IPC: 0.98883 (Simulation time: 0 hr 10 min 15 sec) 
Heartbeat CPU  0 instructions:  304000000 cycles:  256762995 heartbeat IPC: 1.10364 cumulative IPC: 0.98933 (Simulation time: 0 hr 10 min 17 sec) 
Heartbeat CPU  0 instructions:  305000003 cycles:  257669624 heartbeat IPC: 1.10299 cumulative IPC: 0.98983 (Simulation time: 0 hr 10 min 19 sec) 
Heartbeat CPU  0 instructions:  306000001 cycles:  258571339 heartbeat IPC: 1.10900 cumulative IPC: 0.99035 (Simulation time: 0 hr 10 min 22 sec) 
Heartbeat CPU  0 instructions:  307000001 cycles:  259476258 heartbeat IPC: 1.10507 cumulative IPC: 0.99085 (Simulation time: 0 hr 10 min 24 sec) 
Heartbeat CPU  0 instructions:  308000000 cycles:  260381691 heartbeat IPC: 1.10444 cumulative IPC: 0.99134 (Simulation time: 0 hr 10 min 26 sec) 
Heartbeat CPU  0 instructions:  309000001 cycles:  261313923 heartbeat IPC: 1.07270 cumulative IPC: 0.99170 (Simulation time: 0 hr 10 min 28 sec) 
Heartbeat CPU  0 instructions:  310000000 cycles:  262206790 heartbeat IPC: 1.11999 cumulative IPC: 0.99224 (Simulation time: 0 hr 10 min 30 sec) 
Heartbeat CPU  0 instructions:  311000000 cycles:  263098031 heartbeat IPC: 1.12203 cumulative IPC: 0.99278 (Simulation time: 0 hr 10 min 32 sec) 
Heartbeat CPU  0 instructions:  312000000 cycles:  263964915 heartbeat IPC: 1.15356 cumulative IPC: 0.99343 (Simulation time: 0 hr 10 min 34 sec) 
Heartbeat CPU  0 instructions:  313000003 cycles:  264844652 heartbeat IPC: 1.13671 cumulative IPC: 0.99402 (Simulation time: 0 hr 10 min 36 sec) 
Heartbeat CPU  0 instructions:  314000001 cycles:  265747627 heartbeat IPC: 1.10745 cumulative IPC: 0.99450 (Simulation time: 0 hr 10 min 39 sec) 
Heartbeat CPU  0 instructions:  315000000 cycles:  266658119 heartbeat IPC: 1.09831 cumulative IPC: 0.99494 (Simulation time: 0 hr 10 min 41 sec) 
Heartbeat CPU  0 instructions:  316000000 cycles:  267564042 heartbeat IPC: 1.10385 cumulative IPC: 0.99539 (Simulation time: 0 hr 10 min 43 sec) 
Heartbeat CPU  0 instructions:  317000003 cycles:  268470892 heartbeat IPC: 1.10272 cumulative IPC: 0.99584 (Simulation time: 0 hr 10 min 45 sec) 
Heartbeat CPU  0 instructions:  318000002 cycles:  269389839 heartbeat IPC: 1.08820 cumulative IPC: 0.99623 (Simulation time: 0 hr 10 min 47 sec) 
Heartbeat CPU  0 instructions:  319000002 cycles:  270313949 heartbeat IPC: 1.08212 cumulative IPC: 0.99659 (Simulation time: 0 hr 10 min 49 sec) 
Heartbeat CPU  0 instructions:  320000000 cycles:  271221659 heartbeat IPC: 1.10167 cumulative IPC: 0.99702 (Simulation time: 0 hr 10 min 51 sec) 
Heartbeat CPU  0 instructions:  321000002 cycles:  272099266 heartbeat IPC: 1.13946 cumulative IPC: 0.99758 (Simulation time: 0 hr 10 min 53 sec) 
Heartbeat CPU  0 instructions:  322000002 cycles:  272983601 heartbeat IPC: 1.13079 cumulative IPC: 0.99811 (Simulation time: 0 hr 10 min 56 sec) 
Heartbeat CPU  0 instructions:  323000002 cycles:  273855117 heartbeat IPC: 1.14743 cumulative IPC: 0.99870 (Simulation time: 0 hr 10 min 58 sec) 
Heartbeat CPU  0 instructions:  324000000 cycles:  274741522 heartbeat IPC: 1.12815 cumulative IPC: 0.99921 (Simulation time: 0 hr 11 min 0 sec) 
Heartbeat CPU  0 instructions:  325000002 cycles:  275683245 heartbeat IPC: 1.06189 cumulative IPC: 0.99947 (Simulation time: 0 hr 11 min 2 sec) 
Heartbeat CPU  0 instructions:  326000000 cycles:  276590410 heartbeat IPC: 1.10233 cumulative IPC: 0.99988 (Simulation time: 0 hr 11 min 4 sec) 
Heartbeat CPU  0 instructions:  327000002 cycles:  277486619 heartbeat IPC: 1.11581 cumulative IPC: 1.00034 (Simulation time: 0 hr 11 min 6 sec) 
Heartbeat CPU  0 instructions:  328000000 cycles:  278379817 heartbeat IPC: 1.11957 cumulative IPC: 1.00081 (Simulation time: 0 hr 11 min 8 sec) 
Heartbeat CPU  0 instructions:  329000001 cycles:  279321747 heartbeat IPC: 1.06165 cumulative IPC: 1.00106 (Simulation time: 0 hr 11 min 10 sec) 
Heartbeat CPU  0 instructions:  330000001 cycles:  280230260 heartbeat IPC: 1.10070 cumulative IPC: 1.00145 (Simulation time: 0 hr 11 min 13 sec) 
Heartbeat CPU  0 instructions:  331000001 cycles:  281124377 heartbeat IPC: 1.11842 cumulative IPC: 1.00191 (Simulation time: 0 hr 11 min 15 sec) 
Heartbeat CPU  0 instructions:  332000000 cycles:  281987020 heartbeat IPC: 1.15923 cumulative IPC: 1.00249 (Simulation time: 0 hr 11 min 17 sec) 
Heartbeat CPU  0 instructions:  333000001 cycles:  282873248 heartbeat IPC: 1.12838 cumulative IPC: 1.00297 (Simulation time: 0 hr 11 min 19 sec) 
Heartbeat CPU  0 instructions:  334000003 cycles:  283753674 heartbeat IPC: 1.13582 cumulative IPC: 1.00347 (Simulation time: 0 hr 11 min 21 sec) 
Heartbeat CPU  0 instructions:  335000002 cycles:  284677107 heartbeat IPC: 1.08291 cumulative IPC: 1.00379 (Simulation time: 0 hr 11 min 23 sec) 
Heartbeat CPU  0 instructions:  336000000 cycles:  285595988 heartbeat IPC: 1.08828 cumulative IPC: 1.00412 (Simulation time: 0 hr 11 min 25 sec) 
Heartbeat CPU  0 instructions:  337000002 cycles:  286509358 heartbeat IPC: 1.09485 cumulative IPC: 1.00447 (Simulation time: 0 hr 11 min 28 sec) 
Heartbeat CPU  0 instructions:  338000002 cycles:  287409502 heartbeat IPC: 1.11093 cumulative IPC: 1.00487 (Simulation time: 0 hr 11 min 30 sec) 
Heartbeat CPU  0 instructions:  339000002 cycles:  288313060 heartbeat IPC: 1.10674 cumulative IPC: 1.00526 (Simulation time: 0 hr 11 min 32 sec) 
Heartbeat CPU  0 instructions:  340000000 cycles:  289212656 heartbeat IPC: 1.11161 cumulative IPC: 1.00566 (Simulation time: 0 hr 11 min 34 sec) 
Heartbeat CPU  0 instructions:  341000001 cycles:  290112149 heartbeat IPC: 1.11174 cumulative IPC: 1.00606 (Simulation time: 0 hr 11 min 36 sec) 
Heartbeat CPU  0 instructions:  342000003 cycles:  290979404 heartbeat IPC: 1.15307 cumulative IPC: 1.00659 (Simulation time: 0 hr 11 min 38 sec) 
Heartbeat CPU  0 instructions:  343000003 cycles:  291861023 heartbeat IPC: 1.13428 cumulative IPC: 1.00706 (Simulation time: 0 hr 11 min 40 sec) 
Heartbeat CPU  0 instructions:  344000000 cycles:  292747185 heartbeat IPC: 1.12846 cumulative IPC: 1.00750 (Simulation time: 0 hr 11 min 42 sec) 
Heartbeat CPU  0 instructions:  345000002 cycles:  293634835 heartbeat IPC: 1.12657 cumulative IPC: 1.00794 (Simulation time: 0 hr 11 min 45 sec) 
Heartbeat CPU  0 instructions:  346000003 cycles:  294560881 heartbeat IPC: 1.07986 cumulative IPC: 1.00821 (Simulation time: 0 hr 11 min 47 sec) 
Heartbeat CPU  0 instructions:  347000003 cycles:  295475541 heartbeat IPC: 1.09330 cumulative IPC: 1.00853 (Simulation time: 0 hr 11 min 49 sec) 
Heartbeat CPU  0 instructions:  348000000 cycles:  296379478 heartbeat IPC: 1.10627 cumulative IPC: 1.00889 (Simulation time: 0 hr 11 min 51 sec) 
Heartbeat CPU  0 instructions:  349000000 cycles:  297275104 heartbeat IPC: 1.11654 cumulative IPC: 1.00928 (Simulation time: 0 hr 11 min 53 sec) 
Heartbeat CPU  0 instructions:  350000003 cycles:  298164082 heartbeat IPC: 1.12489 cumulative IPC: 1.00969 (Simulation time: 0 hr 11 min 55 sec) 
Heartbeat CPU  0 instructions:  351000002 cycles:  299065543 heartbeat IPC: 1.10931 cumulative IPC: 1.01005 (Simulation time: 0 hr 11 min 57 sec) 
Heartbeat CPU  0 instructions:  352000000 cycles:  299959427 heartbeat IPC: 1.11871 cumulative IPC: 1.01044 (Simulation time: 0 hr 11 min 59 sec) 
Heartbeat CPU  0 instructions:  353000003 cycles:  300846043 heartbeat IPC: 1.12789 cumulative IPC: 1.01086 (Simulation time: 0 hr 12 min 1 sec) 
Heartbeat CPU  0 instructions:  354000003 cycles:  301728755 heartbeat IPC: 1.13287 cumulative IPC: 1.01129 (Simulation time: 0 hr 12 min 4 sec) 
Heartbeat CPU  0 instructions:  355000000 cycles:  302598475 heartbeat IPC: 1.14979 cumulative IPC: 1.01177 (Simulation time: 0 hr 12 min 6 sec) 
Heartbeat CPU  0 instructions:  356000000 cycles:  303511659 heartbeat IPC: 1.09507 cumulative IPC: 1.01207 (Simulation time: 0 hr 12 min 8 sec) 
Heartbeat CPU  0 instructions:  357000001 cycles:  304425941 heartbeat IPC: 1.09376 cumulative IPC: 1.01236 (Simulation time: 0 hr 12 min 10 sec) 
Heartbeat CPU  0 instructions:  358000003 cycles:  305346723 heartbeat IPC: 1.08604 cumulative IPC: 1.01263 (Simulation time: 0 hr 12 min 12 sec) 
Heartbeat CPU  0 instructions:  359000000 cycles:  306242551 heartbeat IPC: 1.11628 cumulative IPC: 1.01299 (Simulation time: 0 hr 12 min 14 sec) 
Heartbeat CPU  0 instructions:  360000000 cycles:  307144494 heartbeat IPC: 1.10872 cumulative IPC: 1.01333 (Simulation time: 0 hr 12 min 16 sec) 
Heartbeat CPU  0 instructions:  361000002 cycles:  308047937 heartbeat IPC: 1.10688 cumulative IPC: 1.01365 (Simulation time: 0 hr 12 min 18 sec) 
Heartbeat CPU  0 instructions:  362000002 cycles:  308935961 heartbeat IPC: 1.12610 cumulative IPC: 1.01404 (Simulation time: 0 hr 12 min 20 sec) 
Heartbeat CPU  0 instructions:  363000002 cycles:  309815289 heartbeat IPC: 1.13723 cumulative IPC: 1.01446 (Simulation time: 0 hr 12 min 23 sec) 
Heartbeat CPU  0 instructions:  364000000 cycles:  310689867 heartbeat IPC: 1.14341 cumulative IPC: 1.01489 (Simulation time: 0 hr 12 min 25 sec) 
Heartbeat CPU  0 instructions:  365000001 cycles:  311557273 heartbeat IPC: 1.15286 cumulative IPC: 1.01535 (Simulation time: 0 hr 12 min 27 sec) 
Heartbeat CPU  0 instructions:  366000001 cycles:  312430044 heartbeat IPC: 1.14578 cumulative IPC: 1.01579 (Simulation time: 0 hr 12 min 29 sec) 
Heartbeat CPU  0 instructions:  367000003 cycles:  313352599 heartbeat IPC: 1.08395 cumulative IPC: 1.01603 (Simulation time: 0 hr 12 min 31 sec) 
Heartbeat CPU  0 instructions:  368000000 cycles:  314256362 heartbeat IPC: 1.10648 cumulative IPC: 1.01634 (Simulation time: 0 hr 12 min 33 sec) 
Heartbeat CPU  0 instructions:  369000001 cycles:  315166941 heartbeat IPC: 1.09820 cumulative IPC: 1.01662 (Simulation time: 0 hr 12 min 35 sec) 
Heartbeat CPU  0 instructions:  370000002 cycles:  316054629 heartbeat IPC: 1.12652 cumulative IPC: 1.01698 (Simulation time: 0 hr 12 min 37 sec) 
Heartbeat CPU  0 instructions:  371000002 cycles:  316953675 heartbeat IPC: 1.11229 cumulative IPC: 1.01731 (Simulation time: 0 hr 12 min 40 sec) 
Heartbeat CPU  0 instructions:  372000000 cycles:  317854589 heartbeat IPC: 1.10998 cumulative IPC: 1.01762 (Simulation time: 0 hr 12 min 42 sec) 
Heartbeat CPU  0 instructions:  373000001 cycles:  318756486 heartbeat IPC: 1.10878 cumulative IPC: 1.01792 (Simulation time: 0 hr 12 min 44 sec) 
Heartbeat CPU  0 instructions:  374000001 cycles:  319631564 heartbeat IPC: 1.14276 cumulative IPC: 1.01833 (Simulation time: 0 hr 12 min 46 sec) 
Heartbeat CPU  0 instructions:  375000000 cycles:  320504495 heartbeat IPC: 1.14556 cumulative IPC: 1.01874 (Simulation time: 0 hr 12 min 48 sec) 
Heartbeat CPU  0 instructions:  376000000 cycles:  321371325 heartbeat IPC: 1.15363 cumulative IPC: 1.01917 (Simulation time: 0 hr 12 min 50 sec) 
Heartbeat CPU  0 instructions:  377000002 cycles:  322304675 heartbeat IPC: 1.07141 cumulative IPC: 1.01935 (Simulation time: 0 hr 12 min 52 sec) 
Heartbeat CPU  0 instructions:  378000000 cycles:  323216828 heartbeat IPC: 1.09631 cumulative IPC: 1.01961 (Simulation time: 0 hr 12 min 54 sec) 
Heartbeat CPU  0 instructions:  379000000 cycles:  324130945 heartbeat IPC: 1.09395 cumulative IPC: 1.01986 (Simulation time: 0 hr 12 min 57 sec) 
Heartbeat CPU  0 instructions:  380000000 cycles:  325042947 heartbeat IPC: 1.09649 cumulative IPC: 1.02011 (Simulation time: 0 hr 12 min 59 sec) 
Heartbeat CPU  0 instructions:  381000002 cycles:  325937444 heartbeat IPC: 1.11795 cumulative IPC: 1.02043 (Simulation time: 0 hr 13 min 1 sec) 
Heartbeat CPU  0 instructions:  382000000 cycles:  326856443 heartbeat IPC: 1.08814 cumulative IPC: 1.02066 (Simulation time: 0 hr 13 min 3 sec) 
Heartbeat CPU  0 instructions:  383000000 cycles:  327775041 heartbeat IPC: 1.08862 cumulative IPC: 1.02088 (Simulation time: 0 hr 13 min 5 sec) 
Heartbeat CPU  0 instructions:  384000000 cycles:  328652844 heartbeat IPC: 1.13921 cumulative IPC: 1.02126 (Simulation time: 0 hr 13 min 7 sec) 
Heartbeat CPU  0 instructions:  385000001 cycles:  329538696 heartbeat IPC: 1.12886 cumulative IPC: 1.02160 (Simulation time: 0 hr 13 min 9 sec) 
Heartbeat CPU  0 instructions:  386000002 cycles:  330432100 heartbeat IPC: 1.11932 cumulative IPC: 1.02191 (Simulation time: 0 hr 13 min 11 sec) 
Heartbeat CPU  0 instructions:  387000000 cycles:  331344832 heartbeat IPC: 1.09561 cumulative IPC: 1.02215 (Simulation time: 0 hr 13 min 14 sec) 
Heartbeat CPU  0 instructions:  388000000 cycles:  332266456 heartbeat IPC: 1.08504 cumulative IPC: 1.02235 (Simulation time: 0 hr 13 min 16 sec) 
Heartbeat CPU  0 instructions:  389000003 cycles:  333209446 heartbeat IPC: 1.06046 cumulative IPC: 1.02248 (Simulation time: 0 hr 13 min 18 sec) 
Heartbeat CPU  0 instructions:  390000003 cycles:  334138120 heartbeat IPC: 1.07680 cumulative IPC: 1.02266 (Simulation time: 0 hr 13 min 20 sec) 
Heartbeat CPU  0 instructions:  391000002 cycles:  335057952 heartbeat IPC: 1.08715 cumulative IPC: 1.02287 (Simulation time: 0 hr 13 min 22 sec) 
Heartbeat CPU  0 instructions:  392000000 cycles:  335959831 heartbeat IPC: 1.10879 cumulative IPC: 1.02314 (Simulation time: 0 hr 13 min 24 sec) 
Heartbeat CPU  0 instructions:  393000003 cycles:  336911852 heartbeat IPC: 1.05040 cumulative IPC: 1.02323 (Simulation time: 0 hr 13 min 26 sec) 
Heartbeat CPU  0 instructions:  394000003 cycles:  337796613 heartbeat IPC: 1.13025 cumulative IPC: 1.02356 (Simulation time: 0 hr 13 min 28 sec) 
Heartbeat CPU  0 instructions:  395000003 cycles:  338716555 heartbeat IPC: 1.08703 cumulative IPC: 1.02376 (Simulation time: 0 hr 13 min 31 sec) 
Heartbeat CPU  0 instructions:  396000000 cycles:  339609340 heartbeat IPC: 1.12009 cumulative IPC: 1.02406 (Simulation time: 0 hr 13 min 33 sec) 
Heartbeat CPU  0 instructions:  397000001 cycles:  340515765 heartbeat IPC: 1.10324 cumulative IPC: 1.02431 (Simulation time: 0 hr 13 min 35 sec) 
Heartbeat CPU  0 instructions:  398000001 cycles:  341270211 heartbeat IPC: 1.32548 cumulative IPC: 1.02509 (Simulation time: 0 hr 13 min 36 sec) 
Heartbeat CPU  0 instructions:  399000000 cycles:  342218622 heartbeat IPC: 1.05439 cumulative IPC: 1.02518 (Simulation time: 0 hr 13 min 39 sec) 
Heartbeat CPU  0 instructions:  400000000 cycles:  343168542 heartbeat IPC: 1.05272 cumulative IPC: 1.02527 (Simulation time: 0 hr 13 min 41 sec) 
Heartbeat CPU  0 instructions:  401000001 cycles:  344117018 heartbeat IPC: 1.05432 cumulative IPC: 1.02537 (Simulation time: 0 hr 13 min 43 sec) 
Heartbeat CPU  0 instructions:  402000003 cycles:  345065925 heartbeat IPC: 1.05385 cumulative IPC: 1.02546 (Simulation time: 0 hr 13 min 45 sec) 
Heartbeat CPU  0 instructions:  403000000 cycles:  346014294 heartbeat IPC: 1.05444 cumulative IPC: 1.02555 (Simulation time: 0 hr 13 min 47 sec) 
Heartbeat CPU  0 instructions:  404000000 cycles:  346964030 heartbeat IPC: 1.05292 cumulative IPC: 1.02564 (Simulation time: 0 hr 13 min 50 sec) 
Heartbeat CPU  0 instructions:  405000003 cycles:  347912651 heartbeat IPC: 1.05416 cumulative IPC: 1.02573 (Simulation time: 0 hr 13 min 52 sec) 
Heartbeat CPU  0 instructions:  406000003 cycles:  348862022 heartbeat IPC: 1.05333 cumulative IPC: 1.02582 (Simulation time: 0 hr 13 min 54 sec) 
Heartbeat CPU  0 instructions:  407000000 cycles:  349810291 heartbeat IPC: 1.05455 cumulative IPC: 1.02591 (Simulation time: 0 hr 13 min 56 sec) 
Heartbeat CPU  0 instructions:  408000000 cycles:  350760119 heartbeat IPC: 1.05282 cumulative IPC: 1.02600 (Simulation time: 0 hr 13 min 58 sec) 
Heartbeat CPU  0 instructions:  409000002 cycles:  351706879 heartbeat IPC: 1.05624 cumulative IPC: 1.02609 (Simulation time: 0 hr 14 min 1 sec) 
Heartbeat CPU  0 instructions:  410000002 cycles:  352654989 heartbeat IPC: 1.05473 cumulative IPC: 1.02618 (Simulation time: 0 hr 14 min 3 sec) 
Heartbeat CPU  0 instructions:  411000000 cycles:  353605431 heartbeat IPC: 1.05214 cumulative IPC: 1.02626 (Simulation time: 0 hr 14 min 5 sec) 
Heartbeat CPU  0 instructions:  412000000 cycles:  354554596 heartbeat IPC: 1.05356 cumulative IPC: 1.02635 (Simulation time: 0 hr 14 min 7 sec) 
Heartbeat CPU  0 instructions:  413000001 cycles:  355504125 heartbeat IPC: 1.05315 cumulative IPC: 1.02643 (Simulation time: 0 hr 14 min 9 sec) 
Heartbeat CPU  0 instructions:  414000000 cycles:  356452614 heartbeat IPC: 1.05431 cumulative IPC: 1.02652 (Simulation time: 0 hr 14 min 12 sec) 
Heartbeat CPU  0 instructions:  415000002 cycles:  357402088 heartbeat IPC: 1.05322 cumulative IPC: 1.02660 (Simulation time: 0 hr 14 min 14 sec) 
Heartbeat CPU  0 instructions:  416000000 cycles:  358350649 heartbeat IPC: 1.05423 cumulative IPC: 1.02668 (Simulation time: 0 hr 14 min 16 sec) 
Heartbeat CPU  0 instructions:  417000001 cycles:  359300015 heartbeat IPC: 1.05334 cumulative IPC: 1.02677 (Simulation time: 0 hr 14 min 18 sec) 
Heartbeat CPU  0 instructions:  418000002 cycles:  360248499 heartbeat IPC: 1.05432 cumulative IPC: 1.02685 (Simulation time: 0 hr 14 min 20 sec) 
Heartbeat CPU  0 instructions:  419000003 cycles:  361196601 heartbeat IPC: 1.05474 cumulative IPC: 1.02694 (Simulation time: 0 hr 14 min 23 sec) 
Heartbeat CPU  0 instructions:  420000000 cycles:  362145427 heartbeat IPC: 1.05393 cumulative IPC: 1.02702 (Simulation time: 0 hr 14 min 25 sec) 
Heartbeat CPU  0 instructions:  421000002 cycles:  363093663 heartbeat IPC: 1.05459 cumulative IPC: 1.02710 (Simulation time: 0 hr 14 min 27 sec) 
Heartbeat CPU  0 instructions:  422000000 cycles:  364042662 heartbeat IPC: 1.05374 cumulative IPC: 1.02718 (Simulation time: 0 hr 14 min 29 sec) 
Heartbeat CPU  0 instructions:  423000003 cycles:  364991086 heartbeat IPC: 1.05438 cumulative IPC: 1.02726 (Simulation time: 0 hr 14 min 31 sec) 
Heartbeat CPU  0 instructions:  424000000 cycles:  365939719 heartbeat IPC: 1.05415 cumulative IPC: 1.02735 (Simulation time: 0 hr 14 min 34 sec) 
Heartbeat CPU  0 instructions:  425000000 cycles:  366887939 heartbeat IPC: 1.05461 cumulative IPC: 1.02743 (Simulation time: 0 hr 14 min 36 sec) 
Heartbeat CPU  0 instructions:  426000000 cycles:  367836606 heartbeat IPC: 1.05411 cumulative IPC: 1.02751 (Simulation time: 0 hr 14 min 38 sec) 
Heartbeat CPU  0 instructions:  427000003 cycles:  368784697 heartbeat IPC: 1.05475 cumulative IPC: 1.02759 (Simulation time: 0 hr 14 min 40 sec) 
Heartbeat CPU  0 instructions:  428000000 cycles:  369733199 heartbeat IPC: 1.05429 cumulative IPC: 1.02767 (Simulation time: 0 hr 14 min 42 sec) 
Heartbeat CPU  0 instructions:  429000000 cycles:  370681503 heartbeat IPC: 1.05451 cumulative IPC: 1.02775 (Simulation time: 0 hr 14 min 45 sec) 
Heartbeat CPU  0 instructions:  430000003 cycles:  371629864 heartbeat IPC: 1.05445 cumulative IPC: 1.02783 (Simulation time: 0 hr 14 min 47 sec) 
Heartbeat CPU  0 instructions:  431000003 cycles:  372578496 heartbeat IPC: 1.05415 cumulative IPC: 1.02790 (Simulation time: 0 hr 14 min 49 sec) 
Heartbeat CPU  0 instructions:  432000000 cycles:  373526674 heartbeat IPC: 1.05465 cumulative IPC: 1.02798 (Simulation time: 0 hr 14 min 51 sec) 
Heartbeat CPU  0 instructions:  433000001 cycles:  374475911 heartbeat IPC: 1.05348 cumulative IPC: 1.02806 (Simulation time: 0 hr 14 min 54 sec) 
Heartbeat CPU  0 instructions:  434000003 cycles:  375424564 heartbeat IPC: 1.05413 cumulative IPC: 1.02813 (Simulation time: 0 hr 14 min 56 sec) 
Heartbeat CPU  0 instructions:  435000001 cycles:  376373285 heartbeat IPC: 1.05405 cumulative IPC: 1.02821 (Simulation time: 0 hr 14 min 58 sec) 
Heartbeat CPU  0 instructions:  436000000 cycles:  377321371 heartbeat IPC: 1.05476 cumulative IPC: 1.02829 (Simulation time: 0 hr 15 min 0 sec) 
Heartbeat CPU  0 instructions:  437000000 cycles:  378270848 heartbeat IPC: 1.05321 cumulative IPC: 1.02836 (Simulation time: 0 hr 15 min 2 sec) 
Heartbeat CPU  0 instructions:  438000001 cycles:  379219379 heartbeat IPC: 1.05426 cumulative IPC: 1.02843 (Simulation time: 0 hr 15 min 5 sec) 
Heartbeat CPU  0 instructions:  439000002 cycles:  380167381 heartbeat IPC: 1.05485 cumulative IPC: 1.02851 (Simulation time: 0 hr 15 min 7 sec) 
Heartbeat CPU  0 instructions:  440000000 cycles:  381117349 heartbeat IPC: 1.05266 cumulative IPC: 1.02858 (Simulation time: 0 hr 15 min 9 sec) 
Heartbeat CPU  0 instructions:  441000001 cycles:  382065631 heartbeat IPC: 1.05454 cumulative IPC: 1.02865 (Simulation time: 0 hr 15 min 11 sec) 
Heartbeat CPU  0 instructions:  442000001 cycles:  383014646 heartbeat IPC: 1.05372 cumulative IPC: 1.02872 (Simulation time: 0 hr 15 min 13 sec) 
Heartbeat CPU  0 instructions:  443000002 cycles:  383962773 heartbeat IPC: 1.05471 cumulative IPC: 1.02880 (Simulation time: 0 hr 15 min 16 sec) 
Heartbeat CPU  0 instructions:  444000000 cycles:  384912116 heartbeat IPC: 1.05336 cumulative IPC: 1.02887 (Simulation time: 0 hr 15 min 18 sec) 
Heartbeat CPU  0 instructions:  445000001 cycles:  385860537 heartbeat IPC: 1.05439 cumulative IPC: 1.02894 (Simulation time: 0 hr 15 min 20 sec) 
Heartbeat CPU  0 instructions:  446000001 cycles:  386809119 heartbeat IPC: 1.05421 cumulative IPC: 1.02901 (Simulation time: 0 hr 15 min 22 sec) 
Heartbeat CPU  0 instructions:  447000002 cycles:  387757254 heartbeat IPC: 1.05470 cumulative IPC: 1.02908 (Simulation time: 0 hr 15 min 24 sec) 
Heartbeat CPU  0 instructions:  448000000 cycles:  388707122 heartbeat IPC: 1.05278 cumulative IPC: 1.02915 (Simulation time: 0 hr 15 min 27 sec) 
Heartbeat CPU  0 instructions:  449000003 cycles:  389655812 heartbeat IPC: 1.05409 cumulative IPC: 1.02922 (Simulation time: 0 hr 15 min 29 sec) 
Heartbeat CPU  0 instructions:  450000002 cycles:  390603718 heartbeat IPC: 1.05496 cumulative IPC: 1.02929 (Simulation time: 0 hr 15 min 31 sec) 
Heartbeat CPU  0 instructions:  451000000 cycles:  391553185 heartbeat IPC: 1.05322 cumulative IPC: 1.02936 (Simulation time: 0 hr 15 min 33 sec) 
Heartbeat CPU  0 instructions:  452000000 cycles:  392501439 heartbeat IPC: 1.05457 cumulative IPC: 1.02943 (Simulation time: 0 hr 15 min 35 sec) 
Heartbeat CPU  0 instructions:  453000003 cycles:  393450529 heartbeat IPC: 1.05364 cumulative IPC: 1.02949 (Simulation time: 0 hr 15 min 38 sec) 
Heartbeat CPU  0 instructions:  454000000 cycles:  394399313 heartbeat IPC: 1.05398 cumulative IPC: 1.02956 (Simulation time: 0 hr 15 min 40 sec) 
Heartbeat CPU  0 instructions:  455000002 cycles:  395348487 heartbeat IPC: 1.05355 cumulative IPC: 1.02963 (Simulation time: 0 hr 15 min 42 sec) 
Heartbeat CPU  0 instructions:  456000000 cycles:  396296901 heartbeat IPC: 1.05439 cumulative IPC: 1.02970 (Simulation time: 0 hr 15 min 44 sec) 
Heartbeat CPU  0 instructions:  457000000 cycles:  397245775 heartbeat IPC: 1.05388 cumulative IPC: 1.02976 (Simulation time: 0 hr 15 min 46 sec) 
Heartbeat CPU  0 instructions:  458000002 cycles:  398194605 heartbeat IPC: 1.05393 cumulative IPC: 1.02983 (Simulation time: 0 hr 15 min 49 sec) 
Heartbeat CPU  0 instructions:  459000003 cycles:  399142787 heartbeat IPC: 1.05465 cumulative IPC: 1.02990 (Simulation time: 0 hr 15 min 51 sec) 
Heartbeat CPU  0 instructions:  460000000 cycles:  400061114 heartbeat IPC: 1.08893 cumulative IPC: 1.03005 (Simulation time: 0 hr 15 min 53 sec) 
Heartbeat CPU  0 instructions:  461000000 cycles:  400894156 heartbeat IPC: 1.20042 cumulative IPC: 1.03046 (Simulation time: 0 hr 15 min 55 sec) 
Heartbeat CPU  0 instructions:  462000000 cycles:  401728878 heartbeat IPC: 1.19800 cumulative IPC: 1.03085 (Simulation time: 0 hr 15 min 57 sec) 
Heartbeat CPU  0 instructions:  463000001 cycles:  402559043 heartbeat IPC: 1.20458 cumulative IPC: 1.03126 (Simulation time: 0 hr 15 min 59 sec) 
Heartbeat CPU  0 instructions:  464000000 cycles:  403390105 heartbeat IPC: 1.20328 cumulative IPC: 1.03167 (Simulation time: 0 hr 16 min 1 sec) 
Heartbeat CPU  0 instructions:  465000002 cycles:  404224973 heartbeat IPC: 1.19780 cumulative IPC: 1.03206 (Simulation time: 0 hr 16 min 3 sec) 
Heartbeat CPU  0 instructions:  466000000 cycles:  405060297 heartbeat IPC: 1.19714 cumulative IPC: 1.03245 (Simulation time: 0 hr 16 min 5 sec) 
Heartbeat CPU  0 instructions:  467000001 cycles:  405889919 heartbeat IPC: 1.20537 cumulative IPC: 1.03285 (Simulation time: 0 hr 16 min 7 sec) 
Heartbeat CPU  0 instructions:  468000000 cycles:  406721720 heartbeat IPC: 1.20221 cumulative IPC: 1.03325 (Simulation time: 0 hr 16 min 9 sec) 
Heartbeat CPU  0 instructions:  469000003 cycles:  407591357 heartbeat IPC: 1.14991 cumulative IPC: 1.03353 (Simulation time: 0 hr 16 min 11 sec) 
Heartbeat CPU  0 instructions:  470000001 cycles:  408597684 heartbeat IPC: 0.99371 cumulative IPC: 1.03342 (Simulation time: 0 hr 16 min 13 sec) 
Heartbeat CPU  0 instructions:  471000001 cycles:  409656145 heartbeat IPC: 0.94477 cumulative IPC: 1.03316 (Simulation time: 0 hr 16 min 15 sec) 
Heartbeat CPU  0 instructions:  472000000 cycles:  410757883 heartbeat IPC: 0.90766 cumulative IPC: 1.03278 (Simulation time: 0 hr 16 min 17 sec) 
Heartbeat CPU  0 instructions:  473000002 cycles:  411752947 heartbeat IPC: 1.00496 cumulative IPC: 1.03270 (Simulation time: 0 hr 16 min 19 sec) 
Heartbeat CPU  0 instructions:  474000001 cycles:  412755646 heartbeat IPC: 0.99731 cumulative IPC: 1.03260 (Simulation time: 0 hr 16 min 21 sec) 
Heartbeat CPU  0 instructions:  475000002 cycles:  413815682 heartbeat IPC: 0.94337 cumulative IPC: 1.03234 (Simulation time: 0 hr 16 min 23 sec) 
Heartbeat CPU  0 instructions:  476000000 cycles:  414859679 heartbeat IPC: 0.95786 cumulative IPC: 1.03213 (Simulation time: 0 hr 16 min 25 sec) 
Heartbeat CPU  0 instructions:  477000002 cycles:  415802282 heartbeat IPC: 1.06089 cumulative IPC: 1.03220 (Simulation time: 0 hr 16 min 27 sec) 
Heartbeat CPU  0 instructions:  478000000 cycles:  416980529 heartbeat IPC: 0.84872 cumulative IPC: 1.03161 (Simulation time: 0 hr 16 min 29 sec) 
Heartbeat CPU  0 instructions:  479000002 cycles:  418161296 heartbeat IPC: 0.84691 cumulative IPC: 1.03102 (Simulation time: 0 hr 16 min 32 sec) 
Heartbeat CPU  0 instructions:  480000000 cycles:  419323286 heartbeat IPC: 0.86059 cumulative IPC: 1.03048 (Simulation time: 0 hr 16 min 34 sec) 
Heartbeat CPU  0 instructions:  481000003 cycles:  420544809 heartbeat IPC: 0.81865 cumulative IPC: 1.02978 (Simulation time: 0 hr 16 min 36 sec) 
Heartbeat CPU  0 instructions:  482000003 cycles:  421660482 heartbeat IPC: 0.89632 cumulative IPC: 1.02938 (Simulation time: 0 hr 16 min 38 sec) 
Heartbeat CPU  0 instructions:  483000003 cycles:  422774064 heartbeat IPC: 0.89800 cumulative IPC: 1.02899 (Simulation time: 0 hr 16 min 40 sec) 
Heartbeat CPU  0 instructions:  484000000 cycles:  423972935 heartbeat IPC: 0.83412 cumulative IPC: 1.02836 (Simulation time: 0 hr 16 min 42 sec) 
Heartbeat CPU  0 instructions:  485000002 cycles:  425124019 heartbeat IPC: 0.86875 cumulative IPC: 1.02787 (Simulation time: 0 hr 16 min 44 sec) 
Heartbeat CPU  0 instructions:  486000000 cycles:  426151523 heartbeat IPC: 0.97323 cumulative IPC: 1.02772 (Simulation time: 0 hr 16 min 46 sec) 
Heartbeat CPU  0 instructions:  487000000 cycles:  427739596 heartbeat IPC: 0.62969 cumulative IPC: 1.02605 (Simulation time: 0 hr 16 min 49 sec) 
Heartbeat CPU  0 instructions:  488000000 cycles:  429310129 heartbeat IPC: 0.63673 cumulative IPC: 1.02443 (Simulation time: 0 hr 16 min 52 sec) 
Heartbeat CPU  0 instructions:  489000000 cycles:  430885336 heartbeat IPC: 0.63484 cumulative IPC: 1.02282 (Simulation time: 0 hr 16 min 54 sec) 
Heartbeat CPU  0 instructions:  490000003 cycles:  432356372 heartbeat IPC: 0.67980 cumulative IPC: 1.02150 (Simulation time: 0 hr 16 min 57 sec) 
Heartbeat CPU  0 instructions:  491000003 cycles:  433914559 heartbeat IPC: 0.64177 cumulative IPC: 1.01995 (Simulation time: 0 hr 16 min 59 sec) 
Heartbeat CPU  0 instructions:  492000000 cycles:  435439873 heartbeat IPC: 0.65560 cumulative IPC: 1.01851 (Simulation time: 0 hr 17 min 2 sec) 
Heartbeat CPU  0 instructions:  493000001 cycles:  436974880 heartbeat IPC: 0.65146 cumulative IPC: 1.01705 (Simulation time: 0 hr 17 min 5 sec) 
Heartbeat CPU  0 instructions:  494000000 cycles:  438481477 heartbeat IPC: 0.66375 cumulative IPC: 1.01568 (Simulation time: 0 hr 17 min 7 sec) 
Heartbeat CPU  0 instructions:  495000000 cycles:  440018234 heartbeat IPC: 0.65072 cumulative IPC: 1.01424 (Simulation time: 0 hr 17 min 10 sec) 
Heartbeat CPU  0 instructions:  496000000 cycles:  441520755 heartbeat IPC: 0.66555 cumulative IPC: 1.01290 (Simulation time: 0 hr 17 min 12 sec) 
Heartbeat CPU  0 instructions:  497000002 cycles:  443033453 heartbeat IPC: 0.66107 cumulative IPC: 1.01154 (Simulation time: 0 hr 17 min 15 sec) 
Heartbeat CPU  0 instructions:  498000001 cycles:  444601048 heartbeat IPC: 0.63792 cumulative IPC: 1.01006 (Simulation time: 0 hr 17 min 18 sec) 
Heartbeat CPU  0 instructions:  499000000 cycles:  446124053 heartbeat IPC: 0.65660 cumulative IPC: 1.00870 (Simulation time: 0 hr 17 min 20 sec) 
Heartbeat CPU  0 instructions:  500000000 cycles:  447657444 heartbeat IPC: 0.65215 cumulative IPC: 1.00732 (Simulation time: 0 hr 17 min 23 sec) 
Heartbeat CPU  0 instructions:  501000003 cycles:  449158605 heartbeat IPC: 0.66615 cumulative IPC: 1.00603 (Simulation time: 0 hr 17 min 25 sec) 
Heartbeat CPU  0 instructions:  502000002 cycles:  450682156 heartbeat IPC: 0.65636 cumulative IPC: 1.00470 (Simulation time: 0 hr 17 min 28 sec) 
Heartbeat CPU  0 instructions:  503000000 cycles:  452143780 heartbeat IPC: 0.68417 cumulative IPC: 1.00354 (Simulation time: 0 hr 17 min 31 sec) 
Heartbeat CPU  0 instructions:  504000000 cycles:  453689517 heartbeat IPC: 0.64694 cumulative IPC: 1.00217 (Simulation time: 0 hr 17 min 33 sec) 
Heartbeat CPU  0 instructions:  505000000 cycles:  455161583 heartbeat IPC: 0.67932 cumulative IPC: 1.00099 (Simulation time: 0 hr 17 min 36 sec) 
Heartbeat CPU  0 instructions:  506000003 cycles:  456720659 heartbeat IPC: 0.64141 cumulative IPC: 0.99961 (Simulation time: 0 hr 17 min 39 sec) 
Heartbeat CPU  0 instructions:  507000002 cycles:  458161977 heartbeat IPC: 0.69381 cumulative IPC: 0.99853 (Simulation time: 0 hr 17 min 41 sec) 
Heartbeat CPU  0 instructions:  508000000 cycles:  459721476 heartbeat IPC: 0.64123 cumulative IPC: 0.99717 (Simulation time: 0 hr 17 min 44 sec) 
Heartbeat CPU  0 instructions:  509000001 cycles:  461157173 heartbeat IPC: 0.69653 cumulative IPC: 0.99612 (Simulation time: 0 hr 17 min 46 sec) 
Heartbeat CPU  0 instructions:  510000000 cycles:  462713693 heartbeat IPC: 0.64246 cumulative IPC: 0.99478 (Simulation time: 0 hr 17 min 49 sec) 
Heartbeat CPU  0 instructions:  511000001 cycles:  464151478 heartbeat IPC: 0.69551 cumulative IPC: 0.99374 (Simulation time: 0 hr 17 min 51 sec) 
Heartbeat CPU  0 instructions:  512000000 cycles:  465702974 heartbeat IPC: 0.64454 cumulative IPC: 0.99244 (Simulation time: 0 hr 17 min 54 sec) 
Heartbeat CPU  0 instructions:  513000000 cycles:  467165669 heartbeat IPC: 0.68367 cumulative IPC: 0.99135 (Simulation time: 0 hr 17 min 57 sec) 
Heartbeat CPU  0 instructions:  514000001 cycles:  468717042 heartbeat IPC: 0.64459 cumulative IPC: 0.99007 (Simulation time: 0 hr 17 min 59 sec) 
Heartbeat CPU  0 instructions:  515000003 cycles:  470201518 heartbeat IPC: 0.67364 cumulative IPC: 0.98895 (Simulation time: 0 hr 18 min 2 sec) 
Heartbeat CPU  0 instructions:  516000000 cycles:  471732513 heartbeat IPC: 0.65317 cumulative IPC: 0.98773 (Simulation time: 0 hr 18 min 5 sec) 
Heartbeat CPU  0 instructions:  517000001 cycles:  473209431 heartbeat IPC: 0.67709 cumulative IPC: 0.98664 (Simulation time: 0 hr 18 min 7 sec) 
Heartbeat CPU  0 instructions:  518000001 cycles:  474723573 heartbeat IPC: 0.66044 cumulative IPC: 0.98548 (Simulation time: 0 hr 18 min 10 sec) 
Heartbeat CPU  0 instructions:  519000000 cycles:  476213907 heartbeat IPC: 0.67099 cumulative IPC: 0.98438 (Simulation time: 0 hr 18 min 12 sec) 
Heartbeat CPU  0 instructions:  520000000 cycles:  477715143 heartbeat IPC: 0.66612 cumulative IPC: 0.98326 (Simulation time: 0 hr 18 min 15 sec) 
Heartbeat CPU  0 instructions:  521000002 cycles:  479280412 heartbeat IPC: 0.63887 cumulative IPC: 0.98200 (Simulation time: 0 hr 18 min 18 sec) 
Heartbeat CPU  0 instructions:  522000002 cycles:  480840470 heartbeat IPC: 0.64100 cumulative IPC: 0.98076 (Simulation time: 0 hr 18 min 20 sec) 
Heartbeat CPU  0 instructions:  523000001 cycles:  482400676 heartbeat IPC: 0.64094 cumulative IPC: 0.97954 (Simulation time: 0 hr 18 min 23 sec) 
Heartbeat CPU  0 instructions:  524000000 cycles:  483638156 heartbeat IPC: 0.80809 cumulative IPC: 0.97905 (Simulation time: 0 hr 18 min 25 sec) 
Heartbeat CPU  0 instructions:  525000000 cycles:  484485201 heartbeat IPC: 1.18057 cumulative IPC: 0.97944 (Simulation time: 0 hr 18 min 27 sec) 
Heartbeat CPU  0 instructions:  526000001 cycles:  485338253 heartbeat IPC: 1.17226 cumulative IPC: 0.97982 (Simulation time: 0 hr 18 min 30 sec) 
Heartbeat CPU  0 instructions:  527000001 cycles:  486195408 heartbeat IPC: 1.16665 cumulative IPC: 0.98019 (Simulation time: 0 hr 18 min 32 sec) 
Heartbeat CPU  0 instructions:  528000000 cycles:  487050207 heartbeat IPC: 1.16986 cumulative IPC: 0.98056 (Simulation time: 0 hr 18 min 34 sec) 
Heartbeat CPU  0 instructions:  529000003 cycles:  487902901 heartbeat IPC: 1.17276 cumulative IPC: 0.98093 (Simulation time: 0 hr 18 min 36 sec) 
Heartbeat CPU  0 instructions:  530000002 cycles:  488749596 heartbeat IPC: 1.18106 cumulative IPC: 0.98132 (Simulation time: 0 hr 18 min 38 sec) 
Heartbeat CPU  0 instructions:  531000001 cycles:  489597497 heartbeat IPC: 1.17938 cumulative IPC: 0.98170 (Simulation time: 0 hr 18 min 40 sec) 
Heartbeat CPU  0 instructions:  532000000 cycles:  490440562 heartbeat IPC: 1.18615 cumulative IPC: 0.98209 (Simulation time: 0 hr 18 min 43 sec) 
Heartbeat CPU  0 instructions:  533000003 cycles:  491267554 heartbeat IPC: 1.20921 cumulative IPC: 0.98252 (Simulation time: 0 hr 18 min 45 sec) 
Heartbeat CPU  0 instructions:  534000001 cycles:  492091530 heartbeat IPC: 1.21363 cumulative IPC: 0.98295 (Simulation time: 0 hr 18 min 47 sec) 
Heartbeat CPU  0 instructions:  535000000 cycles:  492969456 heartbeat IPC: 1.13905 cumulative IPC: 0.98326 (Simulation time: 0 hr 18 min 49 sec) 
Heartbeat CPU  0 instructions:  536000000 cycles:  493871335 heartbeat IPC: 1.10880 cumulative IPC: 0.98352 (Simulation time: 0 hr 18 min 51 sec) 
Heartbeat CPU  0 instructions:  537000003 cycles:  494784212 heartbeat IPC: 1.09544 cumulative IPC: 0.98375 (Simulation time: 0 hr 18 min 53 sec) 
Heartbeat CPU  0 instructions:  538000003 cycles:  495670630 heartbeat IPC: 1.12814 cumulative IPC: 0.98403 (Simulation time: 0 hr 18 min 55 sec) 
Heartbeat CPU  0 instructions:  539000001 cycles:  496548099 heartbeat IPC: 1.13964 cumulative IPC: 0.98434 (Simulation time: 0 hr 18 min 57 sec) 
Heartbeat CPU  0 instructions:  540000000 cycles:  497437081 heartbeat IPC: 1.12488 cumulative IPC: 0.98462 (Simulation time: 0 hr 18 min 59 sec) 
Heartbeat CPU  0 instructions:  541000003 cycles:  498312449 heartbeat IPC: 1.14238 cumulative IPC: 0.98493 (Simulation time: 0 hr 19 min 2 sec) 
Heartbeat CPU  0 instructions:  542000000 cycles:  499202357 heartbeat IPC: 1.12371 cumulative IPC: 0.98520 (Simulation time: 0 hr 19 min 4 sec) 
Heartbeat CPU  0 instructions:  543000000 cycles:  500034734 heartbeat IPC: 1.20138 cumulative IPC: 0.98560 (Simulation time: 0 hr 19 min 6 sec) 
Heartbeat CPU  0 instructions:  544000000 cycles:  500861600 heartbeat IPC: 1.20939 cumulative IPC: 0.98601 (Simulation time: 0 hr 19 min 8 sec) 
Heartbeat CPU  0 instructions:  545000003 cycles:  501731672 heartbeat IPC: 1.14933 cumulative IPC: 0.98633 (Simulation time: 0 hr 19 min 10 sec) 
Heartbeat CPU  0 instructions:  546000002 cycles:  502627553 heartbeat IPC: 1.11622 cumulative IPC: 0.98659 (Simulation time: 0 hr 19 min 12 sec) 
Heartbeat CPU  0 instructions:  547000002 cycles:  503572325 heartbeat IPC: 1.05846 cumulative IPC: 0.98674 (Simulation time: 0 hr 19 min 14 sec) 
Heartbeat CPU  0 instructions:  548000000 cycles:  504492502 heartbeat IPC: 1.08675 cumulative IPC: 0.98694 (Simulation time: 0 hr 19 min 16 sec) 
Heartbeat CPU  0 instructions:  549000003 cycles:  505377796 heartbeat IPC: 1.12957 cumulative IPC: 0.98722 (Simulation time: 0 hr 19 min 18 sec) 
Heartbeat CPU  0 instructions:  550000000 cycles:  506268954 heartbeat IPC: 1.12213 cumulative IPC: 0.98748 (Simulation time: 0 hr 19 min 21 sec) 
Heartbeat CPU  0 instructions:  551000000 cycles:  507170832 heartbeat IPC: 1.10880 cumulative IPC: 0.98772 (Simulation time: 0 hr 19 min 23 sec) 
Heartbeat CPU  0 instructions:  552000000 cycles:  508065601 heartbeat IPC: 1.11761 cumulative IPC: 0.98797 (Simulation time: 0 hr 19 min 25 sec) 
Heartbeat CPU  0 instructions:  553000000 cycles:  508951600 heartbeat IPC: 1.12867 cumulative IPC: 0.98825 (Simulation time: 0 hr 19 min 27 sec) 
Heartbeat CPU  0 instructions:  554000000 cycles:  509776348 heartbeat IPC: 1.21249 cumulative IPC: 0.98865 (Simulation time: 0 hr 19 min 29 sec) 
Heartbeat CPU  0 instructions:  555000002 cycles:  510616997 heartbeat IPC: 1.18956 cumulative IPC: 0.98902 (Simulation time: 0 hr 19 min 31 sec) 
Heartbeat CPU  0 instructions:  556000000 cycles:  511520694 heartbeat IPC: 1.10656 cumulative IPC: 0.98925 (Simulation time: 0 hr 19 min 33 sec) 
Heartbeat CPU  0 instructions:  557000000 cycles:  512480850 heartbeat IPC: 1.04150 cumulative IPC: 0.98936 (Simulation time: 0 hr 19 min 35 sec) 
Heartbeat CPU  0 instructions:  558000000 cycles:  513414505 heartbeat IPC: 1.07106 cumulative IPC: 0.98952 (Simulation time: 0 hr 19 min 38 sec) 
Heartbeat CPU  0 instructions:  559000000 cycles:  514328373 heartbeat IPC: 1.09425 cumulative IPC: 0.98973 (Simulation time: 0 hr 19 min 40 sec) 
Heartbeat CPU  0 instructions:  560000000 cycles:  515264374 heartbeat IPC: 1.06837 cumulative IPC: 0.98988 (Simulation time: 0 hr 19 min 42 sec) 
Heartbeat CPU  0 instructions:  561000001 cycles:  516165380 heartbeat IPC: 1.10987 cumulative IPC: 0.99012 (Simulation time: 0 hr 19 min 44 sec) 
Heartbeat CPU  0 instructions:  562000003 cycles:  517063762 heartbeat IPC: 1.11311 cumulative IPC: 0.99035 (Simulation time: 0 hr 19 min 46 sec) 
Heartbeat CPU  0 instructions:  563000000 cycles:  517952234 heartbeat IPC: 1.12552 cumulative IPC: 0.99061 (Simulation time: 0 hr 19 min 48 sec) 
Heartbeat CPU  0 instructions:  564000000 cycles:  518783661 heartbeat IPC: 1.20275 cumulative IPC: 0.99099 (Simulation time: 0 hr 19 min 50 sec) 
Heartbeat CPU  0 instructions:  565000003 cycles:  519586864 heartbeat IPC: 1.24502 cumulative IPC: 0.99142 (Simulation time: 0 hr 19 min 52 sec) 
Heartbeat CPU  0 instructions:  566000003 cycles:  520483621 heartbeat IPC: 1.11513 cumulative IPC: 0.99166 (Simulation time: 0 hr 19 min 55 sec) 
Heartbeat CPU  0 instructions:  567000001 cycles:  521412605 heartbeat IPC: 1.07644 cumulative IPC: 0.99183 (Simulation time: 0 hr 19 min 57 sec) 
Heartbeat CPU  0 instructions:  568000000 cycles:  522356824 heartbeat IPC: 1.05908 cumulative IPC: 0.99196 (Simulation time: 0 hr 19 min 59 sec) 
Heartbeat CPU  0 instructions:  569000002 cycles:  523278438 heartbeat IPC: 1.08506 cumulative IPC: 0.99214 (Simulation time: 0 hr 20 min 1 sec) 
Heartbeat CPU  0 instructions:  570000000 cycles:  524210624 heartbeat IPC: 1.07275 cumulative IPC: 0.99230 (Simulation time: 0 hr 20 min 3 sec) 
Heartbeat CPU  0 instructions:  571000002 cycles:  525130078 heartbeat IPC: 1.08760 cumulative IPC: 0.99249 (Simulation time: 0 hr 20 min 5 sec) 
Heartbeat CPU  0 instructions:  572000000 cycles:  526030413 heartbeat IPC: 1.11070 cumulative IPC: 0.99271 (Simulation time: 0 hr 20 min 8 sec) 
Heartbeat CPU  0 instructions:  573000001 cycles:  526911345 heartbeat IPC: 1.13516 cumulative IPC: 0.99297 (Simulation time: 0 hr 20 min 10 sec) 
Heartbeat CPU  0 instructions:  574000003 cycles:  527774957 heartbeat IPC: 1.15793 cumulative IPC: 0.99327 (Simulation time: 0 hr 20 min 12 sec) 
Heartbeat CPU  0 instructions:  575000000 cycles:  528578816 heartbeat IPC: 1.24400 cumulative IPC: 0.99369 (Simulation time: 0 hr 20 min 14 sec) 
Heartbeat CPU  0 instructions:  576000000 cycles:  529436135 heartbeat IPC: 1.16643 cumulative IPC: 0.99400 (Simulation time: 0 hr 20 min 16 sec) 
Heartbeat CPU  0 instructions:  577000000 cycles:  530365706 heartbeat IPC: 1.07577 cumulative IPC: 0.99416 (Simulation time: 0 hr 20 min 18 sec) 
Heartbeat CPU  0 instructions:  578000002 cycles:  531313541 heartbeat IPC: 1.05504 cumulative IPC: 0.99428 (Simulation time: 0 hr 20 min 20 sec) 
Heartbeat CPU  0 instructions:  579000001 cycles:  532229317 heartbeat IPC: 1.09197 cumulative IPC: 0.99447 (Simulation time: 0 hr 20 min 22 sec) 
Heartbeat CPU  0 instructions:  580000000 cycles:  533177932 heartbeat IPC: 1.05417 cumulative IPC: 0.99458 (Simulation time: 0 hr 20 min 25 sec) 
Heartbeat CPU  0 instructions:  581000002 cycles:  534100903 heartbeat IPC: 1.08346 cumulative IPC: 0.99475 (Simulation time: 0 hr 20 min 27 sec) 
Heartbeat CPU  0 instructions:  582000000 cycles:  535014762 heartbeat IPC: 1.09426 cumulative IPC: 0.99494 (Simulation time: 0 hr 20 min 29 sec) 
Heartbeat CPU  0 instructions:  583000003 cycles:  535925628 heartbeat IPC: 1.09786 cumulative IPC: 0.99513 (Simulation time: 0 hr 20 min 31 sec) 
Heartbeat CPU  0 instructions:  584000000 cycles:  536813969 heartbeat IPC: 1.12569 cumulative IPC: 0.99537 (Simulation time: 0 hr 20 min 33 sec) 
Heartbeat CPU  0 instructions:  585000002 cycles:  537637340 heartbeat IPC: 1.21452 cumulative IPC: 0.99574 (Simulation time: 0 hr 20 min 35 sec) 
Heartbeat CPU  0 instructions:  586000003 cycles:  538447763 heartbeat IPC: 1.23392 cumulative IPC: 0.99614 (Simulation time: 0 hr 20 min 37 sec) 
Heartbeat CPU  0 instructions:  587000001 cycles:  539384886 heartbeat IPC: 1.06709 cumulative IPC: 0.99627 (Simulation time: 0 hr 20 min 39 sec) 
Heartbeat CPU  0 instructions:  588000000 cycles:  540340575 heartbeat IPC: 1.04636 cumulative IPC: 0.99637 (Simulation time: 0 hr 20 min 42 sec) 
Heartbeat CPU  0 instructions:  589000002 cycles:  541278906 heartbeat IPC: 1.06572 cumulative IPC: 0.99650 (Simulation time: 0 hr 20 min 44 sec) 
Heartbeat CPU  0 instructions:  590000001 cycles:  542210666 heartbeat IPC: 1.07324 cumulative IPC: 0.99665 (Simulation time: 0 hr 20 min 46 sec) 
Heartbeat CPU  0 instructions:  591000002 cycles:  543146827 heartbeat IPC: 1.06819 cumulative IPC: 0.99679 (Simulation time: 0 hr 20 min 48 sec) 
Heartbeat CPU  0 instructions:  592000000 cycles:  544064213 heartbeat IPC: 1.09005 cumulative IPC: 0.99696 (Simulation time: 0 hr 20 min 50 sec) 
Heartbeat CPU  0 instructions:  593000003 cycles:  544971471 heartbeat IPC: 1.10223 cumulative IPC: 0.99715 (Simulation time: 0 hr 20 min 52 sec) 
Heartbeat CPU  0 instructions:  594000000 cycles:  545875724 heartbeat IPC: 1.10588 cumulative IPC: 0.99735 (Simulation time: 0 hr 20 min 54 sec) 
Heartbeat CPU  0 instructions:  595000003 cycles:  546727003 heartbeat IPC: 1.17471 cumulative IPC: 0.99766 (Simulation time: 0 hr 20 min 57 sec) 
Heartbeat CPU  0 instructions:  596000000 cycles:  547539088 heartbeat IPC: 1.23139 cumulative IPC: 0.99804 (Simulation time: 0 hr 20 min 59 sec) 
Heartbeat CPU  0 instructions:  597000001 cycles:  548392176 heartbeat IPC: 1.17221 cumulative IPC: 0.99834 (Simulation time: 0 hr 21 min 1 sec) 
Heartbeat CPU  0 instructions:  598000002 cycles:  549362636 heartbeat IPC: 1.03044 cumulative IPC: 0.99840 (Simulation time: 0 hr 21 min 3 sec) 
Heartbeat CPU  0 instructions:  599000000 cycles:  550299090 heartbeat IPC: 1.06786 cumulative IPC: 0.99853 (Simulation time: 0 hr 21 min 5 sec) 
Heartbeat CPU  0 instructions:  600000000 cycles:  551216209 heartbeat IPC: 1.09037 cumulative IPC: 0.99870 (Simulation time: 0 hr 21 min 7 sec) 
Finished CPU 0 instructions: 500000001 cycles: 500652405 cumulative IPC: 0.99870 (Simulation time: 0 hr 21 min 7 sec) 

ChampSim completed all CPUs

[ROI Statistics]
Core_0_instructions 500000001
Core_0_cycles 500652405
Core_0_IPC 0.99870

Core_0_branch_prediction_accuracy 99.14585
Core_0_branch_MPKI 0.18961
Core_0_average_ROB_occupancy_at_mispredict 243.84485

Core_0_L1D_total_access 146354771
Core_0_L1D_total_hit 141503795
Core_0_L1D_total_miss 4850976
Core_0_L1D_loads 135637737
Core_0_L1D_load_hit 132177676
Core_0_L1D_load_miss 3460061
Core_0_L1D_RFOs 10717034
Core_0_L1D_RFO_hit 9326119
Core_0_L1D_RFO_miss 1390915
Core_0_L1D_prefetches 0
Core_0_L1D_prefetch_hit 0
Core_0_L1D_prefetch_miss 0
Core_0_L1D_writebacks 0
Core_0_L1D_writeback_hit 0
Core_0_L1D_writeback_miss 0
Core_0_L1D_prefetch_requested 0
Core_0_L1D_prefetch_dropped 0
Core_0_L1D_prefetch_issued 0
Core_0_L1D_prefetch_filled 0
Core_0_L1D_prefetch_useful 0
Core_0_L1D_prefetch_useless 0
Core_0_L1D_prefetch_late 0
Core_0_L1D_average_miss_latency 88.58386

Core_0_L1D_rq_access 196256197
Core_0_L1D_rq_forward 0
Core_0_L1D_rq_merged 59747326
Core_0_L1D_rq_to_cache 136508871
Core_0_L1D_rq_full 0

Core_0_L1D_wq_access 15647860
Core_0_L1D_wq_forward 0
Core_0_L1D_wq_merged 1
Core_0_L1D_wq_to_cache 15647859
Core_0_L1D_wq_full 33466

Core_0_L1D_pq_access 0
Core_0_L1D_pq_forward 0
Core_0_L1D_pq_merged 0
Core_0_L1D_pq_to_cache 0
Core_0_L1D_pq_full 0

Core_0_L1D_acc_epochs 532622
Core_0_L1D_acc_level_0 532622
Core_0_L1D_acc_level_1 0
Core_0_L1D_acc_level_2 0
Core_0_L1D_acc_level_3 0
Core_0_L1D_acc_level_4 0
Core_0_L1D_acc_level_5 0
Core_0_L1D_acc_level_6 0
Core_0_L1D_acc_level_7 0
Core_0_L1D_acc_level_8 0
Core_0_L1D_acc_level_9 0

Core_0_L1I_total_access 116398959
Core_0_L1I_total_hit 116398583
Core_0_L1I_total_miss 376
Core_0_L1I_loads 116398959
Core_0_L1I_load_hit 116398583
Core_0_L1I_load_miss 376
Core_0_L1I_RFOs 0
Core_0_L1I_RFO_hit 0
Core_0_L1I_RFO_miss 0
Core_0_L1I_prefetches 0
Core_0_L1I_prefetch_hit 0
Core_0_L1I_prefetch_miss 0
Core_0_L1I_writebacks 0
Core_0_L1I_writeback_hit 0
Core_0_L1I_writeback_miss 0
Core_0_L1I_prefetch_requested 0
Core_0_L1I_prefetch_dropped 0
Core_0_L1I_prefetch_issued 0
Core_0_L1I_prefetch_filled 0
Core_0_L1I_prefetch_useful 0
Core_0_L1I_prefetch_useless 0
Core_0_L1I_prefetch_late 0
Core_0_L1I_average_miss_latency 117.53989

Core_0_L1I_rq_access 500000000
Core_0_L1I_rq_forward 0
Core_0_L1I_rq_merged 383600451
Core_0_L1I_rq_to_cache 116399549
Core_0_L1I_rq_full 0

Core_0_L1I_wq_access 0
Core_0_L1I_wq_forward 0
Core_0_L1I_wq_merged 0
Core_0_L1I_wq_to_cache 0
Core_0_L1I_wq_full 0

Core_0_L1I_pq_access 0
Core_0_L1I_pq_forward 0
Core_0_L1I_pq_merged 0
Core_0_L1I_pq_to_cache 0
Core_0_L1I_pq_full 0

Core_0_L1I_acc_epochs 532622
Core_0_L1I_acc_level_0 532622
Core_0_L1I_acc_level_1 0
Core_0_L1I_acc_level_2 0
Core_0_L1I_acc_level_3 0
Core_0_L1I_acc_level_4 0
Core_0_L1I_acc_level_5 0
Core_0_L1I_acc_level_6 0
Core_0_L1I_acc_level_7 0
Core_0_L1I_acc_level_8 0
Core_0_L1I_acc_level_9 0

Core_0_L2C_total_access 8957671
Core_0_L2C_total_hit 5279427
Core_0_L2C_total_miss 3678244
Core_0_L2C_loads 3460403
Core_0_L2C_load_hit 3210910
Core_0_L2C_load_miss 249493
Core_0_L2C_RFOs 1390884
Core_0_L2C_RFO_hit 393263
Core_0_L2C_RFO_miss 997621
Core_0_L2C_prefetches 2447632
Core_0_L2C_prefetch_hit 17075
Core_0_L2C_prefetch_miss 2430557
Core_0_L2C_writebacks 1658752
Core_0_L2C_writeback_hit 1658179
Core_0_L2C_writeback_miss 573
Core_0_L2C_prefetch_requested 4453628
Core_0_L2C_prefetch_dropped 0
Core_0_L2C_prefetch_issued 4453628
Core_0_L2C_prefetch_filled 3249531
Core_0_L2C_prefetch_useful 3168487
Core_0_L2C_prefetch_useless 80372
Core_0_L2C_prefetch_late 706
Core_0_L2C_average_miss_latency 242.75551

Core_0_L2C_rq_access 4851352
Core_0_L2C_rq_forward 0
Core_0_L2C_rq_merged 0
Core_0_L2C_rq_to_cache 4851287
Core_0_L2C_rq_full 0

Core_0_L2C_wq_access 1658752
Core_0_L2C_wq_forward 68
Core_0_L2C_wq_merged 0
Core_0_L2C_wq_to_cache 1658752
Core_0_L2C_wq_full 0

Core_0_L2C_pq_access 4453628
Core_0_L2C_pq_forward 0
Core_0_L2C_pq_merged 1850
Core_0_L2C_pq_to_cache 4451775
Core_0_L2C_pq_full 0

Core_0_L2C_acc_epochs 532622
Core_0_L2C_acc_level_0 60376
Core_0_L2C_acc_level_1 20209
Core_0_L2C_acc_level_2 17169
Core_0_L2C_acc_level_3 15034
Core_0_L2C_acc_level_4 17555
Core_0_L2C_acc_level_5 22329
Core_0_L2C_acc_level_6 19587
Core_0_L2C_acc_level_7 26717
Core_0_L2C_acc_level_8 37594
Core_0_L2C_acc_level_9 296052

Core_0_LLC_total_access 5449521
Core_0_LLC_total_hit 1211925
Core_0_LLC_total_miss 4237596
Core_0_LLC_loads 248819
Core_0_LLC_load_hit 56311
Core_0_LLC_load_miss 192508
Core_0_LLC_RFOs 997620
Core_0_LLC_RFO_hit 40605
Core_0_LLC_RFO_miss 957015
Core_0_LLC_prefetches 3093641
Core_0_LLC_prefetch_hit 762678
Core_0_LLC_prefetch_miss 2330963
Core_0_LLC_writebacks 1109441
Core_0_LLC_writeback_hit 352331
Core_0_LLC_writeback_miss 757110
Core_0_LLC_prefetch_requested 0
Core_0_LLC_prefetch_dropped 0
Core_0_LLC_prefetch_issued 0
Core_0_LLC_prefetch_filled 3021166
Core_0_LLC_prefetch_useful 90132
Core_0_LLC_prefetch_useless 2906139
Core_0_LLC_prefetch_late 81
Core_0_LLC_average_miss_latency 224.49919

Core_0_LLC_rq_access 1246439
Core_0_LLC_rq_forward 0
Core_0_LLC_rq_merged 0
Core_0_LLC_rq_to_cache 1246439
Core_0_LLC_rq_full 0

Core_0_LLC_wq_access 1109441
Core_0_LLC_wq_forward 0
Core_0_LLC_wq_merged 0
Core_0_LLC_wq_to_cache 1109441
Core_0_LLC_wq_full 0

Core_0_LLC_pq_access 4408460
Core_0_LLC_pq_forward 0
Core_0_LLC_pq_merged 96
Core_0_LLC_pq_to_cache 4408364
Core_0_LLC_pq_full 0

Core_0_LLC_acc_epochs 538298
Core_0_LLC_acc_level_0 509066
Core_0_LLC_acc_level_1 11107
Core_0_LLC_acc_level_2 5308
Core_0_LLC_acc_level_3 2865
Core_0_LLC_acc_level_4 1664
Core_0_LLC_acc_level_5 2093
Core_0_LLC_acc_level_6 1132
Core_0_LLC_acc_level_7 1122
Core_0_LLC_acc_level_8 793
Core_0_LLC_acc_level_9 3148

Core_0_major_page_fault 0
Core_0_minor_page_fault 19121

[MLOP] History of tracked zone:
IIIIIIIIIIIIIIIIIIIIIIIIIIIIIIIIIIIIIIIIIIIIIIIIIIIIIIIIIIIIIIII
IIIIIIIIIIIIIIIIIIIIIIIIIIIIIIIIIIIIIIIIIIIIIIIIIIA2222444444III
IIIIIIIIIIIIIIIIIIIIIIIIIIIIIIIIIIIIIIIIIIIIIIIIIIAA2222444444II
IIIIIIIIIIIIIIIIIIIIIIIIIIIIIIIIIIIIIIIIIIIIIIIIIIAAA2222444444I
IIIIIIIIIIIIIIIIIIIIIIIIIIIIIIIIIIIIIIIIIIIIIIIIIIAAAA2222444444
IIIIIIIIIIIIIIIIIIIIIIIIIIIIIIIIIIIIIIIIIIIIIIIIIIAAAAA222244444
IIIIIIIIIIIIIIIIIIIIIIIIIIIIIIIIIIIIIIIIIIIIIIIIIIAAAAAA22224444
IIIIIIIIIIIIIIIIIIIIIIIIIIIIIIIIIIIIIIIIIIIIIIIIIIAAAAAAA2222444
IIIIIIIIIIIIIIIIIIIIIIIIIIIIIIIIIIIIIIIIIIIIIIIIIIAAAAAAAA222244
IIIIIIIIIIIIIIIIIIIIIIIIIIIIIIIIIIIIIIIIIIIIIIIIIIAAAAAAAAA22224
IIIIIIIIIIIIIIIIIIIIIIIIIIIIIIIIIIIIIIIIIIIIIIIIIIAAAAAAAAAA2222
IIIIIIIIIIIIIIIIIIIIIIIIIIIIIIIIIIIIIIIIIIIIIIIIIIAAAAAAAAAAA222
IIIIIIIIIIIIIIIIIIIIIIIIIIIIIIIIIIIIIIIIIIIIIIIIIIAAAAAAAAAAAA22
IIIIIIIIIIIIIIIIIIIIIIIIIIIIIIIIIIIIIIIIIIIIIIIIIIAAAAAAAAAAAAA2
IIIIIIIIIIIIIIIIIIIIIIIIIIIIIIIIIIIIIIIIIIIIIIIIIIAAAAAAAAAAAAAA
IIIIIIIIIIIIIIIIIIIIIIIIIIIIIIIIIIIIIIIIIIIIIIIIIIAAAAAAAAAAAIAA
IIIIIIIIIIIIIIIIIIIIIIIIIIIIIIIIIIIIIIIIIIIIIIIIIIAAAAAAAAAAAIIA
IIIIIIIIIIIIIIIIIIIIIIIIIIIIIIIIIIIIIIIIIIIIIIIIIIAAAAAAAAAAAIII
IIIIIIIIIIIIIIIIIIIIIIIIIIIIIIIIIIIIIIIIIIIIIIIIIIAAAIAAAAAAAIII
IIIIIIIIIIIIIIIIIIIIIIIIIIIIIIIIIIIIIIIIIIIIIIIIIIAAAIIAAAAAAIII
IIIIIIIIIIIIIIIIIIIIIIIIIIIIIIIIIIIIIIIIIIIIIIIIIIAAAIIIAAAAAIII
IIIIIIIIIIIIIIIIIIIIIIIIIIIIIIIIIIIIIIIIIIIIIIIIIIAAAIIIIAAAAIII
IIIIIIIIIIIIIIIIIIIIIIIIIIIIIIIIIIIIIIIIIIIIIIIIIIAAAIIIIIAAAIII
IIIIIIIIIIIIIIIIIIIIIIIIIIIIIIIIIIIIIIIIIIIIIIIIIIAAAIIIIIIAAIII
IIIIIIIIIIIIIIIIIIIIIIIIIIIIIIIIIIIIIIIIIIIIIIIIIIAAAIIIIIIIAIII
IIIIIIIIIIIIIIIIIIIIIIIIIIIIIIIIIIIIIIIIIIIIIIIIIIAAAIIIIIIIIIII
IIIIIIIIIIIIIIIIIIIIIIIIIIIIIIIIIIIIIIIIIIIIIIIIIIAIAIIIIIIIIIII
IIIIIIIIIIIIIIIIIIIIIIIIIIIIIIIIIIIIIIIIIIIIIIIIIIIIAIIIIIIIIIII
IIIIIIIIIIIIIIIIIIIIIIIIIIIIIIIIIIIIIIIIIIIIIIIIIIIIIIIIIIIIIIII
[MLOP] Prefetch Degree Mean: 15.58320
[MLOP] Prefetch Degree SD: 1.80320
[MLOP] Max Score Left Mean (%): 67.17054
[MLOP] Max Score Left SD (%): 18.76735
[MLOP] Max Score Right Mean (%): 99.25794
[MLOP] Max Score Right SD (%): 2.90645

Channel_0_RQ_row_buffer_hit 1011445
Channel_0_RQ_row_buffer_miss 2468986
Channel_0_WQ_row_buffer_hit 335235
Channel_0_WQ_row_buffer_miss 735792
Channel_0_WQ_full 6354
Channel_0_dbus_congested 841650

avg_congested_cycle 1

DRAM_bw_pochs 2153189
DRAM_bw_level_0 2142951
DRAM_bw_level_1 10155
DRAM_bw_level_2 82
DRAM_bw_level_3 1
