*************************************************
   ChampSim Multicore Out-of-Order Simulator
   Last compiled: Dec 11 2024 17:59:53
*************************************************
parsing config file: /home/functionmain/桌面/Pythia/config/mlop.ini

trace_0 /home/functionmain/桌面/Pythia/traces/437.leslie3d-149B.champsimtrace.xz
adding L2C_PREFETCHER: MLOP
Initialize SHIP state
warmup_instructions 100000000
simulation_instructions 500000000
champsim_seed 224
measure_ipc 0
measure_ipc_epoch 1000
measure_dram_bw 1
measure_dram_bw_epoch 256
measure_cache_acc 1
measure_cache_acc_epoch 1024
l1d_perfect 0
l2c_perfect 0
llc_perfect 0
l1d_semi_perfect 0
l2c_semi_perfect 0
llc_semi_perfect 0
semi_perfect_cache_page_buffer_size 64

num_cpus 1
cpu_freq 4000
dram_io_freq 4800
page_size 4096
block_size 64
max_read_per_cycle 8
max_fill_per_cycle 1
dram_channels 1
log2_dram_channels 0
dram_ranks 1
dram_banks 8
dram_rows 65536
dram_columns 128
dram_row_size 8
dram_size 4096
dram_pages 1048576

fetch_width 6
decode_width 6
exec_width 4
lq_width 2
sq_width 2
retire_width 4
scheduler_size 128
branch_mispredict_penalty 20
rob_size 256
lq_size 72
sq_size 56
num_instr_destinations_sparc 4
num_instr_destinations 2
num_instr_sources 4

itlb_set 16
itlb_way 8
itlb_rq_size 16
itlb_wq_size 16
itlb_pq_size 0
itlb_mshr_size 8
itlb_latency 1

dtlb_set 16
dtlb_way 4
dtlb_rq_size 16
dtlb_wq_size 16
dtlb_pq_size 0
dtlb_mshr_size 8
dtlb_latency 1

stlb_set 128
stlb_way 12
stlb_rq_size 32
stlb_wq_size 32
stlb_pq_size 0
stlb_mshr_size 16
stlb_latency 8

l1i_size 32
l1i_set 64
l1i_way 8
l1i_rq_size 64
l1i_wq_size 64
l1i_pq_size 8
l1i_mshr_size 8
l1i_latency 1

l1d_size 32
l1d_set 64
l1d_way 8
l1d_rq_size 64
l1d_wq_size 64
l1d_pq_size 8
l1d_mshr_size 16
l1d_latency 4

l2c_size 256
l2c_set 512
l2c_way 8
l2c_rq_size 32
l2c_wq_size 32
l2c_pq_size 32
l2c_mshr_size 32
l2c_latency 10

llc_size 2048
llc_set 2048
llc_way 16
llc_rq_size 32
llc_wq_size 32
llc_pq_size 32
llc_mshr_size 64
llc_latency 20

dram_channel_width 8
dram_wq_size 64
dram_rq_size 64
tRP 15
tRCD 15
tCAS 12.5
dram_dbus_turn_around_time 30
dram_write_high_wm 56
dram_write_low_wm 48
min_dram_writes_per_switch 16
dram_mtps 4800
dram_dbus_return_time 6

mlop_pref_degree 16
mlop_num_updates 500
mlop_l1d_thresh 2
mlop_l2c_thresh 0.75
mlop_llc_thresh 0.3
mlop_debug_level 0
mlop_blocks_in_cache 4096
mlop_blocks_in_zone 64
mlop_amt_size 2048
mlop_PF_DEGREE 16
mlop_NUM_UPDATES 500
mlop_L1D_THRESH 1000
mlop_L2C_THRESH 375
mlop_LLC_THRESH 150
mlop_ORIGIN 63
mlop_MAX_OFFSET 63
mlop_MIN_OFFSET -63
mlop_ORIGIN 63
mlop_NUM_OFFSETS 127


Heartbeat CPU  0 instructions:    1000002 cycles:     502917 heartbeat IPC: 1.98840 cumulative IPC: 1.98840 (Simulation time: 0 hr 0 min 1 sec) 
Heartbeat CPU  0 instructions:    2000001 cycles:     991178 heartbeat IPC: 2.04808 cumulative IPC: 2.01780 (Simulation time: 0 hr 0 min 3 sec) 
Heartbeat CPU  0 instructions:    3000003 cycles:    1493319 heartbeat IPC: 1.99148 cumulative IPC: 2.00895 (Simulation time: 0 hr 0 min 5 sec) 
Heartbeat CPU  0 instructions:    4000000 cycles:    1995187 heartbeat IPC: 1.99255 cumulative IPC: 2.00482 (Simulation time: 0 hr 0 min 7 sec) 
Heartbeat CPU  0 instructions:    5000000 cycles:    2497528 heartbeat IPC: 1.99068 cumulative IPC: 2.00198 (Simulation time: 0 hr 0 min 9 sec) 
Heartbeat CPU  0 instructions:    6000001 cycles:    2997467 heartbeat IPC: 2.00025 cumulative IPC: 2.00169 (Simulation time: 0 hr 0 min 10 sec) 
Heartbeat CPU  0 instructions:    7000000 cycles:    3487670 heartbeat IPC: 2.03997 cumulative IPC: 2.00707 (Simulation time: 0 hr 0 min 12 sec) 
Heartbeat CPU  0 instructions:    8000000 cycles:    3990780 heartbeat IPC: 1.98764 cumulative IPC: 2.00462 (Simulation time: 0 hr 0 min 14 sec) 
Heartbeat CPU  0 instructions:    9000002 cycles:    4492720 heartbeat IPC: 1.99227 cumulative IPC: 2.00324 (Simulation time: 0 hr 0 min 16 sec) 
Heartbeat CPU  0 instructions:   10000000 cycles:    4994706 heartbeat IPC: 1.99208 cumulative IPC: 2.00212 (Simulation time: 0 hr 0 min 18 sec) 
Heartbeat CPU  0 instructions:   11000002 cycles:    5485785 heartbeat IPC: 2.03634 cumulative IPC: 2.00518 (Simulation time: 0 hr 0 min 19 sec) 
Heartbeat CPU  0 instructions:   12000000 cycles:    5984786 heartbeat IPC: 2.00400 cumulative IPC: 2.00508 (Simulation time: 0 hr 0 min 21 sec) 
Heartbeat CPU  0 instructions:   13000002 cycles:    6487299 heartbeat IPC: 1.99000 cumulative IPC: 2.00392 (Simulation time: 0 hr 0 min 23 sec) 
Heartbeat CPU  0 instructions:   14000003 cycles:    6989761 heartbeat IPC: 1.99020 cumulative IPC: 2.00293 (Simulation time: 0 hr 0 min 25 sec) 
Heartbeat CPU  0 instructions:   15000002 cycles:    7491998 heartbeat IPC: 1.99109 cumulative IPC: 2.00214 (Simulation time: 0 hr 0 min 27 sec) 
Heartbeat CPU  0 instructions:   16000000 cycles:    7979632 heartbeat IPC: 2.05071 cumulative IPC: 2.00511 (Simulation time: 0 hr 0 min 29 sec) 
Heartbeat CPU  0 instructions:   17000001 cycles:    8482462 heartbeat IPC: 1.98875 cumulative IPC: 2.00414 (Simulation time: 0 hr 0 min 30 sec) 
Heartbeat CPU  0 instructions:   18000003 cycles:    8985644 heartbeat IPC: 1.98736 cumulative IPC: 2.00320 (Simulation time: 0 hr 0 min 32 sec) 
Heartbeat CPU  0 instructions:   19000003 cycles:    9487962 heartbeat IPC: 1.99077 cumulative IPC: 2.00254 (Simulation time: 0 hr 0 min 34 sec) 
Heartbeat CPU  0 instructions:   20000000 cycles:    9980074 heartbeat IPC: 2.03205 cumulative IPC: 2.00399 (Simulation time: 0 hr 0 min 36 sec) 
Heartbeat CPU  0 instructions:   21000003 cycles:   10477474 heartbeat IPC: 2.01046 cumulative IPC: 2.00430 (Simulation time: 0 hr 0 min 38 sec) 
Heartbeat CPU  0 instructions:   22000001 cycles:   10980217 heartbeat IPC: 1.98908 cumulative IPC: 2.00360 (Simulation time: 0 hr 0 min 39 sec) 
Heartbeat CPU  0 instructions:   23000002 cycles:   11482920 heartbeat IPC: 1.98925 cumulative IPC: 2.00297 (Simulation time: 0 hr 0 min 41 sec) 
Heartbeat CPU  0 instructions:   24000000 cycles:   11984996 heartbeat IPC: 1.99173 cumulative IPC: 2.00250 (Simulation time: 0 hr 0 min 43 sec) 
Heartbeat CPU  0 instructions:   25000002 cycles:   12472585 heartbeat IPC: 2.05091 cumulative IPC: 2.00440 (Simulation time: 0 hr 0 min 45 sec) 
Heartbeat CPU  0 instructions:   26000002 cycles:   12974433 heartbeat IPC: 1.99264 cumulative IPC: 2.00394 (Simulation time: 0 hr 0 min 46 sec) 
Heartbeat CPU  0 instructions:   27000001 cycles:   13476807 heartbeat IPC: 1.99055 cumulative IPC: 2.00344 (Simulation time: 0 hr 0 min 48 sec) 
Heartbeat CPU  0 instructions:   28000000 cycles:   13979427 heartbeat IPC: 1.98957 cumulative IPC: 2.00294 (Simulation time: 0 hr 0 min 50 sec) 
Heartbeat CPU  0 instructions:   29000003 cycles:   14474460 heartbeat IPC: 2.02007 cumulative IPC: 2.00353 (Simulation time: 0 hr 0 min 52 sec) 
Heartbeat CPU  0 instructions:   30000003 cycles:   14969142 heartbeat IPC: 2.02150 cumulative IPC: 2.00412 (Simulation time: 0 hr 0 min 54 sec) 
Heartbeat CPU  0 instructions:   31000001 cycles:   15471296 heartbeat IPC: 1.99142 cumulative IPC: 2.00371 (Simulation time: 0 hr 0 min 55 sec) 
Heartbeat CPU  0 instructions:   32000000 cycles:   15973641 heartbeat IPC: 1.99066 cumulative IPC: 2.00330 (Simulation time: 0 hr 0 min 57 sec) 
Heartbeat CPU  0 instructions:   33000000 cycles:   16476150 heartbeat IPC: 1.99001 cumulative IPC: 2.00290 (Simulation time: 0 hr 0 min 59 sec) 
Heartbeat CPU  0 instructions:   34000003 cycles:   16963966 heartbeat IPC: 2.04996 cumulative IPC: 2.00425 (Simulation time: 0 hr 1 min 1 sec) 
Heartbeat CPU  0 instructions:   35000003 cycles:   17466026 heartbeat IPC: 1.99179 cumulative IPC: 2.00389 (Simulation time: 0 hr 1 min 3 sec) 
Heartbeat CPU  0 instructions:   36000000 cycles:   17968002 heartbeat IPC: 1.99212 cumulative IPC: 2.00356 (Simulation time: 0 hr 1 min 4 sec) 
Heartbeat CPU  0 instructions:   37000001 cycles:   18471045 heartbeat IPC: 1.98790 cumulative IPC: 2.00314 (Simulation time: 0 hr 1 min 6 sec) 
Heartbeat CPU  0 instructions:   38000003 cycles:   18968700 heartbeat IPC: 2.00943 cumulative IPC: 2.00330 (Simulation time: 0 hr 1 min 8 sec) 
Heartbeat CPU  0 instructions:   39000001 cycles:   19461372 heartbeat IPC: 2.02974 cumulative IPC: 2.00397 (Simulation time: 0 hr 1 min 10 sec) 
Heartbeat CPU  0 instructions:   40000000 cycles:   19963600 heartbeat IPC: 1.99113 cumulative IPC: 2.00365 (Simulation time: 0 hr 1 min 12 sec) 
Heartbeat CPU  0 instructions:   41000002 cycles:   20466024 heartbeat IPC: 1.99035 cumulative IPC: 2.00332 (Simulation time: 0 hr 1 min 13 sec) 
Heartbeat CPU  0 instructions:   42000000 cycles:   20968700 heartbeat IPC: 1.98935 cumulative IPC: 2.00299 (Simulation time: 0 hr 1 min 15 sec) 
Heartbeat CPU  0 instructions:   43000000 cycles:   21456825 heartbeat IPC: 2.04866 cumulative IPC: 2.00402 (Simulation time: 0 hr 1 min 17 sec) 
Heartbeat CPU  0 instructions:   44000000 cycles:   21959114 heartbeat IPC: 1.99089 cumulative IPC: 2.00372 (Simulation time: 0 hr 1 min 19 sec) 
Heartbeat CPU  0 instructions:   45000002 cycles:   22461791 heartbeat IPC: 1.98935 cumulative IPC: 2.00340 (Simulation time: 0 hr 1 min 21 sec) 
Heartbeat CPU  0 instructions:   46000003 cycles:   22963718 heartbeat IPC: 1.99232 cumulative IPC: 2.00316 (Simulation time: 0 hr 1 min 22 sec) 
Heartbeat CPU  0 instructions:   47000000 cycles:   23462742 heartbeat IPC: 2.00391 cumulative IPC: 2.00318 (Simulation time: 0 hr 1 min 24 sec) 
Heartbeat CPU  0 instructions:   48000000 cycles:   23953728 heartbeat IPC: 2.03672 cumulative IPC: 2.00386 (Simulation time: 0 hr 1 min 26 sec) 
Heartbeat CPU  0 instructions:   49000002 cycles:   24456589 heartbeat IPC: 1.98863 cumulative IPC: 2.00355 (Simulation time: 0 hr 1 min 28 sec) 
Heartbeat CPU  0 instructions:   50000003 cycles:   24958942 heartbeat IPC: 1.99063 cumulative IPC: 2.00329 (Simulation time: 0 hr 1 min 30 sec) 
Heartbeat CPU  0 instructions:   51000001 cycles:   25460994 heartbeat IPC: 1.99182 cumulative IPC: 2.00306 (Simulation time: 0 hr 1 min 31 sec) 
Heartbeat CPU  0 instructions:   52000000 cycles:   25951122 heartbeat IPC: 2.04028 cumulative IPC: 2.00377 (Simulation time: 0 hr 1 min 33 sec) 
Heartbeat CPU  0 instructions:   53000003 cycles:   26450957 heartbeat IPC: 2.00067 cumulative IPC: 2.00371 (Simulation time: 0 hr 1 min 35 sec) 
Heartbeat CPU  0 instructions:   54000003 cycles:   26962397 heartbeat IPC: 1.95526 cumulative IPC: 2.00279 (Simulation time: 0 hr 1 min 37 sec) 
Heartbeat CPU  0 instructions:   55000001 cycles:   27481526 heartbeat IPC: 1.92630 cumulative IPC: 2.00134 (Simulation time: 0 hr 1 min 39 sec) 
Heartbeat CPU  0 instructions:   56000000 cycles:   27993987 heartbeat IPC: 1.95137 cumulative IPC: 2.00043 (Simulation time: 0 hr 1 min 40 sec) 
Heartbeat CPU  0 instructions:   57000000 cycles:   28505879 heartbeat IPC: 1.95354 cumulative IPC: 1.99959 (Simulation time: 0 hr 1 min 42 sec) 
Heartbeat CPU  0 instructions:   58000002 cycles:   29019797 heartbeat IPC: 1.94584 cumulative IPC: 1.99864 (Simulation time: 0 hr 1 min 44 sec) 
Heartbeat CPU  0 instructions:   59000003 cycles:   29531182 heartbeat IPC: 1.95548 cumulative IPC: 1.99789 (Simulation time: 0 hr 1 min 45 sec) 
Heartbeat CPU  0 instructions:   60000000 cycles:   30041726 heartbeat IPC: 1.95869 cumulative IPC: 1.99722 (Simulation time: 0 hr 1 min 47 sec) 
Heartbeat CPU  0 instructions:   61000001 cycles:   30554220 heartbeat IPC: 1.95124 cumulative IPC: 1.99645 (Simulation time: 0 hr 1 min 49 sec) 
Heartbeat CPU  0 instructions:   62000003 cycles:   31066800 heartbeat IPC: 1.95092 cumulative IPC: 1.99570 (Simulation time: 0 hr 1 min 50 sec) 
Heartbeat CPU  0 instructions:   63000001 cycles:   31578645 heartbeat IPC: 1.95371 cumulative IPC: 1.99502 (Simulation time: 0 hr 1 min 52 sec) 
Heartbeat CPU  0 instructions:   64000000 cycles:   32091967 heartbeat IPC: 1.94809 cumulative IPC: 1.99427 (Simulation time: 0 hr 1 min 54 sec) 
Heartbeat CPU  0 instructions:   65000000 cycles:   32605326 heartbeat IPC: 1.94795 cumulative IPC: 1.99354 (Simulation time: 0 hr 1 min 55 sec) 
Heartbeat CPU  0 instructions:   66000002 cycles:   33117184 heartbeat IPC: 1.95367 cumulative IPC: 1.99292 (Simulation time: 0 hr 1 min 57 sec) 
Heartbeat CPU  0 instructions:   67000002 cycles:   33630502 heartbeat IPC: 1.94811 cumulative IPC: 1.99224 (Simulation time: 0 hr 1 min 59 sec) 
Heartbeat CPU  0 instructions:   68000000 cycles:   34143709 heartbeat IPC: 1.94853 cumulative IPC: 1.99158 (Simulation time: 0 hr 2 min 0 sec) 
Heartbeat CPU  0 instructions:   69000001 cycles:   34655272 heartbeat IPC: 1.95480 cumulative IPC: 1.99104 (Simulation time: 0 hr 2 min 2 sec) 
Heartbeat CPU  0 instructions:   70000003 cycles:   35168163 heartbeat IPC: 1.94974 cumulative IPC: 1.99044 (Simulation time: 0 hr 2 min 4 sec) 
Heartbeat CPU  0 instructions:   71000002 cycles:   35680939 heartbeat IPC: 1.95017 cumulative IPC: 1.98986 (Simulation time: 0 hr 2 min 5 sec) 
Heartbeat CPU  0 instructions:   72000000 cycles:   36192366 heartbeat IPC: 1.95531 cumulative IPC: 1.98937 (Simulation time: 0 hr 2 min 7 sec) 
Heartbeat CPU  0 instructions:   73000003 cycles:   36704766 heartbeat IPC: 1.95161 cumulative IPC: 1.98884 (Simulation time: 0 hr 2 min 9 sec) 
Heartbeat CPU  0 instructions:   74000001 cycles:   37217385 heartbeat IPC: 1.95076 cumulative IPC: 1.98832 (Simulation time: 0 hr 2 min 10 sec) 
Heartbeat CPU  0 instructions:   75000001 cycles:   37729318 heartbeat IPC: 1.95338 cumulative IPC: 1.98784 (Simulation time: 0 hr 2 min 12 sec) 
Heartbeat CPU  0 instructions:   76000000 cycles:   38242079 heartbeat IPC: 1.95022 cumulative IPC: 1.98734 (Simulation time: 0 hr 2 min 14 sec) 
Heartbeat CPU  0 instructions:   77000001 cycles:   38755556 heartbeat IPC: 1.94751 cumulative IPC: 1.98681 (Simulation time: 0 hr 2 min 15 sec) 
Heartbeat CPU  0 instructions:   78000003 cycles:   39267551 heartbeat IPC: 1.95315 cumulative IPC: 1.98637 (Simulation time: 0 hr 2 min 17 sec) 
Heartbeat CPU  0 instructions:   79000000 cycles:   39780141 heartbeat IPC: 1.95087 cumulative IPC: 1.98592 (Simulation time: 0 hr 2 min 19 sec) 
Heartbeat CPU  0 instructions:   80000000 cycles:   40293512 heartbeat IPC: 1.94791 cumulative IPC: 1.98543 (Simulation time: 0 hr 2 min 20 sec) 
Heartbeat CPU  0 instructions:   81000000 cycles:   40805492 heartbeat IPC: 1.95320 cumulative IPC: 1.98503 (Simulation time: 0 hr 2 min 22 sec) 
Heartbeat CPU  0 instructions:   82000001 cycles:   41317748 heartbeat IPC: 1.95215 cumulative IPC: 1.98462 (Simulation time: 0 hr 2 min 24 sec) 
Heartbeat CPU  0 instructions:   83000001 cycles:   41831362 heartbeat IPC: 1.94699 cumulative IPC: 1.98416 (Simulation time: 0 hr 2 min 25 sec) 
Heartbeat CPU  0 instructions:   84000000 cycles:   42343247 heartbeat IPC: 1.95356 cumulative IPC: 1.98379 (Simulation time: 0 hr 2 min 27 sec) 
Heartbeat CPU  0 instructions:   85000001 cycles:   42855341 heartbeat IPC: 1.95277 cumulative IPC: 1.98342 (Simulation time: 0 hr 2 min 29 sec) 
Heartbeat CPU  0 instructions:   86000002 cycles:   43368828 heartbeat IPC: 1.94747 cumulative IPC: 1.98299 (Simulation time: 0 hr 2 min 30 sec) 
Heartbeat CPU  0 instructions:   87000003 cycles:   43880660 heartbeat IPC: 1.95377 cumulative IPC: 1.98265 (Simulation time: 0 hr 2 min 32 sec) 
Heartbeat CPU  0 instructions:   88000000 cycles:   44392792 heartbeat IPC: 1.95262 cumulative IPC: 1.98230 (Simulation time: 0 hr 2 min 34 sec) 
Heartbeat CPU  0 instructions:   89000002 cycles:   44906519 heartbeat IPC: 1.94656 cumulative IPC: 1.98189 (Simulation time: 0 hr 2 min 35 sec) 
Heartbeat CPU  0 instructions:   90000003 cycles:   45418620 heartbeat IPC: 1.95274 cumulative IPC: 1.98157 (Simulation time: 0 hr 2 min 37 sec) 
Heartbeat CPU  0 instructions:   91000002 cycles:   45929365 heartbeat IPC: 1.95792 cumulative IPC: 1.98130 (Simulation time: 0 hr 2 min 39 sec) 
Heartbeat CPU  0 instructions:   92000000 cycles:   46441957 heartbeat IPC: 1.95087 cumulative IPC: 1.98097 (Simulation time: 0 hr 2 min 40 sec) 
Heartbeat CPU  0 instructions:   93000001 cycles:   46953122 heartbeat IPC: 1.95632 cumulative IPC: 1.98070 (Simulation time: 0 hr 2 min 42 sec) 
Heartbeat CPU  0 instructions:   94000003 cycles:   47464662 heartbeat IPC: 1.95489 cumulative IPC: 1.98042 (Simulation time: 0 hr 2 min 44 sec) 
Heartbeat CPU  0 instructions:   95000003 cycles:   47978486 heartbeat IPC: 1.94619 cumulative IPC: 1.98005 (Simulation time: 0 hr 2 min 45 sec) 
Heartbeat CPU  0 instructions:   96000000 cycles:   48490863 heartbeat IPC: 1.95168 cumulative IPC: 1.97975 (Simulation time: 0 hr 2 min 47 sec) 
Heartbeat CPU  0 instructions:   97000002 cycles:   49002330 heartbeat IPC: 1.95516 cumulative IPC: 1.97950 (Simulation time: 0 hr 2 min 49 sec) 
Heartbeat CPU  0 instructions:   98000000 cycles:   49515417 heartbeat IPC: 1.94898 cumulative IPC: 1.97918 (Simulation time: 0 hr 2 min 50 sec) 
Heartbeat CPU  0 instructions:   99000000 cycles:   50027393 heartbeat IPC: 1.95322 cumulative IPC: 1.97892 (Simulation time: 0 hr 2 min 52 sec) 
Heartbeat CPU  0 instructions:  100000000 cycles:   50563799 heartbeat IPC: 1.86426 cumulative IPC: 1.97770 (Simulation time: 0 hr 2 min 54 sec) 

Warmup complete CPU  0 instructions:  100000001 cycles:   50563820 (Simulation time: 0 hr 2 min 54 sec) 

Heartbeat CPU  0 instructions:  101000003 cycles:   52171337 heartbeat IPC: 0.62207 cumulative IPC: 0.62208 (Simulation time: 0 hr 2 min 57 sec) 
Heartbeat CPU  0 instructions:  102000000 cycles:   55218438 heartbeat IPC: 0.32818 cumulative IPC: 0.42968 (Simulation time: 0 hr 3 min 0 sec) 
Heartbeat CPU  0 instructions:  103000002 cycles:   57380058 heartbeat IPC: 0.46262 cumulative IPC: 0.44013 (Simulation time: 0 hr 3 min 3 sec) 
Heartbeat CPU  0 instructions:  104000000 cycles:   58107876 heartbeat IPC: 1.37397 cumulative IPC: 0.53022 (Simulation time: 0 hr 3 min 5 sec) 
Heartbeat CPU  0 instructions:  105000002 cycles:   58838985 heartbeat IPC: 1.36779 cumulative IPC: 0.60422 (Simulation time: 0 hr 3 min 7 sec) 
Heartbeat CPU  0 instructions:  106000003 cycles:   59571151 heartbeat IPC: 1.36581 cumulative IPC: 0.66612 (Simulation time: 0 hr 3 min 9 sec) 
Heartbeat CPU  0 instructions:  107000000 cycles:   60306102 heartbeat IPC: 1.36063 cumulative IPC: 0.71852 (Simulation time: 0 hr 3 min 12 sec) 
Heartbeat CPU  0 instructions:  108000000 cycles:   61036336 heartbeat IPC: 1.36942 cumulative IPC: 0.76390 (Simulation time: 0 hr 3 min 14 sec) 
Heartbeat CPU  0 instructions:  109000001 cycles:   61769541 heartbeat IPC: 1.36388 cumulative IPC: 0.80316 (Simulation time: 0 hr 3 min 16 sec) 
Heartbeat CPU  0 instructions:  110000001 cycles:   62535558 heartbeat IPC: 1.30545 cumulative IPC: 0.83530 (Simulation time: 0 hr 3 min 18 sec) 
Heartbeat CPU  0 instructions:  111000001 cycles:   63319409 heartbeat IPC: 1.27575 cumulative IPC: 0.86237 (Simulation time: 0 hr 3 min 20 sec) 
Heartbeat CPU  0 instructions:  112000000 cycles:   64102437 heartbeat IPC: 1.27709 cumulative IPC: 0.88635 (Simulation time: 0 hr 3 min 22 sec) 
Heartbeat CPU  0 instructions:  113000003 cycles:   64888760 heartbeat IPC: 1.27175 cumulative IPC: 0.90751 (Simulation time: 0 hr 3 min 24 sec) 
Heartbeat CPU  0 instructions:  114000001 cycles:   65665101 heartbeat IPC: 1.28809 cumulative IPC: 0.92707 (Simulation time: 0 hr 3 min 27 sec) 
Heartbeat CPU  0 instructions:  115000001 cycles:   66449703 heartbeat IPC: 1.27453 cumulative IPC: 0.94423 (Simulation time: 0 hr 3 min 29 sec) 
Heartbeat CPU  0 instructions:  116000000 cycles:   67252173 heartbeat IPC: 1.24615 cumulative IPC: 0.95875 (Simulation time: 0 hr 3 min 31 sec) 
Heartbeat CPU  0 instructions:  117000000 cycles:   68051886 heartbeat IPC: 1.25045 cumulative IPC: 0.97209 (Simulation time: 0 hr 3 min 33 sec) 
Heartbeat CPU  0 instructions:  118000003 cycles:   69004672 heartbeat IPC: 1.04956 cumulative IPC: 0.97609 (Simulation time: 0 hr 3 min 35 sec) 
Heartbeat CPU  0 instructions:  119000000 cycles:   70080805 heartbeat IPC: 0.92925 cumulative IPC: 0.97351 (Simulation time: 0 hr 3 min 37 sec) 
Heartbeat CPU  0 instructions:  120000000 cycles:   70887102 heartbeat IPC: 1.24024 cumulative IPC: 0.98409 (Simulation time: 0 hr 3 min 39 sec) 
Heartbeat CPU  0 instructions:  121000001 cycles:   71693986 heartbeat IPC: 1.23934 cumulative IPC: 0.99384 (Simulation time: 0 hr 3 min 41 sec) 
Heartbeat CPU  0 instructions:  122000002 cycles:   72500008 heartbeat IPC: 1.24066 cumulative IPC: 1.00291 (Simulation time: 0 hr 3 min 43 sec) 
Heartbeat CPU  0 instructions:  123000000 cycles:   73307321 heartbeat IPC: 1.23867 cumulative IPC: 1.01128 (Simulation time: 0 hr 3 min 46 sec) 
Heartbeat CPU  0 instructions:  124000000 cycles:   74113305 heartbeat IPC: 1.24072 cumulative IPC: 1.01913 (Simulation time: 0 hr 3 min 48 sec) 
Heartbeat CPU  0 instructions:  125000002 cycles:   74919117 heartbeat IPC: 1.24099 cumulative IPC: 1.02647 (Simulation time: 0 hr 3 min 50 sec) 
Heartbeat CPU  0 instructions:  126000001 cycles:   75730010 heartbeat IPC: 1.23321 cumulative IPC: 1.03313 (Simulation time: 0 hr 3 min 52 sec) 
Heartbeat CPU  0 instructions:  127000003 cycles:   76608939 heartbeat IPC: 1.13775 cumulative IPC: 1.03666 (Simulation time: 0 hr 3 min 54 sec) 
Heartbeat CPU  0 instructions:  128000000 cycles:   77665519 heartbeat IPC: 0.94645 cumulative IPC: 1.03315 (Simulation time: 0 hr 3 min 56 sec) 
Heartbeat CPU  0 instructions:  129000001 cycles:   78543486 heartbeat IPC: 1.13900 cumulative IPC: 1.03647 (Simulation time: 0 hr 3 min 58 sec) 
Heartbeat CPU  0 instructions:  130000003 cycles:   79355638 heartbeat IPC: 1.23130 cumulative IPC: 1.04196 (Simulation time: 0 hr 4 min 0 sec) 
Heartbeat CPU  0 instructions:  131000000 cycles:   80162291 heartbeat IPC: 1.23969 cumulative IPC: 1.04735 (Simulation time: 0 hr 4 min 2 sec) 
Heartbeat CPU  0 instructions:  132000000 cycles:   81085844 heartbeat IPC: 1.08277 cumulative IPC: 1.04842 (Simulation time: 0 hr 4 min 4 sec) 
Heartbeat CPU  0 instructions:  133000000 cycles:   82143512 heartbeat IPC: 0.94548 cumulative IPC: 1.04498 (Simulation time: 0 hr 4 min 6 sec) 
Heartbeat CPU  0 instructions:  134000003 cycles:   82967857 heartbeat IPC: 1.21309 cumulative IPC: 1.04925 (Simulation time: 0 hr 4 min 9 sec) 
Heartbeat CPU  0 instructions:  135000003 cycles:   83774842 heartbeat IPC: 1.23918 cumulative IPC: 1.05387 (Simulation time: 0 hr 4 min 11 sec) 
Heartbeat CPU  0 instructions:  136000000 cycles:   84580375 heartbeat IPC: 1.24141 cumulative IPC: 1.05831 (Simulation time: 0 hr 4 min 13 sec) 
Heartbeat CPU  0 instructions:  137000003 cycles:   85387747 heartbeat IPC: 1.23859 cumulative IPC: 1.06249 (Simulation time: 0 hr 4 min 15 sec) 
Heartbeat CPU  0 instructions:  138000002 cycles:   86194376 heartbeat IPC: 1.23973 cumulative IPC: 1.06650 (Simulation time: 0 hr 4 min 17 sec) 
Heartbeat CPU  0 instructions:  139000002 cycles:   87001025 heartbeat IPC: 1.23970 cumulative IPC: 1.07033 (Simulation time: 0 hr 4 min 19 sec) 
Heartbeat CPU  0 instructions:  140000000 cycles:   87806001 heartbeat IPC: 1.24227 cumulative IPC: 1.07405 (Simulation time: 0 hr 4 min 21 sec) 
Heartbeat CPU  0 instructions:  141000000 cycles:   88617361 heartbeat IPC: 1.23250 cumulative IPC: 1.07743 (Simulation time: 0 hr 4 min 23 sec) 
Heartbeat CPU  0 instructions:  142000000 cycles:   89683801 heartbeat IPC: 0.93770 cumulative IPC: 1.07362 (Simulation time: 0 hr 4 min 25 sec) 
Heartbeat CPU  0 instructions:  143000003 cycles:   90624372 heartbeat IPC: 1.06319 cumulative IPC: 1.07338 (Simulation time: 0 hr 4 min 27 sec) 
Heartbeat CPU  0 instructions:  144000000 cycles:   91432989 heartbeat IPC: 1.23668 cumulative IPC: 1.07661 (Simulation time: 0 hr 4 min 29 sec) 
Heartbeat CPU  0 instructions:  145000001 cycles:   92240486 heartbeat IPC: 1.23840 cumulative IPC: 1.07974 (Simulation time: 0 hr 4 min 31 sec) 
Heartbeat CPU  0 instructions:  146000003 cycles:   93091250 heartbeat IPC: 1.17542 cumulative IPC: 1.08165 (Simulation time: 0 hr 4 min 34 sec) 
Heartbeat CPU  0 instructions:  147000000 cycles:   94049704 heartbeat IPC: 1.04334 cumulative IPC: 1.08081 (Simulation time: 0 hr 4 min 36 sec) 
Heartbeat CPU  0 instructions:  148000000 cycles:   94888547 heartbeat IPC: 1.19212 cumulative IPC: 1.08292 (Simulation time: 0 hr 4 min 38 sec) 
Heartbeat CPU  0 instructions:  149000003 cycles:   95694330 heartbeat IPC: 1.24103 cumulative IPC: 1.08574 (Simulation time: 0 hr 4 min 40 sec) 
Heartbeat CPU  0 instructions:  150000003 cycles:   96500783 heartbeat IPC: 1.24000 cumulative IPC: 1.08845 (Simulation time: 0 hr 4 min 42 sec) 
Heartbeat CPU  0 instructions:  151000000 cycles:   97306221 heartbeat IPC: 1.24156 cumulative IPC: 1.09109 (Simulation time: 0 hr 4 min 44 sec) 
Heartbeat CPU  0 instructions:  152000000 cycles:   98112229 heartbeat IPC: 1.24068 cumulative IPC: 1.09362 (Simulation time: 0 hr 4 min 46 sec) 
Heartbeat CPU  0 instructions:  153000002 cycles:   98919307 heartbeat IPC: 1.23904 cumulative IPC: 1.09605 (Simulation time: 0 hr 4 min 48 sec) 
Heartbeat CPU  0 instructions:  154000002 cycles:   99725748 heartbeat IPC: 1.24002 cumulative IPC: 1.09841 (Simulation time: 0 hr 4 min 50 sec) 
Heartbeat CPU  0 instructions:  155000001 cycles:  100533092 heartbeat IPC: 1.23863 cumulative IPC: 1.10068 (Simulation time: 0 hr 4 min 52 sec) 
Heartbeat CPU  0 instructions:  156000000 cycles:  101467188 heartbeat IPC: 1.07055 cumulative IPC: 1.10012 (Simulation time: 0 hr 4 min 54 sec) 
Heartbeat CPU  0 instructions:  157000000 cycles:  102373884 heartbeat IPC: 1.10291 cumulative IPC: 1.10017 (Simulation time: 0 hr 4 min 57 sec) 
Heartbeat CPU  0 instructions:  158000001 cycles:  103180821 heartbeat IPC: 1.23926 cumulative IPC: 1.10231 (Simulation time: 0 hr 4 min 59 sec) 
Heartbeat CPU  0 instructions:  159000003 cycles:  103986649 heartbeat IPC: 1.24096 cumulative IPC: 1.10440 (Simulation time: 0 hr 5 min 1 sec) 
Heartbeat CPU  0 instructions:  160000000 cycles:  104792705 heartbeat IPC: 1.24060 cumulative IPC: 1.10642 (Simulation time: 0 hr 5 min 3 sec) 
Heartbeat CPU  0 instructions:  161000001 cycles:  105658074 heartbeat IPC: 1.15558 cumulative IPC: 1.10719 (Simulation time: 0 hr 5 min 5 sec) 
Heartbeat CPU  0 instructions:  162000000 cycles:  106487173 heartbeat IPC: 1.20613 cumulative IPC: 1.10866 (Simulation time: 0 hr 5 min 7 sec) 
Heartbeat CPU  0 instructions:  163000003 cycles:  107294572 heartbeat IPC: 1.23855 cumulative IPC: 1.11051 (Simulation time: 0 hr 5 min 9 sec) 
Heartbeat CPU  0 instructions:  164000000 cycles:  108101239 heartbeat IPC: 1.23967 cumulative IPC: 1.11232 (Simulation time: 0 hr 5 min 11 sec) 
Heartbeat CPU  0 instructions:  165000000 cycles:  108907420 heartbeat IPC: 1.24042 cumulative IPC: 1.11409 (Simulation time: 0 hr 5 min 13 sec) 
Heartbeat CPU  0 instructions:  166000000 cycles:  109714112 heartbeat IPC: 1.23963 cumulative IPC: 1.11580 (Simulation time: 0 hr 5 min 15 sec) 
Heartbeat CPU  0 instructions:  167000003 cycles:  110519242 heartbeat IPC: 1.24204 cumulative IPC: 1.11750 (Simulation time: 0 hr 5 min 17 sec) 
Heartbeat CPU  0 instructions:  168000000 cycles:  111325836 heartbeat IPC: 1.23978 cumulative IPC: 1.11912 (Simulation time: 0 hr 5 min 19 sec) 
Heartbeat CPU  0 instructions:  169000003 cycles:  112132523 heartbeat IPC: 1.23964 cumulative IPC: 1.12070 (Simulation time: 0 hr 5 min 22 sec) 
Heartbeat CPU  0 instructions:  170000001 cycles:  112956080 heartbeat IPC: 1.21424 cumulative IPC: 1.12193 (Simulation time: 0 hr 5 min 24 sec) 
Heartbeat CPU  0 instructions:  171000002 cycles:  113799212 heartbeat IPC: 1.18606 cumulative IPC: 1.12279 (Simulation time: 0 hr 5 min 26 sec) 
Heartbeat CPU  0 instructions:  172000000 cycles:  114604465 heartbeat IPC: 1.24184 cumulative IPC: 1.12429 (Simulation time: 0 hr 5 min 28 sec) 
Heartbeat CPU  0 instructions:  173000002 cycles:  115410442 heartbeat IPC: 1.24073 cumulative IPC: 1.12573 (Simulation time: 0 hr 5 min 30 sec) 
Heartbeat CPU  0 instructions:  174000000 cycles:  116225746 heartbeat IPC: 1.22653 cumulative IPC: 1.12698 (Simulation time: 0 hr 5 min 32 sec) 
Heartbeat CPU  0 instructions:  175000001 cycles:  117044457 heartbeat IPC: 1.22143 cumulative IPC: 1.12815 (Simulation time: 0 hr 5 min 34 sec) 
Heartbeat CPU  0 instructions:  176000000 cycles:  117866187 heartbeat IPC: 1.21694 cumulative IPC: 1.12923 (Simulation time: 0 hr 5 min 36 sec) 
Heartbeat CPU  0 instructions:  177000000 cycles:  118672304 heartbeat IPC: 1.24051 cumulative IPC: 1.13055 (Simulation time: 0 hr 5 min 38 sec) 
Heartbeat CPU  0 instructions:  178000003 cycles:  119479572 heartbeat IPC: 1.23875 cumulative IPC: 1.13182 (Simulation time: 0 hr 5 min 40 sec) 
Heartbeat CPU  0 instructions:  179000000 cycles:  120286377 heartbeat IPC: 1.23945 cumulative IPC: 1.13306 (Simulation time: 0 hr 5 min 42 sec) 
Heartbeat CPU  0 instructions:  180000000 cycles:  121092269 heartbeat IPC: 1.24086 cumulative IPC: 1.13429 (Simulation time: 0 hr 5 min 44 sec) 
Heartbeat CPU  0 instructions:  181000003 cycles:  121898338 heartbeat IPC: 1.24059 cumulative IPC: 1.13550 (Simulation time: 0 hr 5 min 47 sec) 
Heartbeat CPU  0 instructions:  182000003 cycles:  122704800 heartbeat IPC: 1.23998 cumulative IPC: 1.13666 (Simulation time: 0 hr 5 min 49 sec) 
Heartbeat CPU  0 instructions:  183000003 cycles:  123509880 heartbeat IPC: 1.24211 cumulative IPC: 1.13783 (Simulation time: 0 hr 5 min 51 sec) 
Heartbeat CPU  0 instructions:  184000000 cycles:  124317826 heartbeat IPC: 1.23770 cumulative IPC: 1.13892 (Simulation time: 0 hr 5 min 53 sec) 
Heartbeat CPU  0 instructions:  185000002 cycles:  125157803 heartbeat IPC: 1.19051 cumulative IPC: 1.13950 (Simulation time: 0 hr 5 min 55 sec) 
Heartbeat CPU  0 instructions:  186000002 cycles:  125963622 heartbeat IPC: 1.24097 cumulative IPC: 1.14059 (Simulation time: 0 hr 5 min 57 sec) 
Heartbeat CPU  0 instructions:  187000001 cycles:  126800289 heartbeat IPC: 1.19522 cumulative IPC: 1.14119 (Simulation time: 0 hr 5 min 59 sec) 
Heartbeat CPU  0 instructions:  188000000 cycles:  127645032 heartbeat IPC: 1.18379 cumulative IPC: 1.14165 (Simulation time: 0 hr 6 min 1 sec) 
Heartbeat CPU  0 instructions:  189000000 cycles:  128488966 heartbeat IPC: 1.18493 cumulative IPC: 1.14212 (Simulation time: 0 hr 6 min 3 sec) 
Heartbeat CPU  0 instructions:  190000000 cycles:  129334150 heartbeat IPC: 1.18317 cumulative IPC: 1.14256 (Simulation time: 0 hr 6 min 5 sec) 
Heartbeat CPU  0 instructions:  191000003 cycles:  130180103 heartbeat IPC: 1.18210 cumulative IPC: 1.14298 (Simulation time: 0 hr 6 min 7 sec) 
Heartbeat CPU  0 instructions:  192000000 cycles:  131024133 heartbeat IPC: 1.18479 cumulative IPC: 1.14342 (Simulation time: 0 hr 6 min 9 sec) 
Heartbeat CPU  0 instructions:  193000003 cycles:  131869146 heartbeat IPC: 1.18342 cumulative IPC: 1.14384 (Simulation time: 0 hr 6 min 11 sec) 
Heartbeat CPU  0 instructions:  194000001 cycles:  132713555 heartbeat IPC: 1.18426 cumulative IPC: 1.14425 (Simulation time: 0 hr 6 min 13 sec) 
Heartbeat CPU  0 instructions:  195000003 cycles:  133558629 heartbeat IPC: 1.18333 cumulative IPC: 1.14465 (Simulation time: 0 hr 6 min 15 sec) 
Heartbeat CPU  0 instructions:  196000000 cycles:  134491895 heartbeat IPC: 1.07150 cumulative IPC: 1.14384 (Simulation time: 0 hr 6 min 17 sec) 
Heartbeat CPU  0 instructions:  197000000 cycles:  135546815 heartbeat IPC: 0.94794 cumulative IPC: 1.14140 (Simulation time: 0 hr 6 min 20 sec) 
Heartbeat CPU  0 instructions:  198000002 cycles:  136626578 heartbeat IPC: 0.92613 cumulative IPC: 1.13870 (Simulation time: 0 hr 6 min 22 sec) 
Heartbeat CPU  0 instructions:  199000001 cycles:  137648170 heartbeat IPC: 0.97886 cumulative IPC: 1.13683 (Simulation time: 0 hr 6 min 24 sec) 
Heartbeat CPU  0 instructions:  200000000 cycles:  138714210 heartbeat IPC: 0.93805 cumulative IPC: 1.13442 (Simulation time: 0 hr 6 min 26 sec) 
Heartbeat CPU  0 instructions:  201000001 cycles:  139743591 heartbeat IPC: 0.97146 cumulative IPC: 1.13254 (Simulation time: 0 hr 6 min 28 sec) 
Heartbeat CPU  0 instructions:  202000002 cycles:  140783436 heartbeat IPC: 0.96168 cumulative IPC: 1.13057 (Simulation time: 0 hr 6 min 30 sec) 
Heartbeat CPU  0 instructions:  203000002 cycles:  141803176 heartbeat IPC: 0.98064 cumulative IPC: 1.12890 (Simulation time: 0 hr 6 min 32 sec) 
Heartbeat CPU  0 instructions:  204000000 cycles:  142825272 heartbeat IPC: 0.97838 cumulative IPC: 1.12723 (Simulation time: 0 hr 6 min 34 sec) 
Heartbeat CPU  0 instructions:  205000003 cycles:  144006363 heartbeat IPC: 0.84668 cumulative IPC: 1.12369 (Simulation time: 0 hr 6 min 37 sec) 
Heartbeat CPU  0 instructions:  206000000 cycles:  145205446 heartbeat IPC: 0.83397 cumulative IPC: 1.12001 (Simulation time: 0 hr 6 min 39 sec) 
Heartbeat CPU  0 instructions:  207000001 cycles:  146355678 heartbeat IPC: 0.86939 cumulative IPC: 1.11701 (Simulation time: 0 hr 6 min 41 sec) 
Heartbeat CPU  0 instructions:  208000000 cycles:  147457051 heartbeat IPC: 0.90796 cumulative IPC: 1.11463 (Simulation time: 0 hr 6 min 43 sec) 
Heartbeat CPU  0 instructions:  209000001 cycles:  148612429 heartbeat IPC: 0.86552 cumulative IPC: 1.11169 (Simulation time: 0 hr 6 min 45 sec) 
Heartbeat CPU  0 instructions:  210000003 cycles:  149725247 heartbeat IPC: 0.89862 cumulative IPC: 1.10930 (Simulation time: 0 hr 6 min 47 sec) 
Heartbeat CPU  0 instructions:  211000001 cycles:  150899612 heartbeat IPC: 0.85152 cumulative IPC: 1.10629 (Simulation time: 0 hr 6 min 49 sec) 
Heartbeat CPU  0 instructions:  212000000 cycles:  151883578 heartbeat IPC: 1.01629 cumulative IPC: 1.10541 (Simulation time: 0 hr 6 min 51 sec) 
Heartbeat CPU  0 instructions:  213000001 cycles:  153218705 heartbeat IPC: 0.74899 cumulative IPC: 1.10078 (Simulation time: 0 hr 6 min 54 sec) 
Heartbeat CPU  0 instructions:  214000002 cycles:  154781155 heartbeat IPC: 0.64002 cumulative IPC: 1.09387 (Simulation time: 0 hr 6 min 56 sec) 
Heartbeat CPU  0 instructions:  215000002 cycles:  156356976 heartbeat IPC: 0.63459 cumulative IPC: 1.08703 (Simulation time: 0 hr 6 min 59 sec) 
Heartbeat CPU  0 instructions:  216000000 cycles:  157875099 heartbeat IPC: 0.65871 cumulative IPC: 1.08097 (Simulation time: 0 hr 7 min 2 sec) 
Heartbeat CPU  0 instructions:  217000002 cycles:  159363186 heartbeat IPC: 0.67201 cumulative IPC: 1.07537 (Simulation time: 0 hr 7 min 4 sec) 
Heartbeat CPU  0 instructions:  218000003 cycles:  160932445 heartbeat IPC: 0.63724 cumulative IPC: 1.06914 (Simulation time: 0 hr 7 min 7 sec) 
Heartbeat CPU  0 instructions:  219000000 cycles:  162374872 heartbeat IPC: 0.69327 cumulative IPC: 1.06430 (Simulation time: 0 hr 7 min 10 sec) 
Heartbeat CPU  0 instructions:  220000000 cycles:  163920524 heartbeat IPC: 0.64698 cumulative IPC: 1.05861 (Simulation time: 0 hr 7 min 12 sec) 
Heartbeat CPU  0 instructions:  221000000 cycles:  165385390 heartbeat IPC: 0.68266 cumulative IPC: 1.05381 (Simulation time: 0 hr 7 min 15 sec) 
Heartbeat CPU  0 instructions:  222000001 cycles:  166947742 heartbeat IPC: 0.64006 cumulative IPC: 1.04825 (Simulation time: 0 hr 7 min 18 sec) 
Heartbeat CPU  0 instructions:  223000000 cycles:  168373282 heartbeat IPC: 0.70149 cumulative IPC: 1.04406 (Simulation time: 0 hr 7 min 20 sec) 
Heartbeat CPU  0 instructions:  224000000 cycles:  169928693 heartbeat IPC: 0.64292 cumulative IPC: 1.03883 (Simulation time: 0 hr 7 min 23 sec) 
Heartbeat CPU  0 instructions:  225000002 cycles:  171415893 heartbeat IPC: 0.67241 cumulative IPC: 1.03432 (Simulation time: 0 hr 7 min 26 sec) 
Heartbeat CPU  0 instructions:  226000003 cycles:  172966730 heartbeat IPC: 0.64481 cumulative IPC: 1.02939 (Simulation time: 0 hr 7 min 29 sec) 
Heartbeat CPU  0 instructions:  227000002 cycles:  174449147 heartbeat IPC: 0.67457 cumulative IPC: 1.02514 (Simulation time: 0 hr 7 min 31 sec) 
Heartbeat CPU  0 instructions:  228000000 cycles:  175959382 heartbeat IPC: 0.66215 cumulative IPC: 1.02077 (Simulation time: 0 hr 7 min 34 sec) 
Heartbeat CPU  0 instructions:  229000002 cycles:  177432240 heartbeat IPC: 0.67895 cumulative IPC: 1.01680 (Simulation time: 0 hr 7 min 36 sec) 
Heartbeat CPU  0 instructions:  230000000 cycles:  178913618 heartbeat IPC: 0.67505 cumulative IPC: 1.01286 (Simulation time: 0 hr 7 min 39 sec) 
Heartbeat CPU  0 instructions:  231000001 cycles:  180420664 heartbeat IPC: 0.66355 cumulative IPC: 1.00880 (Simulation time: 0 hr 7 min 42 sec) 
Heartbeat CPU  0 instructions:  232000000 cycles:  181908605 heartbeat IPC: 0.67207 cumulative IPC: 1.00499 (Simulation time: 0 hr 7 min 44 sec) 
Heartbeat CPU  0 instructions:  233000001 cycles:  183408157 heartbeat IPC: 0.66687 cumulative IPC: 1.00117 (Simulation time: 0 hr 7 min 47 sec) 
Heartbeat CPU  0 instructions:  234000002 cycles:  184862096 heartbeat IPC: 0.68779 cumulative IPC: 0.99778 (Simulation time: 0 hr 7 min 50 sec) 
Heartbeat CPU  0 instructions:  235000002 cycles:  186394302 heartbeat IPC: 0.65265 cumulative IPC: 0.99389 (Simulation time: 0 hr 7 min 52 sec) 
Heartbeat CPU  0 instructions:  236000000 cycles:  187835681 heartbeat IPC: 0.69378 cumulative IPC: 0.99073 (Simulation time: 0 hr 7 min 55 sec) 
Heartbeat CPU  0 instructions:  237000003 cycles:  189382244 heartbeat IPC: 0.64660 cumulative IPC: 0.98690 (Simulation time: 0 hr 7 min 58 sec) 
Heartbeat CPU  0 instructions:  238000003 cycles:  190797102 heartbeat IPC: 0.70678 cumulative IPC: 0.98407 (Simulation time: 0 hr 8 min 0 sec) 
Heartbeat CPU  0 instructions:  239000000 cycles:  192337882 heartbeat IPC: 0.64902 cumulative IPC: 0.98043 (Simulation time: 0 hr 8 min 3 sec) 
Heartbeat CPU  0 instructions:  240000000 cycles:  193777172 heartbeat IPC: 0.69479 cumulative IPC: 0.97756 (Simulation time: 0 hr 8 min 6 sec) 
Heartbeat CPU  0 instructions:  241000000 cycles:  195328355 heartbeat IPC: 0.64467 cumulative IPC: 0.97400 (Simulation time: 0 hr 8 min 8 sec) 
Heartbeat CPU  0 instructions:  242000001 cycles:  196791919 heartbeat IPC: 0.68326 cumulative IPC: 0.97109 (Simulation time: 0 hr 8 min 11 sec) 
Heartbeat CPU  0 instructions:  243000000 cycles:  198321182 heartbeat IPC: 0.65391 cumulative IPC: 0.96780 (Simulation time: 0 hr 8 min 14 sec) 
Heartbeat CPU  0 instructions:  244000000 cycles:  199774675 heartbeat IPC: 0.68800 cumulative IPC: 0.96508 (Simulation time: 0 hr 8 min 16 sec) 
Heartbeat CPU  0 instructions:  245000002 cycles:  201291528 heartbeat IPC: 0.65926 cumulative IPC: 0.96200 (Simulation time: 0 hr 8 min 19 sec) 
Heartbeat CPU  0 instructions:  246000003 cycles:  202760147 heartbeat IPC: 0.68091 cumulative IPC: 0.95929 (Simulation time: 0 hr 8 min 22 sec) 
Heartbeat CPU  0 instructions:  247000003 cycles:  204268006 heartbeat IPC: 0.66319 cumulative IPC: 0.95638 (Simulation time: 0 hr 8 min 24 sec) 
Heartbeat CPU  0 instructions:  248000000 cycles:  205807828 heartbeat IPC: 0.64942 cumulative IPC: 0.95334 (Simulation time: 0 hr 8 min 27 sec) 
Heartbeat CPU  0 instructions:  249000003 cycles:  207357132 heartbeat IPC: 0.64545 cumulative IPC: 0.95030 (Simulation time: 0 hr 8 min 30 sec) 
Heartbeat CPU  0 instructions:  250000000 cycles:  208905384 heartbeat IPC: 0.64589 cumulative IPC: 0.94732 (Simulation time: 0 hr 8 min 32 sec) 
Heartbeat CPU  0 instructions:  251000000 cycles:  210118028 heartbeat IPC: 0.82464 cumulative IPC: 0.94639 (Simulation time: 0 hr 8 min 35 sec) 
Heartbeat CPU  0 instructions:  252000000 cycles:  210941811 heartbeat IPC: 1.21391 cumulative IPC: 0.94776 (Simulation time: 0 hr 8 min 37 sec) 
Heartbeat CPU  0 instructions:  253000002 cycles:  211769562 heartbeat IPC: 1.20810 cumulative IPC: 0.94910 (Simulation time: 0 hr 8 min 39 sec) 
Heartbeat CPU  0 instructions:  254000003 cycles:  212599012 heartbeat IPC: 1.20562 cumulative IPC: 0.95041 (Simulation time: 0 hr 8 min 41 sec) 
Heartbeat CPU  0 instructions:  255000000 cycles:  213429958 heartbeat IPC: 1.20344 cumulative IPC: 0.95170 (Simulation time: 0 hr 8 min 43 sec) 
Heartbeat CPU  0 instructions:  256000000 cycles:  214261071 heartbeat IPC: 1.20321 cumulative IPC: 0.95298 (Simulation time: 0 hr 8 min 46 sec) 
Heartbeat CPU  0 instructions:  257000000 cycles:  215084475 heartbeat IPC: 1.21447 cumulative IPC: 0.95429 (Simulation time: 0 hr 8 min 48 sec) 
Heartbeat CPU  0 instructions:  258000002 cycles:  215907506 heartbeat IPC: 1.21502 cumulative IPC: 0.95559 (Simulation time: 0 hr 8 min 50 sec) 
Heartbeat CPU  0 instructions:  259000000 cycles:  216731834 heartbeat IPC: 1.21311 cumulative IPC: 0.95686 (Simulation time: 0 hr 8 min 52 sec) 
Heartbeat CPU  0 instructions:  260000000 cycles:  217558786 heartbeat IPC: 1.20926 cumulative IPC: 0.95811 (Simulation time: 0 hr 8 min 54 sec) 
Heartbeat CPU  0 instructions:  261000001 cycles:  218385319 heartbeat IPC: 1.20987 cumulative IPC: 0.95935 (Simulation time: 0 hr 8 min 56 sec) 
Heartbeat CPU  0 instructions:  262000000 cycles:  219278175 heartbeat IPC: 1.12000 cumulative IPC: 0.96020 (Simulation time: 0 hr 8 min 58 sec) 
Heartbeat CPU  0 instructions:  263000002 cycles:  220162060 heartbeat IPC: 1.13137 cumulative IPC: 0.96109 (Simulation time: 0 hr 9 min 1 sec) 
Heartbeat CPU  0 instructions:  264000000 cycles:  221057869 heartbeat IPC: 1.11631 cumulative IPC: 0.96191 (Simulation time: 0 hr 9 min 3 sec) 
Heartbeat CPU  0 instructions:  265000002 cycles:  221955121 heartbeat IPC: 1.11452 cumulative IPC: 0.96271 (Simulation time: 0 hr 9 min 5 sec) 
Heartbeat CPU  0 instructions:  266000000 cycles:  222889084 heartbeat IPC: 1.07070 cumulative IPC: 0.96329 (Simulation time: 0 hr 9 min 7 sec) 
Heartbeat CPU  0 instructions:  267000000 cycles:  223773480 heartbeat IPC: 1.13072 cumulative IPC: 0.96415 (Simulation time: 0 hr 9 min 9 sec) 
Heartbeat CPU  0 instructions:  268000000 cycles:  224651354 heartbeat IPC: 1.13912 cumulative IPC: 0.96503 (Simulation time: 0 hr 9 min 11 sec) 
Heartbeat CPU  0 instructions:  269000000 cycles:  225521412 heartbeat IPC: 1.14935 cumulative IPC: 0.96595 (Simulation time: 0 hr 9 min 13 sec) 
Heartbeat CPU  0 instructions:  270000003 cycles:  226397068 heartbeat IPC: 1.14200 cumulative IPC: 0.96683 (Simulation time: 0 hr 9 min 16 sec) 
Heartbeat CPU  0 instructions:  271000000 cycles:  227259707 heartbeat IPC: 1.15923 cumulative IPC: 0.96776 (Simulation time: 0 hr 9 min 18 sec) 
Heartbeat CPU  0 instructions:  272000000 cycles:  228132484 heartbeat IPC: 1.14577 cumulative IPC: 0.96864 (Simulation time: 0 hr 9 min 20 sec) 
Heartbeat CPU  0 instructions:  273000000 cycles:  229062570 heartbeat IPC: 1.07517 cumulative IPC: 0.96919 (Simulation time: 0 hr 9 min 22 sec) 
Heartbeat CPU  0 instructions:  274000002 cycles:  229940659 heartbeat IPC: 1.13884 cumulative IPC: 0.97002 (Simulation time: 0 hr 9 min 24 sec) 
Heartbeat CPU  0 instructions:  275000000 cycles:  230825277 heartbeat IPC: 1.13043 cumulative IPC: 0.97081 (Simulation time: 0 hr 9 min 26 sec) 
Heartbeat CPU  0 instructions:  276000000 cycles:  231717849 heartbeat IPC: 1.12036 cumulative IPC: 0.97155 (Simulation time: 0 hr 9 min 28 sec) 
Heartbeat CPU  0 instructions:  277000002 cycles:  232638384 heartbeat IPC: 1.08633 cumulative IPC: 0.97213 (Simulation time: 0 hr 9 min 31 sec) 
Heartbeat CPU  0 instructions:  278000002 cycles:  233504417 heartbeat IPC: 1.15469 cumulative IPC: 0.97299 (Simulation time: 0 hr 9 min 33 sec) 
Heartbeat CPU  0 instructions:  279000000 cycles:  234387692 heartbeat IPC: 1.13215 cumulative IPC: 0.97376 (Simulation time: 0 hr 9 min 35 sec) 
Heartbeat CPU  0 instructions:  280000000 cycles:  235271492 heartbeat IPC: 1.13148 cumulative IPC: 0.97451 (Simulation time: 0 hr 9 min 37 sec) 
Heartbeat CPU  0 instructions:  281000002 cycles:  236142083 heartbeat IPC: 1.14865 cumulative IPC: 0.97533 (Simulation time: 0 hr 9 min 39 sec) 
Heartbeat CPU  0 instructions:  282000002 cycles:  237017690 heartbeat IPC: 1.14206 cumulative IPC: 0.97611 (Simulation time: 0 hr 9 min 41 sec) 
Heartbeat CPU  0 instructions:  283000001 cycles:  237947587 heartbeat IPC: 1.07539 cumulative IPC: 0.97661 (Simulation time: 0 hr 9 min 44 sec) 
Heartbeat CPU  0 instructions:  284000000 cycles:  238844012 heartbeat IPC: 1.11554 cumulative IPC: 0.97727 (Simulation time: 0 hr 9 min 46 sec) 
Heartbeat CPU  0 instructions:  285000003 cycles:  239748743 heartbeat IPC: 1.10530 cumulative IPC: 0.97788 (Simulation time: 0 hr 9 min 48 sec) 
Heartbeat CPU  0 instructions:  286000003 cycles:  240644614 heartbeat IPC: 1.11623 cumulative IPC: 0.97853 (Simulation time: 0 hr 9 min 50 sec) 
Heartbeat CPU  0 instructions:  287000003 cycles:  241544069 heartbeat IPC: 1.11178 cumulative IPC: 0.97916 (Simulation time: 0 hr 9 min 52 sec) 
Heartbeat CPU  0 instructions:  288000000 cycles:  242441892 heartbeat IPC: 1.11380 cumulative IPC: 0.97979 (Simulation time: 0 hr 9 min 55 sec) 
Heartbeat CPU  0 instructions:  289000001 cycles:  243330955 heartbeat IPC: 1.12478 cumulative IPC: 0.98046 (Simulation time: 0 hr 9 min 57 sec) 
Heartbeat CPU  0 instructions:  290000003 cycles:  244214370 heartbeat IPC: 1.13197 cumulative IPC: 0.98115 (Simulation time: 0 hr 9 min 59 sec) 
Heartbeat CPU  0 instructions:  291000003 cycles:  245082749 heartbeat IPC: 1.15157 cumulative IPC: 0.98191 (Simulation time: 0 hr 10 min 1 sec) 
Heartbeat CPU  0 instructions:  292000000 cycles:  245967346 heartbeat IPC: 1.13045 cumulative IPC: 0.98258 (Simulation time: 0 hr 10 min 3 sec) 
Heartbeat CPU  0 instructions:  293000002 cycles:  246879332 heartbeat IPC: 1.09651 cumulative IPC: 0.98311 (Simulation time: 0 hr 10 min 5 sec) 
Heartbeat CPU  0 instructions:  294000002 cycles:  247799682 heartbeat IPC: 1.08654 cumulative IPC: 0.98359 (Simulation time: 0 hr 10 min 7 sec) 
Heartbeat CPU  0 instructions:  295000001 cycles:  248707878 heartbeat IPC: 1.10108 cumulative IPC: 0.98413 (Simulation time: 0 hr 10 min 10 sec) 
Heartbeat CPU  0 instructions:  296000000 cycles:  249620698 heartbeat IPC: 1.09551 cumulative IPC: 0.98464 (Simulation time: 0 hr 10 min 12 sec) 
Heartbeat CPU  0 instructions:  297000003 cycles:  250517793 heartbeat IPC: 1.11471 cumulative IPC: 0.98523 (Simulation time: 0 hr 10 min 14 sec) 
Heartbeat CPU  0 instructions:  298000000 cycles:  251420136 heartbeat IPC: 1.10822 cumulative IPC: 0.98578 (Simulation time: 0 hr 10 min 16 sec) 
Heartbeat CPU  0 instructions:  299000003 cycles:  252336649 heartbeat IPC: 1.09110 cumulative IPC: 0.98626 (Simulation time: 0 hr 10 min 18 sec) 
Heartbeat CPU  0 instructions:  300000000 cycles:  253230480 heartbeat IPC: 1.11878 cumulative IPC: 0.98684 (Simulation time: 0 hr 10 min 20 sec) 
Heartbeat CPU  0 instructions:  301000000 cycles:  254116661 heartbeat IPC: 1.12844 cumulative IPC: 0.98746 (Simulation time: 0 hr 10 min 22 sec) 
Heartbeat CPU  0 instructions:  302000003 cycles:  254996339 heartbeat IPC: 1.13678 cumulative IPC: 0.98810 (Simulation time: 0 hr 10 min 25 sec) 
Heartbeat CPU  0 instructions:  303000002 cycles:  255889747 heartbeat IPC: 1.11931 cumulative IPC: 0.98867 (Simulation time: 0 hr 10 min 27 sec) 
Heartbeat CPU  0 instructions:  304000000 cycles:  256797739 heartbeat IPC: 1.10133 cumulative IPC: 0.98917 (Simulation time: 0 hr 10 min 29 sec) 
Heartbeat CPU  0 instructions:  305000003 cycles:  257703743 heartbeat IPC: 1.10375 cumulative IPC: 0.98967 (Simulation time: 0 hr 10 min 31 sec) 
Heartbeat CPU  0 instructions:  306000001 cycles:  258602841 heartbeat IPC: 1.11222 cumulative IPC: 0.99020 (Simulation time: 0 hr 10 min 33 sec) 
Heartbeat CPU  0 instructions:  307000001 cycles:  259512954 heartbeat IPC: 1.09876 cumulative IPC: 0.99067 (Simulation time: 0 hr 10 min 35 sec) 
Heartbeat CPU  0 instructions:  308000000 cycles:  260418427 heartbeat IPC: 1.10439 cumulative IPC: 0.99116 (Simulation time: 0 hr 10 min 37 sec) 
Heartbeat CPU  0 instructions:  309000001 cycles:  261359579 heartbeat IPC: 1.06253 cumulative IPC: 0.99148 (Simulation time: 0 hr 10 min 40 sec) 
Heartbeat CPU  0 instructions:  310000000 cycles:  262255094 heartbeat IPC: 1.11667 cumulative IPC: 0.99201 (Simulation time: 0 hr 10 min 42 sec) 
Heartbeat CPU  0 instructions:  311000000 cycles:  263146940 heartbeat IPC: 1.12127 cumulative IPC: 0.99255 (Simulation time: 0 hr 10 min 44 sec) 
Heartbeat CPU  0 instructions:  312000000 cycles:  264011728 heartbeat IPC: 1.15635 cumulative IPC: 0.99322 (Simulation time: 0 hr 10 min 46 sec) 
Heartbeat CPU  0 instructions:  313000003 cycles:  264895508 heartbeat IPC: 1.13151 cumulative IPC: 0.99379 (Simulation time: 0 hr 10 min 48 sec) 
Heartbeat CPU  0 instructions:  314000001 cycles:  265799538 heartbeat IPC: 1.10616 cumulative IPC: 0.99426 (Simulation time: 0 hr 10 min 50 sec) 
Heartbeat CPU  0 instructions:  315000000 cycles:  266705188 heartbeat IPC: 1.10418 cumulative IPC: 0.99472 (Simulation time: 0 hr 10 min 53 sec) 
Heartbeat CPU  0 instructions:  316000000 cycles:  267612040 heartbeat IPC: 1.10272 cumulative IPC: 0.99517 (Simulation time: 0 hr 10 min 55 sec) 
Heartbeat CPU  0 instructions:  317000003 cycles:  268519767 heartbeat IPC: 1.10166 cumulative IPC: 0.99561 (Simulation time: 0 hr 10 min 57 sec) 
Heartbeat CPU  0 instructions:  318000002 cycles:  269443710 heartbeat IPC: 1.08232 cumulative IPC: 0.99598 (Simulation time: 0 hr 10 min 59 sec) 
Heartbeat CPU  0 instructions:  319000002 cycles:  270369472 heartbeat IPC: 1.08019 cumulative IPC: 0.99633 (Simulation time: 0 hr 11 min 1 sec) 
Heartbeat CPU  0 instructions:  320000000 cycles:  271281911 heartbeat IPC: 1.09596 cumulative IPC: 0.99675 (Simulation time: 0 hr 11 min 3 sec) 
Heartbeat CPU  0 instructions:  321000002 cycles:  272161620 heartbeat IPC: 1.13674 cumulative IPC: 0.99730 (Simulation time: 0 hr 11 min 5 sec) 
Heartbeat CPU  0 instructions:  322000002 cycles:  273049962 heartbeat IPC: 1.12569 cumulative IPC: 0.99781 (Simulation time: 0 hr 11 min 8 sec) 
Heartbeat CPU  0 instructions:  323000002 cycles:  273930998 heartbeat IPC: 1.13503 cumulative IPC: 0.99836 (Simulation time: 0 hr 11 min 10 sec) 
Heartbeat CPU  0 instructions:  324000000 cycles:  274818859 heartbeat IPC: 1.12630 cumulative IPC: 0.99886 (Simulation time: 0 hr 11 min 12 sec) 
Heartbeat CPU  0 instructions:  325000002 cycles:  275761183 heartbeat IPC: 1.06121 cumulative IPC: 0.99912 (Simulation time: 0 hr 11 min 14 sec) 
Heartbeat CPU  0 instructions:  326000000 cycles:  276661293 heartbeat IPC: 1.11097 cumulative IPC: 0.99957 (Simulation time: 0 hr 11 min 16 sec) 
Heartbeat CPU  0 instructions:  327000002 cycles:  277570933 heartbeat IPC: 1.09934 cumulative IPC: 0.99997 (Simulation time: 0 hr 11 min 18 sec) 
Heartbeat CPU  0 instructions:  328000000 cycles:  278462069 heartbeat IPC: 1.12216 cumulative IPC: 1.00045 (Simulation time: 0 hr 11 min 21 sec) 
Heartbeat CPU  0 instructions:  329000001 cycles:  279390094 heartbeat IPC: 1.07756 cumulative IPC: 1.00076 (Simulation time: 0 hr 11 min 23 sec) 
Heartbeat CPU  0 instructions:  330000001 cycles:  280304045 heartbeat IPC: 1.09415 cumulative IPC: 1.00113 (Simulation time: 0 hr 11 min 25 sec) 
Heartbeat CPU  0 instructions:  331000001 cycles:  281203411 heartbeat IPC: 1.11189 cumulative IPC: 1.00156 (Simulation time: 0 hr 11 min 27 sec) 
Heartbeat CPU  0 instructions:  332000000 cycles:  282068716 heartbeat IPC: 1.15566 cumulative IPC: 1.00214 (Simulation time: 0 hr 11 min 29 sec) 
Heartbeat CPU  0 instructions:  333000001 cycles:  282957732 heartbeat IPC: 1.12484 cumulative IPC: 1.00261 (Simulation time: 0 hr 11 min 31 sec) 
Heartbeat CPU  0 instructions:  334000003 cycles:  283835280 heartbeat IPC: 1.13954 cumulative IPC: 1.00312 (Simulation time: 0 hr 11 min 33 sec) 
Heartbeat CPU  0 instructions:  335000002 cycles:  284762034 heartbeat IPC: 1.07903 cumulative IPC: 1.00342 (Simulation time: 0 hr 11 min 36 sec) 
Heartbeat CPU  0 instructions:  336000000 cycles:  285670746 heartbeat IPC: 1.10046 cumulative IPC: 1.00380 (Simulation time: 0 hr 11 min 38 sec) 
Heartbeat CPU  0 instructions:  337000002 cycles:  286578145 heartbeat IPC: 1.10205 cumulative IPC: 1.00418 (Simulation time: 0 hr 11 min 40 sec) 
Heartbeat CPU  0 instructions:  338000002 cycles:  287484220 heartbeat IPC: 1.10366 cumulative IPC: 1.00456 (Simulation time: 0 hr 11 min 42 sec) 
Heartbeat CPU  0 instructions:  339000002 cycles:  288383893 heartbeat IPC: 1.11151 cumulative IPC: 1.00496 (Simulation time: 0 hr 11 min 44 sec) 
Heartbeat CPU  0 instructions:  340000000 cycles:  289286934 heartbeat IPC: 1.10737 cumulative IPC: 1.00535 (Simulation time: 0 hr 11 min 46 sec) 
Heartbeat CPU  0 instructions:  341000001 cycles:  290171804 heartbeat IPC: 1.13011 cumulative IPC: 1.00581 (Simulation time: 0 hr 11 min 49 sec) 
Heartbeat CPU  0 instructions:  342000003 cycles:  291041456 heartbeat IPC: 1.14989 cumulative IPC: 1.00633 (Simulation time: 0 hr 11 min 51 sec) 
Heartbeat CPU  0 instructions:  343000003 cycles:  291922980 heartbeat IPC: 1.13440 cumulative IPC: 1.00680 (Simulation time: 0 hr 11 min 53 sec) 
Heartbeat CPU  0 instructions:  344000000 cycles:  292812724 heartbeat IPC: 1.12392 cumulative IPC: 1.00723 (Simulation time: 0 hr 11 min 55 sec) 
Heartbeat CPU  0 instructions:  345000002 cycles:  293694104 heartbeat IPC: 1.13459 cumulative IPC: 1.00769 (Simulation time: 0 hr 11 min 57 sec) 
Heartbeat CPU  0 instructions:  346000003 cycles:  294606220 heartbeat IPC: 1.09635 cumulative IPC: 1.00802 (Simulation time: 0 hr 11 min 59 sec) 
Heartbeat CPU  0 instructions:  347000003 cycles:  295520767 heartbeat IPC: 1.09344 cumulative IPC: 1.00834 (Simulation time: 0 hr 12 min 1 sec) 
Heartbeat CPU  0 instructions:  348000000 cycles:  296414120 heartbeat IPC: 1.11937 cumulative IPC: 1.00874 (Simulation time: 0 hr 12 min 4 sec) 
Heartbeat CPU  0 instructions:  349000000 cycles:  297315737 heartbeat IPC: 1.10912 cumulative IPC: 1.00911 (Simulation time: 0 hr 12 min 6 sec) 
Heartbeat CPU  0 instructions:  350000003 cycles:  298194908 heartbeat IPC: 1.13744 cumulative IPC: 1.00957 (Simulation time: 0 hr 12 min 8 sec) 
Heartbeat CPU  0 instructions:  351000002 cycles:  299103564 heartbeat IPC: 1.10053 cumulative IPC: 1.00990 (Simulation time: 0 hr 12 min 10 sec) 
Heartbeat CPU  0 instructions:  352000000 cycles:  300006502 heartbeat IPC: 1.10749 cumulative IPC: 1.01025 (Simulation time: 0 hr 12 min 12 sec) 
Heartbeat CPU  0 instructions:  353000003 cycles:  300889218 heartbeat IPC: 1.13287 cumulative IPC: 1.01068 (Simulation time: 0 hr 12 min 14 sec) 
Heartbeat CPU  0 instructions:  354000003 cycles:  301777308 heartbeat IPC: 1.12601 cumulative IPC: 1.01109 (Simulation time: 0 hr 12 min 17 sec) 
Heartbeat CPU  0 instructions:  355000000 cycles:  302646367 heartbeat IPC: 1.15067 cumulative IPC: 1.01157 (Simulation time: 0 hr 12 min 19 sec) 
Heartbeat CPU  0 instructions:  356000000 cycles:  303560219 heartbeat IPC: 1.09427 cumulative IPC: 1.01187 (Simulation time: 0 hr 12 min 21 sec) 
Heartbeat CPU  0 instructions:  357000001 cycles:  304483857 heartbeat IPC: 1.08268 cumulative IPC: 1.01213 (Simulation time: 0 hr 12 min 23 sec) 
Heartbeat CPU  0 instructions:  358000003 cycles:  305411988 heartbeat IPC: 1.07744 cumulative IPC: 1.01237 (Simulation time: 0 hr 12 min 25 sec) 
Heartbeat CPU  0 instructions:  359000000 cycles:  306339264 heartbeat IPC: 1.07842 cumulative IPC: 1.01261 (Simulation time: 0 hr 12 min 27 sec) 
Heartbeat CPU  0 instructions:  360000000 cycles:  307265373 heartbeat IPC: 1.07979 cumulative IPC: 1.01285 (Simulation time: 0 hr 12 min 29 sec) 
Heartbeat CPU  0 instructions:  361000002 cycles:  308175563 heartbeat IPC: 1.09867 cumulative IPC: 1.01315 (Simulation time: 0 hr 12 min 32 sec) 
Heartbeat CPU  0 instructions:  362000002 cycles:  309061007 heartbeat IPC: 1.12938 cumulative IPC: 1.01355 (Simulation time: 0 hr 12 min 34 sec) 
Heartbeat CPU  0 instructions:  363000002 cycles:  309956569 heartbeat IPC: 1.11662 cumulative IPC: 1.01391 (Simulation time: 0 hr 12 min 36 sec) 
Heartbeat CPU  0 instructions:  364000000 cycles:  310831715 heartbeat IPC: 1.14266 cumulative IPC: 1.01434 (Simulation time: 0 hr 12 min 38 sec) 
Heartbeat CPU  0 instructions:  365000001 cycles:  311702718 heartbeat IPC: 1.14810 cumulative IPC: 1.01479 (Simulation time: 0 hr 12 min 40 sec) 
Heartbeat CPU  0 instructions:  366000001 cycles:  312577200 heartbeat IPC: 1.14353 cumulative IPC: 1.01522 (Simulation time: 0 hr 12 min 42 sec) 
Heartbeat CPU  0 instructions:  367000003 cycles:  313502665 heartbeat IPC: 1.08054 cumulative IPC: 1.01545 (Simulation time: 0 hr 12 min 45 sec) 
Heartbeat CPU  0 instructions:  368000000 cycles:  314439274 heartbeat IPC: 1.06768 cumulative IPC: 1.01563 (Simulation time: 0 hr 12 min 47 sec) 
Heartbeat CPU  0 instructions:  369000001 cycles:  315365540 heartbeat IPC: 1.07960 cumulative IPC: 1.01585 (Simulation time: 0 hr 12 min 49 sec) 
Heartbeat CPU  0 instructions:  370000002 cycles:  316272696 heartbeat IPC: 1.10235 cumulative IPC: 1.01615 (Simulation time: 0 hr 12 min 51 sec) 
Heartbeat CPU  0 instructions:  371000002 cycles:  317193791 heartbeat IPC: 1.08566 cumulative IPC: 1.01639 (Simulation time: 0 hr 12 min 53 sec) 
Heartbeat CPU  0 instructions:  372000000 cycles:  318090007 heartbeat IPC: 1.11580 cumulative IPC: 1.01672 (Simulation time: 0 hr 12 min 55 sec) 
Heartbeat CPU  0 instructions:  373000002 cycles:  318982035 heartbeat IPC: 1.12104 cumulative IPC: 1.01707 (Simulation time: 0 hr 12 min 58 sec) 
Heartbeat CPU  0 instructions:  374000001 cycles:  319855563 heartbeat IPC: 1.14478 cumulative IPC: 1.01748 (Simulation time: 0 hr 13 min 0 sec) 
Heartbeat CPU  0 instructions:  375000000 cycles:  320718985 heartbeat IPC: 1.15818 cumulative IPC: 1.01793 (Simulation time: 0 hr 13 min 2 sec) 
Heartbeat CPU  0 instructions:  376000000 cycles:  321602175 heartbeat IPC: 1.13226 cumulative IPC: 1.01831 (Simulation time: 0 hr 13 min 4 sec) 
Heartbeat CPU  0 instructions:  377000002 cycles:  322533953 heartbeat IPC: 1.07322 cumulative IPC: 1.01849 (Simulation time: 0 hr 13 min 6 sec) 
Heartbeat CPU  0 instructions:  378000000 cycles:  323454642 heartbeat IPC: 1.08614 cumulative IPC: 1.01872 (Simulation time: 0 hr 13 min 8 sec) 
Heartbeat CPU  0 instructions:  379000000 cycles:  324372301 heartbeat IPC: 1.08973 cumulative IPC: 1.01896 (Simulation time: 0 hr 13 min 10 sec) 
Heartbeat CPU  0 instructions:  380000000 cycles:  325281664 heartbeat IPC: 1.09967 cumulative IPC: 1.01923 (Simulation time: 0 hr 13 min 13 sec) 
Heartbeat CPU  0 instructions:  381000002 cycles:  326182190 heartbeat IPC: 1.11046 cumulative IPC: 1.01953 (Simulation time: 0 hr 13 min 15 sec) 
Heartbeat CPU  0 instructions:  382000000 cycles:  327093011 heartbeat IPC: 1.09791 cumulative IPC: 1.01978 (Simulation time: 0 hr 13 min 17 sec) 
Heartbeat CPU  0 instructions:  383000000 cycles:  327996861 heartbeat IPC: 1.10638 cumulative IPC: 1.02007 (Simulation time: 0 hr 13 min 19 sec) 
Heartbeat CPU  0 instructions:  384000000 cycles:  328885442 heartbeat IPC: 1.12539 cumulative IPC: 1.02040 (Simulation time: 0 hr 13 min 21 sec) 
Heartbeat CPU  0 instructions:  385000001 cycles:  329774182 heartbeat IPC: 1.12519 cumulative IPC: 1.02074 (Simulation time: 0 hr 13 min 23 sec) 
Heartbeat CPU  0 instructions:  386000002 cycles:  330661428 heartbeat IPC: 1.12708 cumulative IPC: 1.02107 (Simulation time: 0 hr 13 min 26 sec) 
Heartbeat CPU  0 instructions:  387000000 cycles:  331569009 heartbeat IPC: 1.10183 cumulative IPC: 1.02133 (Simulation time: 0 hr 13 min 28 sec) 
Heartbeat CPU  0 instructions:  388000000 cycles:  332487725 heartbeat IPC: 1.08848 cumulative IPC: 1.02155 (Simulation time: 0 hr 13 min 30 sec) 
Heartbeat CPU  0 instructions:  389000003 cycles:  333422626 heartbeat IPC: 1.06964 cumulative IPC: 1.02171 (Simulation time: 0 hr 13 min 32 sec) 
Heartbeat CPU  0 instructions:  390000003 cycles:  334373751 heartbeat IPC: 1.05139 cumulative IPC: 1.02181 (Simulation time: 0 hr 13 min 34 sec) 
Heartbeat CPU  0 instructions:  391000002 cycles:  335294991 heartbeat IPC: 1.08549 cumulative IPC: 1.02202 (Simulation time: 0 hr 13 min 36 sec) 
Heartbeat CPU  0 instructions:  392000000 cycles:  336202519 heartbeat IPC: 1.10189 cumulative IPC: 1.02227 (Simulation time: 0 hr 13 min 38 sec) 
Heartbeat CPU  0 instructions:  393000003 cycles:  337136583 heartbeat IPC: 1.07059 cumulative IPC: 1.02243 (Simulation time: 0 hr 13 min 41 sec) 
Heartbeat CPU  0 instructions:  394000003 cycles:  338052694 heartbeat IPC: 1.09157 cumulative IPC: 1.02265 (Simulation time: 0 hr 13 min 43 sec) 
Heartbeat CPU  0 instructions:  395000003 cycles:  338985169 heartbeat IPC: 1.07241 cumulative IPC: 1.02281 (Simulation time: 0 hr 13 min 45 sec) 
Heartbeat CPU  0 instructions:  396000000 cycles:  339884252 heartbeat IPC: 1.11224 cumulative IPC: 1.02309 (Simulation time: 0 hr 13 min 47 sec) 
Heartbeat CPU  0 instructions:  397000001 cycles:  340792804 heartbeat IPC: 1.10065 cumulative IPC: 1.02333 (Simulation time: 0 hr 13 min 49 sec) 
Heartbeat CPU  0 instructions:  398000001 cycles:  341550942 heartbeat IPC: 1.31902 cumulative IPC: 1.02410 (Simulation time: 0 hr 13 min 51 sec) 
Heartbeat CPU  0 instructions:  399000000 cycles:  342499202 heartbeat IPC: 1.05456 cumulative IPC: 1.02420 (Simulation time: 0 hr 13 min 53 sec) 
Heartbeat CPU  0 instructions:  400000000 cycles:  343449419 heartbeat IPC: 1.05239 cumulative IPC: 1.02429 (Simulation time: 0 hr 13 min 55 sec) 
Heartbeat CPU  0 instructions:  401000001 cycles:  344397742 heartbeat IPC: 1.05449 cumulative IPC: 1.02439 (Simulation time: 0 hr 13 min 58 sec) 
Heartbeat CPU  0 instructions:  402000003 cycles:  345346613 heartbeat IPC: 1.05389 cumulative IPC: 1.02448 (Simulation time: 0 hr 14 min 0 sec) 
Heartbeat CPU  0 instructions:  403000000 cycles:  346295316 heartbeat IPC: 1.05407 cumulative IPC: 1.02458 (Simulation time: 0 hr 14 min 2 sec) 
Heartbeat CPU  0 instructions:  404000000 cycles:  347245139 heartbeat IPC: 1.05283 cumulative IPC: 1.02467 (Simulation time: 0 hr 14 min 4 sec) 
Heartbeat CPU  0 instructions:  405000003 cycles:  348193762 heartbeat IPC: 1.05416 cumulative IPC: 1.02476 (Simulation time: 0 hr 14 min 7 sec) 
Heartbeat CPU  0 instructions:  406000003 cycles:  349143204 heartbeat IPC: 1.05325 cumulative IPC: 1.02485 (Simulation time: 0 hr 14 min 9 sec) 
Heartbeat CPU  0 instructions:  407000000 cycles:  350091487 heartbeat IPC: 1.05453 cumulative IPC: 1.02495 (Simulation time: 0 hr 14 min 11 sec) 
Heartbeat CPU  0 instructions:  408000000 cycles:  351041421 heartbeat IPC: 1.05270 cumulative IPC: 1.02503 (Simulation time: 0 hr 14 min 13 sec) 
Heartbeat CPU  0 instructions:  409000002 cycles:  351988429 heartbeat IPC: 1.05596 cumulative IPC: 1.02513 (Simulation time: 0 hr 14 min 15 sec) 
Heartbeat CPU  0 instructions:  410000002 cycles:  352936678 heartbeat IPC: 1.05458 cumulative IPC: 1.02522 (Simulation time: 0 hr 14 min 18 sec) 
Heartbeat CPU  0 instructions:  411000000 cycles:  353887103 heartbeat IPC: 1.05216 cumulative IPC: 1.02531 (Simulation time: 0 hr 14 min 20 sec) 
Heartbeat CPU  0 instructions:  412000000 cycles:  354835935 heartbeat IPC: 1.05393 cumulative IPC: 1.02540 (Simulation time: 0 hr 14 min 22 sec) 
Heartbeat CPU  0 instructions:  413000001 cycles:  355785637 heartbeat IPC: 1.05296 cumulative IPC: 1.02548 (Simulation time: 0 hr 14 min 24 sec) 
Heartbeat CPU  0 instructions:  414000000 cycles:  356734252 heartbeat IPC: 1.05417 cumulative IPC: 1.02557 (Simulation time: 0 hr 14 min 26 sec) 
Heartbeat CPU  0 instructions:  415000002 cycles:  357683830 heartbeat IPC: 1.05310 cumulative IPC: 1.02566 (Simulation time: 0 hr 14 min 29 sec) 
Heartbeat CPU  0 instructions:  416000000 cycles:  358632465 heartbeat IPC: 1.05414 cumulative IPC: 1.02575 (Simulation time: 0 hr 14 min 31 sec) 
Heartbeat CPU  0 instructions:  417000001 cycles:  359582096 heartbeat IPC: 1.05304 cumulative IPC: 1.02583 (Simulation time: 0 hr 14 min 33 sec) 
Heartbeat CPU  0 instructions:  418000002 cycles:  360530560 heartbeat IPC: 1.05434 cumulative IPC: 1.02592 (Simulation time: 0 hr 14 min 35 sec) 
Heartbeat CPU  0 instructions:  419000003 cycles:  361479755 heartbeat IPC: 1.05353 cumulative IPC: 1.02600 (Simulation time: 0 hr 14 min 38 sec) 
Heartbeat CPU  0 instructions:  420000000 cycles:  362428660 heartbeat IPC: 1.05384 cumulative IPC: 1.02609 (Simulation time: 0 hr 14 min 40 sec) 
Heartbeat CPU  0 instructions:  421000002 cycles:  363377068 heartbeat IPC: 1.05440 cumulative IPC: 1.02617 (Simulation time: 0 hr 14 min 42 sec) 
Heartbeat CPU  0 instructions:  422000000 cycles:  364326054 heartbeat IPC: 1.05375 cumulative IPC: 1.02625 (Simulation time: 0 hr 14 min 44 sec) 
Heartbeat CPU  0 instructions:  423000003 cycles:  365274660 heartbeat IPC: 1.05418 cumulative IPC: 1.02634 (Simulation time: 0 hr 14 min 46 sec) 
Heartbeat CPU  0 instructions:  424000000 cycles:  366223423 heartbeat IPC: 1.05400 cumulative IPC: 1.02642 (Simulation time: 0 hr 14 min 49 sec) 
Heartbeat CPU  0 instructions:  425000000 cycles:  367171728 heartbeat IPC: 1.05451 cumulative IPC: 1.02651 (Simulation time: 0 hr 14 min 51 sec) 
Heartbeat CPU  0 instructions:  426000000 cycles:  368120459 heartbeat IPC: 1.05404 cumulative IPC: 1.02659 (Simulation time: 0 hr 14 min 53 sec) 
Heartbeat CPU  0 instructions:  427000003 cycles:  369068593 heartbeat IPC: 1.05471 cumulative IPC: 1.02667 (Simulation time: 0 hr 14 min 55 sec) 
Heartbeat CPU  0 instructions:  428000000 cycles:  370017340 heartbeat IPC: 1.05402 cumulative IPC: 1.02675 (Simulation time: 0 hr 14 min 58 sec) 
Heartbeat CPU  0 instructions:  429000000 cycles:  370965887 heartbeat IPC: 1.05424 cumulative IPC: 1.02683 (Simulation time: 0 hr 15 min 0 sec) 
Heartbeat CPU  0 instructions:  430000003 cycles:  371914286 heartbeat IPC: 1.05441 cumulative IPC: 1.02692 (Simulation time: 0 hr 15 min 2 sec) 
Heartbeat CPU  0 instructions:  431000003 cycles:  372863043 heartbeat IPC: 1.05401 cumulative IPC: 1.02700 (Simulation time: 0 hr 15 min 4 sec) 
Heartbeat CPU  0 instructions:  432000000 cycles:  373811164 heartbeat IPC: 1.05471 cumulative IPC: 1.02708 (Simulation time: 0 hr 15 min 6 sec) 
Heartbeat CPU  0 instructions:  433000001 cycles:  374760544 heartbeat IPC: 1.05332 cumulative IPC: 1.02715 (Simulation time: 0 hr 15 min 9 sec) 
Heartbeat CPU  0 instructions:  434000003 cycles:  375709314 heartbeat IPC: 1.05400 cumulative IPC: 1.02723 (Simulation time: 0 hr 15 min 11 sec) 
Heartbeat CPU  0 instructions:  435000001 cycles:  376658097 heartbeat IPC: 1.05398 cumulative IPC: 1.02731 (Simulation time: 0 hr 15 min 13 sec) 
Heartbeat CPU  0 instructions:  436000000 cycles:  377606361 heartbeat IPC: 1.05456 cumulative IPC: 1.02739 (Simulation time: 0 hr 15 min 15 sec) 
Heartbeat CPU  0 instructions:  437000000 cycles:  378556020 heartbeat IPC: 1.05301 cumulative IPC: 1.02746 (Simulation time: 0 hr 15 min 18 sec) 
Heartbeat CPU  0 instructions:  438000001 cycles:  379504651 heartbeat IPC: 1.05415 cumulative IPC: 1.02754 (Simulation time: 0 hr 15 min 20 sec) 
Heartbeat CPU  0 instructions:  439000002 cycles:  380452758 heartbeat IPC: 1.05473 cumulative IPC: 1.02762 (Simulation time: 0 hr 15 min 22 sec) 
Heartbeat CPU  0 instructions:  440000000 cycles:  381402485 heartbeat IPC: 1.05293 cumulative IPC: 1.02769 (Simulation time: 0 hr 15 min 24 sec) 
Heartbeat CPU  0 instructions:  441000001 cycles:  382350975 heartbeat IPC: 1.05431 cumulative IPC: 1.02777 (Simulation time: 0 hr 15 min 27 sec) 
Heartbeat CPU  0 instructions:  442000001 cycles:  383300326 heartbeat IPC: 1.05335 cumulative IPC: 1.02784 (Simulation time: 0 hr 15 min 29 sec) 
Heartbeat CPU  0 instructions:  443000002 cycles:  384248709 heartbeat IPC: 1.05443 cumulative IPC: 1.02792 (Simulation time: 0 hr 15 min 31 sec) 
Heartbeat CPU  0 instructions:  444000000 cycles:  385198471 heartbeat IPC: 1.05289 cumulative IPC: 1.02799 (Simulation time: 0 hr 15 min 33 sec) 
Heartbeat CPU  0 instructions:  445000001 cycles:  386146883 heartbeat IPC: 1.05440 cumulative IPC: 1.02806 (Simulation time: 0 hr 15 min 35 sec) 
Heartbeat CPU  0 instructions:  446000001 cycles:  387095666 heartbeat IPC: 1.05398 cumulative IPC: 1.02813 (Simulation time: 0 hr 15 min 38 sec) 
Heartbeat CPU  0 instructions:  447000002 cycles:  388044052 heartbeat IPC: 1.05442 cumulative IPC: 1.02821 (Simulation time: 0 hr 15 min 40 sec) 
Heartbeat CPU  0 instructions:  448000000 cycles:  388993907 heartbeat IPC: 1.05279 cumulative IPC: 1.02828 (Simulation time: 0 hr 15 min 42 sec) 
Heartbeat CPU  0 instructions:  449000003 cycles:  389942536 heartbeat IPC: 1.05416 cumulative IPC: 1.02835 (Simulation time: 0 hr 15 min 44 sec) 
Heartbeat CPU  0 instructions:  450000002 cycles:  390890503 heartbeat IPC: 1.05489 cumulative IPC: 1.02842 (Simulation time: 0 hr 15 min 47 sec) 
Heartbeat CPU  0 instructions:  451000000 cycles:  391840278 heartbeat IPC: 1.05288 cumulative IPC: 1.02849 (Simulation time: 0 hr 15 min 49 sec) 
Heartbeat CPU  0 instructions:  452000000 cycles:  392788630 heartbeat IPC: 1.05446 cumulative IPC: 1.02856 (Simulation time: 0 hr 15 min 51 sec) 
Heartbeat CPU  0 instructions:  453000003 cycles:  393737797 heartbeat IPC: 1.05356 cumulative IPC: 1.02863 (Simulation time: 0 hr 15 min 53 sec) 
Heartbeat CPU  0 instructions:  454000000 cycles:  394686613 heartbeat IPC: 1.05394 cumulative IPC: 1.02870 (Simulation time: 0 hr 15 min 55 sec) 
Heartbeat CPU  0 instructions:  455000002 cycles:  395635802 heartbeat IPC: 1.05353 cumulative IPC: 1.02877 (Simulation time: 0 hr 15 min 58 sec) 
Heartbeat CPU  0 instructions:  456000000 cycles:  396584255 heartbeat IPC: 1.05435 cumulative IPC: 1.02884 (Simulation time: 0 hr 16 min 0 sec) 
Heartbeat CPU  0 instructions:  457000000 cycles:  397533178 heartbeat IPC: 1.05383 cumulative IPC: 1.02891 (Simulation time: 0 hr 16 min 2 sec) 
Heartbeat CPU  0 instructions:  458000002 cycles:  398482210 heartbeat IPC: 1.05371 cumulative IPC: 1.02898 (Simulation time: 0 hr 16 min 4 sec) 
Heartbeat CPU  0 instructions:  459000003 cycles:  399430300 heartbeat IPC: 1.05475 cumulative IPC: 1.02905 (Simulation time: 0 hr 16 min 7 sec) 
Heartbeat CPU  0 instructions:  460000000 cycles:  400348992 heartbeat IPC: 1.08850 cumulative IPC: 1.02920 (Simulation time: 0 hr 16 min 9 sec) 
Heartbeat CPU  0 instructions:  461000000 cycles:  401182090 heartbeat IPC: 1.20034 cumulative IPC: 1.02961 (Simulation time: 0 hr 16 min 11 sec) 
Heartbeat CPU  0 instructions:  462000000 cycles:  402018002 heartbeat IPC: 1.19630 cumulative IPC: 1.03001 (Simulation time: 0 hr 16 min 13 sec) 
Heartbeat CPU  0 instructions:  463000001 cycles:  402848746 heartbeat IPC: 1.20374 cumulative IPC: 1.03042 (Simulation time: 0 hr 16 min 15 sec) 
Heartbeat CPU  0 instructions:  464000000 cycles:  403678762 heartbeat IPC: 1.20479 cumulative IPC: 1.03083 (Simulation time: 0 hr 16 min 17 sec) 
Heartbeat CPU  0 instructions:  465000002 cycles:  404513213 heartbeat IPC: 1.19840 cumulative IPC: 1.03122 (Simulation time: 0 hr 16 min 19 sec) 
Heartbeat CPU  0 instructions:  466000000 cycles:  405348234 heartbeat IPC: 1.19757 cumulative IPC: 1.03161 (Simulation time: 0 hr 16 min 21 sec) 
Heartbeat CPU  0 instructions:  467000001 cycles:  406179288 heartbeat IPC: 1.20329 cumulative IPC: 1.03201 (Simulation time: 0 hr 16 min 23 sec) 
Heartbeat CPU  0 instructions:  468000000 cycles:  407012294 heartbeat IPC: 1.20047 cumulative IPC: 1.03241 (Simulation time: 0 hr 16 min 25 sec) 
Heartbeat CPU  0 instructions:  469000003 cycles:  407871187 heartbeat IPC: 1.16429 cumulative IPC: 1.03272 (Simulation time: 0 hr 16 min 27 sec) 
Heartbeat CPU  0 instructions:  470000001 cycles:  408869473 heartbeat IPC: 1.00171 cumulative IPC: 1.03264 (Simulation time: 0 hr 16 min 29 sec) 
Heartbeat CPU  0 instructions:  471000001 cycles:  409937696 heartbeat IPC: 0.93613 cumulative IPC: 1.03235 (Simulation time: 0 hr 16 min 31 sec) 
Heartbeat CPU  0 instructions:  472000000 cycles:  411031363 heartbeat IPC: 0.91435 cumulative IPC: 1.03199 (Simulation time: 0 hr 16 min 33 sec) 
Heartbeat CPU  0 instructions:  473000002 cycles:  412039717 heartbeat IPC: 0.99172 cumulative IPC: 1.03188 (Simulation time: 0 hr 16 min 35 sec) 
Heartbeat CPU  0 instructions:  474000001 cycles:  413039222 heartbeat IPC: 1.00049 cumulative IPC: 1.03179 (Simulation time: 0 hr 16 min 38 sec) 
Heartbeat CPU  0 instructions:  475000002 cycles:  414083177 heartbeat IPC: 0.95790 cumulative IPC: 1.03158 (Simulation time: 0 hr 16 min 40 sec) 
Heartbeat CPU  0 instructions:  476000000 cycles:  415128510 heartbeat IPC: 0.95663 cumulative IPC: 1.03137 (Simulation time: 0 hr 16 min 42 sec) 
Heartbeat CPU  0 instructions:  477000002 cycles:  416073645 heartbeat IPC: 1.05805 cumulative IPC: 1.03144 (Simulation time: 0 hr 16 min 44 sec) 
Heartbeat CPU  0 instructions:  478000000 cycles:  417247161 heartbeat IPC: 0.85214 cumulative IPC: 1.03086 (Simulation time: 0 hr 16 min 46 sec) 
Heartbeat CPU  0 instructions:  479000002 cycles:  418449340 heartbeat IPC: 0.83182 cumulative IPC: 1.03021 (Simulation time: 0 hr 16 min 48 sec) 
Heartbeat CPU  0 instructions:  480000000 cycles:  419618258 heartbeat IPC: 0.85549 cumulative IPC: 1.02966 (Simulation time: 0 hr 16 min 50 sec) 
Heartbeat CPU  0 instructions:  481000003 cycles:  420826415 heartbeat IPC: 0.82771 cumulative IPC: 1.02900 (Simulation time: 0 hr 16 min 52 sec) 
Heartbeat CPU  0 instructions:  482000003 cycles:  421943067 heartbeat IPC: 0.89553 cumulative IPC: 1.02860 (Simulation time: 0 hr 16 min 55 sec) 
Heartbeat CPU  0 instructions:  483000003 cycles:  423047435 heartbeat IPC: 0.90550 cumulative IPC: 1.02823 (Simulation time: 0 hr 16 min 57 sec) 
Heartbeat CPU  0 instructions:  484000000 cycles:  424234127 heartbeat IPC: 0.84268 cumulative IPC: 1.02764 (Simulation time: 0 hr 16 min 59 sec) 
Heartbeat CPU  0 instructions:  485000002 cycles:  425388822 heartbeat IPC: 0.86603 cumulative IPC: 1.02715 (Simulation time: 0 hr 17 min 1 sec) 
Heartbeat CPU  0 instructions:  486000000 cycles:  426415592 heartbeat IPC: 0.97393 cumulative IPC: 1.02700 (Simulation time: 0 hr 17 min 3 sec) 
Heartbeat CPU  0 instructions:  487000000 cycles:  428000052 heartbeat IPC: 0.63113 cumulative IPC: 1.02534 (Simulation time: 0 hr 17 min 6 sec) 
Heartbeat CPU  0 instructions:  488000000 cycles:  429571483 heartbeat IPC: 0.63636 cumulative IPC: 1.02373 (Simulation time: 0 hr 17 min 8 sec) 
Heartbeat CPU  0 instructions:  489000000 cycles:  431144976 heartbeat IPC: 0.63553 cumulative IPC: 1.02212 (Simulation time: 0 hr 17 min 11 sec) 
Heartbeat CPU  0 instructions:  490000003 cycles:  432628688 heartbeat IPC: 0.67399 cumulative IPC: 1.02077 (Simulation time: 0 hr 17 min 14 sec) 
Heartbeat CPU  0 instructions:  491000003 cycles:  434188340 heartbeat IPC: 0.64117 cumulative IPC: 1.01923 (Simulation time: 0 hr 17 min 16 sec) 
Heartbeat CPU  0 instructions:  492000000 cycles:  435713643 heartbeat IPC: 0.65561 cumulative IPC: 1.01779 (Simulation time: 0 hr 17 min 19 sec) 
Heartbeat CPU  0 instructions:  493000001 cycles:  437251341 heartbeat IPC: 0.65032 cumulative IPC: 1.01632 (Simulation time: 0 hr 17 min 22 sec) 
Heartbeat CPU  0 instructions:  494000000 cycles:  438753923 heartbeat IPC: 0.66552 cumulative IPC: 1.01497 (Simulation time: 0 hr 17 min 24 sec) 
Heartbeat CPU  0 instructions:  495000000 cycles:  440284966 heartbeat IPC: 0.65315 cumulative IPC: 1.01355 (Simulation time: 0 hr 17 min 27 sec) 
Heartbeat CPU  0 instructions:  496000000 cycles:  441788060 heartbeat IPC: 0.66529 cumulative IPC: 1.01221 (Simulation time: 0 hr 17 min 30 sec) 
Heartbeat CPU  0 instructions:  497000002 cycles:  443305051 heartbeat IPC: 0.65920 cumulative IPC: 1.01084 (Simulation time: 0 hr 17 min 32 sec) 
Heartbeat CPU  0 instructions:  498000001 cycles:  444873943 heartbeat IPC: 0.63739 cumulative IPC: 1.00936 (Simulation time: 0 hr 17 min 35 sec) 
Heartbeat CPU  0 instructions:  499000000 cycles:  446397601 heartbeat IPC: 0.65631 cumulative IPC: 1.00800 (Simulation time: 0 hr 17 min 38 sec) 
Heartbeat CPU  0 instructions:  500000000 cycles:  447932251 heartbeat IPC: 0.65161 cumulative IPC: 1.00662 (Simulation time: 0 hr 17 min 40 sec) 
Heartbeat CPU  0 instructions:  501000003 cycles:  449427612 heartbeat IPC: 0.66874 cumulative IPC: 1.00536 (Simulation time: 0 hr 17 min 43 sec) 
Heartbeat CPU  0 instructions:  502000002 cycles:  450951483 heartbeat IPC: 0.65622 cumulative IPC: 1.00403 (Simulation time: 0 hr 17 min 45 sec) 
Heartbeat CPU  0 instructions:  503000000 cycles:  452412175 heartbeat IPC: 0.68461 cumulative IPC: 1.00287 (Simulation time: 0 hr 17 min 48 sec) 
Heartbeat CPU  0 instructions:  504000000 cycles:  453956321 heartbeat IPC: 0.64761 cumulative IPC: 1.00151 (Simulation time: 0 hr 17 min 51 sec) 
Heartbeat CPU  0 instructions:  505000000 cycles:  455425586 heartbeat IPC: 0.68061 cumulative IPC: 1.00034 (Simulation time: 0 hr 17 min 53 sec) 
Heartbeat CPU  0 instructions:  506000003 cycles:  456984744 heartbeat IPC: 0.64137 cumulative IPC: 0.99896 (Simulation time: 0 hr 17 min 56 sec) 
Heartbeat CPU  0 instructions:  507000002 cycles:  458425941 heartbeat IPC: 0.69387 cumulative IPC: 0.99789 (Simulation time: 0 hr 17 min 59 sec) 
Heartbeat CPU  0 instructions:  508000000 cycles:  459985596 heartbeat IPC: 0.64117 cumulative IPC: 0.99653 (Simulation time: 0 hr 18 min 1 sec) 
Heartbeat CPU  0 instructions:  509000001 cycles:  461421818 heartbeat IPC: 0.69627 cumulative IPC: 0.99548 (Simulation time: 0 hr 18 min 4 sec) 
Heartbeat CPU  0 instructions:  510000000 cycles:  462979765 heartbeat IPC: 0.64187 cumulative IPC: 0.99414 (Simulation time: 0 hr 18 min 7 sec) 
Heartbeat CPU  0 instructions:  511000001 cycles:  464418235 heartbeat IPC: 0.69518 cumulative IPC: 0.99310 (Simulation time: 0 hr 18 min 9 sec) 
Heartbeat CPU  0 instructions:  512000000 cycles:  465968200 heartbeat IPC: 0.64518 cumulative IPC: 0.99180 (Simulation time: 0 hr 18 min 12 sec) 
Heartbeat CPU  0 instructions:  513000000 cycles:  467431289 heartbeat IPC: 0.68349 cumulative IPC: 0.99072 (Simulation time: 0 hr 18 min 14 sec) 
Heartbeat CPU  0 instructions:  514000001 cycles:  468982216 heartbeat IPC: 0.64478 cumulative IPC: 0.98944 (Simulation time: 0 hr 18 min 17 sec) 
Heartbeat CPU  0 instructions:  515000003 cycles:  470467043 heartbeat IPC: 0.67348 cumulative IPC: 0.98832 (Simulation time: 0 hr 18 min 20 sec) 
Heartbeat CPU  0 instructions:  516000000 cycles:  471998553 heartbeat IPC: 0.65295 cumulative IPC: 0.98710 (Simulation time: 0 hr 18 min 22 sec) 
Heartbeat CPU  0 instructions:  517000001 cycles:  473476167 heartbeat IPC: 0.67677 cumulative IPC: 0.98602 (Simulation time: 0 hr 18 min 25 sec) 
Heartbeat CPU  0 instructions:  518000001 cycles:  474990350 heartbeat IPC: 0.66042 cumulative IPC: 0.98486 (Simulation time: 0 hr 18 min 28 sec) 
Heartbeat CPU  0 instructions:  519000000 cycles:  476481418 heartbeat IPC: 0.67066 cumulative IPC: 0.98376 (Simulation time: 0 hr 18 min 30 sec) 
Heartbeat CPU  0 instructions:  520000000 cycles:  477983659 heartbeat IPC: 0.66567 cumulative IPC: 0.98264 (Simulation time: 0 hr 18 min 33 sec) 
Heartbeat CPU  0 instructions:  521000002 cycles:  479549314 heartbeat IPC: 0.63871 cumulative IPC: 0.98139 (Simulation time: 0 hr 18 min 36 sec) 
Heartbeat CPU  0 instructions:  522000002 cycles:  481109577 heartbeat IPC: 0.64092 cumulative IPC: 0.98015 (Simulation time: 0 hr 18 min 38 sec) 
Heartbeat CPU  0 instructions:  523000001 cycles:  482670112 heartbeat IPC: 0.64081 cumulative IPC: 0.97893 (Simulation time: 0 hr 18 min 41 sec) 
Heartbeat CPU  0 instructions:  524000000 cycles:  483908374 heartbeat IPC: 0.80758 cumulative IPC: 0.97844 (Simulation time: 0 hr 18 min 43 sec) 
Heartbeat CPU  0 instructions:  525000000 cycles:  484755690 heartbeat IPC: 1.18020 cumulative IPC: 0.97883 (Simulation time: 0 hr 18 min 46 sec) 
Heartbeat CPU  0 instructions:  526000001 cycles:  485608255 heartbeat IPC: 1.17293 cumulative IPC: 0.97921 (Simulation time: 0 hr 18 min 48 sec) 
Heartbeat CPU  0 instructions:  527000001 cycles:  486466599 heartbeat IPC: 1.16503 cumulative IPC: 0.97958 (Simulation time: 0 hr 18 min 50 sec) 
Heartbeat CPU  0 instructions:  528000000 cycles:  487323036 heartbeat IPC: 1.16763 cumulative IPC: 0.97995 (Simulation time: 0 hr 18 min 52 sec) 
Heartbeat CPU  0 instructions:  529000003 cycles:  488179027 heartbeat IPC: 1.16824 cumulative IPC: 0.98031 (Simulation time: 0 hr 18 min 54 sec) 
Heartbeat CPU  0 instructions:  530000002 cycles:  489023020 heartbeat IPC: 1.18484 cumulative IPC: 0.98071 (Simulation time: 0 hr 18 min 56 sec) 
Heartbeat CPU  0 instructions:  531000001 cycles:  489870970 heartbeat IPC: 1.17931 cumulative IPC: 0.98109 (Simulation time: 0 hr 18 min 59 sec) 
Heartbeat CPU  0 instructions:  532000000 cycles:  490715076 heartbeat IPC: 1.18468 cumulative IPC: 0.98148 (Simulation time: 0 hr 19 min 1 sec) 
Heartbeat CPU  0 instructions:  533000003 cycles:  491542316 heartbeat IPC: 1.20884 cumulative IPC: 0.98191 (Simulation time: 0 hr 19 min 3 sec) 
Heartbeat CPU  0 instructions:  534000001 cycles:  492367811 heartbeat IPC: 1.21139 cumulative IPC: 0.98234 (Simulation time: 0 hr 19 min 5 sec) 
Heartbeat CPU  0 instructions:  535000000 cycles:  493242725 heartbeat IPC: 1.14297 cumulative IPC: 0.98265 (Simulation time: 0 hr 19 min 7 sec) 
Heartbeat CPU  0 instructions:  536000000 cycles:  494137128 heartbeat IPC: 1.11806 cumulative IPC: 0.98293 (Simulation time: 0 hr 19 min 9 sec) 
Heartbeat CPU  0 instructions:  537000003 cycles:  495045232 heartbeat IPC: 1.10120 cumulative IPC: 0.98317 (Simulation time: 0 hr 19 min 11 sec) 
Heartbeat CPU  0 instructions:  538000003 cycles:  495934877 heartbeat IPC: 1.12404 cumulative IPC: 0.98345 (Simulation time: 0 hr 19 min 14 sec) 
Heartbeat CPU  0 instructions:  539000001 cycles:  496814080 heartbeat IPC: 1.13739 cumulative IPC: 0.98375 (Simulation time: 0 hr 19 min 16 sec) 
Heartbeat CPU  0 instructions:  540000000 cycles:  497692721 heartbeat IPC: 1.13812 cumulative IPC: 0.98406 (Simulation time: 0 hr 19 min 18 sec) 
Heartbeat CPU  0 instructions:  541000003 cycles:  498577572 heartbeat IPC: 1.13014 cumulative IPC: 0.98434 (Simulation time: 0 hr 19 min 20 sec) 
Heartbeat CPU  0 instructions:  542000000 cycles:  499469931 heartbeat IPC: 1.12062 cumulative IPC: 0.98462 (Simulation time: 0 hr 19 min 22 sec) 
Heartbeat CPU  0 instructions:  543000000 cycles:  500300232 heartbeat IPC: 1.20438 cumulative IPC: 0.98502 (Simulation time: 0 hr 19 min 24 sec) 
Heartbeat CPU  0 instructions:  544000000 cycles:  501126037 heartbeat IPC: 1.21094 cumulative IPC: 0.98544 (Simulation time: 0 hr 19 min 26 sec) 
Heartbeat CPU  0 instructions:  545000003 cycles:  501991254 heartbeat IPC: 1.15578 cumulative IPC: 0.98576 (Simulation time: 0 hr 19 min 29 sec) 
Heartbeat CPU  0 instructions:  546000002 cycles:  502881064 heartbeat IPC: 1.12383 cumulative IPC: 0.98603 (Simulation time: 0 hr 19 min 31 sec) 
Heartbeat CPU  0 instructions:  547000002 cycles:  503813856 heartbeat IPC: 1.07205 cumulative IPC: 0.98621 (Simulation time: 0 hr 19 min 33 sec) 
Heartbeat CPU  0 instructions:  548000000 cycles:  504745268 heartbeat IPC: 1.07364 cumulative IPC: 0.98639 (Simulation time: 0 hr 19 min 35 sec) 
Heartbeat CPU  0 instructions:  549000003 cycles:  505629019 heartbeat IPC: 1.13154 cumulative IPC: 0.98667 (Simulation time: 0 hr 19 min 37 sec) 
Heartbeat CPU  0 instructions:  550000000 cycles:  506518825 heartbeat IPC: 1.12384 cumulative IPC: 0.98694 (Simulation time: 0 hr 19 min 40 sec) 
Heartbeat CPU  0 instructions:  551000000 cycles:  507424434 heartbeat IPC: 1.10423 cumulative IPC: 0.98717 (Simulation time: 0 hr 19 min 42 sec) 
Heartbeat CPU  0 instructions:  552000000 cycles:  508317729 heartbeat IPC: 1.11945 cumulative IPC: 0.98743 (Simulation time: 0 hr 19 min 44 sec) 
Heartbeat CPU  0 instructions:  553000000 cycles:  509200903 heartbeat IPC: 1.13228 cumulative IPC: 0.98771 (Simulation time: 0 hr 19 min 46 sec) 
Heartbeat CPU  0 instructions:  554000000 cycles:  510025388 heartbeat IPC: 1.21288 cumulative IPC: 0.98811 (Simulation time: 0 hr 19 min 48 sec) 
Heartbeat CPU  0 instructions:  555000002 cycles:  510864576 heartbeat IPC: 1.19163 cumulative IPC: 0.98848 (Simulation time: 0 hr 19 min 50 sec) 
Heartbeat CPU  0 instructions:  556000000 cycles:  511777250 heartbeat IPC: 1.09568 cumulative IPC: 0.98870 (Simulation time: 0 hr 19 min 52 sec) 
Heartbeat CPU  0 instructions:  557000000 cycles:  512726450 heartbeat IPC: 1.05352 cumulative IPC: 0.98883 (Simulation time: 0 hr 19 min 55 sec) 
Heartbeat CPU  0 instructions:  558000000 cycles:  513657536 heartbeat IPC: 1.07401 cumulative IPC: 0.98900 (Simulation time: 0 hr 19 min 57 sec) 
Heartbeat CPU  0 instructions:  559000000 cycles:  514560919 heartbeat IPC: 1.10695 cumulative IPC: 0.98923 (Simulation time: 0 hr 19 min 59 sec) 
Heartbeat CPU  0 instructions:  560000000 cycles:  515494990 heartbeat IPC: 1.07058 cumulative IPC: 0.98939 (Simulation time: 0 hr 20 min 1 sec) 
Heartbeat CPU  0 instructions:  561000001 cycles:  516414659 heartbeat IPC: 1.08735 cumulative IPC: 0.98959 (Simulation time: 0 hr 20 min 3 sec) 
Heartbeat CPU  0 instructions:  562000003 cycles:  517319712 heartbeat IPC: 1.10491 cumulative IPC: 0.98981 (Simulation time: 0 hr 20 min 6 sec) 
Heartbeat CPU  0 instructions:  563000000 cycles:  518208974 heartbeat IPC: 1.12452 cumulative IPC: 0.99007 (Simulation time: 0 hr 20 min 8 sec) 
Heartbeat CPU  0 instructions:  564000000 cycles:  519043462 heartbeat IPC: 1.19834 cumulative IPC: 0.99044 (Simulation time: 0 hr 20 min 10 sec) 
Heartbeat CPU  0 instructions:  565000003 cycles:  519852201 heartbeat IPC: 1.23650 cumulative IPC: 0.99086 (Simulation time: 0 hr 20 min 12 sec) 
Heartbeat CPU  0 instructions:  566000003 cycles:  520760497 heartbeat IPC: 1.10096 cumulative IPC: 0.99107 (Simulation time: 0 hr 20 min 14 sec) 
Heartbeat CPU  0 instructions:  567000001 cycles:  521705472 heartbeat IPC: 1.05823 cumulative IPC: 0.99121 (Simulation time: 0 hr 20 min 16 sec) 
Heartbeat CPU  0 instructions:  568000000 cycles:  522646537 heartbeat IPC: 1.06262 cumulative IPC: 0.99135 (Simulation time: 0 hr 20 min 18 sec) 
Heartbeat CPU  0 instructions:  569000002 cycles:  523566431 heartbeat IPC: 1.08708 cumulative IPC: 0.99154 (Simulation time: 0 hr 20 min 21 sec) 
Heartbeat CPU  0 instructions:  570000000 cycles:  524504814 heartbeat IPC: 1.06566 cumulative IPC: 0.99168 (Simulation time: 0 hr 20 min 23 sec) 
Heartbeat CPU  0 instructions:  571000002 cycles:  525429658 heartbeat IPC: 1.08127 cumulative IPC: 0.99186 (Simulation time: 0 hr 20 min 25 sec) 
Heartbeat CPU  0 instructions:  572000000 cycles:  526330874 heartbeat IPC: 1.10961 cumulative IPC: 0.99208 (Simulation time: 0 hr 20 min 27 sec) 
Heartbeat CPU  0 instructions:  573000001 cycles:  527211573 heartbeat IPC: 1.13546 cumulative IPC: 0.99235 (Simulation time: 0 hr 20 min 29 sec) 
Heartbeat CPU  0 instructions:  574000003 cycles:  528073402 heartbeat IPC: 1.16033 cumulative IPC: 0.99265 (Simulation time: 0 hr 20 min 32 sec) 
Heartbeat CPU  0 instructions:  575000000 cycles:  528877696 heartbeat IPC: 1.24332 cumulative IPC: 0.99307 (Simulation time: 0 hr 20 min 34 sec) 
Heartbeat CPU  0 instructions:  576000000 cycles:  529730283 heartbeat IPC: 1.17290 cumulative IPC: 0.99339 (Simulation time: 0 hr 20 min 36 sec) 
Heartbeat CPU  0 instructions:  577000000 cycles:  530669429 heartbeat IPC: 1.06480 cumulative IPC: 0.99353 (Simulation time: 0 hr 20 min 38 sec) 
Heartbeat CPU  0 instructions:  578000002 cycles:  531620536 heartbeat IPC: 1.05141 cumulative IPC: 0.99365 (Simulation time: 0 hr 20 min 40 sec) 
Heartbeat CPU  0 instructions:  579000001 cycles:  532548931 heartbeat IPC: 1.07713 cumulative IPC: 0.99381 (Simulation time: 0 hr 20 min 42 sec) 
Heartbeat CPU  0 instructions:  580000000 cycles:  533481098 heartbeat IPC: 1.07277 cumulative IPC: 0.99396 (Simulation time: 0 hr 20 min 44 sec) 
Heartbeat CPU  0 instructions:  581000002 cycles:  534404237 heartbeat IPC: 1.08326 cumulative IPC: 0.99413 (Simulation time: 0 hr 20 min 47 sec) 
Heartbeat CPU  0 instructions:  582000000 cycles:  535317111 heartbeat IPC: 1.09544 cumulative IPC: 0.99432 (Simulation time: 0 hr 20 min 49 sec) 
Heartbeat CPU  0 instructions:  583000003 cycles:  536244231 heartbeat IPC: 1.07861 cumulative IPC: 0.99448 (Simulation time: 0 hr 20 min 51 sec) 
Heartbeat CPU  0 instructions:  584000000 cycles:  537134121 heartbeat IPC: 1.12373 cumulative IPC: 0.99472 (Simulation time: 0 hr 20 min 53 sec) 
Heartbeat CPU  0 instructions:  585000002 cycles:  537958715 heartbeat IPC: 1.21272 cumulative IPC: 0.99509 (Simulation time: 0 hr 20 min 55 sec) 
Heartbeat CPU  0 instructions:  586000003 cycles:  538771953 heartbeat IPC: 1.22965 cumulative IPC: 0.99548 (Simulation time: 0 hr 20 min 57 sec) 
Heartbeat CPU  0 instructions:  587000001 cycles:  539706493 heartbeat IPC: 1.07004 cumulative IPC: 0.99562 (Simulation time: 0 hr 20 min 59 sec) 
Heartbeat CPU  0 instructions:  588000000 cycles:  540644669 heartbeat IPC: 1.06590 cumulative IPC: 0.99575 (Simulation time: 0 hr 21 min 2 sec) 
Heartbeat CPU  0 instructions:  589000002 cycles:  541586379 heartbeat IPC: 1.06190 cumulative IPC: 0.99588 (Simulation time: 0 hr 21 min 4 sec) 
Heartbeat CPU  0 instructions:  590000001 cycles:  542513609 heartbeat IPC: 1.07848 cumulative IPC: 0.99604 (Simulation time: 0 hr 21 min 6 sec) 
Heartbeat CPU  0 instructions:  591000002 cycles:  543446546 heartbeat IPC: 1.07188 cumulative IPC: 0.99618 (Simulation time: 0 hr 21 min 8 sec) 
Heartbeat CPU  0 instructions:  592000000 cycles:  544353406 heartbeat IPC: 1.10270 cumulative IPC: 0.99638 (Simulation time: 0 hr 21 min 11 sec) 
Heartbeat CPU  0 instructions:  593000003 cycles:  545259598 heartbeat IPC: 1.10352 cumulative IPC: 0.99657 (Simulation time: 0 hr 21 min 13 sec) 
Heartbeat CPU  0 instructions:  594000000 cycles:  546161793 heartbeat IPC: 1.10840 cumulative IPC: 0.99678 (Simulation time: 0 hr 21 min 15 sec) 
Heartbeat CPU  0 instructions:  595000003 cycles:  547010892 heartbeat IPC: 1.17772 cumulative IPC: 0.99709 (Simulation time: 0 hr 21 min 17 sec) 
Heartbeat CPU  0 instructions:  596000000 cycles:  547821088 heartbeat IPC: 1.23427 cumulative IPC: 0.99747 (Simulation time: 0 hr 21 min 19 sec) 
Heartbeat CPU  0 instructions:  597000001 cycles:  548677026 heartbeat IPC: 1.16831 cumulative IPC: 0.99777 (Simulation time: 0 hr 21 min 21 sec) 
Heartbeat CPU  0 instructions:  598000002 cycles:  549633364 heartbeat IPC: 1.04566 cumulative IPC: 0.99786 (Simulation time: 0 hr 21 min 23 sec) 
Heartbeat CPU  0 instructions:  599000000 cycles:  550561314 heartbeat IPC: 1.07764 cumulative IPC: 0.99800 (Simulation time: 0 hr 21 min 26 sec) 
Heartbeat CPU  0 instructions:  600000000 cycles:  551474956 heartbeat IPC: 1.09452 cumulative IPC: 0.99818 (Simulation time: 0 hr 21 min 28 sec) 
Finished CPU 0 instructions: 500000001 cycles: 500911152 cumulative IPC: 0.99818 (Simulation time: 0 hr 21 min 28 sec) 

ChampSim completed all CPUs

[ROI Statistics]
Core_0_instructions 500000001
Core_0_cycles 500911152
Core_0_IPC 0.99818

Core_0_branch_prediction_accuracy 99.14585
Core_0_branch_MPKI 0.18961
Core_0_average_ROB_occupancy_at_mispredict 243.84589

Core_0_L1D_total_access 146348989
Core_0_L1D_total_hit 141498017
Core_0_L1D_total_miss 4850972
Core_0_L1D_loads 135637725
Core_0_L1D_load_hit 132177663
Core_0_L1D_load_miss 3460062
Core_0_L1D_RFOs 10711264
Core_0_L1D_RFO_hit 9320354
Core_0_L1D_RFO_miss 1390910
Core_0_L1D_prefetches 0
Core_0_L1D_prefetch_hit 0
Core_0_L1D_prefetch_miss 0
Core_0_L1D_writebacks 0
Core_0_L1D_writeback_hit 0
Core_0_L1D_writeback_miss 0
Core_0_L1D_prefetch_requested 0
Core_0_L1D_prefetch_dropped 0
Core_0_L1D_prefetch_issued 0
Core_0_L1D_prefetch_filled 0
Core_0_L1D_prefetch_useful 0
Core_0_L1D_prefetch_useless 0
Core_0_L1D_prefetch_late 0
Core_0_L1D_average_miss_latency 89.03385

Core_0_L1D_rq_access 196256183
Core_0_L1D_rq_forward 0
Core_0_L1D_rq_merged 59747053
Core_0_L1D_rq_to_cache 136509130
Core_0_L1D_rq_full 0

Core_0_L1D_wq_access 15647860
Core_0_L1D_wq_forward 0
Core_0_L1D_wq_merged 1
Core_0_L1D_wq_to_cache 15647859
Core_0_L1D_wq_full 39180

Core_0_L1D_pq_access 0
Core_0_L1D_pq_forward 0
Core_0_L1D_pq_merged 0
Core_0_L1D_pq_to_cache 0
Core_0_L1D_pq_full 0

Core_0_L1D_acc_epochs 532875
Core_0_L1D_acc_level_0 532875
Core_0_L1D_acc_level_1 0
Core_0_L1D_acc_level_2 0
Core_0_L1D_acc_level_3 0
Core_0_L1D_acc_level_4 0
Core_0_L1D_acc_level_5 0
Core_0_L1D_acc_level_6 0
Core_0_L1D_acc_level_7 0
Core_0_L1D_acc_level_8 0
Core_0_L1D_acc_level_9 0

Core_0_L1I_total_access 116398978
Core_0_L1I_total_hit 116398602
Core_0_L1I_total_miss 376
Core_0_L1I_loads 116398978
Core_0_L1I_load_hit 116398602
Core_0_L1I_load_miss 376
Core_0_L1I_RFOs 0
Core_0_L1I_RFO_hit 0
Core_0_L1I_RFO_miss 0
Core_0_L1I_prefetches 0
Core_0_L1I_prefetch_hit 0
Core_0_L1I_prefetch_miss 0
Core_0_L1I_writebacks 0
Core_0_L1I_writeback_hit 0
Core_0_L1I_writeback_miss 0
Core_0_L1I_prefetch_requested 0
Core_0_L1I_prefetch_dropped 0
Core_0_L1I_prefetch_issued 0
Core_0_L1I_prefetch_filled 0
Core_0_L1I_prefetch_useful 0
Core_0_L1I_prefetch_useless 0
Core_0_L1I_prefetch_late 0
Core_0_L1I_average_miss_latency 117.14894

Core_0_L1I_rq_access 500000000
Core_0_L1I_rq_forward 0
Core_0_L1I_rq_merged 383600432
Core_0_L1I_rq_to_cache 116399568
Core_0_L1I_rq_full 0

Core_0_L1I_wq_access 0
Core_0_L1I_wq_forward 0
Core_0_L1I_wq_merged 0
Core_0_L1I_wq_to_cache 0
Core_0_L1I_wq_full 0

Core_0_L1I_pq_access 0
Core_0_L1I_pq_forward 0
Core_0_L1I_pq_merged 0
Core_0_L1I_pq_to_cache 0
Core_0_L1I_pq_full 0

Core_0_L1I_acc_epochs 532875
Core_0_L1I_acc_level_0 532875
Core_0_L1I_acc_level_1 0
Core_0_L1I_acc_level_2 0
Core_0_L1I_acc_level_3 0
Core_0_L1I_acc_level_4 0
Core_0_L1I_acc_level_5 0
Core_0_L1I_acc_level_6 0
Core_0_L1I_acc_level_7 0
Core_0_L1I_acc_level_8 0
Core_0_L1I_acc_level_9 0

Core_0_L2C_total_access 8955908
Core_0_L2C_total_hit 5279291
Core_0_L2C_total_miss 3676617
Core_0_L2C_loads 3460405
Core_0_L2C_load_hit 3210647
Core_0_L2C_load_miss 249758
Core_0_L2C_RFOs 1390877
Core_0_L2C_RFO_hit 392699
Core_0_L2C_RFO_miss 998178
Core_0_L2C_prefetches 2445881
Core_0_L2C_prefetch_hit 17749
Core_0_L2C_prefetch_miss 2428132
Core_0_L2C_writebacks 1658745
Core_0_L2C_writeback_hit 1658196
Core_0_L2C_writeback_miss 549
Core_0_L2C_prefetch_requested 4459998
Core_0_L2C_prefetch_dropped 0
Core_0_L2C_prefetch_issued 4459998
Core_0_L2C_prefetch_filled 3247106
Core_0_L2C_prefetch_useful 3167576
Core_0_L2C_prefetch_useless 78995
Core_0_L2C_prefetch_late 679
Core_0_L2C_average_miss_latency 245.13784

Core_0_L2C_rq_access 4851348
Core_0_L2C_rq_forward 0
Core_0_L2C_rq_merged 0
Core_0_L2C_rq_to_cache 4851282
Core_0_L2C_rq_full 0

Core_0_L2C_wq_access 1658745
Core_0_L2C_wq_forward 70
Core_0_L2C_wq_merged 0
Core_0_L2C_wq_to_cache 1658745
Core_0_L2C_wq_full 0

Core_0_L2C_pq_access 4459998
Core_0_L2C_pq_forward 0
Core_0_L2C_pq_merged 1885
Core_0_L2C_pq_to_cache 4458109
Core_0_L2C_pq_full 0

Core_0_L2C_acc_epochs 532875
Core_0_L2C_acc_level_0 60060
Core_0_L2C_acc_level_1 20020
Core_0_L2C_acc_level_2 17467
Core_0_L2C_acc_level_3 14569
Core_0_L2C_acc_level_4 17191
Core_0_L2C_acc_level_5 22127
Core_0_L2C_acc_level_6 19721
Core_0_L2C_acc_level_7 26624
Core_0_L2C_acc_level_8 37877
Core_0_L2C_acc_level_9 297219

Core_0_LLC_total_access 5454121
Core_0_LLC_total_hit 1211753
Core_0_LLC_total_miss 4242368
Core_0_LLC_loads 249111
Core_0_LLC_load_hit 55813
Core_0_LLC_load_miss 193298
Core_0_LLC_RFOs 998177
Core_0_LLC_RFO_hit 40608
Core_0_LLC_RFO_miss 957569
Core_0_LLC_prefetches 3097489
Core_0_LLC_prefetch_hit 763347
Core_0_LLC_prefetch_miss 2334142
Core_0_LLC_writebacks 1109344
Core_0_LLC_writeback_hit 351985
Core_0_LLC_writeback_miss 757359
Core_0_LLC_prefetch_requested 0
Core_0_LLC_prefetch_dropped 0
Core_0_LLC_prefetch_issued 0
Core_0_LLC_prefetch_filled 3024345
Core_0_LLC_prefetch_useful 90138
Core_0_LLC_prefetch_useless 2909970
Core_0_LLC_prefetch_late 86
Core_0_LLC_average_miss_latency 226.59763

Core_0_LLC_rq_access 1247288
Core_0_LLC_rq_forward 0
Core_0_LLC_rq_merged 0
Core_0_LLC_rq_to_cache 1247288
Core_0_LLC_rq_full 0

Core_0_LLC_wq_access 1109344
Core_0_LLC_wq_forward 0
Core_0_LLC_wq_merged 0
Core_0_LLC_wq_to_cache 1109344
Core_0_LLC_wq_full 0

Core_0_LLC_pq_access 4414122
Core_0_LLC_pq_forward 0
Core_0_LLC_pq_merged 86
Core_0_LLC_pq_to_cache 4414036
Core_0_LLC_pq_full 0

Core_0_LLC_acc_epochs 538550
Core_0_LLC_acc_level_0 508929
Core_0_LLC_acc_level_1 11388
Core_0_LLC_acc_level_2 5358
Core_0_LLC_acc_level_3 2842
Core_0_LLC_acc_level_4 1617
Core_0_LLC_acc_level_5 2159
Core_0_LLC_acc_level_6 1209
Core_0_LLC_acc_level_7 1081
Core_0_LLC_acc_level_8 786
Core_0_LLC_acc_level_9 3181

Core_0_major_page_fault 0
Core_0_minor_page_fault 19121

[MLOP] History of tracked zone:
IIIIIIIIIIIIIIIIIIIIIIIIIIIIIIIIIIIIIIIIIIIIIIIIIIIIIIIIIIIIIIII
IIIIIIIIIIIIIIIIIIIIIIIIIIIIIIIIIIIIIIIIIIIIIIIIIIA2222444444III
IIIIIIIIIIIIIIIIIIIIIIIIIIIIIIIIIIIIIIIIIIIIIIIIIIAA2222444444II
IIIIIIIIIIIIIIIIIIIIIIIIIIIIIIIIIIIIIIIIIIIIIIIIIIAAA2222444444I
IIIIIIIIIIIIIIIIIIIIIIIIIIIIIIIIIIIIIIIIIIIIIIIIIIAAAA2222444444
IIIIIIIIIIIIIIIIIIIIIIIIIIIIIIIIIIIIIIIIIIIIIIIIIIAAAAA222244444
IIIIIIIIIIIIIIIIIIIIIIIIIIIIIIIIIIIIIIIIIIIIIIIIIIAAAAAA22224444
IIIIIIIIIIIIIIIIIIIIIIIIIIIIIIIIIIIIIIIIIIIIIIIIIIAAAAAAA2222444
IIIIIIIIIIIIIIIIIIIIIIIIIIIIIIIIIIIIIIIIIIIIIIIIIIAAAAAAAA222244
IIIIIIIIIIIIIIIIIIIIIIIIIIIIIIIIIIIIIIIIIIIIIIIIIIAAAAAAAAA22224
IIIIIIIIIIIIIIIIIIIIIIIIIIIIIIIIIIIIIIIIIIIIIIIIIIAAAAAAAAAA2222
IIIIIIIIIIIIIIIIIIIIIIIIIIIIIIIIIIIIIIIIIIIIIIIIIIAAAAAAAAAAA222
IIIIIIIIIIIIIIIIIIIIIIIIIIIIIIIIIIIIIIIIIIIIIIIIIIAAAAAAAAAAAA22
IIIIIIIIIIIIIIIIIIIIIIIIIIIIIIIIIIIIIIIIIIIIIIIIIIAAAAAAAAAAAAA2
IIIIIIIIIIIIIIIIIIIIIIIIIIIIIIIIIIIIIIIIIIIIIIIIIIAAAAAAAAAAAAAA
IIIIIIIIIIIIIIIIIIIIIIIIIIIIIIIIIIIIIIIIIIIIIIIIIIAAAAAAAAAAAIAA
IIIIIIIIIIIIIIIIIIIIIIIIIIIIIIIIIIIIIIIIIIIIIIIIIIAAAAAAAAAAAIIA
IIIIIIIIIIIIIIIIIIIIIIIIIIIIIIIIIIIIIIIIIIIIIIIIIIAAAAAAAAAAAIII
IIIIIIIIIIIIIIIIIIIIIIIIIIIIIIIIIIIIIIIIIIIIIIIIIIAAAIAAAAAAAIII
IIIIIIIIIIIIIIIIIIIIIIIIIIIIIIIIIIIIIIIIIIIIIIIIIIAAAIIAAAAAAIII
IIIIIIIIIIIIIIIIIIIIIIIIIIIIIIIIIIIIIIIIIIIIIIIIIIAAAIIIAAAAAIII
IIIIIIIIIIIIIIIIIIIIIIIIIIIIIIIIIIIIIIIIIIIIIIIIIIAAAIIIIAAAAIII
IIIIIIIIIIIIIIIIIIIIIIIIIIIIIIIIIIIIIIIIIIIIIIIIIIAAAIIIIIAAAIII
IIIIIIIIIIIIIIIIIIIIIIIIIIIIIIIIIIIIIIIIIIIIIIIIIIAAAIIIIIIAAIII
IIIIIIIIIIIIIIIIIIIIIIIIIIIIIIIIIIIIIIIIIIIIIIIIIIAAAIIIIIIIAIII
IIIIIIIIIIIIIIIIIIIIIIIIIIIIIIIIIIIIIIIIIIIIIIIIIIAAAIIIIIIIIIII
IIIIIIIIIIIIIIIIIIIIIIIIIIIIIIIIIIIIIIIIIIIIIIIIIIAIAIIIIIIIIIII
IIIIIIIIIIIIIIIIIIIIIIIIIIIIIIIIIIIIIIIIIIIIIIIIIIIIAIIIIIIIIIII
IIIIIIIIIIIIIIIIIIIIIIIIIIIIIIIIIIIIIIIIIIIIIIIIIIIIIIIIIIIIIIII
[MLOP] Prefetch Degree Mean: 15.58414
[MLOP] Prefetch Degree SD: 1.79994
[MLOP] Max Score Left Mean (%): 67.20511
[MLOP] Max Score Left SD (%): 18.71901
[MLOP] Max Score Right Mean (%): 99.25772
[MLOP] Max Score Right SD (%): 2.90712

Channel_0_RQ_row_buffer_hit 1009022
Channel_0_RQ_row_buffer_miss 2475931
Channel_0_WQ_row_buffer_hit 341607
Channel_0_WQ_row_buffer_miss 729312
Channel_0_WQ_full 9267
Channel_0_dbus_congested 929467

avg_congested_cycle 4

DRAM_bw_pochs 2154200
DRAM_bw_level_0 2080436
DRAM_bw_level_1 61953
DRAM_bw_level_2 8273
DRAM_bw_level_3 3538
