*************************************************
   ChampSim Multicore Out-of-Order Simulator
   Last compiled: Dec 11 2024 17:59:53
*************************************************
parsing config file: /home/functionmain/桌面/Pythia/config/spp_dev2.ini

trace_0 /home/functionmain/桌面/Pythia/traces/437.leslie3d-271B.champsimtrace.xz
adding L2C_PREFETCHER: SPP_dev2
Initialize SIGNATURE TABLE
ST_SET: 1
ST_WAY: 256
ST_TAG_BIT: 16
ST_TAG_MASK: ffff

Initialize PATTERN TABLE
PT_SET: 512
PT_WAY: 4
SIG_DELTA_BIT: 7
C_SIG_BIT: 4
C_DELTA_BIT: 4

Initialize PREFETCH FILTER
FILTER_SET: 1024
fill_threshold: 90
pf_threshold: 40

Initialize SHIP state
warmup_instructions 100000000
simulation_instructions 500000000
champsim_seed 220
measure_ipc 0
measure_ipc_epoch 1000
measure_dram_bw 1
measure_dram_bw_epoch 256
measure_cache_acc 1
measure_cache_acc_epoch 1024
l1d_perfect 0
l2c_perfect 0
llc_perfect 0
l1d_semi_perfect 0
l2c_semi_perfect 0
llc_semi_perfect 0
semi_perfect_cache_page_buffer_size 64

num_cpus 1
cpu_freq 4000
dram_io_freq 9600
page_size 4096
block_size 64
max_read_per_cycle 8
max_fill_per_cycle 1
dram_channels 1
log2_dram_channels 0
dram_ranks 1
dram_banks 8
dram_rows 65536
dram_columns 128
dram_row_size 8
dram_size 4096
dram_pages 1048576

fetch_width 6
decode_width 6
exec_width 4
lq_width 2
sq_width 2
retire_width 4
scheduler_size 128
branch_mispredict_penalty 20
rob_size 256
lq_size 72
sq_size 56
num_instr_destinations_sparc 4
num_instr_destinations 2
num_instr_sources 4

itlb_set 16
itlb_way 8
itlb_rq_size 16
itlb_wq_size 16
itlb_pq_size 0
itlb_mshr_size 8
itlb_latency 1

dtlb_set 16
dtlb_way 4
dtlb_rq_size 16
dtlb_wq_size 16
dtlb_pq_size 0
dtlb_mshr_size 8
dtlb_latency 1

stlb_set 128
stlb_way 12
stlb_rq_size 32
stlb_wq_size 32
stlb_pq_size 0
stlb_mshr_size 16
stlb_latency 8

l1i_size 32
l1i_set 64
l1i_way 8
l1i_rq_size 64
l1i_wq_size 64
l1i_pq_size 8
l1i_mshr_size 8
l1i_latency 1

l1d_size 32
l1d_set 64
l1d_way 8
l1d_rq_size 64
l1d_wq_size 64
l1d_pq_size 8
l1d_mshr_size 16
l1d_latency 4

l2c_size 256
l2c_set 512
l2c_way 8
l2c_rq_size 32
l2c_wq_size 32
l2c_pq_size 32
l2c_mshr_size 32
l2c_latency 10

llc_size 2048
llc_set 2048
llc_way 16
llc_rq_size 32
llc_wq_size 32
llc_pq_size 32
llc_mshr_size 64
llc_latency 20

dram_channel_width 8
dram_wq_size 64
dram_rq_size 64
tRP 15
tRCD 15
tCAS 12.5
dram_dbus_turn_around_time 30
dram_write_high_wm 56
dram_write_low_wm 48
min_dram_writes_per_switch 16
dram_mtps 9600
dram_dbus_return_time 3


Heartbeat CPU  0 instructions:    1000002 cycles:     515589 heartbeat IPC: 1.93953 cumulative IPC: 1.93953 (Simulation time: 0 hr 0 min 2 sec) 
Heartbeat CPU  0 instructions:    2000001 cycles:    1030387 heartbeat IPC: 1.94251 cumulative IPC: 1.94102 (Simulation time: 0 hr 0 min 5 sec) 
Heartbeat CPU  0 instructions:    3000003 cycles:    1545482 heartbeat IPC: 1.94139 cumulative IPC: 1.94114 (Simulation time: 0 hr 0 min 7 sec) 
Heartbeat CPU  0 instructions:    4000000 cycles:    2060505 heartbeat IPC: 1.94166 cumulative IPC: 1.94127 (Simulation time: 0 hr 0 min 9 sec) 
Heartbeat CPU  0 instructions:    5000001 cycles:    2575657 heartbeat IPC: 1.94118 cumulative IPC: 1.94125 (Simulation time: 0 hr 0 min 11 sec) 
Heartbeat CPU  0 instructions:    6000001 cycles:    3090725 heartbeat IPC: 1.94149 cumulative IPC: 1.94129 (Simulation time: 0 hr 0 min 13 sec) 
Heartbeat CPU  0 instructions:    7000003 cycles:    3606127 heartbeat IPC: 1.94024 cumulative IPC: 1.94114 (Simulation time: 0 hr 0 min 15 sec) 
Heartbeat CPU  0 instructions:    8000000 cycles:    4121352 heartbeat IPC: 1.94089 cumulative IPC: 1.94111 (Simulation time: 0 hr 0 min 17 sec) 
Heartbeat CPU  0 instructions:    9000000 cycles:    4636247 heartbeat IPC: 1.94214 cumulative IPC: 1.94123 (Simulation time: 0 hr 0 min 19 sec) 
Heartbeat CPU  0 instructions:   10000003 cycles:    5151433 heartbeat IPC: 1.94105 cumulative IPC: 1.94121 (Simulation time: 0 hr 0 min 21 sec) 
Heartbeat CPU  0 instructions:   11000000 cycles:    5666768 heartbeat IPC: 1.94048 cumulative IPC: 1.94114 (Simulation time: 0 hr 0 min 23 sec) 
Heartbeat CPU  0 instructions:   12000000 cycles:    6181757 heartbeat IPC: 1.94179 cumulative IPC: 1.94120 (Simulation time: 0 hr 0 min 25 sec) 
Heartbeat CPU  0 instructions:   13000001 cycles:    6696943 heartbeat IPC: 1.94105 cumulative IPC: 1.94118 (Simulation time: 0 hr 0 min 27 sec) 
Heartbeat CPU  0 instructions:   14000002 cycles:    7212402 heartbeat IPC: 1.94002 cumulative IPC: 1.94110 (Simulation time: 0 hr 0 min 29 sec) 
Heartbeat CPU  0 instructions:   15000000 cycles:    7727406 heartbeat IPC: 1.94173 cumulative IPC: 1.94114 (Simulation time: 0 hr 0 min 32 sec) 
Heartbeat CPU  0 instructions:   16000000 cycles:    8242610 heartbeat IPC: 1.94098 cumulative IPC: 1.94113 (Simulation time: 0 hr 0 min 34 sec) 
Heartbeat CPU  0 instructions:   17000003 cycles:    8758029 heartbeat IPC: 1.94017 cumulative IPC: 1.94108 (Simulation time: 0 hr 0 min 36 sec) 
Heartbeat CPU  0 instructions:   18000002 cycles:    9272720 heartbeat IPC: 1.94291 cumulative IPC: 1.94118 (Simulation time: 0 hr 0 min 38 sec) 
Heartbeat CPU  0 instructions:   19000003 cycles:    9787839 heartbeat IPC: 1.94130 cumulative IPC: 1.94118 (Simulation time: 0 hr 0 min 40 sec) 
Heartbeat CPU  0 instructions:   20000000 cycles:   10303167 heartbeat IPC: 1.94051 cumulative IPC: 1.94115 (Simulation time: 0 hr 0 min 42 sec) 
Heartbeat CPU  0 instructions:   21000001 cycles:   10818262 heartbeat IPC: 1.94139 cumulative IPC: 1.94116 (Simulation time: 0 hr 0 min 44 sec) 
Heartbeat CPU  0 instructions:   22000000 cycles:   11333446 heartbeat IPC: 1.94105 cumulative IPC: 1.94116 (Simulation time: 0 hr 0 min 46 sec) 
Heartbeat CPU  0 instructions:   23000003 cycles:   11848812 heartbeat IPC: 1.94037 cumulative IPC: 1.94112 (Simulation time: 0 hr 0 min 48 sec) 
Heartbeat CPU  0 instructions:   24000000 cycles:   12363731 heartbeat IPC: 1.94205 cumulative IPC: 1.94116 (Simulation time: 0 hr 0 min 50 sec) 
Heartbeat CPU  0 instructions:   25000000 cycles:   12878713 heartbeat IPC: 1.94182 cumulative IPC: 1.94119 (Simulation time: 0 hr 0 min 52 sec) 
Heartbeat CPU  0 instructions:   26000003 cycles:   13393941 heartbeat IPC: 1.94089 cumulative IPC: 1.94118 (Simulation time: 0 hr 0 min 54 sec) 
Heartbeat CPU  0 instructions:   27000002 cycles:   13909061 heartbeat IPC: 1.94129 cumulative IPC: 1.94118 (Simulation time: 0 hr 0 min 56 sec) 
Heartbeat CPU  0 instructions:   28000000 cycles:   14424084 heartbeat IPC: 1.94166 cumulative IPC: 1.94120 (Simulation time: 0 hr 0 min 59 sec) 
Heartbeat CPU  0 instructions:   29000000 cycles:   14939272 heartbeat IPC: 1.94104 cumulative IPC: 1.94119 (Simulation time: 0 hr 1 min 1 sec) 
Heartbeat CPU  0 instructions:   30000002 cycles:   15454453 heartbeat IPC: 1.94107 cumulative IPC: 1.94119 (Simulation time: 0 hr 1 min 3 sec) 
Heartbeat CPU  0 instructions:   31000001 cycles:   15969387 heartbeat IPC: 1.94199 cumulative IPC: 1.94121 (Simulation time: 0 hr 1 min 5 sec) 
Heartbeat CPU  0 instructions:   32000000 cycles:   16484825 heartbeat IPC: 1.94010 cumulative IPC: 1.94118 (Simulation time: 0 hr 1 min 7 sec) 
Heartbeat CPU  0 instructions:   33000000 cycles:   17000016 heartbeat IPC: 1.94103 cumulative IPC: 1.94117 (Simulation time: 0 hr 1 min 9 sec) 
Heartbeat CPU  0 instructions:   34000001 cycles:   17514897 heartbeat IPC: 1.94220 cumulative IPC: 1.94120 (Simulation time: 0 hr 1 min 11 sec) 
Heartbeat CPU  0 instructions:   35000000 cycles:   18030106 heartbeat IPC: 1.94096 cumulative IPC: 1.94120 (Simulation time: 0 hr 1 min 13 sec) 
Heartbeat CPU  0 instructions:   36000000 cycles:   18545404 heartbeat IPC: 1.94062 cumulative IPC: 1.94118 (Simulation time: 0 hr 1 min 15 sec) 
Heartbeat CPU  0 instructions:   37000001 cycles:   19060491 heartbeat IPC: 1.94142 cumulative IPC: 1.94119 (Simulation time: 0 hr 1 min 17 sec) 
Heartbeat CPU  0 instructions:   38000000 cycles:   19575703 heartbeat IPC: 1.94095 cumulative IPC: 1.94118 (Simulation time: 0 hr 1 min 19 sec) 
Heartbeat CPU  0 instructions:   39000002 cycles:   20091056 heartbeat IPC: 1.94042 cumulative IPC: 1.94116 (Simulation time: 0 hr 1 min 22 sec) 
Heartbeat CPU  0 instructions:   40000000 cycles:   20605904 heartbeat IPC: 1.94232 cumulative IPC: 1.94119 (Simulation time: 0 hr 1 min 24 sec) 
Heartbeat CPU  0 instructions:   41000000 cycles:   21120954 heartbeat IPC: 1.94156 cumulative IPC: 1.94120 (Simulation time: 0 hr 1 min 26 sec) 
Heartbeat CPU  0 instructions:   42000000 cycles:   21636257 heartbeat IPC: 1.94061 cumulative IPC: 1.94119 (Simulation time: 0 hr 1 min 28 sec) 
Heartbeat CPU  0 instructions:   43000003 cycles:   22150975 heartbeat IPC: 1.94282 cumulative IPC: 1.94122 (Simulation time: 0 hr 1 min 30 sec) 
Heartbeat CPU  0 instructions:   44000000 cycles:   22666043 heartbeat IPC: 1.94149 cumulative IPC: 1.94123 (Simulation time: 0 hr 1 min 32 sec) 
Heartbeat CPU  0 instructions:   45000003 cycles:   23181402 heartbeat IPC: 1.94040 cumulative IPC: 1.94121 (Simulation time: 0 hr 1 min 34 sec) 
Heartbeat CPU  0 instructions:   46000001 cycles:   23696459 heartbeat IPC: 1.94153 cumulative IPC: 1.94122 (Simulation time: 0 hr 1 min 36 sec) 
Heartbeat CPU  0 instructions:   47000000 cycles:   24211606 heartbeat IPC: 1.94119 cumulative IPC: 1.94122 (Simulation time: 0 hr 1 min 38 sec) 
Heartbeat CPU  0 instructions:   48000000 cycles:   24727111 heartbeat IPC: 1.93985 cumulative IPC: 1.94119 (Simulation time: 0 hr 1 min 40 sec) 
Heartbeat CPU  0 instructions:   49000000 cycles:   25242204 heartbeat IPC: 1.94140 cumulative IPC: 1.94119 (Simulation time: 0 hr 1 min 42 sec) 
Heartbeat CPU  0 instructions:   50000000 cycles:   25757134 heartbeat IPC: 1.94201 cumulative IPC: 1.94121 (Simulation time: 0 hr 1 min 44 sec) 
Heartbeat CPU  0 instructions:   51000003 cycles:   26272371 heartbeat IPC: 1.94086 cumulative IPC: 1.94120 (Simulation time: 0 hr 1 min 47 sec) 
Heartbeat CPU  0 instructions:   52000000 cycles:   26787489 heartbeat IPC: 1.94130 cumulative IPC: 1.94120 (Simulation time: 0 hr 1 min 49 sec) 
Heartbeat CPU  0 instructions:   53000001 cycles:   27302751 heartbeat IPC: 1.94076 cumulative IPC: 1.94120 (Simulation time: 0 hr 1 min 51 sec) 
Heartbeat CPU  0 instructions:   54000003 cycles:   27818102 heartbeat IPC: 1.94043 cumulative IPC: 1.94118 (Simulation time: 0 hr 1 min 53 sec) 
Heartbeat CPU  0 instructions:   55000003 cycles:   28333149 heartbeat IPC: 1.94157 cumulative IPC: 1.94119 (Simulation time: 0 hr 1 min 55 sec) 
Heartbeat CPU  0 instructions:   56000000 cycles:   28847991 heartbeat IPC: 1.94234 cumulative IPC: 1.94121 (Simulation time: 0 hr 1 min 57 sec) 
Heartbeat CPU  0 instructions:   57000002 cycles:   29389723 heartbeat IPC: 1.84593 cumulative IPC: 1.93945 (Simulation time: 0 hr 1 min 59 sec) 
Heartbeat CPU  0 instructions:   58000001 cycles:   29936729 heartbeat IPC: 1.82813 cumulative IPC: 1.93742 (Simulation time: 0 hr 2 min 1 sec) 
Heartbeat CPU  0 instructions:   59000001 cycles:   30483746 heartbeat IPC: 1.82810 cumulative IPC: 1.93546 (Simulation time: 0 hr 2 min 3 sec) 
Heartbeat CPU  0 instructions:   60000000 cycles:   31030905 heartbeat IPC: 1.82762 cumulative IPC: 1.93356 (Simulation time: 0 hr 2 min 5 sec) 
Heartbeat CPU  0 instructions:   61000003 cycles:   31577920 heartbeat IPC: 1.82811 cumulative IPC: 1.93173 (Simulation time: 0 hr 2 min 7 sec) 
Heartbeat CPU  0 instructions:   62000003 cycles:   32124832 heartbeat IPC: 1.82845 cumulative IPC: 1.92997 (Simulation time: 0 hr 2 min 9 sec) 
Heartbeat CPU  0 instructions:   63000003 cycles:   32671924 heartbeat IPC: 1.82785 cumulative IPC: 1.92826 (Simulation time: 0 hr 2 min 12 sec) 
Heartbeat CPU  0 instructions:   64000000 cycles:   33218769 heartbeat IPC: 1.82867 cumulative IPC: 1.92662 (Simulation time: 0 hr 2 min 14 sec) 
Heartbeat CPU  0 instructions:   65000002 cycles:   33761475 heartbeat IPC: 1.84262 cumulative IPC: 1.92527 (Simulation time: 0 hr 2 min 16 sec) 
Heartbeat CPU  0 instructions:   66000002 cycles:   34293064 heartbeat IPC: 1.88115 cumulative IPC: 1.92459 (Simulation time: 0 hr 2 min 18 sec) 
Heartbeat CPU  0 instructions:   67000001 cycles:   34824980 heartbeat IPC: 1.87999 cumulative IPC: 1.92391 (Simulation time: 0 hr 2 min 20 sec) 
Heartbeat CPU  0 instructions:   68000000 cycles:   35356587 heartbeat IPC: 1.88109 cumulative IPC: 1.92326 (Simulation time: 0 hr 2 min 22 sec) 
Heartbeat CPU  0 instructions:   69000003 cycles:   35888378 heartbeat IPC: 1.88044 cumulative IPC: 1.92263 (Simulation time: 0 hr 2 min 24 sec) 
Heartbeat CPU  0 instructions:   70000000 cycles:   36420056 heartbeat IPC: 1.88083 cumulative IPC: 1.92202 (Simulation time: 0 hr 2 min 26 sec) 
Heartbeat CPU  0 instructions:   71000001 cycles:   36951793 heartbeat IPC: 1.88063 cumulative IPC: 1.92142 (Simulation time: 0 hr 2 min 28 sec) 
Heartbeat CPU  0 instructions:   72000000 cycles:   37483413 heartbeat IPC: 1.88104 cumulative IPC: 1.92085 (Simulation time: 0 hr 2 min 30 sec) 
Heartbeat CPU  0 instructions:   73000000 cycles:   38015242 heartbeat IPC: 1.88030 cumulative IPC: 1.92028 (Simulation time: 0 hr 2 min 32 sec) 
Heartbeat CPU  0 instructions:   74000001 cycles:   38546326 heartbeat IPC: 1.88294 cumulative IPC: 1.91977 (Simulation time: 0 hr 2 min 34 sec) 
Heartbeat CPU  0 instructions:   75000001 cycles:   39077507 heartbeat IPC: 1.88260 cumulative IPC: 1.91926 (Simulation time: 0 hr 2 min 36 sec) 
Heartbeat CPU  0 instructions:   76000000 cycles:   39608356 heartbeat IPC: 1.88377 cumulative IPC: 1.91879 (Simulation time: 0 hr 2 min 38 sec) 
Heartbeat CPU  0 instructions:   77000003 cycles:   40139587 heartbeat IPC: 1.88243 cumulative IPC: 1.91831 (Simulation time: 0 hr 2 min 40 sec) 
Heartbeat CPU  0 instructions:   78000002 cycles:   40670430 heartbeat IPC: 1.88379 cumulative IPC: 1.91786 (Simulation time: 0 hr 2 min 42 sec) 
Heartbeat CPU  0 instructions:   79000000 cycles:   41201615 heartbeat IPC: 1.88258 cumulative IPC: 1.91740 (Simulation time: 0 hr 2 min 44 sec) 
Heartbeat CPU  0 instructions:   80000000 cycles:   41732454 heartbeat IPC: 1.88381 cumulative IPC: 1.91697 (Simulation time: 0 hr 2 min 47 sec) 
Heartbeat CPU  0 instructions:   81000003 cycles:   42263652 heartbeat IPC: 1.88254 cumulative IPC: 1.91654 (Simulation time: 0 hr 2 min 49 sec) 
Heartbeat CPU  0 instructions:   82000003 cycles:   42794569 heartbeat IPC: 1.88353 cumulative IPC: 1.91613 (Simulation time: 0 hr 2 min 51 sec) 
Heartbeat CPU  0 instructions:   83000000 cycles:   43381665 heartbeat IPC: 1.70329 cumulative IPC: 1.91325 (Simulation time: 0 hr 2 min 53 sec) 
Heartbeat CPU  0 instructions:   84000000 cycles:   43989266 heartbeat IPC: 1.64582 cumulative IPC: 1.90956 (Simulation time: 0 hr 2 min 56 sec) 
Heartbeat CPU  0 instructions:   85000001 cycles:   44597142 heartbeat IPC: 1.64507 cumulative IPC: 1.90595 (Simulation time: 0 hr 2 min 58 sec) 
Heartbeat CPU  0 instructions:   86000001 cycles:   45204774 heartbeat IPC: 1.64573 cumulative IPC: 1.90245 (Simulation time: 0 hr 3 min 1 sec) 
Heartbeat CPU  0 instructions:   87000002 cycles:   45812603 heartbeat IPC: 1.64520 cumulative IPC: 1.89904 (Simulation time: 0 hr 3 min 3 sec) 
Heartbeat CPU  0 instructions:   88000000 cycles:   46420453 heartbeat IPC: 1.64514 cumulative IPC: 1.89572 (Simulation time: 0 hr 3 min 6 sec) 
Heartbeat CPU  0 instructions:   89000002 cycles:   47028451 heartbeat IPC: 1.64475 cumulative IPC: 1.89247 (Simulation time: 0 hr 3 min 8 sec) 
Heartbeat CPU  0 instructions:   90000003 cycles:   47636176 heartbeat IPC: 1.64548 cumulative IPC: 1.88932 (Simulation time: 0 hr 3 min 11 sec) 
Heartbeat CPU  0 instructions:   91000000 cycles:   48243975 heartbeat IPC: 1.64528 cumulative IPC: 1.88625 (Simulation time: 0 hr 3 min 13 sec) 
Heartbeat CPU  0 instructions:   92000000 cycles:   48851575 heartbeat IPC: 1.64582 cumulative IPC: 1.88326 (Simulation time: 0 hr 3 min 16 sec) 
Heartbeat CPU  0 instructions:   93000000 cycles:   49459337 heartbeat IPC: 1.64538 cumulative IPC: 1.88033 (Simulation time: 0 hr 3 min 18 sec) 
Heartbeat CPU  0 instructions:   94000001 cycles:   50067112 heartbeat IPC: 1.64535 cumulative IPC: 1.87748 (Simulation time: 0 hr 3 min 21 sec) 
Heartbeat CPU  0 instructions:   95000003 cycles:   50674801 heartbeat IPC: 1.64558 cumulative IPC: 1.87470 (Simulation time: 0 hr 3 min 23 sec) 
Heartbeat CPU  0 instructions:   96000000 cycles:   51282553 heartbeat IPC: 1.64540 cumulative IPC: 1.87198 (Simulation time: 0 hr 3 min 26 sec) 
Heartbeat CPU  0 instructions:   97000000 cycles:   51890430 heartbeat IPC: 1.64507 cumulative IPC: 1.86932 (Simulation time: 0 hr 3 min 28 sec) 
Heartbeat CPU  0 instructions:   98000002 cycles:   52498271 heartbeat IPC: 1.64517 cumulative IPC: 1.86673 (Simulation time: 0 hr 3 min 31 sec) 
Heartbeat CPU  0 instructions:   99000003 cycles:   53106107 heartbeat IPC: 1.64518 cumulative IPC: 1.86419 (Simulation time: 0 hr 3 min 33 sec) 
Heartbeat CPU  0 instructions:  100000000 cycles:   53713693 heartbeat IPC: 1.64585 cumulative IPC: 1.86172 (Simulation time: 0 hr 3 min 36 sec) 

Warmup complete CPU  0 instructions:  100000002 cycles:   53713694 (Simulation time: 0 hr 3 min 36 sec) 

Heartbeat CPU  0 instructions:  101000003 cycles:   54819666 heartbeat IPC: 0.90418 cumulative IPC: 0.90418 (Simulation time: 0 hr 3 min 39 sec) 
Heartbeat CPU  0 instructions:  102000000 cycles:   55947385 heartbeat IPC: 0.88674 cumulative IPC: 0.89538 (Simulation time: 0 hr 3 min 42 sec) 
Heartbeat CPU  0 instructions:  103000000 cycles:   57112661 heartbeat IPC: 0.85817 cumulative IPC: 0.88262 (Simulation time: 0 hr 3 min 45 sec) 
Heartbeat CPU  0 instructions:  104000000 cycles:   58241145 heartbeat IPC: 0.88614 cumulative IPC: 0.88350 (Simulation time: 0 hr 3 min 48 sec) 
Heartbeat CPU  0 instructions:  105000001 cycles:   59350697 heartbeat IPC: 0.90127 cumulative IPC: 0.88700 (Simulation time: 0 hr 3 min 51 sec) 
Heartbeat CPU  0 instructions:  106000001 cycles:   60496128 heartbeat IPC: 0.87303 cumulative IPC: 0.88464 (Simulation time: 0 hr 3 min 54 sec) 
Heartbeat CPU  0 instructions:  107000002 cycles:   61641947 heartbeat IPC: 0.87274 cumulative IPC: 0.88292 (Simulation time: 0 hr 3 min 57 sec) 
Heartbeat CPU  0 instructions:  108000000 cycles:   62768051 heartbeat IPC: 0.88802 cumulative IPC: 0.88355 (Simulation time: 0 hr 4 min 0 sec) 
Heartbeat CPU  0 instructions:  109000002 cycles:   63873710 heartbeat IPC: 0.90444 cumulative IPC: 0.88583 (Simulation time: 0 hr 4 min 3 sec) 
Heartbeat CPU  0 instructions:  110000003 cycles:   65016662 heartbeat IPC: 0.87493 cumulative IPC: 0.88472 (Simulation time: 0 hr 4 min 5 sec) 
Heartbeat CPU  0 instructions:  111000000 cycles:   66172322 heartbeat IPC: 0.86530 cumulative IPC: 0.88292 (Simulation time: 0 hr 4 min 9 sec) 
Heartbeat CPU  0 instructions:  112000000 cycles:   67326594 heartbeat IPC: 0.86635 cumulative IPC: 0.88152 (Simulation time: 0 hr 4 min 12 sec) 
Heartbeat CPU  0 instructions:  113000000 cycles:   68455217 heartbeat IPC: 0.88604 cumulative IPC: 0.88186 (Simulation time: 0 hr 4 min 14 sec) 
Heartbeat CPU  0 instructions:  114000001 cycles:   69572848 heartbeat IPC: 0.89475 cumulative IPC: 0.88277 (Simulation time: 0 hr 4 min 17 sec) 
Heartbeat CPU  0 instructions:  115000002 cycles:   70708409 heartbeat IPC: 0.88062 cumulative IPC: 0.88263 (Simulation time: 0 hr 4 min 20 sec) 
Heartbeat CPU  0 instructions:  116000000 cycles:   71838158 heartbeat IPC: 0.88515 cumulative IPC: 0.88278 (Simulation time: 0 hr 4 min 23 sec) 
Heartbeat CPU  0 instructions:  117000001 cycles:   72988776 heartbeat IPC: 0.86910 cumulative IPC: 0.88197 (Simulation time: 0 hr 4 min 26 sec) 
Heartbeat CPU  0 instructions:  118000002 cycles:   74149219 heartbeat IPC: 0.86174 cumulative IPC: 0.88082 (Simulation time: 0 hr 4 min 29 sec) 
Heartbeat CPU  0 instructions:  119000003 cycles:   75330330 heartbeat IPC: 0.84666 cumulative IPC: 0.87895 (Simulation time: 0 hr 4 min 32 sec) 
Heartbeat CPU  0 instructions:  120000000 cycles:   76483726 heartbeat IPC: 0.86700 cumulative IPC: 0.87835 (Simulation time: 0 hr 4 min 35 sec) 
Heartbeat CPU  0 instructions:  121000003 cycles:   77448419 heartbeat IPC: 1.03660 cumulative IPC: 0.88478 (Simulation time: 0 hr 4 min 38 sec) 
Heartbeat CPU  0 instructions:  122000002 cycles:   78306582 heartbeat IPC: 1.16528 cumulative IPC: 0.89457 (Simulation time: 0 hr 4 min 41 sec) 
Heartbeat CPU  0 instructions:  123000002 cycles:   79163904 heartbeat IPC: 1.16642 cumulative IPC: 0.90373 (Simulation time: 0 hr 4 min 43 sec) 
Heartbeat CPU  0 instructions:  124000000 cycles:   80023676 heartbeat IPC: 1.16310 cumulative IPC: 0.91220 (Simulation time: 0 hr 4 min 46 sec) 
Heartbeat CPU  0 instructions:  125000000 cycles:   80881402 heartbeat IPC: 1.16587 cumulative IPC: 0.92021 (Simulation time: 0 hr 4 min 48 sec) 
Heartbeat CPU  0 instructions:  126000001 cycles:   81736378 heartbeat IPC: 1.16962 cumulative IPC: 0.92782 (Simulation time: 0 hr 4 min 51 sec) 
Heartbeat CPU  0 instructions:  127000002 cycles:   82593700 heartbeat IPC: 1.16642 cumulative IPC: 0.93490 (Simulation time: 0 hr 4 min 53 sec) 
Heartbeat CPU  0 instructions:  128000000 cycles:   83452177 heartbeat IPC: 1.16485 cumulative IPC: 0.94154 (Simulation time: 0 hr 4 min 56 sec) 
Heartbeat CPU  0 instructions:  129000003 cycles:   84312283 heartbeat IPC: 1.16265 cumulative IPC: 0.94776 (Simulation time: 0 hr 4 min 58 sec) 
Heartbeat CPU  0 instructions:  130000003 cycles:   85166551 heartbeat IPC: 1.17059 cumulative IPC: 0.95381 (Simulation time: 0 hr 5 min 1 sec) 
Heartbeat CPU  0 instructions:  131000000 cycles:   86038303 heartbeat IPC: 1.14711 cumulative IPC: 0.95902 (Simulation time: 0 hr 5 min 4 sec) 
Heartbeat CPU  0 instructions:  132000000 cycles:   86889742 heartbeat IPC: 1.17448 cumulative IPC: 0.96455 (Simulation time: 0 hr 5 min 6 sec) 
Heartbeat CPU  0 instructions:  133000002 cycles:   87747914 heartbeat IPC: 1.16527 cumulative IPC: 0.96961 (Simulation time: 0 hr 5 min 9 sec) 
Heartbeat CPU  0 instructions:  134000000 cycles:   88598304 heartbeat IPC: 1.17593 cumulative IPC: 0.97464 (Simulation time: 0 hr 5 min 11 sec) 
Heartbeat CPU  0 instructions:  135000000 cycles:   89453221 heartbeat IPC: 1.16970 cumulative IPC: 0.97931 (Simulation time: 0 hr 5 min 14 sec) 
Heartbeat CPU  0 instructions:  136000000 cycles:   90305898 heartbeat IPC: 1.17278 cumulative IPC: 0.98382 (Simulation time: 0 hr 5 min 16 sec) 
Heartbeat CPU  0 instructions:  137000000 cycles:   91161048 heartbeat IPC: 1.16939 cumulative IPC: 0.98805 (Simulation time: 0 hr 5 min 19 sec) 
Heartbeat CPU  0 instructions:  138000003 cycles:   92015521 heartbeat IPC: 1.17032 cumulative IPC: 0.99212 (Simulation time: 0 hr 5 min 22 sec) 
Heartbeat CPU  0 instructions:  139000001 cycles:   92869434 heartbeat IPC: 1.17108 cumulative IPC: 0.99602 (Simulation time: 0 hr 5 min 24 sec) 
Heartbeat CPU  0 instructions:  140000000 cycles:   93721348 heartbeat IPC: 1.17383 cumulative IPC: 0.99981 (Simulation time: 0 hr 5 min 27 sec) 
Heartbeat CPU  0 instructions:  141000000 cycles:   94575797 heartbeat IPC: 1.17034 cumulative IPC: 1.00337 (Simulation time: 0 hr 5 min 29 sec) 
Heartbeat CPU  0 instructions:  142000000 cycles:   95444444 heartbeat IPC: 1.15122 cumulative IPC: 1.00645 (Simulation time: 0 hr 5 min 32 sec) 
Heartbeat CPU  0 instructions:  143000001 cycles:   96296484 heartbeat IPC: 1.17366 cumulative IPC: 1.00980 (Simulation time: 0 hr 5 min 34 sec) 
Heartbeat CPU  0 instructions:  144000000 cycles:   97152040 heartbeat IPC: 1.16883 cumulative IPC: 1.01293 (Simulation time: 0 hr 5 min 37 sec) 
Heartbeat CPU  0 instructions:  145000003 cycles:   98007193 heartbeat IPC: 1.16938 cumulative IPC: 1.01595 (Simulation time: 0 hr 5 min 39 sec) 
Heartbeat CPU  0 instructions:  146000001 cycles:   98866397 heartbeat IPC: 1.16387 cumulative IPC: 1.01877 (Simulation time: 0 hr 5 min 42 sec) 
Heartbeat CPU  0 instructions:  147000002 cycles:   99719599 heartbeat IPC: 1.17206 cumulative IPC: 1.02161 (Simulation time: 0 hr 5 min 45 sec) 
Heartbeat CPU  0 instructions:  148000000 cycles:  100572998 heartbeat IPC: 1.17178 cumulative IPC: 1.02434 (Simulation time: 0 hr 5 min 47 sec) 
Heartbeat CPU  0 instructions:  149000000 cycles:  101427352 heartbeat IPC: 1.17048 cumulative IPC: 1.02696 (Simulation time: 0 hr 5 min 50 sec) 
Heartbeat CPU  0 instructions:  150000000 cycles:  102283339 heartbeat IPC: 1.16824 cumulative IPC: 1.02945 (Simulation time: 0 hr 5 min 52 sec) 
Heartbeat CPU  0 instructions:  151000001 cycles:  103137569 heartbeat IPC: 1.17065 cumulative IPC: 1.03189 (Simulation time: 0 hr 5 min 55 sec) 
Heartbeat CPU  0 instructions:  152000000 cycles:  104007304 heartbeat IPC: 1.14977 cumulative IPC: 1.03393 (Simulation time: 0 hr 5 min 57 sec) 
Heartbeat CPU  0 instructions:  153000001 cycles:  104857253 heartbeat IPC: 1.17654 cumulative IPC: 1.03630 (Simulation time: 0 hr 6 min 0 sec) 
Heartbeat CPU  0 instructions:  154000003 cycles:  105709622 heartbeat IPC: 1.17320 cumulative IPC: 1.03854 (Simulation time: 0 hr 6 min 2 sec) 
Heartbeat CPU  0 instructions:  155000003 cycles:  106562802 heartbeat IPC: 1.17209 cumulative IPC: 1.04070 (Simulation time: 0 hr 6 min 5 sec) 
Heartbeat CPU  0 instructions:  156000000 cycles:  107415083 heartbeat IPC: 1.17332 cumulative IPC: 1.04280 (Simulation time: 0 hr 6 min 8 sec) 
Heartbeat CPU  0 instructions:  157000000 cycles:  108271672 heartbeat IPC: 1.16742 cumulative IPC: 1.04476 (Simulation time: 0 hr 6 min 10 sec) 
Heartbeat CPU  0 instructions:  158000002 cycles:  109127461 heartbeat IPC: 1.16851 cumulative IPC: 1.04667 (Simulation time: 0 hr 6 min 13 sec) 
Heartbeat CPU  0 instructions:  159000002 cycles:  109982479 heartbeat IPC: 1.16957 cumulative IPC: 1.04854 (Simulation time: 0 hr 6 min 15 sec) 
Heartbeat CPU  0 instructions:  160000000 cycles:  110834464 heartbeat IPC: 1.17373 cumulative IPC: 1.05041 (Simulation time: 0 hr 6 min 18 sec) 
Heartbeat CPU  0 instructions:  161000003 cycles:  111693320 heartbeat IPC: 1.16434 cumulative IPC: 1.05209 (Simulation time: 0 hr 6 min 20 sec) 
Heartbeat CPU  0 instructions:  162000000 cycles:  112545790 heartbeat IPC: 1.17306 cumulative IPC: 1.05385 (Simulation time: 0 hr 6 min 23 sec) 
Heartbeat CPU  0 instructions:  163000001 cycles:  113417807 heartbeat IPC: 1.14677 cumulative IPC: 1.05520 (Simulation time: 0 hr 6 min 26 sec) 
Heartbeat CPU  0 instructions:  164000000 cycles:  114265502 heartbeat IPC: 1.17967 cumulative IPC: 1.05695 (Simulation time: 0 hr 6 min 28 sec) 
Heartbeat CPU  0 instructions:  165000001 cycles:  115117680 heartbeat IPC: 1.17346 cumulative IPC: 1.05856 (Simulation time: 0 hr 6 min 31 sec) 
Heartbeat CPU  0 instructions:  166000003 cycles:  115970773 heartbeat IPC: 1.17221 cumulative IPC: 1.06012 (Simulation time: 0 hr 6 min 33 sec) 
Heartbeat CPU  0 instructions:  167000001 cycles:  116826174 heartbeat IPC: 1.16904 cumulative IPC: 1.06160 (Simulation time: 0 hr 6 min 36 sec) 
Heartbeat CPU  0 instructions:  168000000 cycles:  117676590 heartbeat IPC: 1.17589 cumulative IPC: 1.06312 (Simulation time: 0 hr 6 min 38 sec) 
Heartbeat CPU  0 instructions:  169000001 cycles:  118533540 heartbeat IPC: 1.16693 cumulative IPC: 1.06449 (Simulation time: 0 hr 6 min 41 sec) 
Heartbeat CPU  0 instructions:  170000000 cycles:  119382121 heartbeat IPC: 1.17844 cumulative IPC: 1.06596 (Simulation time: 0 hr 6 min 43 sec) 
Heartbeat CPU  0 instructions:  171000000 cycles:  120236243 heartbeat IPC: 1.17079 cumulative IPC: 1.06731 (Simulation time: 0 hr 6 min 46 sec) 
Heartbeat CPU  0 instructions:  172000000 cycles:  121091658 heartbeat IPC: 1.16902 cumulative IPC: 1.06860 (Simulation time: 0 hr 6 min 49 sec) 
Heartbeat CPU  0 instructions:  173000002 cycles:  121959737 heartbeat IPC: 1.15197 cumulative IPC: 1.06966 (Simulation time: 0 hr 6 min 51 sec) 
Heartbeat CPU  0 instructions:  174000002 cycles:  122813219 heartbeat IPC: 1.17167 cumulative IPC: 1.07092 (Simulation time: 0 hr 6 min 54 sec) 
Heartbeat CPU  0 instructions:  175000000 cycles:  123664407 heartbeat IPC: 1.17483 cumulative IPC: 1.07218 (Simulation time: 0 hr 6 min 56 sec) 
Heartbeat CPU  0 instructions:  176000000 cycles:  124517892 heartbeat IPC: 1.17167 cumulative IPC: 1.07338 (Simulation time: 0 hr 6 min 59 sec) 
Heartbeat CPU  0 instructions:  177000001 cycles:  125372855 heartbeat IPC: 1.16964 cumulative IPC: 1.07453 (Simulation time: 0 hr 7 min 1 sec) 
Heartbeat CPU  0 instructions:  178000002 cycles:  126232293 heartbeat IPC: 1.16355 cumulative IPC: 1.07559 (Simulation time: 0 hr 7 min 4 sec) 
Heartbeat CPU  0 instructions:  179000001 cycles:  127081338 heartbeat IPC: 1.17779 cumulative IPC: 1.07677 (Simulation time: 0 hr 7 min 7 sec) 
Heartbeat CPU  0 instructions:  180000000 cycles:  127937391 heartbeat IPC: 1.16815 cumulative IPC: 1.07782 (Simulation time: 0 hr 7 min 9 sec) 
Heartbeat CPU  0 instructions:  181000000 cycles:  128790613 heartbeat IPC: 1.17203 cumulative IPC: 1.07889 (Simulation time: 0 hr 7 min 12 sec) 
Heartbeat CPU  0 instructions:  182000000 cycles:  129645694 heartbeat IPC: 1.16948 cumulative IPC: 1.07991 (Simulation time: 0 hr 7 min 14 sec) 
Heartbeat CPU  0 instructions:  183000003 cycles:  130498750 heartbeat IPC: 1.17226 cumulative IPC: 1.08094 (Simulation time: 0 hr 7 min 17 sec) 
Heartbeat CPU  0 instructions:  184000000 cycles:  131366563 heartbeat IPC: 1.15232 cumulative IPC: 1.08174 (Simulation time: 0 hr 7 min 19 sec) 
Heartbeat CPU  0 instructions:  185000002 cycles:  132219233 heartbeat IPC: 1.17279 cumulative IPC: 1.08273 (Simulation time: 0 hr 7 min 22 sec) 
Heartbeat CPU  0 instructions:  186000003 cycles:  133072582 heartbeat IPC: 1.17185 cumulative IPC: 1.08368 (Simulation time: 0 hr 7 min 24 sec) 
Heartbeat CPU  0 instructions:  187000003 cycles:  133927417 heartbeat IPC: 1.16982 cumulative IPC: 1.08460 (Simulation time: 0 hr 7 min 27 sec) 
Heartbeat CPU  0 instructions:  188000000 cycles:  134784339 heartbeat IPC: 1.16696 cumulative IPC: 1.08547 (Simulation time: 0 hr 7 min 29 sec) 
Heartbeat CPU  0 instructions:  189000001 cycles:  135640798 heartbeat IPC: 1.16760 cumulative IPC: 1.08633 (Simulation time: 0 hr 7 min 32 sec) 
Heartbeat CPU  0 instructions:  190000003 cycles:  136492727 heartbeat IPC: 1.17381 cumulative IPC: 1.08723 (Simulation time: 0 hr 7 min 35 sec) 
Heartbeat CPU  0 instructions:  191000001 cycles:  137345858 heartbeat IPC: 1.17215 cumulative IPC: 1.08810 (Simulation time: 0 hr 7 min 37 sec) 
Heartbeat CPU  0 instructions:  192000000 cycles:  138197399 heartbeat IPC: 1.17434 cumulative IPC: 1.08897 (Simulation time: 0 hr 7 min 40 sec) 
Heartbeat CPU  0 instructions:  193000000 cycles:  139052825 heartbeat IPC: 1.16901 cumulative IPC: 1.08977 (Simulation time: 0 hr 7 min 42 sec) 
Heartbeat CPU  0 instructions:  194000003 cycles:  139925475 heartbeat IPC: 1.14594 cumulative IPC: 1.09034 (Simulation time: 0 hr 7 min 45 sec) 
Heartbeat CPU  0 instructions:  195000002 cycles:  140777754 heartbeat IPC: 1.17332 cumulative IPC: 1.09115 (Simulation time: 0 hr 7 min 47 sec) 
Heartbeat CPU  0 instructions:  196000000 cycles:  141630786 heartbeat IPC: 1.17229 cumulative IPC: 1.09194 (Simulation time: 0 hr 7 min 50 sec) 
Heartbeat CPU  0 instructions:  197000000 cycles:  142483913 heartbeat IPC: 1.17216 cumulative IPC: 1.09271 (Simulation time: 0 hr 7 min 53 sec) 
Heartbeat CPU  0 instructions:  198000001 cycles:  143337217 heartbeat IPC: 1.17192 cumulative IPC: 1.09346 (Simulation time: 0 hr 7 min 55 sec) 
Heartbeat CPU  0 instructions:  199000003 cycles:  144192165 heartbeat IPC: 1.16966 cumulative IPC: 1.09418 (Simulation time: 0 hr 7 min 58 sec) 
Heartbeat CPU  0 instructions:  200000000 cycles:  145042466 heartbeat IPC: 1.17605 cumulative IPC: 1.09495 (Simulation time: 0 hr 8 min 0 sec) 
Heartbeat CPU  0 instructions:  201000002 cycles:  145892871 heartbeat IPC: 1.17591 cumulative IPC: 1.09569 (Simulation time: 0 hr 8 min 3 sec) 
Heartbeat CPU  0 instructions:  202000000 cycles:  146746899 heartbeat IPC: 1.17092 cumulative IPC: 1.09638 (Simulation time: 0 hr 8 min 5 sec) 
Heartbeat CPU  0 instructions:  203000000 cycles:  147600419 heartbeat IPC: 1.17162 cumulative IPC: 1.09707 (Simulation time: 0 hr 8 min 8 sec) 
Heartbeat CPU  0 instructions:  204000000 cycles:  148453423 heartbeat IPC: 1.17233 cumulative IPC: 1.09774 (Simulation time: 0 hr 8 min 11 sec) 
Heartbeat CPU  0 instructions:  205000000 cycles:  149318242 heartbeat IPC: 1.15631 cumulative IPC: 1.09827 (Simulation time: 0 hr 8 min 13 sec) 
Heartbeat CPU  0 instructions:  206000003 cycles:  150172323 heartbeat IPC: 1.17085 cumulative IPC: 1.09892 (Simulation time: 0 hr 8 min 16 sec) 
Heartbeat CPU  0 instructions:  207000003 cycles:  151025535 heartbeat IPC: 1.17204 cumulative IPC: 1.09956 (Simulation time: 0 hr 8 min 18 sec) 
Heartbeat CPU  0 instructions:  208000000 cycles:  151883234 heartbeat IPC: 1.16591 cumulative IPC: 1.10014 (Simulation time: 0 hr 8 min 21 sec) 
Heartbeat CPU  0 instructions:  209000000 cycles:  152734452 heartbeat IPC: 1.17479 cumulative IPC: 1.10078 (Simulation time: 0 hr 8 min 23 sec) 
Heartbeat CPU  0 instructions:  210000003 cycles:  153591656 heartbeat IPC: 1.16659 cumulative IPC: 1.10134 (Simulation time: 0 hr 8 min 26 sec) 
Heartbeat CPU  0 instructions:  211000002 cycles:  154444564 heartbeat IPC: 1.17246 cumulative IPC: 1.10195 (Simulation time: 0 hr 8 min 29 sec) 
Heartbeat CPU  0 instructions:  212000000 cycles:  155297874 heartbeat IPC: 1.17190 cumulative IPC: 1.10253 (Simulation time: 0 hr 8 min 31 sec) 
Heartbeat CPU  0 instructions:  213000002 cycles:  156153311 heartbeat IPC: 1.16900 cumulative IPC: 1.10309 (Simulation time: 0 hr 8 min 34 sec) 
Heartbeat CPU  0 instructions:  214000000 cycles:  157007717 heartbeat IPC: 1.17040 cumulative IPC: 1.10365 (Simulation time: 0 hr 8 min 36 sec) 
Heartbeat CPU  0 instructions:  215000002 cycles:  157876905 heartbeat IPC: 1.15050 cumulative IPC: 1.10404 (Simulation time: 0 hr 8 min 39 sec) 
Heartbeat CPU  0 instructions:  216000000 cycles:  158730495 heartbeat IPC: 1.17152 cumulative IPC: 1.10459 (Simulation time: 0 hr 8 min 41 sec) 
Heartbeat CPU  0 instructions:  217000002 cycles:  159583291 heartbeat IPC: 1.17262 cumulative IPC: 1.10513 (Simulation time: 0 hr 8 min 44 sec) 
Heartbeat CPU  0 instructions:  218000002 cycles:  160435179 heartbeat IPC: 1.17386 cumulative IPC: 1.10568 (Simulation time: 0 hr 8 min 46 sec) 
Heartbeat CPU  0 instructions:  219000002 cycles:  161291581 heartbeat IPC: 1.16768 cumulative IPC: 1.10618 (Simulation time: 0 hr 8 min 49 sec) 
Heartbeat CPU  0 instructions:  220000000 cycles:  162143322 heartbeat IPC: 1.17406 cumulative IPC: 1.10671 (Simulation time: 0 hr 8 min 51 sec) 
Heartbeat CPU  0 instructions:  221000002 cycles:  162999789 heartbeat IPC: 1.16759 cumulative IPC: 1.10719 (Simulation time: 0 hr 8 min 54 sec) 
Heartbeat CPU  0 instructions:  222000000 cycles:  163851669 heartbeat IPC: 1.17387 cumulative IPC: 1.10770 (Simulation time: 0 hr 8 min 57 sec) 
Heartbeat CPU  0 instructions:  223000002 cycles:  164703497 heartbeat IPC: 1.17395 cumulative IPC: 1.10821 (Simulation time: 0 hr 8 min 59 sec) 
Heartbeat CPU  0 instructions:  224000000 cycles:  165555075 heartbeat IPC: 1.17429 cumulative IPC: 1.10871 (Simulation time: 0 hr 9 min 2 sec) 
Heartbeat CPU  0 instructions:  225000000 cycles:  166426683 heartbeat IPC: 1.14730 cumulative IPC: 1.10901 (Simulation time: 0 hr 9 min 4 sec) 
Heartbeat CPU  0 instructions:  226000000 cycles:  167275399 heartbeat IPC: 1.17825 cumulative IPC: 1.10953 (Simulation time: 0 hr 9 min 7 sec) 
Heartbeat CPU  0 instructions:  227000001 cycles:  168127617 heartbeat IPC: 1.17341 cumulative IPC: 1.11000 (Simulation time: 0 hr 9 min 9 sec) 
Heartbeat CPU  0 instructions:  228000000 cycles:  168978621 heartbeat IPC: 1.17508 cumulative IPC: 1.11049 (Simulation time: 0 hr 9 min 12 sec) 
Heartbeat CPU  0 instructions:  229000001 cycles:  169833920 heartbeat IPC: 1.16918 cumulative IPC: 1.11092 (Simulation time: 0 hr 9 min 15 sec) 
Heartbeat CPU  0 instructions:  230000001 cycles:  170689850 heartbeat IPC: 1.16832 cumulative IPC: 1.11134 (Simulation time: 0 hr 9 min 17 sec) 
Heartbeat CPU  0 instructions:  231000003 cycles:  171541184 heartbeat IPC: 1.17463 cumulative IPC: 1.11179 (Simulation time: 0 hr 9 min 20 sec) 
Heartbeat CPU  0 instructions:  232000000 cycles:  172392923 heartbeat IPC: 1.17407 cumulative IPC: 1.11224 (Simulation time: 0 hr 9 min 22 sec) 
Heartbeat CPU  0 instructions:  233000000 cycles:  173245010 heartbeat IPC: 1.17359 cumulative IPC: 1.11268 (Simulation time: 0 hr 9 min 25 sec) 
Heartbeat CPU  0 instructions:  234000001 cycles:  174096652 heartbeat IPC: 1.17420 cumulative IPC: 1.11311 (Simulation time: 0 hr 9 min 27 sec) 
Heartbeat CPU  0 instructions:  235000001 cycles:  174948032 heartbeat IPC: 1.17456 cumulative IPC: 1.11355 (Simulation time: 0 hr 9 min 30 sec) 
Heartbeat CPU  0 instructions:  236000000 cycles:  175818809 heartbeat IPC: 1.14840 cumulative IPC: 1.11379 (Simulation time: 0 hr 9 min 32 sec) 
Heartbeat CPU  0 instructions:  237000000 cycles:  176670257 heartbeat IPC: 1.17447 cumulative IPC: 1.11421 (Simulation time: 0 hr 9 min 35 sec) 
Heartbeat CPU  0 instructions:  238000000 cycles:  177526543 heartbeat IPC: 1.16783 cumulative IPC: 1.11459 (Simulation time: 0 hr 9 min 38 sec) 
Heartbeat CPU  0 instructions:  239000003 cycles:  178378089 heartbeat IPC: 1.17434 cumulative IPC: 1.11499 (Simulation time: 0 hr 9 min 40 sec) 
Heartbeat CPU  0 instructions:  240000000 cycles:  179230804 heartbeat IPC: 1.17272 cumulative IPC: 1.11539 (Simulation time: 0 hr 9 min 43 sec) 
Heartbeat CPU  0 instructions:  241000001 cycles:  180081170 heartbeat IPC: 1.17597 cumulative IPC: 1.11579 (Simulation time: 0 hr 9 min 45 sec) 
Heartbeat CPU  0 instructions:  242000001 cycles:  180938190 heartbeat IPC: 1.16683 cumulative IPC: 1.11614 (Simulation time: 0 hr 9 min 48 sec) 
Heartbeat CPU  0 instructions:  243000001 cycles:  181791035 heartbeat IPC: 1.17255 cumulative IPC: 1.11651 (Simulation time: 0 hr 9 min 50 sec) 
Heartbeat CPU  0 instructions:  244000000 cycles:  182646887 heartbeat IPC: 1.16843 cumulative IPC: 1.11686 (Simulation time: 0 hr 9 min 53 sec) 
Heartbeat CPU  0 instructions:  245000002 cycles:  183496313 heartbeat IPC: 1.17727 cumulative IPC: 1.11725 (Simulation time: 0 hr 9 min 56 sec) 
Heartbeat CPU  0 instructions:  246000003 cycles:  184366498 heartbeat IPC: 1.14918 cumulative IPC: 1.11747 (Simulation time: 0 hr 9 min 58 sec) 
Heartbeat CPU  0 instructions:  247000003 cycles:  185222538 heartbeat IPC: 1.16817 cumulative IPC: 1.11780 (Simulation time: 0 hr 10 min 1 sec) 
Heartbeat CPU  0 instructions:  248000000 cycles:  186070390 heartbeat IPC: 1.17945 cumulative IPC: 1.11819 (Simulation time: 0 hr 10 min 3 sec) 
Heartbeat CPU  0 instructions:  249000003 cycles:  186922456 heartbeat IPC: 1.17362 cumulative IPC: 1.11855 (Simulation time: 0 hr 10 min 6 sec) 
Heartbeat CPU  0 instructions:  250000003 cycles:  187772616 heartbeat IPC: 1.17625 cumulative IPC: 1.11891 (Simulation time: 0 hr 10 min 8 sec) 
Heartbeat CPU  0 instructions:  251000003 cycles:  188629456 heartbeat IPC: 1.16708 cumulative IPC: 1.11922 (Simulation time: 0 hr 10 min 11 sec) 
Heartbeat CPU  0 instructions:  252000000 cycles:  189484583 heartbeat IPC: 1.16941 cumulative IPC: 1.11953 (Simulation time: 0 hr 10 min 13 sec) 
Heartbeat CPU  0 instructions:  253000001 cycles:  190340866 heartbeat IPC: 1.16784 cumulative IPC: 1.11984 (Simulation time: 0 hr 10 min 16 sec) 
Heartbeat CPU  0 instructions:  254000000 cycles:  191188409 heartbeat IPC: 1.17988 cumulative IPC: 1.12021 (Simulation time: 0 hr 10 min 19 sec) 
Heartbeat CPU  0 instructions:  255000002 cycles:  192047151 heartbeat IPC: 1.16450 cumulative IPC: 1.12048 (Simulation time: 0 hr 10 min 21 sec) 
Heartbeat CPU  0 instructions:  256000000 cycles:  192899272 heartbeat IPC: 1.17354 cumulative IPC: 1.12081 (Simulation time: 0 hr 10 min 24 sec) 
Heartbeat CPU  0 instructions:  257000002 cycles:  193767540 heartbeat IPC: 1.15172 cumulative IPC: 1.12100 (Simulation time: 0 hr 10 min 26 sec) 
Heartbeat CPU  0 instructions:  258000003 cycles:  194620711 heartbeat IPC: 1.17210 cumulative IPC: 1.12131 (Simulation time: 0 hr 10 min 29 sec) 
Heartbeat CPU  0 instructions:  259000002 cycles:  195473022 heartbeat IPC: 1.17328 cumulative IPC: 1.12162 (Simulation time: 0 hr 10 min 31 sec) 
Heartbeat CPU  0 instructions:  260000000 cycles:  196327684 heartbeat IPC: 1.17005 cumulative IPC: 1.12191 (Simulation time: 0 hr 10 min 34 sec) 
Heartbeat CPU  0 instructions:  261000001 cycles:  197179763 heartbeat IPC: 1.17360 cumulative IPC: 1.12222 (Simulation time: 0 hr 10 min 36 sec) 
Heartbeat CPU  0 instructions:  262000002 cycles:  198035887 heartbeat IPC: 1.16806 cumulative IPC: 1.12249 (Simulation time: 0 hr 10 min 39 sec) 
Heartbeat CPU  0 instructions:  263000001 cycles:  198890391 heartbeat IPC: 1.17027 cumulative IPC: 1.12277 (Simulation time: 0 hr 10 min 42 sec) 
Heartbeat CPU  0 instructions:  264000000 cycles:  199747817 heartbeat IPC: 1.16628 cumulative IPC: 1.12303 (Simulation time: 0 hr 10 min 44 sec) 
Heartbeat CPU  0 instructions:  265000002 cycles:  200598330 heartbeat IPC: 1.17576 cumulative IPC: 1.12333 (Simulation time: 0 hr 10 min 47 sec) 
Heartbeat CPU  0 instructions:  266000000 cycles:  201453883 heartbeat IPC: 1.16883 cumulative IPC: 1.12359 (Simulation time: 0 hr 10 min 49 sec) 
Heartbeat CPU  0 instructions:  267000002 cycles:  202267154 heartbeat IPC: 1.22960 cumulative IPC: 1.12417 (Simulation time: 0 hr 10 min 52 sec) 
Heartbeat CPU  0 instructions:  268000000 cycles:  203079340 heartbeat IPC: 1.23124 cumulative IPC: 1.12476 (Simulation time: 0 hr 10 min 54 sec) 
Heartbeat CPU  0 instructions:  269000002 cycles:  204044655 heartbeat IPC: 1.03593 cumulative IPC: 1.12419 (Simulation time: 0 hr 10 min 56 sec) 
Heartbeat CPU  0 instructions:  270000003 cycles:  205012275 heartbeat IPC: 1.03346 cumulative IPC: 1.12361 (Simulation time: 0 hr 10 min 59 sec) 
Heartbeat CPU  0 instructions:  271000001 cycles:  205976456 heartbeat IPC: 1.03715 cumulative IPC: 1.12306 (Simulation time: 0 hr 11 min 2 sec) 
Heartbeat CPU  0 instructions:  272000000 cycles:  206942171 heartbeat IPC: 1.03550 cumulative IPC: 1.12251 (Simulation time: 0 hr 11 min 4 sec) 
Heartbeat CPU  0 instructions:  273000002 cycles:  207908411 heartbeat IPC: 1.03494 cumulative IPC: 1.12196 (Simulation time: 0 hr 11 min 7 sec) 
Heartbeat CPU  0 instructions:  274000003 cycles:  208875037 heartbeat IPC: 1.03453 cumulative IPC: 1.12141 (Simulation time: 0 hr 11 min 10 sec) 
Heartbeat CPU  0 instructions:  275000000 cycles:  209837704 heartbeat IPC: 1.03878 cumulative IPC: 1.12090 (Simulation time: 0 hr 11 min 12 sec) 
Heartbeat CPU  0 instructions:  276000000 cycles:  210805352 heartbeat IPC: 1.03343 cumulative IPC: 1.12037 (Simulation time: 0 hr 11 min 15 sec) 
Heartbeat CPU  0 instructions:  277000003 cycles:  211772120 heartbeat IPC: 1.03438 cumulative IPC: 1.11984 (Simulation time: 0 hr 11 min 18 sec) 
Heartbeat CPU  0 instructions:  278000003 cycles:  212739979 heartbeat IPC: 1.03321 cumulative IPC: 1.11931 (Simulation time: 0 hr 11 min 20 sec) 
Heartbeat CPU  0 instructions:  279000001 cycles:  213701914 heartbeat IPC: 1.03957 cumulative IPC: 1.11883 (Simulation time: 0 hr 11 min 23 sec) 
Heartbeat CPU  0 instructions:  280000000 cycles:  214667738 heartbeat IPC: 1.03538 cumulative IPC: 1.11833 (Simulation time: 0 hr 11 min 25 sec) 
Heartbeat CPU  0 instructions:  281000001 cycles:  215626334 heartbeat IPC: 1.04319 cumulative IPC: 1.11789 (Simulation time: 0 hr 11 min 28 sec) 
Heartbeat CPU  0 instructions:  282000003 cycles:  216585069 heartbeat IPC: 1.04304 cumulative IPC: 1.11745 (Simulation time: 0 hr 11 min 31 sec) 
Heartbeat CPU  0 instructions:  283000000 cycles:  217543684 heartbeat IPC: 1.04317 cumulative IPC: 1.11701 (Simulation time: 0 hr 11 min 33 sec) 
Heartbeat CPU  0 instructions:  284000000 cycles:  218502934 heartbeat IPC: 1.04248 cumulative IPC: 1.11658 (Simulation time: 0 hr 11 min 36 sec) 
Heartbeat CPU  0 instructions:  285000002 cycles:  219461498 heartbeat IPC: 1.04323 cumulative IPC: 1.11615 (Simulation time: 0 hr 11 min 39 sec) 
Heartbeat CPU  0 instructions:  286000000 cycles:  220419353 heartbeat IPC: 1.04400 cumulative IPC: 1.11574 (Simulation time: 0 hr 11 min 41 sec) 
Heartbeat CPU  0 instructions:  287000000 cycles:  221381387 heartbeat IPC: 1.03946 cumulative IPC: 1.11530 (Simulation time: 0 hr 11 min 44 sec) 
Heartbeat CPU  0 instructions:  288000000 cycles:  222341205 heartbeat IPC: 1.04186 cumulative IPC: 1.11488 (Simulation time: 0 hr 11 min 46 sec) 
Heartbeat CPU  0 instructions:  289000003 cycles:  223300152 heartbeat IPC: 1.04281 cumulative IPC: 1.11448 (Simulation time: 0 hr 11 min 49 sec) 
Heartbeat CPU  0 instructions:  290000000 cycles:  224256497 heartbeat IPC: 1.04564 cumulative IPC: 1.11409 (Simulation time: 0 hr 11 min 51 sec) 
Heartbeat CPU  0 instructions:  291000000 cycles:  225214874 heartbeat IPC: 1.04343 cumulative IPC: 1.11369 (Simulation time: 0 hr 11 min 54 sec) 
Heartbeat CPU  0 instructions:  292000000 cycles:  226173320 heartbeat IPC: 1.04336 cumulative IPC: 1.11330 (Simulation time: 0 hr 11 min 57 sec) 
Heartbeat CPU  0 instructions:  293000000 cycles:  227134551 heartbeat IPC: 1.04033 cumulative IPC: 1.11290 (Simulation time: 0 hr 11 min 59 sec) 
Heartbeat CPU  0 instructions:  294000002 cycles:  228095060 heartbeat IPC: 1.04112 cumulative IPC: 1.11250 (Simulation time: 0 hr 12 min 2 sec) 
Heartbeat CPU  0 instructions:  295000002 cycles:  229053392 heartbeat IPC: 1.04348 cumulative IPC: 1.11213 (Simulation time: 0 hr 12 min 5 sec) 
Heartbeat CPU  0 instructions:  296000000 cycles:  230012465 heartbeat IPC: 1.04267 cumulative IPC: 1.11175 (Simulation time: 0 hr 12 min 7 sec) 
Heartbeat CPU  0 instructions:  297000001 cycles:  230971103 heartbeat IPC: 1.04315 cumulative IPC: 1.11138 (Simulation time: 0 hr 12 min 10 sec) 
Heartbeat CPU  0 instructions:  298000000 cycles:  231931744 heartbeat IPC: 1.04097 cumulative IPC: 1.11100 (Simulation time: 0 hr 12 min 13 sec) 
Heartbeat CPU  0 instructions:  299000003 cycles:  232889918 heartbeat IPC: 1.04365 cumulative IPC: 1.11064 (Simulation time: 0 hr 12 min 15 sec) 
Heartbeat CPU  0 instructions:  300000000 cycles:  233847618 heartbeat IPC: 1.04417 cumulative IPC: 1.11029 (Simulation time: 0 hr 12 min 18 sec) 
Heartbeat CPU  0 instructions:  301000002 cycles:  234804848 heartbeat IPC: 1.04468 cumulative IPC: 1.10994 (Simulation time: 0 hr 12 min 20 sec) 
Heartbeat CPU  0 instructions:  302000002 cycles:  235765760 heartbeat IPC: 1.04068 cumulative IPC: 1.10957 (Simulation time: 0 hr 12 min 23 sec) 
Heartbeat CPU  0 instructions:  303000001 cycles:  236724928 heartbeat IPC: 1.04257 cumulative IPC: 1.10922 (Simulation time: 0 hr 12 min 26 sec) 
Heartbeat CPU  0 instructions:  304000000 cycles:  237686336 heartbeat IPC: 1.04014 cumulative IPC: 1.10886 (Simulation time: 0 hr 12 min 29 sec) 
Heartbeat CPU  0 instructions:  305000000 cycles:  238645952 heartbeat IPC: 1.04208 cumulative IPC: 1.10851 (Simulation time: 0 hr 12 min 31 sec) 
Heartbeat CPU  0 instructions:  306000001 cycles:  239603777 heartbeat IPC: 1.04403 cumulative IPC: 1.10818 (Simulation time: 0 hr 12 min 34 sec) 
Heartbeat CPU  0 instructions:  307000003 cycles:  240559651 heartbeat IPC: 1.04617 cumulative IPC: 1.10786 (Simulation time: 0 hr 12 min 36 sec) 
Heartbeat CPU  0 instructions:  308000000 cycles:  241514338 heartbeat IPC: 1.04746 cumulative IPC: 1.10756 (Simulation time: 0 hr 12 min 39 sec) 
Heartbeat CPU  0 instructions:  309000000 cycles:  242470081 heartbeat IPC: 1.04631 cumulative IPC: 1.10725 (Simulation time: 0 hr 12 min 41 sec) 
Heartbeat CPU  0 instructions:  310000001 cycles:  243426758 heartbeat IPC: 1.04529 cumulative IPC: 1.10693 (Simulation time: 0 hr 12 min 44 sec) 
Heartbeat CPU  0 instructions:  311000001 cycles:  244384540 heartbeat IPC: 1.04408 cumulative IPC: 1.10662 (Simulation time: 0 hr 12 min 47 sec) 
Heartbeat CPU  0 instructions:  312000000 cycles:  245344126 heartbeat IPC: 1.04212 cumulative IPC: 1.10630 (Simulation time: 0 hr 12 min 49 sec) 
Heartbeat CPU  0 instructions:  313000000 cycles:  246302714 heartbeat IPC: 1.04320 cumulative IPC: 1.10598 (Simulation time: 0 hr 12 min 52 sec) 
Heartbeat CPU  0 instructions:  314000001 cycles:  247261214 heartbeat IPC: 1.04330 cumulative IPC: 1.10567 (Simulation time: 0 hr 12 min 55 sec) 
Heartbeat CPU  0 instructions:  315000000 cycles:  248218766 heartbeat IPC: 1.04433 cumulative IPC: 1.10537 (Simulation time: 0 hr 12 min 57 sec) 
Heartbeat CPU  0 instructions:  316000000 cycles:  249176085 heartbeat IPC: 1.04458 cumulative IPC: 1.10507 (Simulation time: 0 hr 13 min 0 sec) 
Heartbeat CPU  0 instructions:  317000001 cycles:  250134174 heartbeat IPC: 1.04375 cumulative IPC: 1.10477 (Simulation time: 0 hr 13 min 3 sec) 
Heartbeat CPU  0 instructions:  318000001 cycles:  251092684 heartbeat IPC: 1.04329 cumulative IPC: 1.10447 (Simulation time: 0 hr 13 min 5 sec) 
Heartbeat CPU  0 instructions:  319000002 cycles:  252051670 heartbeat IPC: 1.04277 cumulative IPC: 1.10418 (Simulation time: 0 hr 13 min 8 sec) 
Heartbeat CPU  0 instructions:  320000000 cycles:  253008501 heartbeat IPC: 1.04511 cumulative IPC: 1.10389 (Simulation time: 0 hr 13 min 10 sec) 
Heartbeat CPU  0 instructions:  321000000 cycles:  253966169 heartbeat IPC: 1.04420 cumulative IPC: 1.10361 (Simulation time: 0 hr 13 min 13 sec) 
Heartbeat CPU  0 instructions:  322000001 cycles:  254925676 heartbeat IPC: 1.04220 cumulative IPC: 1.10331 (Simulation time: 0 hr 13 min 15 sec) 
Heartbeat CPU  0 instructions:  323000000 cycles:  255882151 heartbeat IPC: 1.04550 cumulative IPC: 1.10304 (Simulation time: 0 hr 13 min 18 sec) 
Heartbeat CPU  0 instructions:  324000000 cycles:  256839580 heartbeat IPC: 1.04446 cumulative IPC: 1.10276 (Simulation time: 0 hr 13 min 21 sec) 
Heartbeat CPU  0 instructions:  325000001 cycles:  257796784 heartbeat IPC: 1.04471 cumulative IPC: 1.10249 (Simulation time: 0 hr 13 min 23 sec) 
Heartbeat CPU  0 instructions:  326000000 cycles:  258755731 heartbeat IPC: 1.04281 cumulative IPC: 1.10221 (Simulation time: 0 hr 13 min 26 sec) 
Heartbeat CPU  0 instructions:  327000001 cycles:  259715839 heartbeat IPC: 1.04155 cumulative IPC: 1.10193 (Simulation time: 0 hr 13 min 29 sec) 
Heartbeat CPU  0 instructions:  328000000 cycles:  260674150 heartbeat IPC: 1.04350 cumulative IPC: 1.10166 (Simulation time: 0 hr 13 min 31 sec) 
Heartbeat CPU  0 instructions:  329000001 cycles:  261632607 heartbeat IPC: 1.04334 cumulative IPC: 1.10139 (Simulation time: 0 hr 13 min 34 sec) 
Heartbeat CPU  0 instructions:  330000000 cycles:  262560937 heartbeat IPC: 1.07720 cumulative IPC: 1.10128 (Simulation time: 0 hr 13 min 37 sec) 
Heartbeat CPU  0 instructions:  331000000 cycles:  263449180 heartbeat IPC: 1.12582 cumulative IPC: 1.10139 (Simulation time: 0 hr 13 min 39 sec) 
Heartbeat CPU  0 instructions:  332000000 cycles:  264340223 heartbeat IPC: 1.12228 cumulative IPC: 1.10148 (Simulation time: 0 hr 13 min 41 sec) 
Heartbeat CPU  0 instructions:  333000001 cycles:  265237847 heartbeat IPC: 1.11405 cumulative IPC: 1.10153 (Simulation time: 0 hr 13 min 44 sec) 
Heartbeat CPU  0 instructions:  334000002 cycles:  266131781 heartbeat IPC: 1.11865 cumulative IPC: 1.10160 (Simulation time: 0 hr 13 min 46 sec) 
Heartbeat CPU  0 instructions:  335000002 cycles:  267018914 heartbeat IPC: 1.12723 cumulative IPC: 1.10171 (Simulation time: 0 hr 13 min 49 sec) 
Heartbeat CPU  0 instructions:  336000000 cycles:  267910848 heartbeat IPC: 1.12116 cumulative IPC: 1.10179 (Simulation time: 0 hr 13 min 51 sec) 
Heartbeat CPU  0 instructions:  337000003 cycles:  268803390 heartbeat IPC: 1.12040 cumulative IPC: 1.10187 (Simulation time: 0 hr 13 min 54 sec) 
Heartbeat CPU  0 instructions:  338000000 cycles:  269698253 heartbeat IPC: 1.11749 cumulative IPC: 1.10193 (Simulation time: 0 hr 13 min 56 sec) 
Heartbeat CPU  0 instructions:  339000001 cycles:  270583759 heartbeat IPC: 1.12930 cumulative IPC: 1.10204 (Simulation time: 0 hr 13 min 59 sec) 
Heartbeat CPU  0 instructions:  340000000 cycles:  271467259 heartbeat IPC: 1.13186 cumulative IPC: 1.10216 (Simulation time: 0 hr 14 min 1 sec) 
Heartbeat CPU  0 instructions:  341000000 cycles:  272353347 heartbeat IPC: 1.12856 cumulative IPC: 1.10227 (Simulation time: 0 hr 14 min 4 sec) 
Heartbeat CPU  0 instructions:  342000000 cycles:  273235343 heartbeat IPC: 1.13379 cumulative IPC: 1.10240 (Simulation time: 0 hr 14 min 6 sec) 
Heartbeat CPU  0 instructions:  343000000 cycles:  274119740 heartbeat IPC: 1.13071 cumulative IPC: 1.10251 (Simulation time: 0 hr 14 min 8 sec) 
Heartbeat CPU  0 instructions:  344000000 cycles:  275005544 heartbeat IPC: 1.12892 cumulative IPC: 1.10262 (Simulation time: 0 hr 14 min 11 sec) 
Heartbeat CPU  0 instructions:  345000000 cycles:  275890283 heartbeat IPC: 1.13028 cumulative IPC: 1.10273 (Simulation time: 0 hr 14 min 13 sec) 
Heartbeat CPU  0 instructions:  346000003 cycles:  276773742 heartbeat IPC: 1.13192 cumulative IPC: 1.10284 (Simulation time: 0 hr 14 min 16 sec) 
Heartbeat CPU  0 instructions:  347000002 cycles:  277657367 heartbeat IPC: 1.13170 cumulative IPC: 1.10296 (Simulation time: 0 hr 14 min 18 sec) 
Heartbeat CPU  0 instructions:  348000000 cycles:  278552793 heartbeat IPC: 1.11678 cumulative IPC: 1.10301 (Simulation time: 0 hr 14 min 21 sec) 
Heartbeat CPU  0 instructions:  349000000 cycles:  279450069 heartbeat IPC: 1.11448 cumulative IPC: 1.10306 (Simulation time: 0 hr 14 min 23 sec) 
Heartbeat CPU  0 instructions:  350000003 cycles:  280347618 heartbeat IPC: 1.11415 cumulative IPC: 1.10310 (Simulation time: 0 hr 14 min 26 sec) 
Heartbeat CPU  0 instructions:  351000003 cycles:  281243599 heartbeat IPC: 1.11610 cumulative IPC: 1.10315 (Simulation time: 0 hr 14 min 28 sec) 
Heartbeat CPU  0 instructions:  352000000 cycles:  282135074 heartbeat IPC: 1.12173 cumulative IPC: 1.10322 (Simulation time: 0 hr 14 min 31 sec) 
Heartbeat CPU  0 instructions:  353000000 cycles:  283030581 heartbeat IPC: 1.11669 cumulative IPC: 1.10328 (Simulation time: 0 hr 14 min 33 sec) 
Heartbeat CPU  0 instructions:  354000000 cycles:  283931741 heartbeat IPC: 1.10968 cumulative IPC: 1.10330 (Simulation time: 0 hr 14 min 36 sec) 
Heartbeat CPU  0 instructions:  355000001 cycles:  284825801 heartbeat IPC: 1.11849 cumulative IPC: 1.10336 (Simulation time: 0 hr 14 min 38 sec) 
Heartbeat CPU  0 instructions:  356000000 cycles:  285784611 heartbeat IPC: 1.04296 cumulative IPC: 1.10311 (Simulation time: 0 hr 14 min 41 sec) 
Heartbeat CPU  0 instructions:  357000003 cycles:  286932683 heartbeat IPC: 0.87103 cumulative IPC: 1.10197 (Simulation time: 0 hr 14 min 44 sec) 
Heartbeat CPU  0 instructions:  358000000 cycles:  288072967 heartbeat IPC: 0.87697 cumulative IPC: 1.10087 (Simulation time: 0 hr 14 min 47 sec) 
Heartbeat CPU  0 instructions:  359000002 cycles:  289182312 heartbeat IPC: 0.90143 cumulative IPC: 1.09993 (Simulation time: 0 hr 14 min 50 sec) 
Heartbeat CPU  0 instructions:  360000000 cycles:  290305771 heartbeat IPC: 0.89011 cumulative IPC: 1.09894 (Simulation time: 0 hr 14 min 52 sec) 
Heartbeat CPU  0 instructions:  361000000 cycles:  291429133 heartbeat IPC: 0.89018 cumulative IPC: 1.09795 (Simulation time: 0 hr 14 min 56 sec) 
Heartbeat CPU  0 instructions:  362000000 cycles:  292575094 heartbeat IPC: 0.87263 cumulative IPC: 1.09687 (Simulation time: 0 hr 14 min 59 sec) 
Heartbeat CPU  0 instructions:  363000000 cycles:  293733081 heartbeat IPC: 0.86357 cumulative IPC: 1.09574 (Simulation time: 0 hr 15 min 2 sec) 
Heartbeat CPU  0 instructions:  364000000 cycles:  294898545 heartbeat IPC: 0.85803 cumulative IPC: 1.09460 (Simulation time: 0 hr 15 min 5 sec) 
Heartbeat CPU  0 instructions:  365000002 cycles:  296054943 heartbeat IPC: 0.86476 cumulative IPC: 1.09350 (Simulation time: 0 hr 15 min 8 sec) 
Heartbeat CPU  0 instructions:  366000001 cycles:  297204768 heartbeat IPC: 0.86970 cumulative IPC: 1.09244 (Simulation time: 0 hr 15 min 11 sec) 
Heartbeat CPU  0 instructions:  367000001 cycles:  298321697 heartbeat IPC: 0.89531 cumulative IPC: 1.09154 (Simulation time: 0 hr 15 min 14 sec) 
Heartbeat CPU  0 instructions:  368000000 cycles:  299430921 heartbeat IPC: 0.90153 cumulative IPC: 1.09068 (Simulation time: 0 hr 15 min 17 sec) 
Heartbeat CPU  0 instructions:  369000001 cycles:  300565846 heartbeat IPC: 0.88112 cumulative IPC: 1.08972 (Simulation time: 0 hr 15 min 20 sec) 
Heartbeat CPU  0 instructions:  370000002 cycles:  301695297 heartbeat IPC: 0.88539 cumulative IPC: 1.08879 (Simulation time: 0 hr 15 min 22 sec) 
Heartbeat CPU  0 instructions:  371000002 cycles:  302845320 heartbeat IPC: 0.86955 cumulative IPC: 1.08778 (Simulation time: 0 hr 15 min 25 sec) 
Heartbeat CPU  0 instructions:  372000000 cycles:  304026571 heartbeat IPC: 0.84656 cumulative IPC: 1.08664 (Simulation time: 0 hr 15 min 28 sec) 
Heartbeat CPU  0 instructions:  373000000 cycles:  305179297 heartbeat IPC: 0.86751 cumulative IPC: 1.08564 (Simulation time: 0 hr 15 min 31 sec) 
Heartbeat CPU  0 instructions:  374000003 cycles:  306326098 heartbeat IPC: 0.87199 cumulative IPC: 1.08467 (Simulation time: 0 hr 15 min 34 sec) 
Heartbeat CPU  0 instructions:  375000002 cycles:  307468019 heartbeat IPC: 0.87572 cumulative IPC: 1.08373 (Simulation time: 0 hr 15 min 37 sec) 
Heartbeat CPU  0 instructions:  376000000 cycles:  308606908 heartbeat IPC: 0.87805 cumulative IPC: 1.08281 (Simulation time: 0 hr 15 min 40 sec) 
Heartbeat CPU  0 instructions:  377000001 cycles:  309726848 heartbeat IPC: 0.89291 cumulative IPC: 1.08198 (Simulation time: 0 hr 15 min 43 sec) 
Heartbeat CPU  0 instructions:  378000000 cycles:  310863799 heartbeat IPC: 0.87954 cumulative IPC: 1.08108 (Simulation time: 0 hr 15 min 46 sec) 
Heartbeat CPU  0 instructions:  379000001 cycles:  312000933 heartbeat IPC: 0.87940 cumulative IPC: 1.08019 (Simulation time: 0 hr 15 min 49 sec) 
Heartbeat CPU  0 instructions:  380000000 cycles:  313149275 heartbeat IPC: 0.87082 cumulative IPC: 1.07927 (Simulation time: 0 hr 15 min 52 sec) 
Heartbeat CPU  0 instructions:  381000001 cycles:  314308636 heartbeat IPC: 0.86254 cumulative IPC: 1.07830 (Simulation time: 0 hr 15 min 55 sec) 
Heartbeat CPU  0 instructions:  382000000 cycles:  315454236 heartbeat IPC: 0.87290 cumulative IPC: 1.07740 (Simulation time: 0 hr 15 min 58 sec) 
Heartbeat CPU  0 instructions:  383000000 cycles:  316596978 heartbeat IPC: 0.87509 cumulative IPC: 1.07652 (Simulation time: 0 hr 16 min 1 sec) 
Heartbeat CPU  0 instructions:  384000000 cycles:  317708237 heartbeat IPC: 0.89988 cumulative IPC: 1.07578 (Simulation time: 0 hr 16 min 4 sec) 
Heartbeat CPU  0 instructions:  385000001 cycles:  318815669 heartbeat IPC: 0.90299 cumulative IPC: 1.07506 (Simulation time: 0 hr 16 min 7 sec) 
Heartbeat CPU  0 instructions:  386000001 cycles:  319948303 heartbeat IPC: 0.88290 cumulative IPC: 1.07424 (Simulation time: 0 hr 16 min 10 sec) 
Heartbeat CPU  0 instructions:  387000003 cycles:  321064758 heartbeat IPC: 0.89569 cumulative IPC: 1.07349 (Simulation time: 0 hr 16 min 13 sec) 
Heartbeat CPU  0 instructions:  388000000 cycles:  322204662 heartbeat IPC: 0.87726 cumulative IPC: 1.07266 (Simulation time: 0 hr 16 min 16 sec) 
Heartbeat CPU  0 instructions:  389000002 cycles:  323340351 heartbeat IPC: 0.88052 cumulative IPC: 1.07185 (Simulation time: 0 hr 16 min 19 sec) 
Heartbeat CPU  0 instructions:  390000002 cycles:  324503243 heartbeat IPC: 0.85993 cumulative IPC: 1.07094 (Simulation time: 0 hr 16 min 22 sec) 
Heartbeat CPU  0 instructions:  391000001 cycles:  325661488 heartbeat IPC: 0.86337 cumulative IPC: 1.07006 (Simulation time: 0 hr 16 min 25 sec) 
Heartbeat CPU  0 instructions:  392000000 cycles:  326830344 heartbeat IPC: 0.85554 cumulative IPC: 1.06914 (Simulation time: 0 hr 16 min 28 sec) 
Heartbeat CPU  0 instructions:  393000003 cycles:  327959400 heartbeat IPC: 0.88570 cumulative IPC: 1.06839 (Simulation time: 0 hr 16 min 31 sec) 
Heartbeat CPU  0 instructions:  394000002 cycles:  328939971 heartbeat IPC: 1.01981 cumulative IPC: 1.06821 (Simulation time: 0 hr 16 min 34 sec) 
Heartbeat CPU  0 instructions:  395000001 cycles:  329824860 heartbeat IPC: 1.13008 cumulative IPC: 1.06841 (Simulation time: 0 hr 16 min 36 sec) 
Heartbeat CPU  0 instructions:  396000000 cycles:  330706845 heartbeat IPC: 1.13381 cumulative IPC: 1.06862 (Simulation time: 0 hr 16 min 39 sec) 
Heartbeat CPU  0 instructions:  397000000 cycles:  331595176 heartbeat IPC: 1.12571 cumulative IPC: 1.06880 (Simulation time: 0 hr 16 min 41 sec) 
Heartbeat CPU  0 instructions:  398000001 cycles:  332477399 heartbeat IPC: 1.13350 cumulative IPC: 1.06901 (Simulation time: 0 hr 16 min 44 sec) 
Heartbeat CPU  0 instructions:  399000001 cycles:  333359144 heartbeat IPC: 1.13411 cumulative IPC: 1.06921 (Simulation time: 0 hr 16 min 47 sec) 
Heartbeat CPU  0 instructions:  400000000 cycles:  334245212 heartbeat IPC: 1.12858 cumulative IPC: 1.06940 (Simulation time: 0 hr 16 min 49 sec) 
Heartbeat CPU  0 instructions:  401000001 cycles:  335125798 heartbeat IPC: 1.13561 cumulative IPC: 1.06961 (Simulation time: 0 hr 16 min 52 sec) 
Heartbeat CPU  0 instructions:  402000000 cycles:  336014702 heartbeat IPC: 1.12498 cumulative IPC: 1.06978 (Simulation time: 0 hr 16 min 55 sec) 
Heartbeat CPU  0 instructions:  403000003 cycles:  336867333 heartbeat IPC: 1.17284 cumulative IPC: 1.07009 (Simulation time: 0 hr 16 min 57 sec) 
Heartbeat CPU  0 instructions:  404000000 cycles:  337735429 heartbeat IPC: 1.15194 cumulative IPC: 1.07034 (Simulation time: 0 hr 17 min 0 sec) 
Heartbeat CPU  0 instructions:  405000002 cycles:  338611310 heartbeat IPC: 1.14171 cumulative IPC: 1.07056 (Simulation time: 0 hr 17 min 2 sec) 
Heartbeat CPU  0 instructions:  406000002 cycles:  339491355 heartbeat IPC: 1.13631 cumulative IPC: 1.07076 (Simulation time: 0 hr 17 min 5 sec) 
Heartbeat CPU  0 instructions:  407000003 cycles:  340373542 heartbeat IPC: 1.13355 cumulative IPC: 1.07096 (Simulation time: 0 hr 17 min 7 sec) 
Heartbeat CPU  0 instructions:  408000000 cycles:  341260369 heartbeat IPC: 1.12761 cumulative IPC: 1.07113 (Simulation time: 0 hr 17 min 10 sec) 
Heartbeat CPU  0 instructions:  409000003 cycles:  342140172 heartbeat IPC: 1.13662 cumulative IPC: 1.07133 (Simulation time: 0 hr 17 min 13 sec) 
Heartbeat CPU  0 instructions:  410000002 cycles:  343021485 heartbeat IPC: 1.13467 cumulative IPC: 1.07152 (Simulation time: 0 hr 17 min 15 sec) 
Heartbeat CPU  0 instructions:  411000002 cycles:  343901593 heartbeat IPC: 1.13622 cumulative IPC: 1.07172 (Simulation time: 0 hr 17 min 18 sec) 
Heartbeat CPU  0 instructions:  412000000 cycles:  344781963 heartbeat IPC: 1.13588 cumulative IPC: 1.07191 (Simulation time: 0 hr 17 min 20 sec) 
Heartbeat CPU  0 instructions:  413000000 cycles:  345646716 heartbeat IPC: 1.15640 cumulative IPC: 1.07216 (Simulation time: 0 hr 17 min 23 sec) 
Heartbeat CPU  0 instructions:  414000002 cycles:  346492820 heartbeat IPC: 1.18189 cumulative IPC: 1.07248 (Simulation time: 0 hr 17 min 25 sec) 
Heartbeat CPU  0 instructions:  415000002 cycles:  347377827 heartbeat IPC: 1.12993 cumulative IPC: 1.07265 (Simulation time: 0 hr 17 min 28 sec) 
Heartbeat CPU  0 instructions:  416000000 cycles:  348258687 heartbeat IPC: 1.13525 cumulative IPC: 1.07284 (Simulation time: 0 hr 17 min 31 sec) 
Heartbeat CPU  0 instructions:  417000000 cycles:  349143812 heartbeat IPC: 1.12978 cumulative IPC: 1.07301 (Simulation time: 0 hr 17 min 33 sec) 
Heartbeat CPU  0 instructions:  418000002 cycles:  350024300 heartbeat IPC: 1.13574 cumulative IPC: 1.07320 (Simulation time: 0 hr 17 min 36 sec) 
Heartbeat CPU  0 instructions:  419000002 cycles:  350907520 heartbeat IPC: 1.13222 cumulative IPC: 1.07337 (Simulation time: 0 hr 17 min 38 sec) 
Heartbeat CPU  0 instructions:  420000000 cycles:  351784260 heartbeat IPC: 1.14059 cumulative IPC: 1.07357 (Simulation time: 0 hr 17 min 41 sec) 
Heartbeat CPU  0 instructions:  421000000 cycles:  352664896 heartbeat IPC: 1.13554 cumulative IPC: 1.07375 (Simulation time: 0 hr 17 min 44 sec) 
Heartbeat CPU  0 instructions:  422000001 cycles:  353544833 heartbeat IPC: 1.13645 cumulative IPC: 1.07394 (Simulation time: 0 hr 17 min 46 sec) 
Heartbeat CPU  0 instructions:  423000002 cycles:  354419966 heartbeat IPC: 1.14268 cumulative IPC: 1.07414 (Simulation time: 0 hr 17 min 49 sec) 
Heartbeat CPU  0 instructions:  424000000 cycles:  355263582 heartbeat IPC: 1.18537 cumulative IPC: 1.07445 (Simulation time: 0 hr 17 min 51 sec) 
Heartbeat CPU  0 instructions:  425000003 cycles:  356135383 heartbeat IPC: 1.14705 cumulative IPC: 1.07466 (Simulation time: 0 hr 17 min 54 sec) 
Heartbeat CPU  0 instructions:  426000003 cycles:  357011547 heartbeat IPC: 1.14134 cumulative IPC: 1.07485 (Simulation time: 0 hr 17 min 56 sec) 
Heartbeat CPU  0 instructions:  427000000 cycles:  357889854 heartbeat IPC: 1.13855 cumulative IPC: 1.07503 (Simulation time: 0 hr 17 min 59 sec) 
Heartbeat CPU  0 instructions:  428000000 cycles:  358774359 heartbeat IPC: 1.13058 cumulative IPC: 1.07520 (Simulation time: 0 hr 18 min 2 sec) 
Heartbeat CPU  0 instructions:  429000001 cycles:  359655863 heartbeat IPC: 1.13443 cumulative IPC: 1.07537 (Simulation time: 0 hr 18 min 4 sec) 
Heartbeat CPU  0 instructions:  430000003 cycles:  360534886 heartbeat IPC: 1.13763 cumulative IPC: 1.07554 (Simulation time: 0 hr 18 min 7 sec) 
Heartbeat CPU  0 instructions:  431000000 cycles:  361418030 heartbeat IPC: 1.13231 cumulative IPC: 1.07571 (Simulation time: 0 hr 18 min 9 sec) 
Heartbeat CPU  0 instructions:  432000000 cycles:  362296004 heartbeat IPC: 1.13899 cumulative IPC: 1.07589 (Simulation time: 0 hr 18 min 12 sec) 
Heartbeat CPU  0 instructions:  433000001 cycles:  363178687 heartbeat IPC: 1.13291 cumulative IPC: 1.07605 (Simulation time: 0 hr 18 min 15 sec) 
Heartbeat CPU  0 instructions:  434000001 cycles:  364034177 heartbeat IPC: 1.16892 cumulative IPC: 1.07631 (Simulation time: 0 hr 18 min 17 sec) 
Heartbeat CPU  0 instructions:  435000003 cycles:  364879092 heartbeat IPC: 1.18355 cumulative IPC: 1.07660 (Simulation time: 0 hr 18 min 20 sec) 
Heartbeat CPU  0 instructions:  436000000 cycles:  365766021 heartbeat IPC: 1.12748 cumulative IPC: 1.07674 (Simulation time: 0 hr 18 min 22 sec) 
Heartbeat CPU  0 instructions:  437000001 cycles:  366647285 heartbeat IPC: 1.13473 cumulative IPC: 1.07691 (Simulation time: 0 hr 18 min 25 sec) 
Heartbeat CPU  0 instructions:  438000000 cycles:  367526476 heartbeat IPC: 1.13741 cumulative IPC: 1.07708 (Simulation time: 0 hr 18 min 28 sec) 
Heartbeat CPU  0 instructions:  439000003 cycles:  368409184 heartbeat IPC: 1.13288 cumulative IPC: 1.07723 (Simulation time: 0 hr 18 min 30 sec) 
Heartbeat CPU  0 instructions:  440000000 cycles:  369291432 heartbeat IPC: 1.13346 cumulative IPC: 1.07739 (Simulation time: 0 hr 18 min 33 sec) 
Heartbeat CPU  0 instructions:  441000001 cycles:  370171012 heartbeat IPC: 1.13691 cumulative IPC: 1.07755 (Simulation time: 0 hr 18 min 36 sec) 
Heartbeat CPU  0 instructions:  442000000 cycles:  371053416 heartbeat IPC: 1.13327 cumulative IPC: 1.07771 (Simulation time: 0 hr 18 min 38 sec) 
Heartbeat CPU  0 instructions:  443000003 cycles:  371928751 heartbeat IPC: 1.14242 cumulative IPC: 1.07789 (Simulation time: 0 hr 18 min 41 sec) 
Heartbeat CPU  0 instructions:  444000000 cycles:  372803180 heartbeat IPC: 1.14360 cumulative IPC: 1.07807 (Simulation time: 0 hr 18 min 43 sec) 
Heartbeat CPU  0 instructions:  445000000 cycles:  373647294 heartbeat IPC: 1.18467 cumulative IPC: 1.07835 (Simulation time: 0 hr 18 min 46 sec) 
Heartbeat CPU  0 instructions:  446000000 cycles:  374523095 heartbeat IPC: 1.14181 cumulative IPC: 1.07852 (Simulation time: 0 hr 18 min 48 sec) 
Heartbeat CPU  0 instructions:  447000001 cycles:  375400081 heartbeat IPC: 1.14027 cumulative IPC: 1.07869 (Simulation time: 0 hr 18 min 51 sec) 
Heartbeat CPU  0 instructions:  448000000 cycles:  376278623 heartbeat IPC: 1.13825 cumulative IPC: 1.07885 (Simulation time: 0 hr 18 min 54 sec) 
Heartbeat CPU  0 instructions:  449000001 cycles:  377160673 heartbeat IPC: 1.13372 cumulative IPC: 1.07900 (Simulation time: 0 hr 18 min 56 sec) 
Heartbeat CPU  0 instructions:  450000000 cycles:  378046040 heartbeat IPC: 1.12947 cumulative IPC: 1.07914 (Simulation time: 0 hr 18 min 59 sec) 
Heartbeat CPU  0 instructions:  451000000 cycles:  378928520 heartbeat IPC: 1.13317 cumulative IPC: 1.07929 (Simulation time: 0 hr 19 min 1 sec) 
Heartbeat CPU  0 instructions:  452000000 cycles:  379810948 heartbeat IPC: 1.13324 cumulative IPC: 1.07943 (Simulation time: 0 hr 19 min 4 sec) 
Heartbeat CPU  0 instructions:  453000002 cycles:  380690209 heartbeat IPC: 1.13732 cumulative IPC: 1.07959 (Simulation time: 0 hr 19 min 7 sec) 
Heartbeat CPU  0 instructions:  454000000 cycles:  381569478 heartbeat IPC: 1.13731 cumulative IPC: 1.07974 (Simulation time: 0 hr 19 min 9 sec) 
Heartbeat CPU  0 instructions:  455000002 cycles:  382428023 heartbeat IPC: 1.16476 cumulative IPC: 1.07997 (Simulation time: 0 hr 19 min 12 sec) 
Heartbeat CPU  0 instructions:  456000000 cycles:  383282992 heartbeat IPC: 1.16963 cumulative IPC: 1.08020 (Simulation time: 0 hr 19 min 14 sec) 
Heartbeat CPU  0 instructions:  457000002 cycles:  384162094 heartbeat IPC: 1.13753 cumulative IPC: 1.08035 (Simulation time: 0 hr 19 min 17 sec) 
Heartbeat CPU  0 instructions:  458000000 cycles:  385040256 heartbeat IPC: 1.13874 cumulative IPC: 1.08051 (Simulation time: 0 hr 19 min 19 sec) 
Heartbeat CPU  0 instructions:  459000000 cycles:  385923302 heartbeat IPC: 1.13244 cumulative IPC: 1.08064 (Simulation time: 0 hr 19 min 22 sec) 
Heartbeat CPU  0 instructions:  460000000 cycles:  386804811 heartbeat IPC: 1.13442 cumulative IPC: 1.08079 (Simulation time: 0 hr 19 min 25 sec) 
Heartbeat CPU  0 instructions:  461000000 cycles:  387686482 heartbeat IPC: 1.13421 cumulative IPC: 1.08093 (Simulation time: 0 hr 19 min 27 sec) 
Heartbeat CPU  0 instructions:  462000000 cycles:  388566802 heartbeat IPC: 1.13595 cumulative IPC: 1.08107 (Simulation time: 0 hr 19 min 30 sec) 
Heartbeat CPU  0 instructions:  463000003 cycles:  389444968 heartbeat IPC: 1.13874 cumulative IPC: 1.08122 (Simulation time: 0 hr 19 min 33 sec) 
Heartbeat CPU  0 instructions:  464000000 cycles:  390328585 heartbeat IPC: 1.13171 cumulative IPC: 1.08135 (Simulation time: 0 hr 19 min 35 sec) 
Heartbeat CPU  0 instructions:  465000003 cycles:  391197652 heartbeat IPC: 1.15066 cumulative IPC: 1.08153 (Simulation time: 0 hr 19 min 38 sec) 
Heartbeat CPU  0 instructions:  466000001 cycles:  392039096 heartbeat IPC: 1.18843 cumulative IPC: 1.08180 (Simulation time: 0 hr 19 min 40 sec) 
Heartbeat CPU  0 instructions:  467000000 cycles:  392917397 heartbeat IPC: 1.13856 cumulative IPC: 1.08195 (Simulation time: 0 hr 19 min 43 sec) 
Heartbeat CPU  0 instructions:  468000000 cycles:  393795777 heartbeat IPC: 1.13846 cumulative IPC: 1.08209 (Simulation time: 0 hr 19 min 45 sec) 
Heartbeat CPU  0 instructions:  469000002 cycles:  394677752 heartbeat IPC: 1.13382 cumulative IPC: 1.08223 (Simulation time: 0 hr 19 min 48 sec) 
Heartbeat CPU  0 instructions:  470000003 cycles:  395558017 heartbeat IPC: 1.13602 cumulative IPC: 1.08236 (Simulation time: 0 hr 19 min 51 sec) 
Heartbeat CPU  0 instructions:  471000001 cycles:  396439995 heartbeat IPC: 1.13381 cumulative IPC: 1.08250 (Simulation time: 0 hr 19 min 53 sec) 
Heartbeat CPU  0 instructions:  472000000 cycles:  397317712 heartbeat IPC: 1.13932 cumulative IPC: 1.08264 (Simulation time: 0 hr 19 min 56 sec) 
Heartbeat CPU  0 instructions:  473000000 cycles:  398202728 heartbeat IPC: 1.12992 cumulative IPC: 1.08276 (Simulation time: 0 hr 19 min 59 sec) 
Heartbeat CPU  0 instructions:  474000002 cycles:  399083541 heartbeat IPC: 1.13532 cumulative IPC: 1.08290 (Simulation time: 0 hr 20 min 1 sec) 
Heartbeat CPU  0 instructions:  475000000 cycles:  399963316 heartbeat IPC: 1.13665 cumulative IPC: 1.08303 (Simulation time: 0 hr 20 min 4 sec) 
Heartbeat CPU  0 instructions:  476000000 cycles:  400813536 heartbeat IPC: 1.17617 cumulative IPC: 1.08326 (Simulation time: 0 hr 20 min 6 sec) 
Heartbeat CPU  0 instructions:  477000003 cycles:  401679890 heartbeat IPC: 1.15427 cumulative IPC: 1.08344 (Simulation time: 0 hr 20 min 9 sec) 
Heartbeat CPU  0 instructions:  478000001 cycles:  402556653 heartbeat IPC: 1.14056 cumulative IPC: 1.08358 (Simulation time: 0 hr 20 min 11 sec) 
Heartbeat CPU  0 instructions:  479000000 cycles:  403437803 heartbeat IPC: 1.13488 cumulative IPC: 1.08371 (Simulation time: 0 hr 20 min 14 sec) 
Heartbeat CPU  0 instructions:  480000000 cycles:  404321616 heartbeat IPC: 1.13146 cumulative IPC: 1.08383 (Simulation time: 0 hr 20 min 17 sec) 
Heartbeat CPU  0 instructions:  481000001 cycles:  405203763 heartbeat IPC: 1.13360 cumulative IPC: 1.08396 (Simulation time: 0 hr 20 min 19 sec) 
Heartbeat CPU  0 instructions:  482000003 cycles:  406085122 heartbeat IPC: 1.13461 cumulative IPC: 1.08408 (Simulation time: 0 hr 20 min 22 sec) 
Heartbeat CPU  0 instructions:  483000000 cycles:  406964194 heartbeat IPC: 1.13756 cumulative IPC: 1.08422 (Simulation time: 0 hr 20 min 24 sec) 
Heartbeat CPU  0 instructions:  484000000 cycles:  407843499 heartbeat IPC: 1.13726 cumulative IPC: 1.08435 (Simulation time: 0 hr 20 min 27 sec) 
Heartbeat CPU  0 instructions:  485000001 cycles:  408727909 heartbeat IPC: 1.13070 cumulative IPC: 1.08446 (Simulation time: 0 hr 20 min 30 sec) 
Heartbeat CPU  0 instructions:  486000000 cycles:  409592262 heartbeat IPC: 1.15693 cumulative IPC: 1.08464 (Simulation time: 0 hr 20 min 32 sec) 
Heartbeat CPU  0 instructions:  487000002 cycles:  410436179 heartbeat IPC: 1.18495 cumulative IPC: 1.08488 (Simulation time: 0 hr 20 min 35 sec) 
Heartbeat CPU  0 instructions:  488000000 cycles:  411319835 heartbeat IPC: 1.13166 cumulative IPC: 1.08499 (Simulation time: 0 hr 20 min 37 sec) 
Heartbeat CPU  0 instructions:  489000000 cycles:  412194892 heartbeat IPC: 1.14278 cumulative IPC: 1.08513 (Simulation time: 0 hr 20 min 40 sec) 
Heartbeat CPU  0 instructions:  490000000 cycles:  413076026 heartbeat IPC: 1.13490 cumulative IPC: 1.08526 (Simulation time: 0 hr 20 min 42 sec) 
Heartbeat CPU  0 instructions:  491000001 cycles:  413960936 heartbeat IPC: 1.13006 cumulative IPC: 1.08537 (Simulation time: 0 hr 20 min 45 sec) 
Heartbeat CPU  0 instructions:  492000000 cycles:  414837485 heartbeat IPC: 1.14084 cumulative IPC: 1.08550 (Simulation time: 0 hr 20 min 48 sec) 
Heartbeat CPU  0 instructions:  493000000 cycles:  415720302 heartbeat IPC: 1.13274 cumulative IPC: 1.08562 (Simulation time: 0 hr 20 min 50 sec) 
Heartbeat CPU  0 instructions:  494000003 cycles:  416598554 heartbeat IPC: 1.13863 cumulative IPC: 1.08574 (Simulation time: 0 hr 20 min 53 sec) 
Heartbeat CPU  0 instructions:  495000001 cycles:  417480029 heartbeat IPC: 1.13446 cumulative IPC: 1.08586 (Simulation time: 0 hr 20 min 55 sec) 
Heartbeat CPU  0 instructions:  496000000 cycles:  418361152 heartbeat IPC: 1.13491 cumulative IPC: 1.08598 (Simulation time: 0 hr 20 min 58 sec) 
Heartbeat CPU  0 instructions:  497000003 cycles:  419201621 heartbeat IPC: 1.18982 cumulative IPC: 1.08622 (Simulation time: 0 hr 21 min 1 sec) 
Heartbeat CPU  0 instructions:  498000002 cycles:  420063695 heartbeat IPC: 1.15999 cumulative IPC: 1.08639 (Simulation time: 0 hr 21 min 3 sec) 
Heartbeat CPU  0 instructions:  499000001 cycles:  420941130 heartbeat IPC: 1.13968 cumulative IPC: 1.08652 (Simulation time: 0 hr 21 min 6 sec) 
Heartbeat CPU  0 instructions:  500000000 cycles:  421821463 heartbeat IPC: 1.13593 cumulative IPC: 1.08664 (Simulation time: 0 hr 21 min 8 sec) 
Heartbeat CPU  0 instructions:  501000003 cycles:  422701149 heartbeat IPC: 1.13677 cumulative IPC: 1.08676 (Simulation time: 0 hr 21 min 11 sec) 
Heartbeat CPU  0 instructions:  502000003 cycles:  423587973 heartbeat IPC: 1.12762 cumulative IPC: 1.08686 (Simulation time: 0 hr 21 min 14 sec) 
Heartbeat CPU  0 instructions:  503000002 cycles:  424466431 heartbeat IPC: 1.13836 cumulative IPC: 1.08698 (Simulation time: 0 hr 21 min 16 sec) 
Heartbeat CPU  0 instructions:  504000000 cycles:  425345672 heartbeat IPC: 1.13734 cumulative IPC: 1.08710 (Simulation time: 0 hr 21 min 19 sec) 
Heartbeat CPU  0 instructions:  505000000 cycles:  426225442 heartbeat IPC: 1.13666 cumulative IPC: 1.08721 (Simulation time: 0 hr 21 min 21 sec) 
Heartbeat CPU  0 instructions:  506000002 cycles:  427100948 heartbeat IPC: 1.14220 cumulative IPC: 1.08734 (Simulation time: 0 hr 21 min 24 sec) 
Heartbeat CPU  0 instructions:  507000001 cycles:  427964471 heartbeat IPC: 1.15805 cumulative IPC: 1.08751 (Simulation time: 0 hr 21 min 27 sec) 
Heartbeat CPU  0 instructions:  508000000 cycles:  428808225 heartbeat IPC: 1.18518 cumulative IPC: 1.08773 (Simulation time: 0 hr 21 min 29 sec) 
Heartbeat CPU  0 instructions:  509000002 cycles:  429694432 heartbeat IPC: 1.12841 cumulative IPC: 1.08782 (Simulation time: 0 hr 21 min 32 sec) 
Heartbeat CPU  0 instructions:  510000002 cycles:  430572089 heartbeat IPC: 1.13940 cumulative IPC: 1.08794 (Simulation time: 0 hr 21 min 34 sec) 
Heartbeat CPU  0 instructions:  511000001 cycles:  431454406 heartbeat IPC: 1.13338 cumulative IPC: 1.08805 (Simulation time: 0 hr 21 min 37 sec) 
Heartbeat CPU  0 instructions:  512000000 cycles:  432331857 heartbeat IPC: 1.13966 cumulative IPC: 1.08817 (Simulation time: 0 hr 21 min 40 sec) 
Heartbeat CPU  0 instructions:  513000002 cycles:  433211946 heartbeat IPC: 1.13625 cumulative IPC: 1.08828 (Simulation time: 0 hr 21 min 42 sec) 
Heartbeat CPU  0 instructions:  514000000 cycles:  434093000 heartbeat IPC: 1.13500 cumulative IPC: 1.08839 (Simulation time: 0 hr 21 min 45 sec) 
Heartbeat CPU  0 instructions:  515000000 cycles:  434972080 heartbeat IPC: 1.13755 cumulative IPC: 1.08850 (Simulation time: 0 hr 21 min 47 sec) 
Heartbeat CPU  0 instructions:  516000000 cycles:  435853702 heartbeat IPC: 1.13427 cumulative IPC: 1.08861 (Simulation time: 0 hr 21 min 50 sec) 
Heartbeat CPU  0 instructions:  517000002 cycles:  436729112 heartbeat IPC: 1.14232 cumulative IPC: 1.08873 (Simulation time: 0 hr 21 min 53 sec) 
Heartbeat CPU  0 instructions:  518000000 cycles:  437572889 heartbeat IPC: 1.18514 cumulative IPC: 1.08894 (Simulation time: 0 hr 21 min 55 sec) 
Heartbeat CPU  0 instructions:  519000003 cycles:  438443876 heartbeat IPC: 1.14813 cumulative IPC: 1.08907 (Simulation time: 0 hr 21 min 58 sec) 
Heartbeat CPU  0 instructions:  520000000 cycles:  439321827 heartbeat IPC: 1.13901 cumulative IPC: 1.08919 (Simulation time: 0 hr 22 min 0 sec) 
Heartbeat CPU  0 instructions:  521000000 cycles:  440200245 heartbeat IPC: 1.13841 cumulative IPC: 1.08930 (Simulation time: 0 hr 22 min 3 sec) 
Heartbeat CPU  0 instructions:  522000003 cycles:  441082733 heartbeat IPC: 1.13316 cumulative IPC: 1.08940 (Simulation time: 0 hr 22 min 5 sec) 
Heartbeat CPU  0 instructions:  523000001 cycles:  441963009 heartbeat IPC: 1.13601 cumulative IPC: 1.08951 (Simulation time: 0 hr 22 min 8 sec) 
Heartbeat CPU  0 instructions:  524000000 cycles:  442846430 heartbeat IPC: 1.13196 cumulative IPC: 1.08960 (Simulation time: 0 hr 22 min 11 sec) 
Heartbeat CPU  0 instructions:  525000002 cycles:  443724548 heartbeat IPC: 1.13880 cumulative IPC: 1.08971 (Simulation time: 0 hr 22 min 13 sec) 
Heartbeat CPU  0 instructions:  526000002 cycles:  444607981 heartbeat IPC: 1.13195 cumulative IPC: 1.08981 (Simulation time: 0 hr 22 min 16 sec) 
Heartbeat CPU  0 instructions:  527000000 cycles:  445487762 heartbeat IPC: 1.13664 cumulative IPC: 1.08991 (Simulation time: 0 hr 22 min 19 sec) 
Heartbeat CPU  0 instructions:  528000000 cycles:  446342923 heartbeat IPC: 1.16937 cumulative IPC: 1.09009 (Simulation time: 0 hr 22 min 21 sec) 
[...]
Heartbeat CPU  0 instructions:  540000000 cycles:  456880107 heartbeat IPC: 1.09787 cumulative IPC: 1.09136 (Simulation time: 0 hr 22 min 52 sec) 
Heartbeat CPU  0 instructions:  541000002 cycles:  457911282 heartbeat IPC: 0.96977 cumulative IPC: 1.09105 (Simulation time: 0 hr 22 min 55 sec) 
Heartbeat CPU  0 instructions:  542000003 cycles:  458938941 heartbeat IPC: 0.97309 cumulative IPC: 1.09075 (Simulation time: 0 hr 22 min 58 sec) 
Heartbeat CPU  0 instructions:  543000002 cycles:  459960759 heartbeat IPC: 0.97865 cumulative IPC: 1.09047 (Simulation time: 0 hr 23 min 0 sec) 
Heartbeat CPU  0 instructions:  544000000 cycles:  460984233 heartbeat IPC: 0.97706 cumulative IPC: 1.09018 (Simulation time: 0 hr 23 min 3 sec) 
Heartbeat CPU  0 instructions:  545000000 cycles:  462006002 heartbeat IPC: 0.97869 cumulative IPC: 1.08991 (Simulation time: 0 hr 23 min 6 sec) 
Heartbeat CPU  0 instructions:  546000001 cycles:  463031229 heartbeat IPC: 0.97539 cumulative IPC: 1.08962 (Simulation time: 0 hr 23 min 8 sec) 
Heartbeat CPU  0 instructions:  547000002 cycles:  464053453 heartbeat IPC: 0.97826 cumulative IPC: 1.08934 (Simulation time: 0 hr 23 min 11 sec) 
Heartbeat CPU  0 instructions:  548000000 cycles:  465079194 heartbeat IPC: 0.97490 cumulative IPC: 1.08906 (Simulation time: 0 hr 23 min 14 sec) 
Heartbeat CPU  0 instructions:  549000003 cycles:  466102475 heartbeat IPC: 0.97725 cumulative IPC: 1.08878 (Simulation time: 0 hr 23 min 17 sec) 
Heartbeat CPU  0 instructions:  550000000 cycles:  467126358 heartbeat IPC: 0.97667 cumulative IPC: 1.08850 (Simulation time: 0 hr 23 min 19 sec) 
Heartbeat CPU  0 instructions:  551000002 cycles:  468173196 heartbeat IPC: 0.95526 cumulative IPC: 1.08816 (Simulation time: 0 hr 23 min 22 sec) 
Heartbeat CPU  0 instructions:  552000000 cycles:  469195349 heartbeat IPC: 0.97833 cumulative IPC: 1.08789 (Simulation time: 0 hr 23 min 25 sec) 
Heartbeat CPU  0 instructions:  553000000 cycles:  470216888 heartbeat IPC: 0.97892 cumulative IPC: 1.08763 (Simulation time: 0 hr 23 min 27 sec) 
Heartbeat CPU  0 instructions:  554000001 cycles:  471239250 heartbeat IPC: 0.97813 cumulative IPC: 1.08736 (Simulation time: 0 hr 23 min 30 sec) 
Heartbeat CPU  0 instructions:  555000001 cycles:  472263331 heartbeat IPC: 0.97649 cumulative IPC: 1.08709 (Simulation time: 0 hr 23 min 33 sec) 
Heartbeat CPU  0 instructions:  556000000 cycles:  473285107 heartbeat IPC: 0.97869 cumulative IPC: 1.08682 (Simulation time: 0 hr 23 min 35 sec) 
Heartbeat CPU  0 instructions:  557000001 cycles:  474308801 heartbeat IPC: 0.97686 cumulative IPC: 1.08656 (Simulation time: 0 hr 23 min 38 sec) 
Heartbeat CPU  0 instructions:  558000001 cycles:  475333770 heartbeat IPC: 0.97564 cumulative IPC: 1.08629 (Simulation time: 0 hr 23 min 41 sec) 
Heartbeat CPU  0 instructions:  559000000 cycles:  476356617 heartbeat IPC: 0.97766 cumulative IPC: 1.08602 (Simulation time: 0 hr 23 min 43 sec) 
Heartbeat CPU  0 instructions:  560000000 cycles:  477382056 heartbeat IPC: 0.97519 cumulative IPC: 1.08575 (Simulation time: 0 hr 23 min 46 sec) 
Heartbeat CPU  0 instructions:  561000000 cycles:  478422185 heartbeat IPC: 0.96142 cumulative IPC: 1.08545 (Simulation time: 0 hr 23 min 49 sec) 
Heartbeat CPU  0 instructions:  562000002 cycles:  479450117 heartbeat IPC: 0.97283 cumulative IPC: 1.08518 (Simulation time: 0 hr 23 min 52 sec) 
Heartbeat CPU  0 instructions:  563000003 cycles:  480473245 heartbeat IPC: 0.97740 cumulative IPC: 1.08492 (Simulation time: 0 hr 23 min 54 sec) 
Heartbeat CPU  0 instructions:  564000000 cycles:  481498817 heartbeat IPC: 0.97506 cumulative IPC: 1.08466 (Simulation time: 0 hr 23 min 57 sec) 
Heartbeat CPU  0 instructions:  565000000 cycles:  482521466 heartbeat IPC: 0.97785 cumulative IPC: 1.08440 (Simulation time: 0 hr 23 min 59 sec) 
Heartbeat CPU  0 instructions:  566000001 cycles:  483542641 heartbeat IPC: 0.97927 cumulative IPC: 1.08415 (Simulation time: 0 hr 24 min 2 sec) 
Heartbeat CPU  0 instructions:  567000003 cycles:  484568033 heartbeat IPC: 0.97524 cumulative IPC: 1.08389 (Simulation time: 0 hr 24 min 5 sec) 
Heartbeat CPU  0 instructions:  568000000 cycles:  485589490 heartbeat IPC: 0.97899 cumulative IPC: 1.08364 (Simulation time: 0 hr 24 min 7 sec) 
Heartbeat CPU  0 instructions:  569000000 cycles:  486611585 heartbeat IPC: 0.97838 cumulative IPC: 1.08340 (Simulation time: 0 hr 24 min 10 sec) 
Heartbeat CPU  0 instructions:  570000003 cycles:  487633764 heartbeat IPC: 0.97831 cumulative IPC: 1.08315 (Simulation time: 0 hr 24 min 13 sec) 
Heartbeat CPU  0 instructions:  571000000 cycles:  488661735 heartbeat IPC: 0.97279 cumulative IPC: 1.08289 (Simulation time: 0 hr 24 min 16 sec) 
Heartbeat CPU  0 instructions:  572000000 cycles:  489701820 heartbeat IPC: 0.96146 cumulative IPC: 1.08260 (Simulation time: 0 hr 24 min 18 sec) 
Heartbeat CPU  0 instructions:  573000002 cycles:  490722652 heartbeat IPC: 0.97960 cumulative IPC: 1.08236 (Simulation time: 0 hr 24 min 21 sec) 
Heartbeat CPU  0 instructions:  574000000 cycles:  491741918 heartbeat IPC: 0.98110 cumulative IPC: 1.08212 (Simulation time: 0 hr 24 min 24 sec) 
Heartbeat CPU  0 instructions:  575000003 cycles:  492764441 heartbeat IPC: 0.97798 cumulative IPC: 1.08188 (Simulation time: 0 hr 24 min 26 sec) 
Heartbeat CPU  0 instructions:  576000000 cycles:  493785528 heartbeat IPC: 0.97935 cumulative IPC: 1.08164 (Simulation time: 0 hr 24 min 29 sec) 
Heartbeat CPU  0 instructions:  577000002 cycles:  494805415 heartbeat IPC: 0.98050 cumulative IPC: 1.08141 (Simulation time: 0 hr 24 min 32 sec) 
Heartbeat CPU  0 instructions:  578000002 cycles:  495826341 heartbeat IPC: 0.97950 cumulative IPC: 1.08117 (Simulation time: 0 hr 24 min 35 sec) 
Heartbeat CPU  0 instructions:  579000001 cycles:  496848316 heartbeat IPC: 0.97850 cumulative IPC: 1.08094 (Simulation time: 0 hr 24 min 37 sec) 
Heartbeat CPU  0 instructions:  580000000 cycles:  497873368 heartbeat IPC: 0.97556 cumulative IPC: 1.08069 (Simulation time: 0 hr 24 min 40 sec) 
Heartbeat CPU  0 instructions:  581000000 cycles:  498896321 heartbeat IPC: 0.97756 cumulative IPC: 1.08046 (Simulation time: 0 hr 24 min 42 sec) 
Heartbeat CPU  0 instructions:  582000002 cycles:  499936604 heartbeat IPC: 0.96128 cumulative IPC: 1.08018 (Simulation time: 0 hr 24 min 45 sec) 
Heartbeat CPU  0 instructions:  583000000 cycles:  500963186 heartbeat IPC: 0.97410 cumulative IPC: 1.07993 (Simulation time: 0 hr 24 min 48 sec) 
Heartbeat CPU  0 instructions:  584000000 cycles:  501986889 heartbeat IPC: 0.97685 cumulative IPC: 1.07970 (Simulation time: 0 hr 24 min 51 sec) 
Heartbeat CPU  0 instructions:  585000001 cycles:  503009759 heartbeat IPC: 0.97764 cumulative IPC: 1.07947 (Simulation time: 0 hr 24 min 53 sec) 
Heartbeat CPU  0 instructions:  586000002 cycles:  504029573 heartbeat IPC: 0.98057 cumulative IPC: 1.07924 (Simulation time: 0 hr 24 min 56 sec) 
Heartbeat CPU  0 instructions:  587000002 cycles:  505052526 heartbeat IPC: 0.97756 cumulative IPC: 1.07901 (Simulation time: 0 hr 24 min 59 sec) 
Heartbeat CPU  0 instructions:  588000000 cycles:  506075473 heartbeat IPC: 0.97757 cumulative IPC: 1.07878 (Simulation time: 0 hr 25 min 1 sec) 
Heartbeat CPU  0 instructions:  589000002 cycles:  507099253 heartbeat IPC: 0.97677 cumulative IPC: 1.07855 (Simulation time: 0 hr 25 min 4 sec) 
Heartbeat CPU  0 instructions:  590000002 cycles:  508121107 heartbeat IPC: 0.97861 cumulative IPC: 1.07833 (Simulation time: 0 hr 25 min 7 sec) 
Heartbeat CPU  0 instructions:  591000001 cycles:  509146818 heartbeat IPC: 0.97493 cumulative IPC: 1.07809 (Simulation time: 0 hr 25 min 10 sec) 
Heartbeat CPU  0 instructions:  592000000 cycles:  510165998 heartbeat IPC: 0.98118 cumulative IPC: 1.07788 (Simulation time: 0 hr 25 min 12 sec) 
Heartbeat CPU  0 instructions:  593000003 cycles:  511090333 heartbeat IPC: 1.08186 cumulative IPC: 1.07789 (Simulation time: 0 hr 25 min 15 sec) 
Heartbeat CPU  0 instructions:  594000003 cycles:  512016629 heartbeat IPC: 1.07957 cumulative IPC: 1.07789 (Simulation time: 0 hr 25 min 17 sec) 
Heartbeat CPU  0 instructions:  595000000 cycles:  512950942 heartbeat IPC: 1.07030 cumulative IPC: 1.07787 (Simulation time: 0 hr 25 min 20 sec) 
Heartbeat CPU  0 instructions:  596000000 cycles:  513876200 heartbeat IPC: 1.08078 cumulative IPC: 1.07788 (Simulation time: 0 hr 25 min 22 sec) 
Heartbeat CPU  0 instructions:  597000003 cycles:  514803342 heartbeat IPC: 1.07859 cumulative IPC: 1.07788 (Simulation time: 0 hr 25 min 25 sec) 
Heartbeat CPU  0 instructions:  598000003 cycles:  515733496 heartbeat IPC: 1.07509 cumulative IPC: 1.07788 (Simulation time: 0 hr 25 min 28 sec) 
Heartbeat CPU  0 instructions:  599000003 cycles:  516662766 heartbeat IPC: 1.07611 cumulative IPC: 1.07787 (Simulation time: 0 hr 25 min 30 sec) 
Heartbeat CPU  0 instructions:  600000000 cycles:  517556246 heartbeat IPC: 1.11922 cumulative IPC: 1.07795 (Simulation time: 0 hr 25 min 33 sec) 
Finished CPU 0 instructions: 500000003 cycles: 463842574 cumulative IPC: 1.07795 (Simulation time: 0 hr 25 min 33 sec) 

ChampSim completed all CPUs

[ROI Statistics]
Core_0_instructions 500000003
Core_0_cycles 463842574
Core_0_IPC 1.07795

Core_0_branch_prediction_accuracy 99.13980
Core_0_branch_MPKI 0.20639
Core_0_average_ROB_occupancy_at_mispredict 243.26302

Core_0_L1D_total_access 146879031
Core_0_L1D_total_hit 141557164
Core_0_L1D_total_miss 5321867
Core_0_L1D_loads 134591279
Core_0_L1D_load_hit 130571632
Core_0_L1D_load_miss 4019647
Core_0_L1D_RFOs 12287752
Core_0_L1D_RFO_hit 10985532
Core_0_L1D_RFO_miss 1302220
Core_0_L1D_prefetches 0
Core_0_L1D_prefetch_hit 0
Core_0_L1D_prefetch_miss 0
Core_0_L1D_writebacks 0
Core_0_L1D_writeback_hit 0
Core_0_L1D_writeback_miss 0
Core_0_L1D_prefetch_requested 0
Core_0_L1D_prefetch_dropped 0
Core_0_L1D_prefetch_issued 0
Core_0_L1D_prefetch_filled 0
Core_0_L1D_prefetch_useful 0
Core_0_L1D_prefetch_useless 0
Core_0_L1D_prefetch_late 0
Core_0_L1D_average_miss_latency 54.69270

Core_0_L1D_rq_access 197258597
Core_0_L1D_rq_forward 0
Core_0_L1D_rq_merged 61565060
Core_0_L1D_rq_to_cache 135693537
Core_0_L1D_rq_full 0

Core_0_L1D_wq_access 16646357
Core_0_L1D_wq_forward 0
Core_0_L1D_wq_merged 0
Core_0_L1D_wq_to_cache 16646357
Core_0_L1D_wq_full 11264

Core_0_L1D_pq_access 0
Core_0_L1D_pq_forward 0
Core_0_L1D_pq_merged 0
Core_0_L1D_pq_to_cache 0
Core_0_L1D_pq_full 0

Core_0_L1D_acc_epochs 501283
Core_0_L1D_acc_level_0 501283
Core_0_L1D_acc_level_1 0
Core_0_L1D_acc_level_2 0
Core_0_L1D_acc_level_3 0
Core_0_L1D_acc_level_4 0
Core_0_L1D_acc_level_5 0
Core_0_L1D_acc_level_6 0
Core_0_L1D_acc_level_7 0
Core_0_L1D_acc_level_8 0
Core_0_L1D_acc_level_9 0

Core_0_L1I_total_access 121093274
Core_0_L1I_total_hit 121092976
Core_0_L1I_total_miss 298
Core_0_L1I_loads 121093274
Core_0_L1I_load_hit 121092976
Core_0_L1I_load_miss 298
Core_0_L1I_RFOs 0
Core_0_L1I_RFO_hit 0
Core_0_L1I_RFO_miss 0
Core_0_L1I_prefetches 0
Core_0_L1I_prefetch_hit 0
Core_0_L1I_prefetch_miss 0
Core_0_L1I_writebacks 0
Core_0_L1I_writeback_hit 0
Core_0_L1I_writeback_miss 0
Core_0_L1I_prefetch_requested 0
Core_0_L1I_prefetch_dropped 0
Core_0_L1I_prefetch_issued 0
Core_0_L1I_prefetch_filled 0
Core_0_L1I_prefetch_useful 0
Core_0_L1I_prefetch_useless 0
Core_0_L1I_prefetch_late 0
Core_0_L1I_average_miss_latency 139.11074

Core_0_L1I_rq_access 500000208
Core_0_L1I_rq_forward 0
Core_0_L1I_rq_merged 378906206
Core_0_L1I_rq_to_cache 121094002
Core_0_L1I_rq_full 0

Core_0_L1I_wq_access 0
Core_0_L1I_wq_forward 0
Core_0_L1I_wq_merged 0
Core_0_L1I_wq_to_cache 0
Core_0_L1I_wq_full 0

Core_0_L1I_pq_access 0
Core_0_L1I_pq_forward 0
Core_0_L1I_pq_merged 0
Core_0_L1I_pq_to_cache 0
Core_0_L1I_pq_full 0

Core_0_L1I_acc_epochs 501283
Core_0_L1I_acc_level_0 501283
Core_0_L1I_acc_level_1 0
Core_0_L1I_acc_level_2 0
Core_0_L1I_acc_level_3 0
Core_0_L1I_acc_level_4 0
Core_0_L1I_acc_level_5 0
Core_0_L1I_acc_level_6 0
Core_0_L1I_acc_level_7 0
Core_0_L1I_acc_level_8 0
Core_0_L1I_acc_level_9 0

Core_0_L2C_total_access 11158045
Core_0_L2C_total_hit 7380130
Core_0_L2C_total_miss 3777915
Core_0_L2C_loads 4019895
Core_0_L2C_load_hit 3089757
Core_0_L2C_load_miss 930138
Core_0_L2C_RFOs 1302082
Core_0_L2C_RFO_hit 468145
Core_0_L2C_RFO_miss 833937
Core_0_L2C_prefetches 4165185
Core_0_L2C_prefetch_hit 2151432
Core_0_L2C_prefetch_miss 2013753
Core_0_L2C_writebacks 1670883
Core_0_L2C_writeback_hit 1670796
Core_0_L2C_writeback_miss 87
Core_0_L2C_prefetch_requested 22944633
Core_0_L2C_prefetch_dropped 3354
Core_0_L2C_prefetch_issued 22941279
Core_0_L2C_prefetch_filled 2360946
Core_0_L2C_prefetch_useful 2359271
Core_0_L2C_prefetch_useless 1674
Core_0_L2C_prefetch_late 5891
Core_0_L2C_average_miss_latency 75.16344

Core_0_L2C_rq_access 5322167
Core_0_L2C_rq_forward 0
Core_0_L2C_rq_merged 0
Core_0_L2C_rq_to_cache 5321979
Core_0_L2C_rq_full 0

Core_0_L2C_wq_access 1670883
Core_0_L2C_wq_forward 293
Core_0_L2C_wq_merged 0
Core_0_L2C_wq_to_cache 1670883
Core_0_L2C_wq_full 0

Core_0_L2C_pq_access 22941279
Core_0_L2C_pq_forward 0
Core_0_L2C_pq_merged 31238
Core_0_L2C_pq_to_cache 22909936
Core_0_L2C_pq_full 0

Core_0_L2C_acc_epochs 501283
Core_0_L2C_acc_level_0 43519
Core_0_L2C_acc_level_1 10129
Core_0_L2C_acc_level_2 10111
Core_0_L2C_acc_level_3 5667
Core_0_L2C_acc_level_4 12542
Core_0_L2C_acc_level_5 15869
Core_0_L2C_acc_level_6 9783
Core_0_L2C_acc_level_7 19010
Core_0_L2C_acc_level_8 39245
Core_0_L2C_acc_level_9 335408

Core_0_LLC_total_access 19764633
Core_0_LLC_total_hit 15727201
Core_0_LLC_total_miss 4037432
Core_0_LLC_loads 924247
Core_0_LLC_load_hit 854690
Core_0_LLC_load_miss 69557
Core_0_LLC_RFOs 833938
Core_0_LLC_RFO_hit 60080
Core_0_LLC_RFO_miss 773858
Core_0_LLC_prefetches 17039332
Core_0_LLC_prefetch_hit 14440351
Core_0_LLC_prefetch_miss 2598981
Core_0_LLC_writebacks 967116
Core_0_LLC_writeback_hit 372080
Core_0_LLC_writeback_miss 595036
Core_0_LLC_prefetch_requested 0
Core_0_LLC_prefetch_dropped 0
Core_0_LLC_prefetch_issued 0
Core_0_LLC_prefetch_filled 3063788
Core_0_LLC_prefetch_useful 966314
Core_0_LLC_prefetch_useless 2075635
Core_0_LLC_prefetch_late 2805
Core_0_LLC_average_miss_latency 194.67963

Core_0_LLC_rq_access 1758186
Core_0_LLC_rq_forward 0
Core_0_LLC_rq_merged 0
Core_0_LLC_rq_to_cache 1758186
Core_0_LLC_rq_full 0

Core_0_LLC_wq_access 967116
Core_0_LLC_wq_forward 0
Core_0_LLC_wq_merged 0
Core_0_LLC_wq_to_cache 967116
Core_0_LLC_wq_full 0

Core_0_LLC_pq_access 20754226
Core_0_LLC_pq_forward 0
Core_0_LLC_pq_merged 8423
Core_0_LLC_pq_to_cache 20745803
Core_0_LLC_pq_full 0

Core_0_LLC_acc_epochs 505427
Core_0_LLC_acc_level_0 73352
Core_0_LLC_acc_level_1 61358
Core_0_LLC_acc_level_2 149268
Core_0_LLC_acc_level_3 74228
Core_0_LLC_acc_level_4 34750
Core_0_LLC_acc_level_5 33182
Core_0_LLC_acc_level_6 21606
Core_0_LLC_acc_level_7 16076
Core_0_LLC_acc_level_8 10331
Core_0_LLC_acc_level_9 31276

Core_0_major_page_fault 0
Core_0_minor_page_fault 14596

spp.pref.total 22944633
spp.pref.at_L2 2570570
spp.pref.at_LLC 20374063

spp.depth.max 11
spp.depth.min 0
spp.depth.avg 5

spp.breadth.max 2
spp.breadth.min 0
spp.breadth.avg 0

delta_1 21821208
delta_16 935009
delta_-15 785036
delta_32 117765
delta_-47 83958
delta_-31 75508
delta_31 57964
delta_-30 22720
delta_-1 8494
delta_-16 3598
delta_-8 2590
delta_4 2464
delta_3 2355
delta_-10 2283
delta_46 2139
delta_19 1817
delta_2 1648
delta_-45 1253
delta_-2 1201
delta_-5 1128
delta_25 1080
delta_-38 973
delta_-44 898
delta_-9 815
delta_15 782
delta_63 649
delta_-4 648
delta_34 539
delta_-60 537
delta_-29 498
delta_-18 482
delta_-3 473
delta_7 413
delta_-34 377
delta_10 376
delta_47 365
delta_-48 364
delta_29 359
delta_13 356
delta_-40 337
delta_41 336
delta_-13 321
delta_-46 317
delta_50 266
delta_9 256
delta_-6 245
delta_57 232
delta_-11 158
delta_48 146
delta_-14 137
delta_61 136
delta_12 84
delta_17 77
delta_6 76
delta_-32 61
delta_-37 59
delta_-43 46
delta_23 46
delta_18 44
delta_-61 39
delta_-7 6
delta_20 6
delta_-21 3

depth_1_delta_1 3663304
depth_1_delta_16 275538
depth_1_delta_-15 228366
depth_1_delta_32 38215
depth_1_delta_-31 32758
depth_1_delta_31 32321
depth_1_delta_-47 23527
depth_1_delta_-30 15518
depth_1_delta_-1 7126
depth_1_delta_-16 3406
depth_1_delta_3 1951
depth_1_delta_-8 1877
depth_1_delta_46 1785
depth_1_delta_4 1731
depth_1_delta_-10 1724
depth_1_delta_19 1708
depth_1_delta_2 1241
depth_1_delta_-45 1192
depth_1_delta_-2 1108
depth_1_delta_25 1073
depth_1_delta_-5 813
depth_1_delta_-9 776
depth_1_delta_15 767
depth_1_delta_-44 743
depth_1_delta_-38 666
depth_1_delta_63 649
depth_1_delta_-4 572
depth_1_delta_-60 535
depth_1_delta_34 526
depth_1_delta_-29 498
depth_1_delta_-3 438
depth_1_delta_7 407
depth_1_delta_-18 373
depth_1_delta_47 362
depth_1_delta_-48 361
depth_1_delta_29 358
depth_1_delta_-34 340
depth_1_delta_-46 317
depth_1_delta_13 313
depth_1_delta_41 295
depth_1_delta_-40 281
depth_1_delta_-13 279
depth_1_delta_10 276
depth_1_delta_9 256
depth_1_delta_50 252
depth_1_delta_-6 245
depth_1_delta_57 232
depth_1_delta_-11 158
depth_1_delta_48 146
depth_1_delta_-14 137
depth_1_delta_61 136
depth_1_delta_12 77
depth_1_delta_17 77
depth_1_delta_6 76
depth_1_delta_-32 59
depth_1_delta_-37 56
depth_1_delta_23 46
depth_1_delta_-43 42
depth_1_delta_-61 37
depth_1_delta_18 32
depth_1_delta_-7 6
depth_1_delta_20 4
depth_1_delta_-21 3
depth_2_delta_1 3531883
depth_2_delta_16 237368
depth_2_delta_-15 196951
depth_2_delta_32 31074
depth_2_delta_-31 23375
depth_2_delta_-47 18671
depth_2_delta_31 14387
depth_2_delta_-30 6987
depth_2_delta_4 722
depth_2_delta_-1 700
depth_2_delta_-8 632
depth_2_delta_-10 559
depth_2_delta_3 394
depth_2_delta_2 383
depth_2_delta_46 352
depth_2_delta_-38 307
depth_2_delta_-5 270
depth_2_delta_-16 192
depth_2_delta_-44 155
depth_2_delta_-18 109
depth_2_delta_19 103
depth_2_delta_10 100
depth_2_delta_-2 93
depth_2_delta_-4 76
depth_2_delta_-45 61
depth_2_delta_13 43
depth_2_delta_-13 42
depth_2_delta_-40 42
depth_2_delta_41 41
depth_2_delta_-34 37
depth_2_delta_-9 35
depth_2_delta_-3 35
depth_2_delta_15 15
depth_2_delta_50 14
depth_2_delta_34 13
depth_2_delta_18 12
depth_2_delta_25 7
depth_2_delta_12 7
depth_2_delta_7 6
depth_2_delta_-43 4
depth_2_delta_47 3
depth_2_delta_-48 3
depth_2_delta_-37 3
depth_2_delta_-32 2
depth_2_delta_-60 2
depth_2_delta_20 2
depth_2_delta_-61 2
depth_2_delta_29 1
depth_3_delta_1 3382158
depth_3_delta_16 182342
depth_3_delta_-15 148578
depth_3_delta_32 20290
depth_3_delta_-47 16236
depth_3_delta_-31 13631
depth_3_delta_31 7951
depth_3_delta_-1 658
depth_3_delta_-30 214
depth_3_delta_-8 79
depth_3_delta_-5 45
depth_3_delta_2 24
depth_3_delta_-40 12
depth_3_delta_4 11
depth_3_delta_3 10
depth_3_delta_19 6
depth_3_delta_-9 4
depth_3_delta_46 2
depth_4_delta_1 3213072
depth_4_delta_16 125120
depth_4_delta_-15 105159
depth_4_delta_32 14628
depth_4_delta_-47 12927
depth_4_delta_-31 4057
depth_4_delta_31 2618
depth_4_delta_-1 10
depth_4_delta_-8 2
depth_4_delta_-40 2
depth_4_delta_-30 1
depth_5_delta_1 2899254
depth_5_delta_16 78795
depth_5_delta_-15 72412
depth_5_delta_32 9965
depth_5_delta_-47 8952
depth_5_delta_-31 1353
depth_5_delta_31 650
depth_6_delta_1 2191180
depth_6_delta_16 31396
depth_6_delta_-15 28664
depth_6_delta_-47 3449
depth_6_delta_32 3378
depth_6_delta_-31 320
depth_6_delta_31 37
depth_7_delta_1 1368537
depth_7_delta_-15 3973
depth_7_delta_16 3613
depth_7_delta_32 214
depth_7_delta_-47 196
depth_7_delta_-31 14
depth_8_delta_1 930397
depth_8_delta_-15 697
depth_8_delta_16 614
depth_8_delta_32 1
depth_9_delta_1 512640
depth_9_delta_-15 224
depth_9_delta_16 211
depth_10_delta_1 128513
depth_10_delta_16 12
depth_10_delta_-15 12
depth_11_delta_1 270

Channel_0_RQ_row_buffer_hit 700365
Channel_0_RQ_row_buffer_miss 2742002
Channel_0_WQ_row_buffer_hit 256368
Channel_0_WQ_row_buffer_miss 707721
Channel_0_WQ_full 0
Channel_0_dbus_congested 959058

avg_congested_cycle 1

DRAM_bw_pochs 2021705
DRAM_bw_level_0 2019049
DRAM_bw_level_1 2632
DRAM_bw_level_2 24
DRAM_bw_level_3 0
