*************************************************
   ChampSim Multicore Out-of-Order Simulator
   Last compiled: Dec 11 2024 17:59:53
*************************************************
parsing config file: /home/functionmain/桌面/Pythia/config/pythia.ini

trace_0 /home/functionmain/桌面/Pythia/traces/437.leslie3d-271B.champsimtrace.xz
adding L2C_PREFETCHER: Scooby
Initialize SHIP state
warmup_instructions 100000000
simulation_instructions 500000000
champsim_seed 220
measure_ipc 0
measure_ipc_epoch 1000
measure_dram_bw 1
measure_dram_bw_epoch 256
measure_cache_acc 1
measure_cache_acc_epoch 1024
l1d_perfect 0
l2c_perfect 0
llc_perfect 0
l1d_semi_perfect 0
l2c_semi_perfect 0
llc_semi_perfect 0
semi_perfect_cache_page_buffer_size 64

num_cpus 1
cpu_freq 4000
dram_io_freq 600
page_size 4096
block_size 64
max_read_per_cycle 8
max_fill_per_cycle 1
dram_channels 1
log2_dram_channels 0
dram_ranks 1
dram_banks 8
dram_rows 65536
dram_columns 128
dram_row_size 8
dram_size 4096
dram_pages 1048576

fetch_width 6
decode_width 6
exec_width 4
lq_width 2
sq_width 2
retire_width 4
scheduler_size 128
branch_mispredict_penalty 20
rob_size 256
lq_size 72
sq_size 56
num_instr_destinations_sparc 4
num_instr_destinations 2
num_instr_sources 4

itlb_set 16
itlb_way 8
itlb_rq_size 16
itlb_wq_size 16
itlb_pq_size 0
itlb_mshr_size 8
itlb_latency 1

dtlb_set 16
dtlb_way 4
dtlb_rq_size 16
dtlb_wq_size 16
dtlb_pq_size 0
dtlb_mshr_size 8
dtlb_latency 1

stlb_set 128
stlb_way 12
stlb_rq_size 32
stlb_wq_size 32
stlb_pq_size 0
stlb_mshr_size 16
stlb_latency 8

l1i_size 32
l1i_set 64
l1i_way 8
l1i_rq_size 64
l1i_wq_size 64
l1i_pq_size 8
l1i_mshr_size 8
l1i_latency 1

l1d_size 32
l1d_set 64
l1d_way 8
l1d_rq_size 64
l1d_wq_size 64
l1d_pq_size 8
l1d_mshr_size 16
l1d_latency 4

l2c_size 256
l2c_set 512
l2c_way 8
l2c_rq_size 32
l2c_wq_size 32
l2c_pq_size 32
l2c_mshr_size 32
l2c_latency 10

llc_size 2048
llc_set 2048
llc_way 16
llc_rq_size 32
llc_wq_size 32
llc_pq_size 32
llc_mshr_size 64
llc_latency 20

dram_channel_width 8
dram_wq_size 64
dram_rq_size 64
tRP 15
tRCD 15
tCAS 12.5
dram_dbus_turn_around_time 30
dram_write_high_wm 56
dram_write_low_wm 48
min_dram_writes_per_switch 16
dram_mtps 600
dram_dbus_return_time 53

scooby_alpha 0.0065088
scooby_gamma 0.556301
scooby_epsilon 0.00182284
scooby_state_num_bits 10
scooby_max_states 1024
scooby_seed 200
scooby_policy EGreedy
scooby_learning_type SARSA
scooby_actions 1,3,4,5,10,11,12,22,23,30,32,-1,-3,-6,0,
scooby_max_actions 15
scooby_pt_size 256
scooby_st_size 64
scooby_max_pcs 5
scooby_max_offsets 5
scooby_max_deltas 5
scooby_reward_none -4
scooby_reward_incorrect -8
scooby_reward_correct_untimely 12
scooby_reward_correct_timely 20
scooby_brain_zero_init 0
scooby_enable_reward_all 0
scooby_enable_track_multiple 0
scooby_enable_reward_out_of_bounds 1
scooby_reward_out_of_bounds -12
scooby_state_type 1
scooby_state_hash_type 11
scooby_access_debug 0
scooby_print_access_debug 0
scooby_print_access_debug_pc deadbeef
scooby_print_access_debug_pc_count 0
scooby_print_trace 0
scooby_enable_state_action_stats 1
scooby_enable_reward_tracker_hit 0
scooby_reward_tracker_hit -2
scooby_enable_featurewise_engine 1
scooby_pref_degree 1
scooby_enable_dyn_degree 1
scooby_max_to_avg_q_thresholds 0.5,1,2,
scooby_dyn_degrees 1,2,4,4,
scooby_multi_deg_select_type 2
scooby_last_pref_offset_conf_thresholds 1,3,8,
scooby_dyn_degrees_type2 1,2,4,6,
scooby_action_tracker_size 2
scooby_high_bw_thresh 4
scooby_enable_hbw_reward 1
scooby_reward_hbw_correct_timely 20
scooby_reward_hbw_correct_untimely 12
scooby_reward_hbw_incorrect -14
scooby_reward_hbw_none -2
scooby_reward_hbw_out_of_bounds -12
scooby_reward_hbw_tracker_hit -2
scooby_last_pref_offset_conf_thresholds_hbw 1,3,8,
scooby_dyn_degrees_type2_hbw 1,2,4,6,

le_enable_trace 0
le_trace_interval 0
le_trace_file_name 
le_trace_state 0
le_enable_score_plot 0
le_plot_file_name 
le_plot_actions 
le_enable_action_trace 0
le_action_trace_interval 0
le_action_trace_name 
le_enable_action_plot 0

le_featurewise_active_features PC, PC_Delta
le_featurewise_num_tilings 3,3,
le_featurewise_num_tiles 128,128,
le_featurewise_hash_types 2,2,
le_featurewise_enable_tiling_offset 1,1,
le_featurewise_max_q_thresh 0.5
le_featurewise_enable_action_fallback 1
le_featurewise_feature_weights 1,1,
le_featurewise_enable_dynamic_weight 0
le_featurewise_weight_gradient 0.001
le_featurewise_disable_adjust_weight_all_features_align 1
le_featurewise_selective_update 0
le_featurewise_pooling_type 2
le_featurewise_enable_dyn_action_fallback 1
le_featurewise_bw_acc_check_level 1
le_featurewise_acc_thresh 2
le_featurewise_enable_trace 0
le_featurewise_trace_feature_type 0
le_featurewise_trace_feature 
le_featurewise_trace_interval 0
le_featurewise_trace_record_count 0
le_featurewise_trace_file_name 
le_featurewise_enable_score_plot 0
le_featurewise_plot_actions 
le_featurewise_plot_file_name 


Heartbeat CPU  0 instructions:    1000002 cycles:     515374 heartbeat IPC: 1.94034 cumulative IPC: 1.94034 (Simulation time: 0 hr 0 min 2 sec) 
Heartbeat CPU  0 instructions:    2000001 cycles:    1029993 heartbeat IPC: 1.94318 cumulative IPC: 1.94176 (Simulation time: 0 hr 0 min 4 sec) 
Heartbeat CPU  0 instructions:    3000003 cycles:    1544908 heartbeat IPC: 1.94207 cumulative IPC: 1.94187 (Simulation time: 0 hr 0 min 6 sec) 
Heartbeat CPU  0 instructions:    4000000 cycles:    2059657 heartbeat IPC: 1.94269 cumulative IPC: 1.94207 (Simulation time: 0 hr 0 min 8 sec) 
Heartbeat CPU  0 instructions:    5000001 cycles:    2574496 heartbeat IPC: 1.94236 cumulative IPC: 1.94213 (Simulation time: 0 hr 0 min 11 sec) 
Heartbeat CPU  0 instructions:    6000001 cycles:    3089271 heartbeat IPC: 1.94260 cumulative IPC: 1.94221 (Simulation time: 0 hr 0 min 13 sec) 
Heartbeat CPU  0 instructions:    7000003 cycles:    3604482 heartbeat IPC: 1.94096 cumulative IPC: 1.94203 (Simulation time: 0 hr 0 min 15 sec) 
Heartbeat CPU  0 instructions:    8000000 cycles:    4119482 heartbeat IPC: 1.94174 cumulative IPC: 1.94199 (Simulation time: 0 hr 0 min 17 sec) 
Heartbeat CPU  0 instructions:    9000000 cycles:    4634204 heartbeat IPC: 1.94280 cumulative IPC: 1.94208 (Simulation time: 0 hr 0 min 19 sec) 
Heartbeat CPU  0 instructions:   10000003 cycles:    5149154 heartbeat IPC: 1.94194 cumulative IPC: 1.94207 (Simulation time: 0 hr 0 min 21 sec) 
Heartbeat CPU  0 instructions:   11000000 cycles:    5664152 heartbeat IPC: 1.94175 cumulative IPC: 1.94204 (Simulation time: 0 hr 0 min 23 sec) 
Heartbeat CPU  0 instructions:   12000000 cycles:    6178820 heartbeat IPC: 1.94300 cumulative IPC: 1.94212 (Simulation time: 0 hr 0 min 25 sec) 
Heartbeat CPU  0 instructions:   13000001 cycles:    6693798 heartbeat IPC: 1.94183 cumulative IPC: 1.94210 (Simulation time: 0 hr 0 min 27 sec) 
Heartbeat CPU  0 instructions:   14000002 cycles:    7208976 heartbeat IPC: 1.94108 cumulative IPC: 1.94202 (Simulation time: 0 hr 0 min 29 sec) 
Heartbeat CPU  0 instructions:   15000000 cycles:    7723694 heartbeat IPC: 1.94281 cumulative IPC: 1.94208 (Simulation time: 0 hr 0 min 32 sec) 
Heartbeat CPU  0 instructions:   16000000 cycles:    8238679 heartbeat IPC: 1.94180 cumulative IPC: 1.94206 (Simulation time: 0 hr 0 min 34 sec) 
Heartbeat CPU  0 instructions:   17000003 cycles:    8753805 heartbeat IPC: 1.94128 cumulative IPC: 1.94201 (Simulation time: 0 hr 0 min 36 sec) 
Heartbeat CPU  0 instructions:   18000002 cycles:    9268356 heartbeat IPC: 1.94344 cumulative IPC: 1.94209 (Simulation time: 0 hr 0 min 38 sec) 
Heartbeat CPU  0 instructions:   19000003 cycles:    9783259 heartbeat IPC: 1.94212 cumulative IPC: 1.94209 (Simulation time: 0 hr 0 min 40 sec) 
Heartbeat CPU  0 instructions:   20000000 cycles:   10298253 heartbeat IPC: 1.94176 cumulative IPC: 1.94208 (Simulation time: 0 hr 0 min 42 sec) 
Heartbeat CPU  0 instructions:   21000001 cycles:   10813097 heartbeat IPC: 1.94234 cumulative IPC: 1.94209 (Simulation time: 0 hr 0 min 44 sec) 
Heartbeat CPU  0 instructions:   22000000 cycles:   11328028 heartbeat IPC: 1.94201 cumulative IPC: 1.94209 (Simulation time: 0 hr 0 min 46 sec) 
Heartbeat CPU  0 instructions:   23000003 cycles:   11843146 heartbeat IPC: 1.94131 cumulative IPC: 1.94205 (Simulation time: 0 hr 0 min 48 sec) 
Heartbeat CPU  0 instructions:   24000000 cycles:   12357905 heartbeat IPC: 1.94265 cumulative IPC: 1.94208 (Simulation time: 0 hr 0 min 50 sec) 
Heartbeat CPU  0 instructions:   25000000 cycles:   12872693 heartbeat IPC: 1.94255 cumulative IPC: 1.94210 (Simulation time: 0 hr 0 min 52 sec) 
Heartbeat CPU  0 instructions:   26000003 cycles:   13387648 heartbeat IPC: 1.94192 cumulative IPC: 1.94209 (Simulation time: 0 hr 0 min 55 sec) 
Heartbeat CPU  0 instructions:   27000002 cycles:   13902486 heartbeat IPC: 1.94236 cumulative IPC: 1.94210 (Simulation time: 0 hr 0 min 57 sec) 
Heartbeat CPU  0 instructions:   28000000 cycles:   14417215 heartbeat IPC: 1.94277 cumulative IPC: 1.94212 (Simulation time: 0 hr 0 min 59 sec) 
Heartbeat CPU  0 instructions:   29000000 cycles:   14932161 heartbeat IPC: 1.94195 cumulative IPC: 1.94212 (Simulation time: 0 hr 1 min 1 sec) 
Heartbeat CPU  0 instructions:   30000002 cycles:   15447029 heartbeat IPC: 1.94225 cumulative IPC: 1.94212 (Simulation time: 0 hr 1 min 3 sec) 
Heartbeat CPU  0 instructions:   31000001 cycles:   15961686 heartbeat IPC: 1.94304 cumulative IPC: 1.94215 (Simulation time: 0 hr 1 min 5 sec) 
Heartbeat CPU  0 instructions:   32000000 cycles:   16476905 heartbeat IPC: 1.94092 cumulative IPC: 1.94211 (Simulation time: 0 hr 1 min 7 sec) 
Heartbeat CPU  0 instructions:   33000000 cycles:   16991867 heartbeat IPC: 1.94189 cumulative IPC: 1.94211 (Simulation time: 0 hr 1 min 9 sec) 
Heartbeat CPU  0 instructions:   34000001 cycles:   17506588 heartbeat IPC: 1.94280 cumulative IPC: 1.94213 (Simulation time: 0 hr 1 min 11 sec) 
Heartbeat CPU  0 instructions:   35000000 cycles:   18021582 heartbeat IPC: 1.94177 cumulative IPC: 1.94212 (Simulation time: 0 hr 1 min 13 sec) 
Heartbeat CPU  0 instructions:   36000000 cycles:   18536548 heartbeat IPC: 1.94188 cumulative IPC: 1.94211 (Simulation time: 0 hr 1 min 16 sec) 
Heartbeat CPU  0 instructions:   37000001 cycles:   19051332 heartbeat IPC: 1.94256 cumulative IPC: 1.94212 (Simulation time: 0 hr 1 min 18 sec) 
Heartbeat CPU  0 instructions:   38000000 cycles:   19566309 heartbeat IPC: 1.94183 cumulative IPC: 1.94211 (Simulation time: 0 hr 1 min 20 sec) 
Heartbeat CPU  0 instructions:   39000002 cycles:   20081398 heartbeat IPC: 1.94142 cumulative IPC: 1.94210 (Simulation time: 0 hr 1 min 22 sec) 
Heartbeat CPU  0 instructions:   40000000 cycles:   20596122 heartbeat IPC: 1.94278 cumulative IPC: 1.94211 (Simulation time: 0 hr 1 min 24 sec) 
Heartbeat CPU  0 instructions:   41000000 cycles:   21110964 heartbeat IPC: 1.94234 cumulative IPC: 1.94212 (Simulation time: 0 hr 1 min 26 sec) 
Heartbeat CPU  0 instructions:   42000000 cycles:   21625953 heartbeat IPC: 1.94179 cumulative IPC: 1.94211 (Simulation time: 0 hr 1 min 28 sec) 
Heartbeat CPU  0 instructions:   43000003 cycles:   22140532 heartbeat IPC: 1.94334 cumulative IPC: 1.94214 (Simulation time: 0 hr 1 min 30 sec) 
Heartbeat CPU  0 instructions:   44000000 cycles:   22655401 heartbeat IPC: 1.94224 cumulative IPC: 1.94214 (Simulation time: 0 hr 1 min 32 sec) 
Heartbeat CPU  0 instructions:   45000003 cycles:   23170469 heartbeat IPC: 1.94150 cumulative IPC: 1.94213 (Simulation time: 0 hr 1 min 34 sec) 
Heartbeat CPU  0 instructions:   46000001 cycles:   23685243 heartbeat IPC: 1.94260 cumulative IPC: 1.94214 (Simulation time: 0 hr 1 min 37 sec) 
Heartbeat CPU  0 instructions:   47000000 cycles:   24200092 heartbeat IPC: 1.94232 cumulative IPC: 1.94214 (Simulation time: 0 hr 1 min 39 sec) 
Heartbeat CPU  0 instructions:   48000000 cycles:   24715368 heartbeat IPC: 1.94071 cumulative IPC: 1.94211 (Simulation time: 0 hr 1 min 41 sec) 
Heartbeat CPU  0 instructions:   49000000 cycles:   25230296 heartbeat IPC: 1.94202 cumulative IPC: 1.94211 (Simulation time: 0 hr 1 min 43 sec) 
Heartbeat CPU  0 instructions:   50000000 cycles:   25745085 heartbeat IPC: 1.94254 cumulative IPC: 1.94212 (Simulation time: 0 hr 1 min 45 sec) 
Heartbeat CPU  0 instructions:   51000003 cycles:   26260064 heartbeat IPC: 1.94183 cumulative IPC: 1.94211 (Simulation time: 0 hr 1 min 47 sec) 
Heartbeat CPU  0 instructions:   52000000 cycles:   26774852 heartbeat IPC: 1.94254 cumulative IPC: 1.94212 (Simulation time: 0 hr 1 min 49 sec) 
Heartbeat CPU  0 instructions:   53000001 cycles:   27289773 heartbeat IPC: 1.94205 cumulative IPC: 1.94212 (Simulation time: 0 hr 1 min 51 sec) 
Heartbeat CPU  0 instructions:   54000003 cycles:   27804900 heartbeat IPC: 1.94127 cumulative IPC: 1.94210 (Simulation time: 0 hr 1 min 53 sec) 
Heartbeat CPU  0 instructions:   55000003 cycles:   28319727 heartbeat IPC: 1.94240 cumulative IPC: 1.94211 (Simulation time: 0 hr 1 min 55 sec) 
Heartbeat CPU  0 instructions:   56000000 cycles:   28834420 heartbeat IPC: 1.94290 cumulative IPC: 1.94212 (Simulation time: 0 hr 1 min 57 sec) 
Heartbeat CPU  0 instructions:   57000002 cycles:   29376186 heartbeat IPC: 1.84582 cumulative IPC: 1.94035 (Simulation time: 0 hr 2 min 0 sec) 
Heartbeat CPU  0 instructions:   58000001 cycles:   29923363 heartbeat IPC: 1.82756 cumulative IPC: 1.93828 (Simulation time: 0 hr 2 min 2 sec) 
Heartbeat CPU  0 instructions:   59000001 cycles:   30470473 heartbeat IPC: 1.82779 cumulative IPC: 1.93630 (Simulation time: 0 hr 2 min 4 sec) 
Heartbeat CPU  0 instructions:   60000000 cycles:   31017737 heartbeat IPC: 1.82727 cumulative IPC: 1.93438 (Simulation time: 0 hr 2 min 6 sec) 
Heartbeat CPU  0 instructions:   61000003 cycles:   31564903 heartbeat IPC: 1.82760 cumulative IPC: 1.93253 (Simulation time: 0 hr 2 min 8 sec) 
Heartbeat CPU  0 instructions:   62000003 cycles:   32111895 heartbeat IPC: 1.82818 cumulative IPC: 1.93075 (Simulation time: 0 hr 2 min 10 sec) 
Heartbeat CPU  0 instructions:   63000003 cycles:   32659058 heartbeat IPC: 1.82761 cumulative IPC: 1.92902 (Simulation time: 0 hr 2 min 13 sec) 
Heartbeat CPU  0 instructions:   64000000 cycles:   33206064 heartbeat IPC: 1.82813 cumulative IPC: 1.92736 (Simulation time: 0 hr 2 min 15 sec) 
Heartbeat CPU  0 instructions:   65000002 cycles:   33748873 heartbeat IPC: 1.84227 cumulative IPC: 1.92599 (Simulation time: 0 hr 2 min 17 sec) 
Heartbeat CPU  0 instructions:   66000002 cycles:   34280550 heartbeat IPC: 1.88084 cumulative IPC: 1.92529 (Simulation time: 0 hr 2 min 19 sec) 
Heartbeat CPU  0 instructions:   67000001 cycles:   34812522 heartbeat IPC: 1.87980 cumulative IPC: 1.92459 (Simulation time: 0 hr 2 min 21 sec) 
Heartbeat CPU  0 instructions:   68000000 cycles:   35344193 heartbeat IPC: 1.88086 cumulative IPC: 1.92394 (Simulation time: 0 hr 2 min 23 sec) 
Heartbeat CPU  0 instructions:   69000003 cycles:   35876067 heartbeat IPC: 1.88015 cumulative IPC: 1.92329 (Simulation time: 0 hr 2 min 26 sec) 
Heartbeat CPU  0 instructions:   70000000 cycles:   36407853 heartbeat IPC: 1.88045 cumulative IPC: 1.92266 (Simulation time: 0 hr 2 min 28 sec) 
Heartbeat CPU  0 instructions:   71000000 cycles:   36939661 heartbeat IPC: 1.88038 cumulative IPC: 1.92205 (Simulation time: 0 hr 2 min 30 sec) 
Heartbeat CPU  0 instructions:   72000000 cycles:   37471365 heartbeat IPC: 1.88075 cumulative IPC: 1.92147 (Simulation time: 0 hr 2 min 32 sec) 
Heartbeat CPU  0 instructions:   73000000 cycles:   38003306 heartbeat IPC: 1.87991 cumulative IPC: 1.92089 (Simulation time: 0 hr 2 min 34 sec) 
Heartbeat CPU  0 instructions:   74000001 cycles:   38534689 heartbeat IPC: 1.88188 cumulative IPC: 1.92035 (Simulation time: 0 hr 2 min 36 sec) 
Heartbeat CPU  0 instructions:   75000001 cycles:   39066354 heartbeat IPC: 1.88088 cumulative IPC: 1.91981 (Simulation time: 0 hr 2 min 38 sec) 
Heartbeat CPU  0 instructions:   76000000 cycles:   39597597 heartbeat IPC: 1.88238 cumulative IPC: 1.91931 (Simulation time: 0 hr 2 min 41 sec) 
Heartbeat CPU  0 instructions:   77000003 cycles:   40129325 heartbeat IPC: 1.88067 cumulative IPC: 1.91880 (Simulation time: 0 hr 2 min 43 sec) 
Heartbeat CPU  0 instructions:   78000002 cycles:   40660631 heartbeat IPC: 1.88215 cumulative IPC: 1.91832 (Simulation time: 0 hr 2 min 45 sec) 
Heartbeat CPU  0 instructions:   79000000 cycles:   41192307 heartbeat IPC: 1.88084 cumulative IPC: 1.91783 (Simulation time: 0 hr 2 min 47 sec) 
Heartbeat CPU  0 instructions:   80000000 cycles:   41723604 heartbeat IPC: 1.88219 cumulative IPC: 1.91738 (Simulation time: 0 hr 2 min 49 sec) 
Heartbeat CPU  0 instructions:   81000003 cycles:   42255278 heartbeat IPC: 1.88086 cumulative IPC: 1.91692 (Simulation time: 0 hr 2 min 51 sec) 
Heartbeat CPU  0 instructions:   82000003 cycles:   42786644 heartbeat IPC: 1.88194 cumulative IPC: 1.91649 (Simulation time: 0 hr 2 min 53 sec) 
Heartbeat CPU  0 instructions:   83000000 cycles:   43373666 heartbeat IPC: 1.70351 cumulative IPC: 1.91360 (Simulation time: 0 hr 2 min 56 sec) 
Heartbeat CPU  0 instructions:   84000000 cycles:   43981015 heartbeat IPC: 1.64650 cumulative IPC: 1.90991 (Simulation time: 0 hr 2 min 58 sec) 
Heartbeat CPU  0 instructions:   85000001 cycles:   44588541 heartbeat IPC: 1.64602 cumulative IPC: 1.90632 (Simulation time: 0 hr 3 min 1 sec) 
Heartbeat CPU  0 instructions:   86000001 cycles:   45195947 heartbeat IPC: 1.64635 cumulative IPC: 1.90283 (Simulation time: 0 hr 3 min 4 sec) 
Heartbeat CPU  0 instructions:   87000002 cycles:   45803454 heartbeat IPC: 1.64607 cumulative IPC: 1.89942 (Simulation time: 0 hr 3 min 6 sec) 
Heartbeat CPU  0 instructions:   88000000 cycles:   46411050 heartbeat IPC: 1.64583 cumulative IPC: 1.89610 (Simulation time: 0 hr 3 min 9 sec) 
Heartbeat CPU  0 instructions:   89000002 cycles:   47018679 heartbeat IPC: 1.64574 cumulative IPC: 1.89286 (Simulation time: 0 hr 3 min 11 sec) 
Heartbeat CPU  0 instructions:   90000003 cycles:   47626056 heartbeat IPC: 1.64643 cumulative IPC: 1.88972 (Simulation time: 0 hr 3 min 14 sec) 
Heartbeat CPU  0 instructions:   91000000 cycles:   48233537 heartbeat IPC: 1.64614 cumulative IPC: 1.88665 (Simulation time: 0 hr 3 min 16 sec) 
Heartbeat CPU  0 instructions:   92000000 cycles:   48840918 heartbeat IPC: 1.64641 cumulative IPC: 1.88367 (Simulation time: 0 hr 3 min 19 sec) 
Heartbeat CPU  0 instructions:   93000000 cycles:   49448429 heartbeat IPC: 1.64606 cumulative IPC: 1.88075 (Simulation time: 0 hr 3 min 22 sec) 
Heartbeat CPU  0 instructions:   94000001 cycles:   50055820 heartbeat IPC: 1.64639 cumulative IPC: 1.87790 (Simulation time: 0 hr 3 min 24 sec) 
Heartbeat CPU  0 instructions:   95000003 cycles:   50663202 heartbeat IPC: 1.64641 cumulative IPC: 1.87513 (Simulation time: 0 hr 3 min 27 sec) 
Heartbeat CPU  0 instructions:   96000000 cycles:   51270787 heartbeat IPC: 1.64586 cumulative IPC: 1.87241 (Simulation time: 0 hr 3 min 29 sec) 
Heartbeat CPU  0 instructions:   97000000 cycles:   51878447 heartbeat IPC: 1.64566 cumulative IPC: 1.86976 (Simulation time: 0 hr 3 min 32 sec) 
Heartbeat CPU  0 instructions:   98000002 cycles:   52485938 heartbeat IPC: 1.64612 cumulative IPC: 1.86717 (Simulation time: 0 hr 3 min 35 sec) 
Heartbeat CPU  0 instructions:   99000003 cycles:   53093413 heartbeat IPC: 1.64616 cumulative IPC: 1.86464 (Simulation time: 0 hr 3 min 37 sec) 
Heartbeat CPU  0 instructions:  100000000 cycles:   53700777 heartbeat IPC: 1.64645 cumulative IPC: 1.86217 (Simulation time: 0 hr 3 min 40 sec) 

Warmup complete CPU  0 instructions:  100000002 cycles:   53700778 (Simulation time: 0 hr 3 min 40 sec) 

Heartbeat CPU  0 instructions:  101000003 cycles:   54777640 heartbeat IPC: 0.92863 cumulative IPC: 0.92863 (Simulation time: 0 hr 3 min 43 sec) 
Heartbeat CPU  0 instructions:  102000000 cycles:   55852230 heartbeat IPC: 0.93058 cumulative IPC: 0.92960 (Simulation time: 0 hr 3 min 46 sec) 
Heartbeat CPU  0 instructions:  103000000 cycles:   56934469 heartbeat IPC: 0.92401 cumulative IPC: 0.92773 (Simulation time: 0 hr 3 min 49 sec) 
Heartbeat CPU  0 instructions:  104000000 cycles:   58020824 heartbeat IPC: 0.92051 cumulative IPC: 0.92592 (Simulation time: 0 hr 3 min 52 sec) 
Heartbeat CPU  0 instructions:  105000001 cycles:   59097665 heartbeat IPC: 0.92864 cumulative IPC: 0.92646 (Simulation time: 0 hr 3 min 55 sec) 
Heartbeat CPU  0 instructions:  106000001 cycles:   60189365 heartbeat IPC: 0.91600 cumulative IPC: 0.92470 (Simulation time: 0 hr 3 min 58 sec) 
Heartbeat CPU  0 instructions:  107000002 cycles:   61279767 heartbeat IPC: 0.91709 cumulative IPC: 0.92361 (Simulation time: 0 hr 4 min 1 sec) 
Heartbeat CPU  0 instructions:  108000000 cycles:   62386966 heartbeat IPC: 0.90318 cumulative IPC: 0.92100 (Simulation time: 0 hr 4 min 4 sec) 
Heartbeat CPU  0 instructions:  109000002 cycles:   63481323 heartbeat IPC: 0.91378 cumulative IPC: 0.92019 (Simulation time: 0 hr 4 min 8 sec) 
Heartbeat CPU  0 instructions:  110000003 cycles:   64590297 heartbeat IPC: 0.90174 cumulative IPC: 0.91831 (Simulation time: 0 hr 4 min 11 sec) 
Heartbeat CPU  0 instructions:  111000000 cycles:   65682908 heartbeat IPC: 0.91524 cumulative IPC: 0.91803 (Simulation time: 0 hr 4 min 14 sec) 
Heartbeat CPU  0 instructions:  112000000 cycles:   66784178 heartbeat IPC: 0.90804 cumulative IPC: 0.91719 (Simulation time: 0 hr 4 min 17 sec) 
Heartbeat CPU  0 instructions:  113000000 cycles:   67878851 heartbeat IPC: 0.91351 cumulative IPC: 0.91691 (Simulation time: 0 hr 4 min 20 sec) 
Heartbeat CPU  0 instructions:  114000001 cycles:   68977954 heartbeat IPC: 0.90983 cumulative IPC: 0.91640 (Simulation time: 0 hr 4 min 23 sec) 
Heartbeat CPU  0 instructions:  115000002 cycles:   70078734 heartbeat IPC: 0.90845 cumulative IPC: 0.91587 (Simulation time: 0 hr 4 min 26 sec) 
Heartbeat CPU  0 instructions:  116000000 cycles:   71177267 heartbeat IPC: 0.91030 cumulative IPC: 0.91552 (Simulation time: 0 hr 4 min 29 sec) 
Heartbeat CPU  0 instructions:  117000001 cycles:   72280884 heartbeat IPC: 0.90611 cumulative IPC: 0.91496 (Simulation time: 0 hr 4 min 33 sec) 
Heartbeat CPU  0 instructions:  118000002 cycles:   73381890 heartbeat IPC: 0.90826 cumulative IPC: 0.91458 (Simulation time: 0 hr 4 min 36 sec) 
Heartbeat CPU  0 instructions:  119000003 cycles:   74485391 heartbeat IPC: 0.90621 cumulative IPC: 0.91414 (Simulation time: 0 hr 4 min 39 sec) 
Heartbeat CPU  0 instructions:  120000000 cycles:   75581756 heartbeat IPC: 0.91210 cumulative IPC: 0.91404 (Simulation time: 0 hr 4 min 42 sec) 
Heartbeat CPU  0 instructions:  121000003 cycles:   76623161 heartbeat IPC: 0.96024 cumulative IPC: 0.91614 (Simulation time: 0 hr 4 min 45 sec) 
Heartbeat CPU  0 instructions:  122000002 cycles:   77585634 heartbeat IPC: 1.03899 cumulative IPC: 0.92109 (Simulation time: 0 hr 4 min 48 sec) 
Heartbeat CPU  0 instructions:  123000002 cycles:   78534272 heartbeat IPC: 1.05414 cumulative IPC: 0.92617 (Simulation time: 0 hr 4 min 50 sec) 
Heartbeat CPU  0 instructions:  124000000 cycles:   79483226 heartbeat IPC: 1.05379 cumulative IPC: 0.93087 (Simulation time: 0 hr 4 min 53 sec) 
Heartbeat CPU  0 instructions:  125000000 cycles:   80425822 heartbeat IPC: 1.06090 cumulative IPC: 0.93545 (Simulation time: 0 hr 4 min 56 sec) 
Heartbeat CPU  0 instructions:  126000001 cycles:   81327914 heartbeat IPC: 1.10854 cumulative IPC: 0.94110 (Simulation time: 0 hr 4 min 59 sec) 
Heartbeat CPU  0 instructions:  127000002 cycles:   82164842 heartbeat IPC: 1.19485 cumulative IPC: 0.94856 (Simulation time: 0 hr 5 min 1 sec) 
Heartbeat CPU  0 instructions:  128000000 cycles:   82994623 heartbeat IPC: 1.20513 cumulative IPC: 0.95583 (Simulation time: 0 hr 5 min 4 sec) 
Heartbeat CPU  0 instructions:  129000003 cycles:   83828677 heartbeat IPC: 1.19897 cumulative IPC: 0.96256 (Simulation time: 0 hr 5 min 7 sec) 
Heartbeat CPU  0 instructions:  130000003 cycles:   84658824 heartbeat IPC: 1.20461 cumulative IPC: 0.96905 (Simulation time: 0 hr 5 min 9 sec) 
Heartbeat CPU  0 instructions:  131000000 cycles:   85501628 heartbeat IPC: 1.18651 cumulative IPC: 0.97482 (Simulation time: 0 hr 5 min 12 sec) 
Heartbeat CPU  0 instructions:  132000000 cycles:   86323527 heartbeat IPC: 1.21669 cumulative IPC: 0.98091 (Simulation time: 0 hr 5 min 15 sec) 
Heartbeat CPU  0 instructions:  133000002 cycles:   87143314 heartbeat IPC: 1.21983 cumulative IPC: 0.98677 (Simulation time: 0 hr 5 min 17 sec) 
Heartbeat CPU  0 instructions:  134000002 cycles:   87959193 heartbeat IPC: 1.22567 cumulative IPC: 0.99246 (Simulation time: 0 hr 5 min 20 sec) 
Heartbeat CPU  0 instructions:  135000000 cycles:   88775676 heartbeat IPC: 1.22476 cumulative IPC: 0.99786 (Simulation time: 0 hr 5 min 23 sec) 
Heartbeat CPU  0 instructions:  136000000 cycles:   89593134 heartbeat IPC: 1.22330 cumulative IPC: 1.00300 (Simulation time: 0 hr 5 min 25 sec) 
Heartbeat CPU  0 instructions:  137000000 cycles:   90411285 heartbeat IPC: 1.22227 cumulative IPC: 1.00789 (Simulation time: 0 hr 5 min 28 sec) 
Heartbeat CPU  0 instructions:  138000003 cycles:   91236041 heartbeat IPC: 1.21248 cumulative IPC: 1.01238 (Simulation time: 0 hr 5 min 31 sec) 
Heartbeat CPU  0 instructions:  139000001 cycles:   92061378 heartbeat IPC: 1.21162 cumulative IPC: 1.01667 (Simulation time: 0 hr 5 min 33 sec) 
Heartbeat CPU  0 instructions:  140000000 cycles:   92886869 heartbeat IPC: 1.21140 cumulative IPC: 1.02077 (Simulation time: 0 hr 5 min 36 sec) 
Heartbeat CPU  0 instructions:  141000000 cycles:   93715706 heartbeat IPC: 1.20651 cumulative IPC: 1.02462 (Simulation time: 0 hr 5 min 39 sec) 
Heartbeat CPU  0 instructions:  142000000 cycles:   94554060 heartbeat IPC: 1.19281 cumulative IPC: 1.02807 (Simulation time: 0 hr 5 min 41 sec) 
Heartbeat CPU  0 instructions:  143000001 cycles:   95377338 heartbeat IPC: 1.21466 cumulative IPC: 1.03175 (Simulation time: 0 hr 5 min 44 sec) 
Heartbeat CPU  0 instructions:  144000000 cycles:   96198124 heartbeat IPC: 1.21834 cumulative IPC: 1.03536 (Simulation time: 0 hr 5 min 47 sec) 
Heartbeat CPU  0 instructions:  145000003 cycles:   97017552 heartbeat IPC: 1.22037 cumulative IPC: 1.03886 (Simulation time: 0 hr 5 min 49 sec) 
Heartbeat CPU  0 instructions:  146000001 cycles:   97838200 heartbeat IPC: 1.21855 cumulative IPC: 1.04220 (Simulation time: 0 hr 5 min 52 sec) 
Heartbeat CPU  0 instructions:  147000002 cycles:   98657359 heartbeat IPC: 1.22077 cumulative IPC: 1.04545 (Simulation time: 0 hr 5 min 55 sec) 
Heartbeat CPU  0 instructions:  148000000 cycles:   99476838 heartbeat IPC: 1.22029 cumulative IPC: 1.04858 (Simulation time: 0 hr 5 min 57 sec) 
Heartbeat CPU  0 instructions:  149000000 cycles:  100304092 heartbeat IPC: 1.20882 cumulative IPC: 1.05143 (Simulation time: 0 hr 6 min 0 sec) 
Heartbeat CPU  0 instructions:  150000003 cycles:  101134632 heartbeat IPC: 1.20404 cumulative IPC: 1.05410 (Simulation time: 0 hr 6 min 3 sec) 
Heartbeat CPU  0 instructions:  151000001 cycles:  101965052 heartbeat IPC: 1.20421 cumulative IPC: 1.05668 (Simulation time: 0 hr 6 min 5 sec) 
Heartbeat CPU  0 instructions:  152000000 cycles:  102804548 heartbeat IPC: 1.19119 cumulative IPC: 1.05898 (Simulation time: 0 hr 6 min 8 sec) 
Heartbeat CPU  0 instructions:  153000001 cycles:  103627805 heartbeat IPC: 1.21469 cumulative IPC: 1.06155 (Simulation time: 0 hr 6 min 11 sec) 
Heartbeat CPU  0 instructions:  154000003 cycles:  104450362 heartbeat IPC: 1.21572 cumulative IPC: 1.06405 (Simulation time: 0 hr 6 min 14 sec) 
Heartbeat CPU  0 instructions:  155000003 cycles:  105271515 heartbeat IPC: 1.21780 cumulative IPC: 1.06650 (Simulation time: 0 hr 6 min 16 sec) 
Heartbeat CPU  0 instructions:  156000000 cycles:  106090668 heartbeat IPC: 1.22077 cumulative IPC: 1.06891 (Simulation time: 0 hr 6 min 19 sec) 
Heartbeat CPU  0 instructions:  157000000 cycles:  106910755 heartbeat IPC: 1.21938 cumulative IPC: 1.07123 (Simulation time: 0 hr 6 min 21 sec) 
Heartbeat CPU  0 instructions:  158000002 cycles:  107732522 heartbeat IPC: 1.21689 cumulative IPC: 1.07344 (Simulation time: 0 hr 6 min 24 sec) 
Heartbeat CPU  0 instructions:  159000002 cycles:  108559669 heartbeat IPC: 1.20897 cumulative IPC: 1.07549 (Simulation time: 0 hr 6 min 27 sec) 
Heartbeat CPU  0 instructions:  160000000 cycles:  109387208 heartbeat IPC: 1.20840 cumulative IPC: 1.07746 (Simulation time: 0 hr 6 min 30 sec) 
Heartbeat CPU  0 instructions:  161000003 cycles:  110217237 heartbeat IPC: 1.20478 cumulative IPC: 1.07933 (Simulation time: 0 hr 6 min 32 sec) 
Heartbeat CPU  0 instructions:  162000000 cycles:  111040701 heartbeat IPC: 1.21438 cumulative IPC: 1.08127 (Simulation time: 0 hr 6 min 35 sec) 
Heartbeat CPU  0 instructions:  163000001 cycles:  111884671 heartbeat IPC: 1.18488 cumulative IPC: 1.08277 (Simulation time: 0 hr 6 min 38 sec) 
Heartbeat CPU  0 instructions:  164000000 cycles:  112706700 heartbeat IPC: 1.21650 cumulative IPC: 1.08464 (Simulation time: 0 hr 6 min 40 sec) 
Heartbeat CPU  0 instructions:  165000001 cycles:  113529928 heartbeat IPC: 1.21473 cumulative IPC: 1.08643 (Simulation time: 0 hr 6 min 43 sec) 
Heartbeat CPU  0 instructions:  166000003 cycles:  114353674 heartbeat IPC: 1.21397 cumulative IPC: 1.08816 (Simulation time: 0 hr 6 min 46 sec) 
Heartbeat CPU  0 instructions:  167000001 cycles:  115176943 heartbeat IPC: 1.21467 cumulative IPC: 1.08985 (Simulation time: 0 hr 6 min 48 sec) 
Heartbeat CPU  0 instructions:  168000000 cycles:  115997963 heartbeat IPC: 1.21800 cumulative IPC: 1.09154 (Simulation time: 0 hr 6 min 51 sec) 
Heartbeat CPU  0 instructions:  169000001 cycles:  116824841 heartbeat IPC: 1.20937 cumulative IPC: 1.09309 (Simulation time: 0 hr 6 min 54 sec) 
Heartbeat CPU  0 instructions:  170000000 cycles:  117648334 heartbeat IPC: 1.21434 cumulative IPC: 1.09465 (Simulation time: 0 hr 6 min 56 sec) 
Heartbeat CPU  0 instructions:  171000000 cycles:  118476970 heartbeat IPC: 1.20680 cumulative IPC: 1.09608 (Simulation time: 0 hr 6 min 59 sec) 
Heartbeat CPU  0 instructions:  172000000 cycles:  119307161 heartbeat IPC: 1.20454 cumulative IPC: 1.09745 (Simulation time: 0 hr 7 min 2 sec) 
Heartbeat CPU  0 instructions:  173000002 cycles:  120148472 heartbeat IPC: 1.18862 cumulative IPC: 1.09861 (Simulation time: 0 hr 7 min 4 sec) 
Heartbeat CPU  0 instructions:  174000002 cycles:  120979441 heartbeat IPC: 1.20341 cumulative IPC: 1.09990 (Simulation time: 0 hr 7 min 7 sec) 
Heartbeat CPU  0 instructions:  175000000 cycles:  121805658 heartbeat IPC: 1.21033 cumulative IPC: 1.10124 (Simulation time: 0 hr 7 min 10 sec) 
Heartbeat CPU  0 instructions:  176000000 cycles:  122634790 heartbeat IPC: 1.20608 cumulative IPC: 1.10250 (Simulation time: 0 hr 7 min 12 sec) 
Heartbeat CPU  0 instructions:  177000001 cycles:  123461435 heartbeat IPC: 1.20971 cumulative IPC: 1.10377 (Simulation time: 0 hr 7 min 15 sec) 
Heartbeat CPU  0 instructions:  178000002 cycles:  124290113 heartbeat IPC: 1.20674 cumulative IPC: 1.10498 (Simulation time: 0 hr 7 min 18 sec) 
Heartbeat CPU  0 instructions:  179000001 cycles:  125116867 heartbeat IPC: 1.20955 cumulative IPC: 1.10619 (Simulation time: 0 hr 7 min 20 sec) 
Heartbeat CPU  0 instructions:  180000000 cycles:  125946023 heartbeat IPC: 1.20604 cumulative IPC: 1.10734 (Simulation time: 0 hr 7 min 23 sec) 
Heartbeat CPU  0 instructions:  181000000 cycles:  126773411 heartbeat IPC: 1.20862 cumulative IPC: 1.10849 (Simulation time: 0 hr 7 min 26 sec) 
Heartbeat CPU  0 instructions:  182000000 cycles:  127600705 heartbeat IPC: 1.20876 cumulative IPC: 1.10961 (Simulation time: 0 hr 7 min 29 sec) 
Heartbeat CPU  0 instructions:  183000003 cycles:  128428540 heartbeat IPC: 1.20797 cumulative IPC: 1.11070 (Simulation time: 0 hr 7 min 31 sec) 
Heartbeat CPU  0 instructions:  184000000 cycles:  129274599 heartbeat IPC: 1.18195 cumulative IPC: 1.11150 (Simulation time: 0 hr 7 min 34 sec) 
Heartbeat CPU  0 instructions:  185000002 cycles:  130103842 heartbeat IPC: 1.20592 cumulative IPC: 1.11252 (Simulation time: 0 hr 7 min 37 sec) 
Heartbeat CPU  0 instructions:  186000003 cycles:  130929827 heartbeat IPC: 1.21068 cumulative IPC: 1.11357 (Simulation time: 0 hr 7 min 39 sec) 
Heartbeat CPU  0 instructions:  187000003 cycles:  131757698 heartbeat IPC: 1.20792 cumulative IPC: 1.11457 (Simulation time: 0 hr 7 min 42 sec) 
Heartbeat CPU  0 instructions:  188000000 cycles:  132588139 heartbeat IPC: 1.20418 cumulative IPC: 1.11551 (Simulation time: 0 hr 7 min 45 sec) 
Heartbeat CPU  0 instructions:  189000001 cycles:  133419849 heartbeat IPC: 1.20234 cumulative IPC: 1.11642 (Simulation time: 0 hr 7 min 47 sec) 
Heartbeat CPU  0 instructions:  190000003 cycles:  134247893 heartbeat IPC: 1.20767 cumulative IPC: 1.11736 (Simulation time: 0 hr 7 min 50 sec) 
Heartbeat CPU  0 instructions:  191000001 cycles:  135077287 heartbeat IPC: 1.20570 cumulative IPC: 1.11826 (Simulation time: 0 hr 7 min 53 sec) 
Heartbeat CPU  0 instructions:  192000000 cycles:  135901820 heartbeat IPC: 1.21281 cumulative IPC: 1.11921 (Simulation time: 0 hr 7 min 55 sec) 
Heartbeat CPU  0 instructions:  193000000 cycles:  136731924 heartbeat IPC: 1.20467 cumulative IPC: 1.12006 (Simulation time: 0 hr 7 min 58 sec) 
Heartbeat CPU  0 instructions:  194000003 cycles:  137579910 heartbeat IPC: 1.17927 cumulative IPC: 1.12066 (Simulation time: 0 hr 8 min 1 sec) 
Heartbeat CPU  0 instructions:  195000002 cycles:  138410225 heartbeat IPC: 1.20436 cumulative IPC: 1.12148 (Simulation time: 0 hr 8 min 3 sec) 
Heartbeat CPU  0 instructions:  196000000 cycles:  139237005 heartbeat IPC: 1.20951 cumulative IPC: 1.12233 (Simulation time: 0 hr 8 min 6 sec) 
Heartbeat CPU  0 instructions:  197000000 cycles:  140065123 heartbeat IPC: 1.20756 cumulative IPC: 1.12315 (Simulation time: 0 hr 8 min 9 sec) 
Heartbeat CPU  0 instructions:  198000001 cycles:  140891814 heartbeat IPC: 1.20964 cumulative IPC: 1.12397 (Simulation time: 0 hr 8 min 12 sec) 
Heartbeat CPU  0 instructions:  199000003 cycles:  141718943 heartbeat IPC: 1.20900 cumulative IPC: 1.12477 (Simulation time: 0 hr 8 min 14 sec) 
Heartbeat CPU  0 instructions:  200000000 cycles:  142549423 heartbeat IPC: 1.20412 cumulative IPC: 1.12551 (Simulation time: 0 hr 8 min 17 sec) 
Heartbeat CPU  0 instructions:  201000002 cycles:  143375591 heartbeat IPC: 1.21041 cumulative IPC: 1.12629 (Simulation time: 0 hr 8 min 20 sec) 
Heartbeat CPU  0 instructions:  202000000 cycles:  144203685 heartbeat IPC: 1.20759 cumulative IPC: 1.12704 (Simulation time: 0 hr 8 min 22 sec) 
Heartbeat CPU  0 instructions:  203000000 cycles:  145030503 heartbeat IPC: 1.20946 cumulative IPC: 1.12778 (Simulation time: 0 hr 8 min 25 sec) 
Heartbeat CPU  0 instructions:  204000000 cycles:  145859590 heartbeat IPC: 1.20615 cumulative IPC: 1.12849 (Simulation time: 0 hr 8 min 28 sec) 
Heartbeat CPU  0 instructions:  205000000 cycles:  146703313 heartbeat IPC: 1.18522 cumulative IPC: 1.12900 (Simulation time: 0 hr 8 min 30 sec) 
Heartbeat CPU  0 instructions:  206000003 cycles:  147533974 heartbeat IPC: 1.20386 cumulative IPC: 1.12966 (Simulation time: 0 hr 8 min 33 sec) 
Heartbeat CPU  0 instructions:  207000003 cycles:  148362731 heartbeat IPC: 1.20663 cumulative IPC: 1.13034 (Simulation time: 0 hr 8 min 36 sec) 
Heartbeat CPU  0 instructions:  208000000 cycles:  149192987 heartbeat IPC: 1.20444 cumulative IPC: 1.13098 (Simulation time: 0 hr 8 min 38 sec) 
Heartbeat CPU  0 instructions:  209000000 cycles:  150016729 heartbeat IPC: 1.21397 cumulative IPC: 1.13169 (Simulation time: 0 hr 8 min 41 sec) 
Heartbeat CPU  0 instructions:  210000003 cycles:  150845683 heartbeat IPC: 1.20634 cumulative IPC: 1.13233 (Simulation time: 0 hr 8 min 44 sec) 
Heartbeat CPU  0 instructions:  211000002 cycles:  151675777 heartbeat IPC: 1.20468 cumulative IPC: 1.13294 (Simulation time: 0 hr 8 min 46 sec) 
Heartbeat CPU  0 instructions:  212000000 cycles:  152504515 heartbeat IPC: 1.20665 cumulative IPC: 1.13356 (Simulation time: 0 hr 8 min 49 sec) 
Heartbeat CPU  0 instructions:  213000002 cycles:  153333312 heartbeat IPC: 1.20657 cumulative IPC: 1.13417 (Simulation time: 0 hr 8 min 52 sec) 
Heartbeat CPU  0 instructions:  214000001 cycles:  154159714 heartbeat IPC: 1.21006 cumulative IPC: 1.13479 (Simulation time: 0 hr 8 min 54 sec) 
Heartbeat CPU  0 instructions:  215000002 cycles:  155004731 heartbeat IPC: 1.18341 cumulative IPC: 1.13520 (Simulation time: 0 hr 8 min 57 sec) 
Heartbeat CPU  0 instructions:  216000000 cycles:  155834125 heartbeat IPC: 1.20570 cumulative IPC: 1.13577 (Simulation time: 0 hr 9 min 0 sec) 
Heartbeat CPU  0 instructions:  217000002 cycles:  156661410 heartbeat IPC: 1.20878 cumulative IPC: 1.13636 (Simulation time: 0 hr 9 min 3 sec) 
Heartbeat CPU  0 instructions:  218000000 cycles:  157487958 heartbeat IPC: 1.20985 cumulative IPC: 1.13694 (Simulation time: 0 hr 9 min 5 sec) 
Heartbeat CPU  0 instructions:  219000002 cycles:  158317075 heartbeat IPC: 1.20610 cumulative IPC: 1.13749 (Simulation time: 0 hr 9 min 8 sec) 
Heartbeat CPU  0 instructions:  220000000 cycles:  159142858 heartbeat IPC: 1.21097 cumulative IPC: 1.13807 (Simulation time: 0 hr 9 min 11 sec) 
Heartbeat CPU  0 instructions:  221000002 cycles:  159972942 heartbeat IPC: 1.20470 cumulative IPC: 1.13859 (Simulation time: 0 hr 9 min 13 sec) 
Heartbeat CPU  0 instructions:  222000000 cycles:  160799517 heartbeat IPC: 1.20981 cumulative IPC: 1.13914 (Simulation time: 0 hr 9 min 16 sec) 
Heartbeat CPU  0 instructions:  223000002 cycles:  161626776 heartbeat IPC: 1.20881 cumulative IPC: 1.13967 (Simulation time: 0 hr 9 min 19 sec) 
Heartbeat CPU  0 instructions:  224000000 cycles:  162454578 heartbeat IPC: 1.20802 cumulative IPC: 1.14019 (Simulation time: 0 hr 9 min 21 sec) 
Heartbeat CPU  0 instructions:  225000000 cycles:  163296978 heartbeat IPC: 1.18708 cumulative IPC: 1.14055 (Simulation time: 0 hr 9 min 24 sec) 
Heartbeat CPU  0 instructions:  226000000 cycles:  164123562 heartbeat IPC: 1.20980 cumulative IPC: 1.14107 (Simulation time: 0 hr 9 min 27 sec) 
Heartbeat CPU  0 instructions:  227000001 cycles:  164953516 heartbeat IPC: 1.20489 cumulative IPC: 1.14154 (Simulation time: 0 hr 9 min 29 sec) 
Heartbeat CPU  0 instructions:  228000000 cycles:  165783962 heartbeat IPC: 1.20417 cumulative IPC: 1.14201 (Simulation time: 0 hr 9 min 32 sec) 
Heartbeat CPU  0 instructions:  229000001 cycles:  166613148 heartbeat IPC: 1.20600 cumulative IPC: 1.14248 (Simulation time: 0 hr 9 min 35 sec) 
Heartbeat CPU  0 instructions:  230000001 cycles:  167441194 heartbeat IPC: 1.20766 cumulative IPC: 1.14295 (Simulation time: 0 hr 9 min 37 sec) 
Heartbeat CPU  0 instructions:  231000003 cycles:  168265749 heartbeat IPC: 1.21278 cumulative IPC: 1.14346 (Simulation time: 0 hr 9 min 40 sec) 
Heartbeat CPU  0 instructions:  232000000 cycles:  169094698 heartbeat IPC: 1.20634 cumulative IPC: 1.14391 (Simulation time: 0 hr 9 min 43 sec) 
Heartbeat CPU  0 instructions:  233000000 cycles:  169923407 heartbeat IPC: 1.20670 cumulative IPC: 1.14436 (Simulation time: 0 hr 9 min 45 sec) 
Heartbeat CPU  0 instructions:  234000001 cycles:  170752907 heartbeat IPC: 1.20555 cumulative IPC: 1.14479 (Simulation time: 0 hr 9 min 48 sec) 
Heartbeat CPU  0 instructions:  235000001 cycles:  171581095 heartbeat IPC: 1.20746 cumulative IPC: 1.14523 (Simulation time: 0 hr 9 min 51 sec) 
Heartbeat CPU  0 instructions:  236000000 cycles:  172424764 heartbeat IPC: 1.18530 cumulative IPC: 1.14551 (Simulation time: 0 hr 9 min 54 sec) 
Heartbeat CPU  0 instructions:  237000000 cycles:  173254870 heartbeat IPC: 1.20467 cumulative IPC: 1.14592 (Simulation time: 0 hr 9 min 56 sec) 
Heartbeat CPU  0 instructions:  238000000 cycles:  174089200 heartbeat IPC: 1.19857 cumulative IPC: 1.14629 (Simulation time: 0 hr 9 min 59 sec) 
Heartbeat CPU  0 instructions:  239000003 cycles:  174912791 heartbeat IPC: 1.21420 cumulative IPC: 1.14675 (Simulation time: 0 hr 10 min 2 sec) 
Heartbeat CPU  0 instructions:  240000000 cycles:  175739298 heartbeat IPC: 1.20991 cumulative IPC: 1.14718 (Simulation time: 0 hr 10 min 4 sec) 
Heartbeat CPU  0 instructions:  241000001 cycles:  176566912 heartbeat IPC: 1.20829 cumulative IPC: 1.14759 (Simulation time: 0 hr 10 min 7 sec) 
Heartbeat CPU  0 instructions:  242000002 cycles:  177395693 heartbeat IPC: 1.20659 cumulative IPC: 1.14799 (Simulation time: 0 hr 10 min 10 sec) 
Heartbeat CPU  0 instructions:  243000001 cycles:  178224541 heartbeat IPC: 1.20649 cumulative IPC: 1.14838 (Simulation time: 0 hr 10 min 12 sec) 
Heartbeat CPU  0 instructions:  244000000 cycles:  179052266 heartbeat IPC: 1.20813 cumulative IPC: 1.14877 (Simulation time: 0 hr 10 min 15 sec) 
Heartbeat CPU  0 instructions:  245000002 cycles:  179876795 heartbeat IPC: 1.21282 cumulative IPC: 1.14919 (Simulation time: 0 hr 10 min 18 sec) 
Heartbeat CPU  0 instructions:  246000003 cycles:  180721274 heartbeat IPC: 1.18416 cumulative IPC: 1.14942 (Simulation time: 0 hr 10 min 21 sec) 
Heartbeat CPU  0 instructions:  247000003 cycles:  181550466 heartbeat IPC: 1.20599 cumulative IPC: 1.14979 (Simulation time: 0 hr 10 min 23 sec) 
Heartbeat CPU  0 instructions:  248000000 cycles:  182379310 heartbeat IPC: 1.20650 cumulative IPC: 1.15015 (Simulation time: 0 hr 10 min 26 sec) 
Heartbeat CPU  0 instructions:  249000003 cycles:  183209633 heartbeat IPC: 1.20435 cumulative IPC: 1.15050 (Simulation time: 0 hr 10 min 29 sec) 
Heartbeat CPU  0 instructions:  250000003 cycles:  184037110 heartbeat IPC: 1.20849 cumulative IPC: 1.15087 (Simulation time: 0 hr 10 min 31 sec) 
Heartbeat CPU  0 instructions:  251000003 cycles:  184867762 heartbeat IPC: 1.20387 cumulative IPC: 1.15120 (Simulation time: 0 hr 10 min 34 sec) 
Heartbeat CPU  0 instructions:  252000000 cycles:  185695167 heartbeat IPC: 1.20859 cumulative IPC: 1.15156 (Simulation time: 0 hr 10 min 37 sec) 
Heartbeat CPU  0 instructions:  253000001 cycles:  186526633 heartbeat IPC: 1.20270 cumulative IPC: 1.15188 (Simulation time: 0 hr 10 min 39 sec) 
Heartbeat CPU  0 instructions:  254000000 cycles:  187351383 heartbeat IPC: 1.21249 cumulative IPC: 1.15226 (Simulation time: 0 hr 10 min 42 sec) 
Heartbeat CPU  0 instructions:  255000002 cycles:  188180337 heartbeat IPC: 1.20634 cumulative IPC: 1.15259 (Simulation time: 0 hr 10 min 45 sec) 
Heartbeat CPU  0 instructions:  256000000 cycles:  189008720 heartbeat IPC: 1.20717 cumulative IPC: 1.15293 (Simulation time: 0 hr 10 min 47 sec) 
Heartbeat CPU  0 instructions:  257000002 cycles:  189850884 heartbeat IPC: 1.18742 cumulative IPC: 1.15314 (Simulation time: 0 hr 10 min 50 sec) 
Heartbeat CPU  0 instructions:  258000003 cycles:  190680752 heartbeat IPC: 1.20501 cumulative IPC: 1.15345 (Simulation time: 0 hr 10 min 53 sec) 
Heartbeat CPU  0 instructions:  259000002 cycles:  191511193 heartbeat IPC: 1.20418 cumulative IPC: 1.15376 (Simulation time: 0 hr 10 min 56 sec) 
Heartbeat CPU  0 instructions:  260000000 cycles:  192339509 heartbeat IPC: 1.20727 cumulative IPC: 1.15408 (Simulation time: 0 hr 10 min 58 sec) 
Heartbeat CPU  0 instructions:  261000001 cycles:  193164023 heartbeat IPC: 1.21284 cumulative IPC: 1.15443 (Simulation time: 0 hr 11 min 1 sec) 
Heartbeat CPU  0 instructions:  262000002 cycles:  193991911 heartbeat IPC: 1.20789 cumulative IPC: 1.15474 (Simulation time: 0 hr 11 min 4 sec) 
Heartbeat CPU  0 instructions:  263000001 cycles:  194818239 heartbeat IPC: 1.21017 cumulative IPC: 1.15507 (Simulation time: 0 hr 11 min 6 sec) 
Heartbeat CPU  0 instructions:  264000000 cycles:  195648020 heartbeat IPC: 1.20514 cumulative IPC: 1.15536 (Simulation time: 0 hr 11 min 9 sec) 
Heartbeat CPU  0 instructions:  265000002 cycles:  196476801 heartbeat IPC: 1.20659 cumulative IPC: 1.15566 (Simulation time: 0 hr 11 min 12 sec) 
Heartbeat CPU  0 instructions:  266000000 cycles:  197306040 heartbeat IPC: 1.20592 cumulative IPC: 1.15595 (Simulation time: 0 hr 11 min 14 sec) 
Heartbeat CPU  0 instructions:  267000002 cycles:  198463083 heartbeat IPC: 0.86427 cumulative IPC: 1.15362 (Simulation time: 0 hr 11 min 17 sec) 
Heartbeat CPU  0 instructions:  268000000 cycles:  200240184 heartbeat IPC: 0.56271 cumulative IPC: 1.14645 (Simulation time: 0 hr 11 min 20 sec) 
Heartbeat CPU  0 instructions:  269000002 cycles:  201191073 heartbeat IPC: 1.05165 cumulative IPC: 1.14584 (Simulation time: 0 hr 11 min 23 sec) 
Heartbeat CPU  0 instructions:  270000003 cycles:  202141534 heartbeat IPC: 1.05212 cumulative IPC: 1.14524 (Simulation time: 0 hr 11 min 25 sec) 
Heartbeat CPU  0 instructions:  271000001 cycles:  203093167 heartbeat IPC: 1.05082 cumulative IPC: 1.14464 (Simulation time: 0 hr 11 min 28 sec) 
Heartbeat CPU  0 instructions:  272000000 cycles:  204044088 heartbeat IPC: 1.05161 cumulative IPC: 1.14405 (Simulation time: 0 hr 11 min 31 sec) 
Heartbeat CPU  0 instructions:  273000002 cycles:  204994663 heartbeat IPC: 1.05200 cumulative IPC: 1.14347 (Simulation time: 0 hr 11 min 34 sec) 
Heartbeat CPU  0 instructions:  274000003 cycles:  205943800 heartbeat IPC: 1.05359 cumulative IPC: 1.14291 (Simulation time: 0 hr 11 min 37 sec) 
Heartbeat CPU  0 instructions:  275000000 cycles:  206892962 heartbeat IPC: 1.05356 cumulative IPC: 1.14236 (Simulation time: 0 hr 11 min 39 sec) 
Heartbeat CPU  0 instructions:  276000000 cycles:  207842370 heartbeat IPC: 1.05329 cumulative IPC: 1.14181 (Simulation time: 0 hr 11 min 42 sec) 
Heartbeat CPU  0 instructions:  277000003 cycles:  208791684 heartbeat IPC: 1.05340 cumulative IPC: 1.14127 (Simulation time: 0 hr 11 min 45 sec) 
Heartbeat CPU  0 instructions:  278000003 cycles:  209741367 heartbeat IPC: 1.05298 cumulative IPC: 1.14073 (Simulation time: 0 hr 11 min 47 sec) 
Heartbeat CPU  0 instructions:  279000001 cycles:  210689169 heartbeat IPC: 1.05507 cumulative IPC: 1.14021 (Simulation time: 0 hr 11 min 50 sec) 
Heartbeat CPU  0 instructions:  280000000 cycles:  211639635 heartbeat IPC: 1.05211 cumulative IPC: 1.13968 (Simulation time: 0 hr 11 min 53 sec) 
Heartbeat CPU  0 instructions:  281000001 cycles:  212586155 heartbeat IPC: 1.05650 cumulative IPC: 1.13919 (Simulation time: 0 hr 11 min 55 sec) 
Heartbeat CPU  0 instructions:  282000003 cycles:  213533596 heartbeat IPC: 1.05548 cumulative IPC: 1.13869 (Simulation time: 0 hr 11 min 58 sec) 
Heartbeat CPU  0 instructions:  283000000 cycles:  214479657 heartbeat IPC: 1.05701 cumulative IPC: 1.13821 (Simulation time: 0 hr 12 min 1 sec) 
Heartbeat CPU  0 instructions:  284000000 cycles:  215427456 heartbeat IPC: 1.05508 cumulative IPC: 1.13772 (Simulation time: 0 hr 12 min 3 sec) 
Heartbeat CPU  0 instructions:  285000002 cycles:  216374446 heartbeat IPC: 1.05598 cumulative IPC: 1.13725 (Simulation time: 0 hr 12 min 6 sec) 
Heartbeat CPU  0 instructions:  286000000 cycles:  217321363 heartbeat IPC: 1.05606 cumulative IPC: 1.13678 (Simulation time: 0 hr 12 min 9 sec) 
Heartbeat CPU  0 instructions:  287000000 cycles:  218270396 heartbeat IPC: 1.05370 cumulative IPC: 1.13630 (Simulation time: 0 hr 12 min 12 sec) 
Heartbeat CPU  0 instructions:  288000000 cycles:  219217880 heartbeat IPC: 1.05543 cumulative IPC: 1.13583 (Simulation time: 0 hr 12 min 14 sec) 
Heartbeat CPU  0 instructions:  289000003 cycles:  220165262 heartbeat IPC: 1.05554 cumulative IPC: 1.13538 (Simulation time: 0 hr 12 min 17 sec) 
Heartbeat CPU  0 instructions:  290000000 cycles:  221111012 heartbeat IPC: 1.05736 cumulative IPC: 1.13494 (Simulation time: 0 hr 12 min 20 sec) 
Heartbeat CPU  0 instructions:  291000000 cycles:  222057948 heartbeat IPC: 1.05604 cumulative IPC: 1.13449 (Simulation time: 0 hr 12 min 22 sec) 
Heartbeat CPU  0 instructions:  292000000 cycles:  223003162 heartbeat IPC: 1.05796 cumulative IPC: 1.13407 (Simulation time: 0 hr 12 min 25 sec) 
Heartbeat CPU  0 instructions:  293000000 cycles:  223949300 heartbeat IPC: 1.05693 cumulative IPC: 1.13364 (Simulation time: 0 hr 12 min 28 sec) 
Heartbeat CPU  0 instructions:  294000002 cycles:  224896346 heartbeat IPC: 1.05592 cumulative IPC: 1.13321 (Simulation time: 0 hr 12 min 30 sec) 
Heartbeat CPU  0 instructions:  295000002 cycles:  225843178 heartbeat IPC: 1.05615 cumulative IPC: 1.13278 (Simulation time: 0 hr 12 min 33 sec) 
Heartbeat CPU  0 instructions:  296000000 cycles:  226790782 heartbeat IPC: 1.05529 cumulative IPC: 1.13236 (Simulation time: 0 hr 12 min 36 sec) 
Heartbeat CPU  0 instructions:  297000001 cycles:  227737289 heartbeat IPC: 1.05652 cumulative IPC: 1.13195 (Simulation time: 0 hr 12 min 38 sec) 
Heartbeat CPU  0 instructions:  298000000 cycles:  228685708 heartbeat IPC: 1.05439 cumulative IPC: 1.13153 (Simulation time: 0 hr 12 min 41 sec) 
Heartbeat CPU  0 instructions:  299000003 cycles:  229632529 heartbeat IPC: 1.05617 cumulative IPC: 1.13112 (Simulation time: 0 hr 12 min 44 sec) 
Heartbeat CPU  0 instructions:  300000000 cycles:  230580325 heartbeat IPC: 1.05508 cumulative IPC: 1.13071 (Simulation time: 0 hr 12 min 46 sec) 
Heartbeat CPU  0 instructions:  301000002 cycles:  231527285 heartbeat IPC: 1.05601 cumulative IPC: 1.13032 (Simulation time: 0 hr 12 min 49 sec) 
Heartbeat CPU  0 instructions:  302000002 cycles:  232476343 heartbeat IPC: 1.05368 cumulative IPC: 1.12991 (Simulation time: 0 hr 12 min 52 sec) 
Heartbeat CPU  0 instructions:  303000001 cycles:  233423623 heartbeat IPC: 1.05565 cumulative IPC: 1.12952 (Simulation time: 0 hr 12 min 55 sec) 
Heartbeat CPU  0 instructions:  304000000 cycles:  234371983 heartbeat IPC: 1.05445 cumulative IPC: 1.12912 (Simulation time: 0 hr 12 min 57 sec) 
Heartbeat CPU  0 instructions:  305000000 cycles:  235318592 heartbeat IPC: 1.05640 cumulative IPC: 1.12874 (Simulation time: 0 hr 13 min 0 sec) 
Heartbeat CPU  0 instructions:  306000001 cycles:  236265317 heartbeat IPC: 1.05627 cumulative IPC: 1.12837 (Simulation time: 0 hr 13 min 3 sec) 
Heartbeat CPU  0 instructions:  307000003 cycles:  237212722 heartbeat IPC: 1.05552 cumulative IPC: 1.12799 (Simulation time: 0 hr 13 min 5 sec) 
Heartbeat CPU  0 instructions:  308000000 cycles:  238159354 heartbeat IPC: 1.05637 cumulative IPC: 1.12762 (Simulation time: 0 hr 13 min 8 sec) 
Heartbeat CPU  0 instructions:  309000000 cycles:  239107791 heartbeat IPC: 1.05437 cumulative IPC: 1.12725 (Simulation time: 0 hr 13 min 11 sec) 
Heartbeat CPU  0 instructions:  310000001 cycles:  240056146 heartbeat IPC: 1.05446 cumulative IPC: 1.12688 (Simulation time: 0 hr 13 min 13 sec) 
Heartbeat CPU  0 instructions:  311000001 cycles:  241002872 heartbeat IPC: 1.05627 cumulative IPC: 1.12652 (Simulation time: 0 hr 13 min 16 sec) 
Heartbeat CPU  0 instructions:  312000000 cycles:  241948755 heartbeat IPC: 1.05721 cumulative IPC: 1.12617 (Simulation time: 0 hr 13 min 19 sec) 
Heartbeat CPU  0 instructions:  313000000 cycles:  242895625 heartbeat IPC: 1.05611 cumulative IPC: 1.12582 (Simulation time: 0 hr 13 min 21 sec) 
Heartbeat CPU  0 instructions:  314000001 cycles:  243841912 heartbeat IPC: 1.05676 cumulative IPC: 1.12548 (Simulation time: 0 hr 13 min 24 sec) 
Heartbeat CPU  0 instructions:  315000000 cycles:  244788072 heartbeat IPC: 1.05690 cumulative IPC: 1.12514 (Simulation time: 0 hr 13 min 27 sec) 
Heartbeat CPU  0 instructions:  316000000 cycles:  245735497 heartbeat IPC: 1.05549 cumulative IPC: 1.12480 (Simulation time: 0 hr 13 min 30 sec) 
Heartbeat CPU  0 instructions:  317000001 cycles:  246682464 heartbeat IPC: 1.05600 cumulative IPC: 1.12446 (Simulation time: 0 hr 13 min 32 sec) 
Heartbeat CPU  0 instructions:  318000001 cycles:  247629160 heartbeat IPC: 1.05631 cumulative IPC: 1.12413 (Simulation time: 0 hr 13 min 35 sec) 
Heartbeat CPU  0 instructions:  319000002 cycles:  248575621 heartbeat IPC: 1.05657 cumulative IPC: 1.12380 (Simulation time: 0 hr 13 min 38 sec) 
Heartbeat CPU  0 instructions:  320000000 cycles:  249523284 heartbeat IPC: 1.05523 cumulative IPC: 1.12347 (Simulation time: 0 hr 13 min 40 sec) 
Heartbeat CPU  0 instructions:  321000000 cycles:  250469521 heartbeat IPC: 1.05682 cumulative IPC: 1.12315 (Simulation time: 0 hr 13 min 43 sec) 
Heartbeat CPU  0 instructions:  322000001 cycles:  251417643 heartbeat IPC: 1.05472 cumulative IPC: 1.12282 (Simulation time: 0 hr 13 min 46 sec) 
Heartbeat CPU  0 instructions:  323000000 cycles:  252363446 heartbeat IPC: 1.05730 cumulative IPC: 1.12251 (Simulation time: 0 hr 13 min 48 sec) 
Heartbeat CPU  0 instructions:  324000000 cycles:  253311475 heartbeat IPC: 1.05482 cumulative IPC: 1.12218 (Simulation time: 0 hr 13 min 51 sec) 
Heartbeat CPU  0 instructions:  325000001 cycles:  254258179 heartbeat IPC: 1.05630 cumulative IPC: 1.12187 (Simulation time: 0 hr 13 min 54 sec) 
Heartbeat CPU  0 instructions:  326000000 cycles:  255204753 heartbeat IPC: 1.05644 cumulative IPC: 1.12157 (Simulation time: 0 hr 13 min 57 sec) 
Heartbeat CPU  0 instructions:  327000001 cycles:  256152268 heartbeat IPC: 1.05539 cumulative IPC: 1.12126 (Simulation time: 0 hr 13 min 59 sec) 
Heartbeat CPU  0 instructions:  328000000 cycles:  257099454 heartbeat IPC: 1.05576 cumulative IPC: 1.12095 (Simulation time: 0 hr 14 min 2 sec) 
Heartbeat CPU  0 instructions:  329000001 cycles:  258048033 heartbeat IPC: 1.05421 cumulative IPC: 1.12064 (Simulation time: 0 hr 14 min 5 sec) 
Heartbeat CPU  0 instructions:  330000000 cycles:  259305742 heartbeat IPC: 0.79510 cumulative IPC: 1.11865 (Simulation time: 0 hr 14 min 7 sec) 
Heartbeat CPU  0 instructions:  331000000 cycles:  260609157 heartbeat IPC: 0.76722 cumulative IPC: 1.11644 (Simulation time: 0 hr 14 min 10 sec) 
Heartbeat CPU  0 instructions:  332000000 cycles:  261864264 heartbeat IPC: 0.79674 cumulative IPC: 1.11451 (Simulation time: 0 hr 14 min 13 sec) 
Heartbeat CPU  0 instructions:  333000001 cycles:  262823508 heartbeat IPC: 1.04249 cumulative IPC: 1.11418 (Simulation time: 0 hr 14 min 16 sec) 
Heartbeat CPU  0 instructions:  334000002 cycles:  263839707 heartbeat IPC: 0.98406 cumulative IPC: 1.11355 (Simulation time: 0 hr 14 min 18 sec) 
Heartbeat CPU  0 instructions:  335000002 cycles:  264850656 heartbeat IPC: 0.98917 cumulative IPC: 1.11295 (Simulation time: 0 hr 14 min 21 sec) 
Heartbeat CPU  0 instructions:  336000000 cycles:  265752094 heartbeat IPC: 1.10934 cumulative IPC: 1.11294 (Simulation time: 0 hr 14 min 23 sec) 
Heartbeat CPU  0 instructions:  337000003 cycles:  266614565 heartbeat IPC: 1.15946 cumulative IPC: 1.11313 (Simulation time: 0 hr 14 min 26 sec) 
Heartbeat CPU  0 instructions:  338000000 cycles:  267593308 heartbeat IPC: 1.02172 cumulative IPC: 1.11271 (Simulation time: 0 hr 14 min 29 sec) 
Heartbeat CPU  0 instructions:  339000001 cycles:  268990066 heartbeat IPC: 0.71594 cumulative IPC: 1.11013 (Simulation time: 0 hr 14 min 32 sec) 
Heartbeat CPU  0 instructions:  340000000 cycles:  270405247 heartbeat IPC: 0.70662 cumulative IPC: 1.10750 (Simulation time: 0 hr 14 min 35 sec) 
Heartbeat CPU  0 instructions:  341000000 cycles:  271348422 heartbeat IPC: 1.06025 cumulative IPC: 1.10729 (Simulation time: 0 hr 14 min 37 sec) 
Heartbeat CPU  0 instructions:  342000000 cycles:  272300529 heartbeat IPC: 1.05030 cumulative IPC: 1.10705 (Simulation time: 0 hr 14 min 40 sec) 
Heartbeat CPU  0 instructions:  343000003 cycles:  273240359 heartbeat IPC: 1.06403 cumulative IPC: 1.10686 (Simulation time: 0 hr 14 min 42 sec) 
Heartbeat CPU  0 instructions:  344000000 cycles:  274170418 heartbeat IPC: 1.07520 cumulative IPC: 1.10673 (Simulation time: 0 hr 14 min 45 sec) 
Heartbeat CPU  0 instructions:  345000000 cycles:  275086941 heartbeat IPC: 1.09108 cumulative IPC: 1.10666 (Simulation time: 0 hr 14 min 47 sec) 
Heartbeat CPU  0 instructions:  346000003 cycles:  276030147 heartbeat IPC: 1.06022 cumulative IPC: 1.10647 (Simulation time: 0 hr 14 min 50 sec) 
Heartbeat CPU  0 instructions:  347000002 cycles:  276958826 heartbeat IPC: 1.07680 cumulative IPC: 1.10634 (Simulation time: 0 hr 14 min 52 sec) 
Heartbeat CPU  0 instructions:  348000000 cycles:  278364603 heartbeat IPC: 0.71135 cumulative IPC: 1.10387 (Simulation time: 0 hr 14 min 55 sec) 
Heartbeat CPU  0 instructions:  349000000 cycles:  279888652 heartbeat IPC: 0.65615 cumulative IPC: 1.10085 (Simulation time: 0 hr 14 min 58 sec) 
Heartbeat CPU  0 instructions:  350000003 cycles:  280905083 heartbeat IPC: 0.98384 cumulative IPC: 1.10033 (Simulation time: 0 hr 15 min 1 sec) 
Heartbeat CPU  0 instructions:  351000003 cycles:  281908801 heartbeat IPC: 0.99630 cumulative IPC: 1.09987 (Simulation time: 0 hr 15 min 4 sec) 
Heartbeat CPU  0 instructions:  352000000 cycles:  282854936 heartbeat IPC: 1.05693 cumulative IPC: 1.09970 (Simulation time: 0 hr 15 min 6 sec) 
Heartbeat CPU  0 instructions:  353000000 cycles:  283823212 heartbeat IPC: 1.03276 cumulative IPC: 1.09941 (Simulation time: 0 hr 15 min 9 sec) 
Heartbeat CPU  0 instructions:  354000000 cycles:  284774120 heartbeat IPC: 1.05163 cumulative IPC: 1.09922 (Simulation time: 0 hr 15 min 11 sec) 
Heartbeat CPU  0 instructions:  355000001 cycles:  285699923 heartbeat IPC: 1.08014 cumulative IPC: 1.09914 (Simulation time: 0 hr 15 min 14 sec) 
Heartbeat CPU  0 instructions:  356000000 cycles:  286698471 heartbeat IPC: 1.00145 cumulative IPC: 1.09872 (Simulation time: 0 hr 15 min 16 sec) 
Heartbeat CPU  0 instructions:  357000003 cycles:  287937487 heartbeat IPC: 0.80709 cumulative IPC: 1.09718 (Simulation time: 0 hr 15 min 20 sec) 
Heartbeat CPU  0 instructions:  358000000 cycles:  289230760 heartbeat IPC: 0.77323 cumulative IPC: 1.09540 (Simulation time: 0 hr 15 min 23 sec) 
Heartbeat CPU  0 instructions:  359000002 cycles:  290500455 heartbeat IPC: 0.78759 cumulative IPC: 1.09375 (Simulation time: 0 hr 15 min 26 sec) 
Heartbeat CPU  0 instructions:  360000000 cycles:  291607079 heartbeat IPC: 0.90365 cumulative IPC: 1.09287 (Simulation time: 0 hr 15 min 29 sec) 
Heartbeat CPU  0 instructions:  361000000 cycles:  292697470 heartbeat IPC: 0.91710 cumulative IPC: 1.09207 (Simulation time: 0 hr 15 min 33 sec) 
Heartbeat CPU  0 instructions:  362000000 cycles:  293779335 heartbeat IPC: 0.92433 cumulative IPC: 1.09131 (Simulation time: 0 hr 15 min 36 sec) 
Heartbeat CPU  0 instructions:  363000001 cycles:  294860748 heartbeat IPC: 0.92472 cumulative IPC: 1.09056 (Simulation time: 0 hr 15 min 39 sec) 
Heartbeat CPU  0 instructions:  364000000 cycles:  295943809 heartbeat IPC: 0.92331 cumulative IPC: 1.08981 (Simulation time: 0 hr 15 min 42 sec) 
Heartbeat CPU  0 instructions:  365000002 cycles:  297029656 heartbeat IPC: 0.92094 cumulative IPC: 1.08906 (Simulation time: 0 hr 15 min 45 sec) 
Heartbeat CPU  0 instructions:  366000001 cycles:  298119768 heartbeat IPC: 0.91734 cumulative IPC: 1.08830 (Simulation time: 0 hr 15 min 48 sec) 
Heartbeat CPU  0 instructions:  367000001 cycles:  299198525 heartbeat IPC: 0.92699 cumulative IPC: 1.08759 (Simulation time: 0 hr 15 min 51 sec) 
Heartbeat CPU  0 instructions:  368000000 cycles:  300276089 heartbeat IPC: 0.92802 cumulative IPC: 1.08689 (Simulation time: 0 hr 15 min 54 sec) 
Heartbeat CPU  0 instructions:  369000001 cycles:  301357407 heartbeat IPC: 0.92480 cumulative IPC: 1.08618 (Simulation time: 0 hr 15 min 57 sec) 
Heartbeat CPU  0 instructions:  370000002 cycles:  302445447 heartbeat IPC: 0.91908 cumulative IPC: 1.08545 (Simulation time: 0 hr 16 min 1 sec) 
Heartbeat CPU  0 instructions:  371000002 cycles:  303522850 heartbeat IPC: 0.92816 cumulative IPC: 1.08477 (Simulation time: 0 hr 16 min 4 sec) 
Heartbeat CPU  0 instructions:  372000000 cycles:  304592289 heartbeat IPC: 0.93507 cumulative IPC: 1.08413 (Simulation time: 0 hr 16 min 7 sec) 
Heartbeat CPU  0 instructions:  373000000 cycles:  305672736 heartbeat IPC: 0.92554 cumulative IPC: 1.08345 (Simulation time: 0 hr 16 min 10 sec) 
Heartbeat CPU  0 instructions:  374000003 cycles:  306745946 heartbeat IPC: 0.93179 cumulative IPC: 1.08281 (Simulation time: 0 hr 16 min 13 sec) 
Heartbeat CPU  0 instructions:  375000002 cycles:  307831209 heartbeat IPC: 0.92143 cumulative IPC: 1.08212 (Simulation time: 0 hr 16 min 16 sec) 
Heartbeat CPU  0 instructions:  376000000 cycles:  308917297 heartbeat IPC: 0.92073 cumulative IPC: 1.08143 (Simulation time: 0 hr 16 min 19 sec) 
Heartbeat CPU  0 instructions:  377000001 cycles:  310012819 heartbeat IPC: 0.91281 cumulative IPC: 1.08071 (Simulation time: 0 hr 16 min 22 sec) 
Heartbeat CPU  0 instructions:  378000000 cycles:  311097243 heartbeat IPC: 0.92215 cumulative IPC: 1.08005 (Simulation time: 0 hr 16 min 25 sec) 
Heartbeat CPU  0 instructions:  379000001 cycles:  312193994 heartbeat IPC: 0.91178 cumulative IPC: 1.07933 (Simulation time: 0 hr 16 min 28 sec) 
Heartbeat CPU  0 instructions:  380000000 cycles:  313291957 heartbeat IPC: 0.91078 cumulative IPC: 1.07862 (Simulation time: 0 hr 16 min 31 sec) 
Heartbeat CPU  0 instructions:  381000001 cycles:  314407064 heartbeat IPC: 0.89678 cumulative IPC: 1.07784 (Simulation time: 0 hr 16 min 35 sec) 
Heartbeat CPU  0 instructions:  382000000 cycles:  315502716 heartbeat IPC: 0.91270 cumulative IPC: 1.07715 (Simulation time: 0 hr 16 min 38 sec) 
Heartbeat CPU  0 instructions:  383000000 cycles:  316616199 heartbeat IPC: 0.89808 cumulative IPC: 1.07639 (Simulation time: 0 hr 16 min 41 sec) 
Heartbeat CPU  0 instructions:  384000000 cycles:  317719904 heartbeat IPC: 0.90604 cumulative IPC: 1.07568 (Simulation time: 0 hr 16 min 44 sec) 
Heartbeat CPU  0 instructions:  385000001 cycles:  318832220 heartbeat IPC: 0.89903 cumulative IPC: 1.07494 (Simulation time: 0 hr 16 min 47 sec) 
Heartbeat CPU  0 instructions:  386000001 cycles:  319932359 heartbeat IPC: 0.90898 cumulative IPC: 1.07425 (Simulation time: 0 hr 16 min 50 sec) 
Heartbeat CPU  0 instructions:  387000003 cycles:  321035395 heartbeat IPC: 0.90659 cumulative IPC: 1.07356 (Simulation time: 0 hr 16 min 53 sec) 
Heartbeat CPU  0 instructions:  388000000 cycles:  322150261 heartbeat IPC: 0.89697 cumulative IPC: 1.07283 (Simulation time: 0 hr 16 min 57 sec) 
Heartbeat CPU  0 instructions:  389000002 cycles:  323250946 heartbeat IPC: 0.90853 cumulative IPC: 1.07216 (Simulation time: 0 hr 17 min 0 sec) 
Heartbeat CPU  0 instructions:  390000002 cycles:  324369115 heartbeat IPC: 0.89432 cumulative IPC: 1.07142 (Simulation time: 0 hr 17 min 3 sec) 
Heartbeat CPU  0 instructions:  391000001 cycles:  325478487 heartbeat IPC: 0.90141 cumulative IPC: 1.07073 (Simulation time: 0 hr 17 min 6 sec) 
Heartbeat CPU  0 instructions:  392000000 cycles:  326585016 heartbeat IPC: 0.90373 cumulative IPC: 1.07005 (Simulation time: 0 hr 17 min 9 sec) 
Heartbeat CPU  0 instructions:  393000003 cycles:  327688811 heartbeat IPC: 0.90597 cumulative IPC: 1.06939 (Simulation time: 0 hr 17 min 12 sec) 
Heartbeat CPU  0 instructions:  394000002 cycles:  328775041 heartbeat IPC: 0.92061 cumulative IPC: 1.06880 (Simulation time: 0 hr 17 min 15 sec) 
Heartbeat CPU  0 instructions:  395000001 cycles:  329848743 heartbeat IPC: 0.93136 cumulative IPC: 1.06827 (Simulation time: 0 hr 17 min 18 sec) 
Heartbeat CPU  0 instructions:  396000000 cycles:  330904095 heartbeat IPC: 0.94755 cumulative IPC: 1.06781 (Simulation time: 0 hr 17 min 21 sec) 
Heartbeat CPU  0 instructions:  397000000 cycles:  331955856 heartbeat IPC: 0.95079 cumulative IPC: 1.06737 (Simulation time: 0 hr 17 min 24 sec) 
Heartbeat CPU  0 instructions:  398000001 cycles:  332953390 heartbeat IPC: 1.00247 cumulative IPC: 1.06713 (Simulation time: 0 hr 17 min 27 sec) 
Heartbeat CPU  0 instructions:  399000001 cycles:  333816797 heartbeat IPC: 1.15820 cumulative IPC: 1.06741 (Simulation time: 0 hr 17 min 30 sec) 
Heartbeat CPU  0 instructions:  400000000 cycles:  334673583 heartbeat IPC: 1.16715 cumulative IPC: 1.06772 (Simulation time: 0 hr 17 min 33 sec) 
Heartbeat CPU  0 instructions:  401000001 cycles:  335530738 heartbeat IPC: 1.16665 cumulative IPC: 1.06802 (Simulation time: 0 hr 17 min 35 sec) 
Heartbeat CPU  0 instructions:  402000000 cycles:  336395619 heartbeat IPC: 1.15623 cumulative IPC: 1.06829 (Simulation time: 0 hr 17 min 38 sec) 
Heartbeat CPU  0 instructions:  403000003 cycles:  337216963 heartbeat IPC: 1.21752 cumulative IPC: 1.06872 (Simulation time: 0 hr 17 min 41 sec) 
Heartbeat CPU  0 instructions:  404000000 cycles:  338056450 heartbeat IPC: 1.19120 cumulative IPC: 1.06908 (Simulation time: 0 hr 17 min 43 sec) 
Heartbeat CPU  0 instructions:  405000002 cycles:  338904894 heartbeat IPC: 1.17863 cumulative IPC: 1.06941 (Simulation time: 0 hr 17 min 46 sec) 
Heartbeat CPU  0 instructions:  406000002 cycles:  339756302 heartbeat IPC: 1.17453 cumulative IPC: 1.06972 (Simulation time: 0 hr 17 min 49 sec) 
Heartbeat CPU  0 instructions:  407000003 cycles:  340598976 heartbeat IPC: 1.18670 cumulative IPC: 1.07007 (Simulation time: 0 hr 17 min 51 sec) 
Heartbeat CPU  0 instructions:  408000000 cycles:  341439014 heartbeat IPC: 1.19042 cumulative IPC: 1.07042 (Simulation time: 0 hr 17 min 54 sec) 
Heartbeat CPU  0 instructions:  409000003 cycles:  342274503 heartbeat IPC: 1.19691 cumulative IPC: 1.07078 (Simulation time: 0 hr 17 min 57 sec) 
Heartbeat CPU  0 instructions:  410000002 cycles:  343120131 heartbeat IPC: 1.18255 cumulative IPC: 1.07111 (Simulation time: 0 hr 18 min 0 sec) 
Heartbeat CPU  0 instructions:  411000002 cycles:  343973889 heartbeat IPC: 1.17129 cumulative IPC: 1.07140 (Simulation time: 0 hr 18 min 2 sec) 
Heartbeat CPU  0 instructions:  412000000 cycles:  344823612 heartbeat IPC: 1.17685 cumulative IPC: 1.07171 (Simulation time: 0 hr 18 min 5 sec) 
Heartbeat CPU  0 instructions:  413000000 cycles:  345649925 heartbeat IPC: 1.21020 cumulative IPC: 1.07210 (Simulation time: 0 hr 18 min 8 sec) 
Heartbeat CPU  0 instructions:  414000002 cycles:  346454579 heartbeat IPC: 1.24277 cumulative IPC: 1.07257 (Simulation time: 0 hr 18 min 10 sec) 
Heartbeat CPU  0 instructions:  415000002 cycles:  347342697 heartbeat IPC: 1.12598 cumulative IPC: 1.07274 (Simulation time: 0 hr 18 min 13 sec) 
Heartbeat CPU  0 instructions:  416000000 cycles:  348191474 heartbeat IPC: 1.17816 cumulative IPC: 1.07304 (Simulation time: 0 hr 18 min 16 sec) 
Heartbeat CPU  0 instructions:  417000000 cycles:  349044467 heartbeat IPC: 1.17234 cumulative IPC: 1.07333 (Simulation time: 0 hr 18 min 19 sec) 
Heartbeat CPU  0 instructions:  418000002 cycles:  349884897 heartbeat IPC: 1.18987 cumulative IPC: 1.07366 (Simulation time: 0 hr 18 min 21 sec) 
Heartbeat CPU  0 instructions:  419000002 cycles:  350725902 heartbeat IPC: 1.18905 cumulative IPC: 1.07398 (Simulation time: 0 hr 18 min 24 sec) 
Heartbeat CPU  0 instructions:  420000000 cycles:  351565896 heartbeat IPC: 1.19048 cumulative IPC: 1.07431 (Simulation time: 0 hr 18 min 27 sec) 
Heartbeat CPU  0 instructions:  421000000 cycles:  352412997 heartbeat IPC: 1.18050 cumulative IPC: 1.07461 (Simulation time: 0 hr 18 min 30 sec) 
Heartbeat CPU  0 instructions:  422000001 cycles:  353266842 heartbeat IPC: 1.17117 cumulative IPC: 1.07489 (Simulation time: 0 hr 18 min 32 sec) 
Heartbeat CPU  0 instructions:  423000002 cycles:  354116158 heartbeat IPC: 1.17742 cumulative IPC: 1.07518 (Simulation time: 0 hr 18 min 35 sec) 
Heartbeat CPU  0 instructions:  424000000 cycles:  354933235 heartbeat IPC: 1.22387 cumulative IPC: 1.07558 (Simulation time: 0 hr 18 min 38 sec) 
Heartbeat CPU  0 instructions:  425000003 cycles:  355850389 heartbeat IPC: 1.09033 cumulative IPC: 1.07563 (Simulation time: 0 hr 18 min 40 sec) 
Heartbeat CPU  0 instructions:  426000003 cycles:  356704476 heartbeat IPC: 1.17084 cumulative IPC: 1.07589 (Simulation time: 0 hr 18 min 43 sec) 
Heartbeat CPU  0 instructions:  427000000 cycles:  357551675 heartbeat IPC: 1.18036 cumulative IPC: 1.07619 (Simulation time: 0 hr 18 min 46 sec) 
Heartbeat CPU  0 instructions:  428000000 cycles:  358402295 heartbeat IPC: 1.17561 cumulative IPC: 1.07646 (Simulation time: 0 hr 18 min 49 sec) 
Heartbeat CPU  0 instructions:  429000001 cycles:  359242852 heartbeat IPC: 1.18969 cumulative IPC: 1.07677 (Simulation time: 0 hr 18 min 52 sec) 
Heartbeat CPU  0 instructions:  430000003 cycles:  360085192 heartbeat IPC: 1.18717 cumulative IPC: 1.07708 (Simulation time: 0 hr 18 min 54 sec) 
Heartbeat CPU  0 instructions:  431000000 cycles:  360935954 heartbeat IPC: 1.17541 cumulative IPC: 1.07735 (Simulation time: 0 hr 18 min 57 sec) 
Heartbeat CPU  0 instructions:  432000000 cycles:  361784450 heartbeat IPC: 1.17856 cumulative IPC: 1.07763 (Simulation time: 0 hr 19 min 0 sec) 
Heartbeat CPU  0 instructions:  433000001 cycles:  362640732 heartbeat IPC: 1.16784 cumulative IPC: 1.07788 (Simulation time: 0 hr 19 min 2 sec) 
Heartbeat CPU  0 instructions:  434000001 cycles:  363467339 heartbeat IPC: 1.20976 cumulative IPC: 1.07823 (Simulation time: 0 hr 19 min 5 sec) 
Heartbeat CPU  0 instructions:  435000003 cycles:  364337620 heartbeat IPC: 1.14906 cumulative IPC: 1.07843 (Simulation time: 0 hr 19 min 8 sec) 
Heartbeat CPU  0 instructions:  436000000 cycles:  365238729 heartbeat IPC: 1.10974 cumulative IPC: 1.07852 (Simulation time: 0 hr 19 min 11 sec) 
Heartbeat CPU  0 instructions:  437000001 cycles:  366093517 heartbeat IPC: 1.16988 cumulative IPC: 1.07877 (Simulation time: 0 hr 19 min 13 sec) 
Heartbeat CPU  0 instructions:  438000000 cycles:  366941265 heartbeat IPC: 1.17959 cumulative IPC: 1.07904 (Simulation time: 0 hr 19 min 16 sec) 
Heartbeat CPU  0 instructions:  439000003 cycles:  367789951 heartbeat IPC: 1.17830 cumulative IPC: 1.07931 (Simulation time: 0 hr 19 min 19 sec) 
Heartbeat CPU  0 instructions:  440000000 cycles:  368634813 heartbeat IPC: 1.18362 cumulative IPC: 1.07959 (Simulation time: 0 hr 19 min 22 sec) 
Heartbeat CPU  0 instructions:  441000001 cycles:  369483282 heartbeat IPC: 1.17859 cumulative IPC: 1.07986 (Simulation time: 0 hr 19 min 24 sec) 
Heartbeat CPU  0 instructions:  442000000 cycles:  370335931 heartbeat IPC: 1.17281 cumulative IPC: 1.08011 (Simulation time: 0 hr 19 min 27 sec) 
Heartbeat CPU  0 instructions:  443000003 cycles:  371184664 heartbeat IPC: 1.17823 cumulative IPC: 1.08037 (Simulation time: 0 hr 19 min 30 sec) 
Heartbeat CPU  0 instructions:  444000000 cycles:  372028625 heartbeat IPC: 1.18489 cumulative IPC: 1.08065 (Simulation time: 0 hr 19 min 33 sec) 
Heartbeat CPU  0 instructions:  445000000 cycles:  372862064 heartbeat IPC: 1.19985 cumulative IPC: 1.08096 (Simulation time: 0 hr 19 min 35 sec) 
Heartbeat CPU  0 instructions:  446000000 cycles:  373783813 heartbeat IPC: 1.08489 cumulative IPC: 1.08097 (Simulation time: 0 hr 19 min 38 sec) 
Heartbeat CPU  0 instructions:  447000001 cycles:  374633105 heartbeat IPC: 1.17745 cumulative IPC: 1.08122 (Simulation time: 0 hr 19 min 41 sec) 
Heartbeat CPU  0 instructions:  448000000 cycles:  375484204 heartbeat IPC: 1.17495 cumulative IPC: 1.08147 (Simulation time: 0 hr 19 min 43 sec) 
Heartbeat CPU  0 instructions:  449000001 cycles:  376338173 heartbeat IPC: 1.17100 cumulative IPC: 1.08171 (Simulation time: 0 hr 19 min 46 sec) 
Heartbeat CPU  0 instructions:  450000000 cycles:  377189917 heartbeat IPC: 1.17406 cumulative IPC: 1.08195 (Simulation time: 0 hr 19 min 49 sec) 
Heartbeat CPU  0 instructions:  451000000 cycles:  378046241 heartbeat IPC: 1.16778 cumulative IPC: 1.08218 (Simulation time: 0 hr 19 min 52 sec) 
Heartbeat CPU  0 instructions:  452000000 cycles:  378894198 heartbeat IPC: 1.17931 cumulative IPC: 1.08243 (Simulation time: 0 hr 19 min 54 sec) 
Heartbeat CPU  0 instructions:  453000002 cycles:  379748136 heartbeat IPC: 1.17105 cumulative IPC: 1.08266 (Simulation time: 0 hr 19 min 57 sec) 
Heartbeat CPU  0 instructions:  454000000 cycles:  380597172 heartbeat IPC: 1.17780 cumulative IPC: 1.08291 (Simulation time: 0 hr 20 min 0 sec) 
Heartbeat CPU  0 instructions:  455000002 cycles:  381420727 heartbeat IPC: 1.21425 cumulative IPC: 1.08324 (Simulation time: 0 hr 20 min 2 sec) 
Heartbeat CPU  0 instructions:  456000000 cycles:  382303088 heartbeat IPC: 1.13332 cumulative IPC: 1.08338 (Simulation time: 0 hr 20 min 5 sec) 
Heartbeat CPU  0 instructions:  457000002 cycles:  383203285 heartbeat IPC: 1.11087 cumulative IPC: 1.08345 (Simulation time: 0 hr 20 min 8 sec) 
Heartbeat CPU  0 instructions:  458000000 cycles:  384056663 heartbeat IPC: 1.17181 cumulative IPC: 1.08368 (Simulation time: 0 hr 20 min 10 sec) 
Heartbeat CPU  0 instructions:  459000000 cycles:  384908223 heartbeat IPC: 1.17432 cumulative IPC: 1.08391 (Simulation time: 0 hr 20 min 13 sec) 
Heartbeat CPU  0 instructions:  460000000 cycles:  385761786 heartbeat IPC: 1.17156 cumulative IPC: 1.08414 (Simulation time: 0 hr 20 min 16 sec) 
Heartbeat CPU  0 instructions:  461000000 cycles:  386613722 heartbeat IPC: 1.17380 cumulative IPC: 1.08437 (Simulation time: 0 hr 20 min 19 sec) 
Heartbeat CPU  0 instructions:  462000000 cycles:  387467723 heartbeat IPC: 1.17096 cumulative IPC: 1.08459 (Simulation time: 0 hr 20 min 21 sec) 
Heartbeat CPU  0 instructions:  463000002 cycles:  388314845 heartbeat IPC: 1.18047 cumulative IPC: 1.08483 (Simulation time: 0 hr 20 min 24 sec) 
Heartbeat CPU  0 instructions:  464000000 cycles:  389168925 heartbeat IPC: 1.17085 cumulative IPC: 1.08505 (Simulation time: 0 hr 20 min 27 sec) 
Heartbeat CPU  0 instructions:  465000003 cycles:  390003881 heartbeat IPC: 1.19767 cumulative IPC: 1.08533 (Simulation time: 0 hr 20 min 30 sec) 
Heartbeat CPU  0 instructions:  466000001 cycles:  390835838 heartbeat IPC: 1.20198 cumulative IPC: 1.08562 (Simulation time: 0 hr 20 min 32 sec) 
Heartbeat CPU  0 instructions:  467000000 cycles:  391754475 heartbeat IPC: 1.08857 cumulative IPC: 1.08563 (Simulation time: 0 hr 20 min 35 sec) 
Heartbeat CPU  0 instructions:  468000000 cycles:  392609992 heartbeat IPC: 1.16888 cumulative IPC: 1.08584 (Simulation time: 0 hr 20 min 38 sec) 
Heartbeat CPU  0 instructions:  469000002 cycles:  393462044 heartbeat IPC: 1.17364 cumulative IPC: 1.08606 (Simulation time: 0 hr 20 min 41 sec) 
Heartbeat CPU  0 instructions:  470000003 cycles:  394312965 heartbeat IPC: 1.17520 cumulative IPC: 1.08628 (Simulation time: 0 hr 20 min 43 sec) 
Heartbeat CPU  0 instructions:  471000001 cycles:  395168228 heartbeat IPC: 1.16923 cumulative IPC: 1.08649 (Simulation time: 0 hr 20 min 46 sec) 
Heartbeat CPU  0 instructions:  472000000 cycles:  396019715 heartbeat IPC: 1.17441 cumulative IPC: 1.08671 (Simulation time: 0 hr 20 min 49 sec) 
Heartbeat CPU  0 instructions:  473000000 cycles:  396872998 heartbeat IPC: 1.17194 cumulative IPC: 1.08692 (Simulation time: 0 hr 20 min 52 sec) 
Heartbeat CPU  0 instructions:  474000002 cycles:  397722442 heartbeat IPC: 1.17724 cumulative IPC: 1.08714 (Simulation time: 0 hr 20 min 54 sec) 
Heartbeat CPU  0 instructions:  475000000 cycles:  398574881 heartbeat IPC: 1.17310 cumulative IPC: 1.08735 (Simulation time: 0 hr 20 min 57 sec) 
Heartbeat CPU  0 instructions:  476000000 cycles:  399399125 heartbeat IPC: 1.21323 cumulative IPC: 1.08765 (Simulation time: 0 hr 21 min 0 sec) 
Heartbeat CPU  0 instructions:  477000003 cycles:  400294922 heartbeat IPC: 1.11633 cumulative IPC: 1.08773 (Simulation time: 0 hr 21 min 2 sec) 
Heartbeat CPU  0 instructions:  478000001 cycles:  401158514 heartbeat IPC: 1.15795 cumulative IPC: 1.08790 (Simulation time: 0 hr 21 min 5 sec) 
Heartbeat CPU  0 instructions:  479000000 cycles:  402010377 heartbeat IPC: 1.17390 cumulative IPC: 1.08811 (Simulation time: 0 hr 21 min 8 sec) 
Heartbeat CPU  0 instructions:  480000000 cycles:  402864425 heartbeat IPC: 1.17089 cumulative IPC: 1.08831 (Simulation time: 0 hr 21 min 11 sec) 
Heartbeat CPU  0 instructions:  481000001 cycles:  403714522 heartbeat IPC: 1.17634 cumulative IPC: 1.08853 (Simulation time: 0 hr 21 min 13 sec) 
Heartbeat CPU  0 instructions:  482000003 cycles:  404566501 heartbeat IPC: 1.17374 cumulative IPC: 1.08874 (Simulation time: 0 hr 21 min 16 sec) 
Heartbeat CPU  0 instructions:  483000000 cycles:  405417658 heartbeat IPC: 1.17487 cumulative IPC: 1.08894 (Simulation time: 0 hr 21 min 19 sec) 
Heartbeat CPU  0 instructions:  484000000 cycles:  406267390 heartbeat IPC: 1.17684 cumulative IPC: 1.08916 (Simulation time: 0 hr 21 min 22 sec) 
Heartbeat CPU  0 instructions:  485000001 cycles:  407121254 heartbeat IPC: 1.17115 cumulative IPC: 1.08935 (Simulation time: 0 hr 21 min 24 sec) 
Heartbeat CPU  0 instructions:  486000000 cycles:  407949413 heartbeat IPC: 1.20750 cumulative IPC: 1.08963 (Simulation time: 0 hr 21 min 27 sec) 
Heartbeat CPU  0 instructions:  487000002 cycles:  408793587 heartbeat IPC: 1.18459 cumulative IPC: 1.08986 (Simulation time: 0 hr 21 min 30 sec) 
Heartbeat CPU  0 instructions:  488000000 cycles:  409701450 heartbeat IPC: 1.10149 cumulative IPC: 1.08989 (Simulation time: 0 hr 21 min 33 sec) 
Heartbeat CPU  0 instructions:  489000000 cycles:  410555767 heartbeat IPC: 1.17053 cumulative IPC: 1.09008 (Simulation time: 0 hr 21 min 35 sec) 
Heartbeat CPU  0 instructions:  490000000 cycles:  411405305 heartbeat IPC: 1.17711 cumulative IPC: 1.09029 (Simulation time: 0 hr 21 min 38 sec) 
Heartbeat CPU  0 instructions:  491000001 cycles:  412259502 heartbeat IPC: 1.17069 cumulative IPC: 1.09048 (Simulation time: 0 hr 21 min 41 sec) 
Heartbeat CPU  0 instructions:  492000000 cycles:  413110444 heartbeat IPC: 1.17517 cumulative IPC: 1.09068 (Simulation time: 0 hr 21 min 44 sec) 
Heartbeat CPU  0 instructions:  493000000 cycles:  413963967 heartbeat IPC: 1.17161 cumulative IPC: 1.09087 (Simulation time: 0 hr 21 min 46 sec) 
Heartbeat CPU  0 instructions:  494000003 cycles:  414815690 heartbeat IPC: 1.17409 cumulative IPC: 1.09107 (Simulation time: 0 hr 21 min 49 sec) 
Heartbeat CPU  0 instructions:  495000001 cycles:  415665031 heartbeat IPC: 1.17738 cumulative IPC: 1.09127 (Simulation time: 0 hr 21 min 52 sec) 
Heartbeat CPU  0 instructions:  496000000 cycles:  416519630 heartbeat IPC: 1.17014 cumulative IPC: 1.09145 (Simulation time: 0 hr 21 min 55 sec) 
Heartbeat CPU  0 instructions:  497000003 cycles:  417329001 heartbeat IPC: 1.23553 cumulative IPC: 1.09177 (Simulation time: 0 hr 21 min 57 sec) 
Heartbeat CPU  0 instructions:  498000001 cycles:  418236382 heartbeat IPC: 1.10207 cumulative IPC: 1.09180 (Simulation time: 0 hr 22 min 0 sec) 
Heartbeat CPU  0 instructions:  499000001 cycles:  419098532 heartbeat IPC: 1.15989 cumulative IPC: 1.09196 (Simulation time: 0 hr 22 min 3 sec) 
Heartbeat CPU  0 instructions:  500000000 cycles:  419953543 heartbeat IPC: 1.16957 cumulative IPC: 1.09214 (Simulation time: 0 hr 22 min 5 sec) 
Heartbeat CPU  0 instructions:  501000003 cycles:  420803588 heartbeat IPC: 1.17641 cumulative IPC: 1.09234 (Simulation time: 0 hr 22 min 8 sec) 
Heartbeat CPU  0 instructions:  502000003 cycles:  421657433 heartbeat IPC: 1.17117 cumulative IPC: 1.09252 (Simulation time: 0 hr 22 min 11 sec) 
Heartbeat CPU  0 instructions:  503000002 cycles:  422507602 heartbeat IPC: 1.17624 cumulative IPC: 1.09271 (Simulation time: 0 hr 22 min 14 sec) 
Heartbeat CPU  0 instructions:  504000000 cycles:  423359700 heartbeat IPC: 1.17357 cumulative IPC: 1.09290 (Simulation time: 0 hr 22 min 16 sec) 
Heartbeat CPU  0 instructions:  505000000 cycles:  424210070 heartbeat IPC: 1.17596 cumulative IPC: 1.09309 (Simulation time: 0 hr 22 min 19 sec) 
Heartbeat CPU  0 instructions:  506000002 cycles:  425058866 heartbeat IPC: 1.17814 cumulative IPC: 1.09328 (Simulation time: 0 hr 22 min 22 sec) 
Heartbeat CPU  0 instructions:  507000001 cycles:  425884024 heartbeat IPC: 1.21189 cumulative IPC: 1.09355 (Simulation time: 0 hr 22 min 25 sec) 
Heartbeat CPU  0 instructions:  508000000 cycles:  426755285 heartbeat IPC: 1.14776 cumulative IPC: 1.09367 (Simulation time: 0 hr 22 min 27 sec) 
Heartbeat CPU  0 instructions:  509000002 cycles:  427653773 heartbeat IPC: 1.11298 cumulative IPC: 1.09372 (Simulation time: 0 hr 22 min 30 sec) 
Heartbeat CPU  0 instructions:  510000002 cycles:  428507434 heartbeat IPC: 1.17143 cumulative IPC: 1.09390 (Simulation time: 0 hr 22 min 33 sec) 
Heartbeat CPU  0 instructions:  511000001 cycles:  429363015 heartbeat IPC: 1.16880 cumulative IPC: 1.09407 (Simulation time: 0 hr 22 min 35 sec) 
Heartbeat CPU  0 instructions:  512000000 cycles:  430210455 heartbeat IPC: 1.18002 cumulative IPC: 1.09426 (Simulation time: 0 hr 22 min 38 sec) 
[...]
scooby_state_40f296|31|-32 1,0,0,0,0,0,0,0,0,0,0,0,0,0,0,1,
scooby_state_410784|30|1 1,0,0,0,0,0,0,0,0,0,0,0,0,0,0,1,
scooby_state_410c00|48|1 1,0,0,0,0,0,0,0,0,0,0,0,0,0,0,1,
scooby_state_410a49|44|1 1,0,0,0,0,0,0,0,0,0,0,0,0,0,0,1,
scooby_state_40f88e|35|6 1,0,0,0,0,0,0,0,0,0,0,0,0,0,0,1,
scooby_state_410c92|28|-16 1,0,0,0,0,0,0,0,0,0,0,0,0,0,0,1,
scooby_state_40f194|2|-32 1,0,0,0,0,0,0,0,0,0,0,0,0,0,0,1,
scooby_state_40fd2b|55|1 1,0,0,0,0,0,0,0,0,0,0,0,0,0,0,1,
scooby_state_410dc2|55|1 1,0,0,0,0,0,0,0,0,0,0,0,0,0,0,1,
scooby_state_400782|30|1 1,0,0,0,0,0,0,0,0,0,0,0,0,0,0,1,
scooby_state_410ac2|49|0 1,0,0,0,0,0,0,0,0,0,0,0,0,0,0,1,
scooby_state_410d13|12|-16 1,0,0,0,0,0,0,0,0,0,0,0,0,0,0,1,
scooby_state_40f00b|47|-6 1,0,0,0,0,0,0,0,0,0,0,0,0,0,0,1,
scooby_state_40f6e9|48|-14 1,0,0,0,0,0,0,0,0,0,0,0,0,0,0,1,
scooby_state_40f00b|36|6 1,0,0,0,0,0,0,0,0,0,0,0,0,0,0,1,
scooby_state_410b38|47|-1 1,0,0,0,0,0,0,0,0,0,0,0,0,0,0,1,
scooby_state_410cfc|57|0 1,0,0,0,0,0,0,0,0,0,0,0,0,0,0,1,
scooby_state_40f84e|14|13 1,0,0,0,0,0,0,0,0,0,0,0,0,0,0,1,
scooby_state_4003ef|45|2 1,0,0,0,0,0,0,0,0,0,0,0,0,0,0,1,
scooby_state_40f750|14|14 1,0,0,0,0,0,0,0,0,0,0,0,0,0,0,1,
scooby_state_4006c4|61|0 1,0,0,0,0,0,0,0,0,0,0,0,0,0,0,1,
scooby_state_40f6a2|15|-4 1,0,0,0,0,0,0,0,0,0,0,0,0,0,0,1,
scooby_state_400424|44|-1 1,0,0,0,0,0,0,0,0,0,0,0,0,0,0,1,
scooby_state_411141|5|1 1,0,0,0,0,0,0,0,0,0,0,0,0,0,0,1,
scooby_state_40f6f6|13|1 1,0,0,0,0,0,0,0,0,0,0,0,0,0,0,1,
scooby_state_40f276|39|32 1,0,0,0,0,0,0,0,0,0,0,0,0,0,0,1,
scooby_state_4003ef|57|2 1,0,0,0,0,0,0,0,0,0,0,0,0,0,0,1,
scooby_state_40ed59|63|10 1,0,0,0,0,0,0,0,0,0,0,0,0,0,0,1,
scooby_state_40039f|46|3 1,0,0,0,0,0,0,0,0,0,0,0,0,0,0,1,
scooby_state_40e845|33|1 1,0,0,0,0,0,0,0,0,0,0,0,0,0,0,1,
scooby_state_4003e3|15|0 1,0,0,0,0,0,0,0,0,0,0,0,0,0,0,1,
scooby_state_40070d|62|1 1,0,0,0,0,0,0,0,0,0,0,0,0,0,0,1,
scooby_state_401135|17|0 1,0,0,0,0,0,0,0,0,0,0,0,0,0,0,1,
scooby_state_400cc0|51|1 1,0,0,0,0,0,0,0,0,0,0,0,0,0,0,1,
scooby_state_40f875|56|6 1,0,0,0,0,0,0,0,0,0,0,0,0,0,0,1,
scooby_state_410d80|29|0 1,0,0,0,0,0,0,0,0,0,0,0,0,0,0,1,
scooby_state_400601|24|1 1,0,0,0,0,0,0,0,0,0,0,0,0,0,0,1,
scooby_state_40f875|28|9 1,0,0,0,0,0,0,0,0,0,0,0,0,0,0,1,
scooby_state_40e9c8|39|1 1,0,0,0,0,0,0,0,0,0,0,0,0,0,0,1,
scooby_state_410a49|48|0 1,0,0,0,0,0,0,0,0,0,0,0,0,0,0,1,
scooby_state_40f413|58|-1 1,0,0,0,0,0,0,0,0,0,0,0,0,0,0,1,
scooby_state_410cfc|34|0 1,0,0,0,0,0,0,0,0,0,0,0,0,0,0,1,
scooby_state_410cf3|17|0 1,0,0,0,0,0,0,0,0,0,0,0,0,0,0,1,
scooby_state_410c92|29|-16 1,0,0,0,0,0,0,0,0,0,0,0,0,0,0,1,
scooby_state_410d20|13|1 1,0,0,0,0,0,0,0,0,0,0,0,0,0,0,1,
scooby_state_40f88e|19|13 1,0,0,0,0,0,0,0,0,0,0,0,0,0,0,1,
scooby_state_40f6f6|13|-5 1,0,0,0,0,0,0,0,0,0,0,0,0,0,0,1,
scooby_state_400a74|41|0 1,0,0,0,0,0,0,0,0,0,0,0,0,0,0,1,
scooby_state_4113c0|15|1 1,0,0,0,0,0,0,0,0,0,0,0,0,0,0,1,
scooby_state_40fc03|54|1 1,0,0,0,0,0,0,0,0,0,0,0,0,0,0,1,
scooby_state_40f291|46|17 1,0,0,0,0,0,0,0,0,0,0,0,0,0,0,1,
scooby_state_40f00b|39|12 1,0,0,0,0,0,0,0,0,0,0,0,0,0,0,1,
scooby_state_40f314|10|-32 1,0,0,0,0,0,0,0,0,0,0,0,0,0,0,1,
scooby_state_40f296|29|-32 1,0,0,0,0,0,0,0,0,0,0,0,0,0,0,1,
scooby_state_40fd30|5|1 1,0,0,0,0,0,0,0,0,0,0,0,0,0,0,1,
scooby_state_41132d|23|0 1,0,0,0,0,0,0,0,0,0,0,0,0,0,0,1,
scooby_state_401081|62|0 1,0,0,0,0,0,0,0,0,0,0,0,0,0,0,1,
scooby_state_410a49|4|0 1,0,0,0,0,0,0,0,0,0,0,0,0,0,0,1,
scooby_state_40fc10|39|-16 1,0,0,0,0,0,0,0,0,0,0,0,0,0,0,1,
scooby_state_40ed53|54|8 1,0,0,0,0,0,0,0,0,0,0,0,0,0,0,1,
scooby_state_410c7b|61|17 1,0,0,0,0,0,0,0,0,0,0,0,0,0,0,1,
scooby_state_40f875|52|12 1,0,0,0,0,0,0,0,0,0,0,0,0,0,0,1,
scooby_state_4003ef|14|2 1,0,0,0,0,0,0,0,0,0,0,0,0,0,0,1,
scooby_state_40f6f6|13|-4 1,0,0,0,0,0,0,0,0,0,0,0,0,0,0,1,
scooby_state_40f00b|62|14 1,0,0,0,0,0,0,0,0,0,0,0,0,0,0,1,
scooby_state_40f750|8|0 1,0,0,0,0,0,0,0,0,0,0,0,0,0,0,1,
scooby_state_40f00b|47|6 1,0,0,0,0,0,0,0,0,0,0,0,0,0,0,1,
scooby_state_40e684|26|1 1,0,0,0,0,0,0,0,0,0,0,0,0,0,0,1,
scooby_state_40f875|37|7 1,0,0,0,0,0,0,0,0,0,0,0,0,0,0,1,
scooby_state_40e302|12|1 1,0,0,0,0,0,0,0,0,0,0,0,0,0,0,1,
scooby_state_40f00b|42|-1 1,0,0,0,0,0,0,0,0,0,0,0,0,0,0,1,
scooby_state_40f826|34|2 1,0,0,0,0,0,0,0,0,0,0,0,0,0,0,1,
scooby_state_40ee82|58|1 1,0,0,0,0,0,0,0,0,0,0,0,0,0,0,1,
scooby_state_40ed9d|45|-9 1,0,0,0,0,0,0,0,0,0,0,0,0,0,0,1,
scooby_state_410cf3|24|0 1,0,0,0,0,0,0,0,0,0,0,0,0,0,0,1,
scooby_state_410807|29|2 1,0,0,0,0,0,0,0,0,0,0,0,0,0,0,1,
scooby_state_410cfc|27|17 1,0,0,0,0,0,0,0,0,0,0,0,0,0,0,1,
scooby_state_4003ef|12|2 1,0,0,0,0,0,0,0,0,0,0,0,0,0,0,1,
scooby_state_40122a|59|20 1,0,0,0,0,0,0,0,0,0,0,0,0,0,0,1,
scooby_state_40f21d|10|-32 1,0,0,0,0,0,0,0,0,0,0,0,0,0,0,1,
scooby_state_40f6e9|60|10 1,0,0,0,0,0,0,0,0,0,0,0,0,0,0,1,
scooby_state_410ac2|50|1 1,0,0,0,0,0,0,0,0,0,0,0,0,0,0,1,
scooby_state_40f043|1|1 1,0,0,0,0,0,0,0,0,0,0,0,0,0,0,1,
scooby_state_400424|13|-1 1,0,0,0,0,0,0,0,0,0,0,0,0,0,0,1,
scooby_state_40f6e9|39|-14 1,0,0,0,0,0,0,0,0,0,0,0,0,0,0,1,
scooby_state_410f81|62|1 1,0,0,0,0,0,0,0,0,0,0,0,0,0,0,1,
scooby_state_40f296|21|1 1,0,0,0,0,0,0,0,0,0,0,0,0,0,0,1,
scooby_state_40eb9f|33|4 1,0,0,0,0,0,0,0,0,0,0,0,0,0,0,1,
scooby_state_4003ef|15|2 1,0,0,0,0,0,0,0,0,0,0,0,0,0,0,1,
scooby_state_40f30f|19|17 1,0,0,0,0,0,0,0,0,0,0,0,0,0,0,1,
scooby_state_4003ef|54|2 1,0,0,0,0,0,0,0,0,0,0,0,0,0,0,1,
scooby_state_40f314|55|4 1,0,0,0,0,0,0,0,0,0,0,0,0,0,0,1,
scooby_state_40f690|35|-14 1,0,0,0,0,0,0,0,0,0,0,0,0,0,0,1,
scooby_state_40040d|15|0 1,0,0,0,0,0,0,0,0,0,0,0,0,0,0,1,
scooby_state_40fc71|38|1 1,0,0,0,0,0,0,0,0,0,0,0,0,0,0,1,
scooby_state_40f84e|22|13 1,0,0,0,0,0,0,0,0,0,0,0,0,0,0,1,
scooby_state_40f875|46|14 1,0,0,0,0,0,0,0,0,0,0,0,0,0,0,1,
scooby_state_40f218|45|1 1,0,0,0,0,0,0,0,0,0,0,0,0,0,0,1,
scooby_state_40f000|0|0 1,0,0,0,0,0,0,0,0,0,0,0,0,0,0,1,
scooby_state_40f750|11|1 1,0,0,0,0,0,0,0,0,0,0,0,0,0,0,1,
scooby_state_40f349|40|-7 1,0,0,0,0,0,0,0,0,0,0,0,0,0,0,1,
scooby_state_40f8d0|14|11 1,0,0,0,0,0,0,0,0,0,0,0,0,0,0,1,
scooby_state_40e400|16|1 1,0,0,0,0,0,0,0,0,0,0,0,0,0,0,1,
scooby_state_410d80|38|0 1,0,0,0,0,0,0,0,0,0,0,0,0,0,0,1,
scooby_state_40f750|13|-4 1,0,0,0,0,0,0,0,0,0,0,0,0,0,0,1,
scooby_state_410807|20|2 1,0,0,0,0,0,0,0,0,0,0,0,0,0,0,1,
scooby_state_40f276|55|0 1,0,0,0,0,0,0,0,0,0,0,0,0,0,0,1,
scooby_state_40f750|8|-1 1,0,0,0,0,0,0,0,0,0,0,0,0,0,0,1,
scooby_state_40f826|31|2 1,0,0,0,0,0,0,0,0,0,0,0,0,0,0,1,
scooby_state_410d97|9|-16 1,0,0,0,0,0,0,0,0,0,0,0,0,0,0,1,
scooby_state_40f750|3|-2 1,0,0,0,0,0,0,0,0,0,0,0,0,0,0,1,
scooby_state_40040d|57|1 1,0,0,0,0,0,0,0,0,0,0,0,0,0,0,1,
scooby_state_40ed59|63|33 1,0,0,0,0,0,0,0,0,0,0,0,0,0,0,1,
scooby_state_400f71|59|0 1,0,0,0,0,0,0,0,0,0,0,0,0,0,0,1,
scooby_state_40f276|53|0 1,0,0,0,0,0,0,0,0,0,0,0,0,0,0,1,
scooby_state_40f750|15|8 1,0,0,0,0,0,0,0,0,0,0,0,0,0,0,1,
scooby_state_40f145|5|1 1,0,0,0,0,0,0,0,0,0,0,0,0,0,0,1,
scooby_state_40f1c2|7|1 1,0,0,0,0,0,0,0,0,0,0,0,0,0,0,1,
scooby_state_40f201|8|1 1,0,0,0,0,0,0,0,0,0,0,0,0,0,0,1,
scooby_state_410f02|60|1 1,0,0,0,0,0,0,0,0,0,0,0,0,0,0,1,
scooby_state_40f243|9|1 1,0,0,0,0,0,0,0,0,0,0,0,0,0,0,1,
scooby_state_40f282|10|1 1,0,0,0,0,0,0,0,0,0,0,0,0,0,0,1,
scooby_state_40f2c1|11|1 1,0,0,0,0,0,0,0,0,0,0,0,0,0,0,1,
scooby_state_40f300|12|1 1,0,0,0,0,0,0,0,0,0,0,0,0,0,0,1,
scooby_state_410d80|16|0 1,0,0,0,0,0,0,0,0,0,0,0,0,0,0,1,
scooby_state_410d97|54|48 1,0,0,0,0,0,0,0,0,0,0,0,0,0,0,1,
scooby_state_411484|18|0 1,0,0,0,0,0,0,0,0,0,0,0,0,0,0,1,
scooby_state_40f801|32|1 1,0,0,0,0,0,0,0,0,0,0,0,0,0,0,1,
scooby_state_40f690|11|-30 1,0,0,0,0,0,0,0,0,0,0,0,0,0,0,1,
scooby_state_410d97|50|48 1,0,0,0,0,0,0,0,0,0,0,0,0,0,0,1,
scooby_state_4015fa|16|-1 1,0,0,0,0,0,0,0,0,0,0,0,0,0,0,1,
scooby_state_4003ef|4|2 1,0,0,0,0,0,0,0,0,0,0,0,0,0,0,1,
scooby_state_41125f|39|-8 1,0,0,0,0,0,0,0,0,0,0,0,0,0,0,1,
scooby_state_40f194|56|8 1,0,0,0,0,0,0,0,0,0,0,0,0,0,0,1,
scooby_state_40f296|5|1 1,0,0,0,0,0,0,0,0,0,0,0,0,0,0,1,
scooby_state_40f296|61|6 1,0,0,0,0,0,0,0,0,0,0,0,0,0,0,1,
scooby_state_40ed53|56|16 1,0,0,0,0,0,0,0,0,0,0,0,0,0,0,1,
scooby_state_40f736|58|10 1,0,0,0,0,0,0,0,0,0,0,0,0,0,0,1,
scooby_state_410d77|0|-63 1,0,0,0,0,0,0,0,0,0,0,0,0,0,0,1,
scooby_state_410aa0|5|0 1,0,0,0,0,0,0,0,0,0,0,0,0,0,0,1,
scooby_state_40f6f6|15|-1 1,0,0,0,0,0,0,0,0,0,0,0,0,0,0,1,
scooby_state_40f314|31|-32 1,0,0,0,0,0,0,0,0,0,0,0,0,0,0,1,
scooby_state_400d52|43|-1 1,0,0,0,0,0,0,0,0,0,0,0,0,0,0,1,
scooby_state_410aa0|58|0 1,0,0,0,0,0,0,0,0,0,0,0,0,0,0,1,
scooby_state_410a49|52|1 1,0,0,0,0,0,0,0,0,0,0,0,0,0,0,1,
scooby_state_40f88e|62|10 1,0,0,0,0,0,0,0,0,0,0,0,0,0,0,1,
scooby_state_410a49|3|0 1,0,0,0,0,0,0,0,0,0,0,0,0,0,0,1,
scooby_state_40f7bb|20|0 1,0,0,0,0,0,0,0,0,0,0,0,0,0,0,1,
scooby_state_40f88e|30|8 1,0,0,0,0,0,0,0,0,0,0,0,0,0,0,1,
scooby_state_4114c1|19|1 1,0,0,0,0,0,0,0,0,0,0,0,0,0,0,1,
scooby_state_40fc6c|20|1 1,0,0,0,0,0,0,0,0,0,0,0,0,0,0,1,
scooby_state_40ea41|41|1 1,0,0,0,0,0,0,0,0,0,0,0,0,0,0,1,
scooby_state_40f875|63|13 1,0,0,0,0,0,0,0,0,0,0,0,0,0,0,1,
scooby_state_4003ef|62|2 1,0,0,0,0,0,0,0,0,0,0,0,0,0,0,1,
scooby_state_410cfc|20|17 1,0,0,0,0,0,0,0,0,0,0,0,0,0,0,1,
scooby_state_400413|45|0 1,0,0,0,0,0,0,0,0,0,0,0,0,0,0,1,
scooby_state_40f21d|62|15 1,0,0,0,0,0,0,0,0,0,0,0,0,0,0,1,
scooby_state_40f1f5|4|2 1,0,0,0,0,0,0,0,0,0,0,0,0,0,0,1,
scooby_state_400424|52|-1 1,0,0,0,0,0,0,0,0,0,0,0,0,0,0,1,
scooby_state_400b3a|37|4 1,0,0,0,0,0,0,0,0,0,0,0,0,0,0,1,
scooby_state_40f8d0|23|8 1,0,0,0,0,0,0,0,0,0,0,0,0,0,0,1,
scooby_state_40f88e|40|8 1,0,0,0,0,0,0,0,0,0,0,0,0,0,0,1,
scooby_state_400364|47|3 1,0,0,0,0,0,0,0,0,0,0,0,0,0,0,1,
scooby_state_400402|16|1 1,0,0,0,0,0,0,0,0,0,0,0,0,0,0,1,
scooby_state_400424|8|-1 1,0,0,0,0,0,0,0,0,0,0,0,0,0,0,1,
scooby_state_40f314|3|-32 1,0,0,0,0,0,0,0,0,0,0,0,0,0,0,1,
scooby_state_40ea88|42|1 1,0,0,0,0,0,0,0,0,0,0,0,0,0,0,1,
scooby_state_410a49|44|0 1,0,0,0,0,0,0,0,0,0,0,0,0,0,0,1,
scooby_state_40f84e|34|9 1,0,0,0,0,0,0,0,0,0,0,0,0,0,0,1,
scooby_state_40e642|25|1 1,0,0,0,0,0,0,0,0,0,0,0,0,0,0,1,
scooby_state_410d20|9|-48 1,0,0,0,0,0,0,0,0,0,0,0,0,0,0,1,
scooby_state_40f8d0|62|4 1,0,0,0,0,0,0,0,0,0,0,0,0,0,0,1,
scooby_state_400424|50|-1 1,0,0,0,0,0,0,0,0,0,0,0,0,0,0,1,
scooby_state_410a49|8|0 1,0,0,0,0,0,0,0,0,0,0,0,0,0,0,1,
scooby_state_40f80e|18|-14 1,0,0,0,0,0,0,0,0,0,0,0,0,0,0,1,
scooby_state_4003ef|56|2 1,0,0,0,0,0,0,0,0,0,0,0,0,0,0,1,
scooby_state_40f875|14|13 1,0,0,0,0,0,0,0,0,0,0,0,0,0,0,1,
scooby_state_40f296|10|-32 1,0,0,0,0,0,0,0,0,0,0,0,0,0,0,1,
scooby_state_410ac2|9|1 1,0,0,0,0,0,0,0,0,0,0,0,0,0,0,1,
scooby_state_40f30f|40|1 1,0,0,0,0,0,0,0,0,0,0,0,0,0,0,1,
scooby_state_40f1f5|11|4 1,0,0,0,0,0,0,0,0,0,0,0,0,0,0,1,
scooby_state_40fa87|42|0 1,0,0,0,0,0,0,0,0,0,0,0,0,0,0,1,
scooby_state_40f30f|41|1 1,0,0,0,0,0,0,0,0,0,0,0,0,0,0,1,
scooby_state_410d97|46|-16 1,0,0,0,0,0,0,0,0,0,0,0,0,0,0,1,
scooby_state_40f6f6|10|4 1,0,0,0,0,0,0,0,0,0,0,0,0,0,0,1,
scooby_state_410c92|3|-16 1,0,0,0,0,0,0,0,0,0,0,0,0,0,0,1,
scooby_state_40f194|15|-32 1,0,0,0,0,0,0,0,0,0,0,0,0,0,0,1,
scooby_state_40f8d0|29|11 1,0,0,0,0,0,0,0,0,0,0,0,0,0,0,1,
scooby_state_40f84e|26|10 1,0,0,0,0,0,0,0,0,0,0,0,0,0,0,1,
scooby_state_40e484|18|1 1,0,0,0,0,0,0,0,0,0,0,0,0,0,0,1,
scooby_state_410807|5|2 1,0,0,0,0,0,0,0,0,0,0,0,0,0,0,1,
scooby_state_4015e6|16|0 1,0,0,0,0,0,0,0,0,0,0,0,0,0,0,1,
scooby_state_40f314|2|-32 1,0,0,0,0,0,0,0,0,0,0,0,0,0,0,1,
scooby_state_40181a|58|-1 1,0,0,0,0,0,0,0,0,0,0,0,0,0,0,1,
scooby_state_40f174|56|17 1,0,0,0,0,0,0,0,0,0,0,0,0,0,0,1,
scooby_state_40f291|57|17 1,0,0,0,0,0,0,0,0,0,0,0,0,0,0,1,
scooby_state_40f291|60|17 1,0,0,0,0,0,0,0,0,0,0,0,0,0,0,1,
scooby_state_40f349|13|-40 1,0,0,0,0,0,0,0,0,0,0,0,0,0,0,1,
scooby_state_410a49|29|0 1,0,0,0,0,0,0,0,0,0,0,0,0,0,0,1,
scooby_state_410b38|41|-1 1,0,0,0,0,0,0,0,0,0,0,0,0,0,0,1,
scooby_state_410aa0|20|0 1,0,0,0,0,0,0,0,0,0,0,0,0,0,0,1,
scooby_state_400424|45|-1 1,0,0,0,0,0,0,0,0,0,0,0,0,0,0,1,
scooby_state_40ed53|21|4 1,0,0,0,0,0,0,0,0,0,0,0,0,0,0,1,
scooby_state_40f18f|41|15 1,0,0,0,0,0,0,0,0,0,0,0,0,0,0,1,
scooby_state_410cfc|26|17 1,0,0,0,0,0,0,0,0,0,0,0,0,0,0,1,
scooby_state_40fcc0|51|1 1,0,0,0,0,0,0,0,0,0,0,0,0,0,0,1,
scooby_state_40eac0|43|1 1,0,0,0,0,0,0,0,0,0,0,0,0,0,0,1,
scooby_state_40f80e|22|-8 1,0,0,0,0,0,0,0,0,0,0,0,0,0,0,1,
scooby_state_40f296|20|-32 1,0,0,0,0,0,0,0,0,0,0,0,0,0,0,1,
scooby_state_40f6a2|15|8 1,0,0,0,0,0,0,0,0,0,0,0,0,0,0,1,
scooby_state_40f84e|56|10 1,0,0,0,0,0,0,0,0,0,0,0,0,0,0,1,
scooby_state_410b1e|15|0 1,0,0,0,0,0,0,0,0,0,0,0,0,0,0,1,
scooby_state_410d77|52|3 1,0,0,0,0,0,0,0,0,0,0,0,0,0,0,1,
scooby_state_410b1e|49|2 1,0,0,0,0,0,0,0,0,0,0,0,0,0,0,1,
scooby_state_410807|23|3 1,0,0,0,0,0,0,0,0,0,0,0,0,0,0,1,
scooby_state_400c8d|8|0 1,0,0,0,0,0,0,0,0,0,0,0,0,0,0,1,
scooby_state_40ee40|57|1 1,0,0,0,0,0,0,0,0,0,0,0,0,0,0,1,
scooby_state_4013dc|31|1 1,0,0,0,0,0,0,0,0,0,0,0,0,0,0,1,
scooby_state_40f750|20|1 1,0,0,0,0,0,0,0,0,0,0,0,0,0,0,1,

scooby_action_0_deg_dist 0,554,0,0,0,0,0,0,0,0,0,0,0,0,0,0,
scooby_action_4_deg_dist 0,560,0,0,0,0,0,0,0,0,0,0,0,0,0,0,
scooby_action_32_deg_dist 0,511,0,0,0,0,0,0,0,0,0,0,0,0,0,0,
scooby_action_3_deg_dist 0,16495,79,0,45,0,169,0,0,0,0,0,0,0,0,0,
scooby_action_5_deg_dist 0,527,0,0,0,0,0,0,0,0,0,0,0,0,0,0,
scooby_action_1_deg_dist 0,332422,127232,0,294583,0,3723154,0,0,0,0,0,0,0,0,0,
scooby_action_30_deg_dist 0,553,0,0,0,0,0,0,0,0,0,0,0,0,0,0,
scooby_action_-3_deg_dist 0,2215,3,0,5,0,4,0,0,0,0,0,0,0,0,0,
scooby_action_10_deg_dist 0,594,0,0,0,0,0,0,0,0,0,0,0,0,0,0,
scooby_action_-1_deg_dist 0,563,0,0,0,0,0,0,0,0,0,0,0,0,0,0,
scooby_action_23_deg_dist 0,562,0,0,0,0,0,0,0,0,0,0,0,0,0,0,
scooby_action_-6_deg_dist 0,539,0,0,0,0,0,0,0,0,0,0,0,0,0,0,
scooby_action_11_deg_dist 0,560,0,0,0,0,0,0,0,0,0,0,0,0,0,0,
scooby_action_22_deg_dist 0,577,0,0,0,0,0,0,0,0,0,0,0,0,0,0,
scooby_action_12_deg_dist 0,580,0,0,0,0,0,0,0,0,0,0,0,0,0,0,

scooby_track_called 4503086
scooby_track_same_address 33868
scooby_track_evict 4468962

scooby_reward_demand_called 4503086
scooby_reward_demand_pt_not_found 319888
scooby_reward_demand_pt_found 4183198
scooby_reward_demand_pt_found_total 4183198
scooby_reward_demand_has_reward 24804
scooby_reward_train_called 237932
scooby_reward_assign_reward_called 4469216
scooby_reward_no_pref 554
scooby_reward_incorrect 237378
scooby_reward_correct_untimely 3906554
scooby_reward_correct_timely 251840
scooby_reward_out_of_bounds 72890
scooby_reward_tracker_hit 0

scooby_reward_none_low_bw 554
scooby_reward_none_high_bw 0
scooby_reward_incorrect_low_bw 237378
scooby_reward_incorrect_high_bw 0
scooby_reward_correct_untimely_low_bw 3906554
scooby_reward_correct_untimely_high_bw 0
scooby_reward_correct_timely_low_bw 251840
scooby_reward_correct_timely_high_bw 0
scooby_reward_out_of_bounds_low_bw 72890
scooby_reward_out_of_bounds_high_bw 0
scooby_reward_tracker_hit_low_bw 0
scooby_reward_tracker_hit_high_bw 0

scooby_reward_1 0,232399,3893001,250057,70729,0,
scooby_reward_3 0,3007,12788,157,808,0,
scooby_reward_4 0,65,343,102,36,0,
scooby_reward_5 0,74,278,118,41,0,
scooby_reward_10 0,145,35,282,101,0,
scooby_reward_11 0,133,25,266,113,0,
scooby_reward_12 0,163,23,263,95,0,
scooby_reward_22 0,180,14,185,175,0,
scooby_reward_23 0,162,12,160,213,0,
scooby_reward_30 0,145,0,141,255,0,
scooby_reward_32 0,154,6,108,236,0,
scooby_reward_-1 0,49,1,0,10,0,
scooby_reward_-3 0,602,13,1,22,0,
scooby_reward_-6 0,100,15,0,56,0,
scooby_reward_0 554,0,0,0,0,0,

scooby_train_called 4468961
scooby_train_compute_reward 237932

scooby_register_fill_called 3333703
scooby_register_fill_set 262067
scooby_register_fill_set_total 262067

scooby_register_prefetch_hit_called 17522167
scooby_register_prefetch_hit_set 4449337
scooby_register_prefetch_hit_set_total 4449337

scooby_pref_issue_scooby 22537185

learning_engine_featurewise.action.called 4503086
learning_engine_featurewise.action.explore 8266
learning_engine_featurewise.action.exploit 4494820
learning_engine_featurewise.action.fallback 0
learning_engine_featurewise.action.dyn_fallback_saved_bw 0
learning_engine_featurewise.action.dyn_fallback_saved_bw_acc 39469
learning_engine_featurewise.action.index_1_explored 557
learning_engine_featurewise.action.index_1_exploited 4476834
learning_engine_featurewise.action.index_3_explored 565
learning_engine_featurewise.action.index_3_exploited 16223
learning_engine_featurewise.action.index_4_explored 556
learning_engine_featurewise.action.index_4_exploited 4
learning_engine_featurewise.action.index_5_explored 523
learning_engine_featurewise.action.index_5_exploited 4
learning_engine_featurewise.action.index_10_explored 590
learning_engine_featurewise.action.index_10_exploited 4
learning_engine_featurewise.action.index_11_explored 556
learning_engine_featurewise.action.index_11_exploited 4
learning_engine_featurewise.action.index_12_explored 576
learning_engine_featurewise.action.index_12_exploited 4
learning_engine_featurewise.action.index_22_explored 551
learning_engine_featurewise.action.index_22_exploited 26
learning_engine_featurewise.action.index_23_explored 558
learning_engine_featurewise.action.index_23_exploited 4
learning_engine_featurewise.action.index_30_explored 549
learning_engine_featurewise.action.index_30_exploited 4
learning_engine_featurewise.action.index_32_explored 507
learning_engine_featurewise.action.index_32_exploited 4
learning_engine_featurewise.action.index_-1_explored 555
learning_engine_featurewise.action.index_-1_exploited 8
learning_engine_featurewise.action.index_-3_explored 530
learning_engine_featurewise.action.index_-3_exploited 1697
learning_engine_featurewise.action.index_-6_explored 539
learning_engine_featurewise.action.index_-6_exploited 0
learning_engine_featurewise.action.index_0_explored 554
learning_engine_featurewise.action.index_0_exploited 0
learning_engine_featurewise.learn.called 4468961
learning_engine_featurewise.learn.su_skip_PC 0
learning_engine_featurewise.learn.su_skip_PC_Delta 0

learning_engine_featurewise.q_value_histogram.bucket_0 0
learning_engine_featurewise.q_value_histogram.bucket_1 0
learning_engine_featurewise.q_value_histogram.bucket_2 0
learning_engine_featurewise.q_value_histogram.bucket_3 0
learning_engine_featurewise.q_value_histogram.bucket_4 3167
learning_engine_featurewise.q_value_histogram.bucket_5 4536
learning_engine_featurewise.q_value_histogram.bucket_6 4487117
learning_engine_featurewise.q_value_histogram.bucket_7 0

learning_engine_featurewise.consensus.total 4494820
learning_engine_featurewise.consensus.feature_align_PC 4488294
learning_engine_featurewise.consensus.feature_align_PC_ratio 1.00
learning_engine_featurewise.consensus.feature_align_PC_Delta 4492369
learning_engine_featurewise.consensus.feature_align_PC_Delta_ratio 1.00
learning_engine_featurewise.consensus.feature_align_all 4485843
learning_engine_featurewise.consensus.feature_align_all_ratio 1.00

learning_engine_featurewise.feature_PC_min_weight 1000000.00000000
learning_engine_featurewise.feature_PC_max_weight 0.00000000
learning_engine_featurewise.feature_PC_Delta_min_weight 1000000.00000000
learning_engine_featurewise.feature_PC_Delta_max_weight 0.00000000
unique_pcs 715
unique_pages 13830
unique_trigger_pcs 185
total_bitmaps_seen 0
unique_bitmaps_seen 0

scooby_bw_epochs 2005997
scooby_bw_level_0 760624
scooby_bw_level_1 302054
scooby_bw_level_2 352047
scooby_bw_level_3 591272

scooby_ipc_epochs 0
scooby_ipc_level_0 0
scooby_ipc_level_1 0
scooby_ipc_level_2 0
scooby_ipc_level_3 0

scooby_cache_acc_epochs 497356
scooby_cache_acc_level_0 19082
scooby_cache_acc_level_1 6979
scooby_cache_acc_level_2 7394
scooby_cache_acc_level_3 5904
scooby_cache_acc_level_4 8968
scooby_cache_acc_level_5 13379
scooby_cache_acc_level_6 21334
scooby_cache_acc_level_7 26282
scooby_cache_acc_level_8 43252
scooby_cache_acc_level_9 344782

Channel_0_RQ_row_buffer_hit 664013
Channel_0_RQ_row_buffer_miss 2567037
Channel_0_WQ_row_buffer_hit 429094
Channel_0_WQ_row_buffer_miss 427556
Channel_0_WQ_full 659
Channel_0_dbus_congested 2638191

avg_congested_cycle 42

DRAM_bw_pochs 2005997
DRAM_bw_level_0 760624
DRAM_bw_level_1 302054
DRAM_bw_level_2 352047
DRAM_bw_level_3 591272
