*************************************************
   ChampSim Multicore Out-of-Order Simulator
   Last compiled: Dec 11 2024 17:59:53
*************************************************
parsing config file: /home/functionmain/桌面/Pythia/config/bingo.ini

trace_0 /home/functionmain/桌面/Pythia/traces/437.leslie3d-149B.champsimtrace.xz
adding L2C_PREFETCHER: Bingo
Initialize SHIP state
warmup_instructions 100000000
simulation_instructions 500000000
champsim_seed 224
measure_ipc 0
measure_ipc_epoch 1000
measure_dram_bw 1
measure_dram_bw_epoch 256
measure_cache_acc 1
measure_cache_acc_epoch 1024
l1d_perfect 0
l2c_perfect 0
llc_perfect 0
l1d_semi_perfect 0
l2c_semi_perfect 0
llc_semi_perfect 0
semi_perfect_cache_page_buffer_size 64

num_cpus 1
cpu_freq 4000
dram_io_freq 1200
page_size 4096
block_size 64
max_read_per_cycle 8
max_fill_per_cycle 1
dram_channels 1
log2_dram_channels 0
dram_ranks 1
dram_banks 8
dram_rows 65536
dram_columns 128
dram_row_size 8
dram_size 4096
dram_pages 1048576

fetch_width 6
decode_width 6
exec_width 4
lq_width 2
sq_width 2
retire_width 4
scheduler_size 128
branch_mispredict_penalty 20
rob_size 256
lq_size 72
sq_size 56
num_instr_destinations_sparc 4
num_instr_destinations 2
num_instr_sources 4

itlb_set 16
itlb_way 8
itlb_rq_size 16
itlb_wq_size 16
itlb_pq_size 0
itlb_mshr_size 8
itlb_latency 1

dtlb_set 16
dtlb_way 4
dtlb_rq_size 16
dtlb_wq_size 16
dtlb_pq_size 0
dtlb_mshr_size 8
dtlb_latency 1

stlb_set 128
stlb_way 12
stlb_rq_size 32
stlb_wq_size 32
stlb_pq_size 0
stlb_mshr_size 16
stlb_latency 8

l1i_size 32
l1i_set 64
l1i_way 8
l1i_rq_size 64
l1i_wq_size 64
l1i_pq_size 8
l1i_mshr_size 8
l1i_latency 1

l1d_size 32
l1d_set 64
l1d_way 8
l1d_rq_size 64
l1d_wq_size 64
l1d_pq_size 8
l1d_mshr_size 16
l1d_latency 4

l2c_size 256
l2c_set 512
l2c_way 8
l2c_rq_size 32
l2c_wq_size 32
l2c_pq_size 32
l2c_mshr_size 32
l2c_latency 10

llc_size 2048
llc_set 2048
llc_way 16
llc_rq_size 32
llc_wq_size 32
llc_pq_size 32
llc_mshr_size 64
llc_latency 20

dram_channel_width 8
dram_wq_size 64
dram_rq_size 64
tRP 15
tRCD 15
tCAS 12.5
dram_dbus_turn_around_time 30
dram_write_high_wm 56
dram_write_low_wm 48
min_dram_writes_per_switch 16
dram_mtps 1200
dram_dbus_return_time 26

bingo_region_size 2048
bingo_pattern_len 32
bingo_pc_width 16
bingo_min_addr_width 5
bingo_max_addr_width 16
bingo_ft_size 64
bingo_at_size 128
bingo_pht_size 4096
bingo_pht_ways 16
bingo_pf_streamer_size 128
bingo_debug_level 0
bingo_l1d_thresh 1.01
bingo_l2c_thresh 0.8
bingo_llc_thresh 0.05
bingo_pc_address_fill_level L2


Heartbeat CPU  0 instructions:    1000002 cycles:     502443 heartbeat IPC: 1.99028 cumulative IPC: 1.99028 (Simulation time: 0 hr 0 min 1 sec) 
Heartbeat CPU  0 instructions:    2000001 cycles:     990594 heartbeat IPC: 2.04854 cumulative IPC: 2.01899 (Simulation time: 0 hr 0 min 3 sec) 
Heartbeat CPU  0 instructions:    3000003 cycles:    1492711 heartbeat IPC: 1.99157 cumulative IPC: 2.00977 (Simulation time: 0 hr 0 min 5 sec) 
Heartbeat CPU  0 instructions:    4000000 cycles:    1994642 heartbeat IPC: 1.99230 cumulative IPC: 2.00537 (Simulation time: 0 hr 0 min 7 sec) 
Heartbeat CPU  0 instructions:    5000000 cycles:    2496909 heartbeat IPC: 1.99097 cumulative IPC: 2.00248 (Simulation time: 0 hr 0 min 8 sec) 
Heartbeat CPU  0 instructions:    6000001 cycles:    2996822 heartbeat IPC: 2.00035 cumulative IPC: 2.00212 (Simulation time: 0 hr 0 min 10 sec) 
Heartbeat CPU  0 instructions:    7000000 cycles:    3487003 heartbeat IPC: 2.04006 cumulative IPC: 2.00745 (Simulation time: 0 hr 0 min 12 sec) 
Heartbeat CPU  0 instructions:    8000000 cycles:    3990157 heartbeat IPC: 1.98746 cumulative IPC: 2.00493 (Simulation time: 0 hr 0 min 14 sec) 
Heartbeat CPU  0 instructions:    9000002 cycles:    4492126 heartbeat IPC: 1.99216 cumulative IPC: 2.00351 (Simulation time: 0 hr 0 min 16 sec) 
Heartbeat CPU  0 instructions:   10000000 cycles:    4994191 heartbeat IPC: 1.99177 cumulative IPC: 2.00233 (Simulation time: 0 hr 0 min 18 sec) 
Heartbeat CPU  0 instructions:   11000002 cycles:    5485315 heartbeat IPC: 2.03615 cumulative IPC: 2.00535 (Simulation time: 0 hr 0 min 20 sec) 
Heartbeat CPU  0 instructions:   12000000 cycles:    5984380 heartbeat IPC: 2.00374 cumulative IPC: 2.00522 (Simulation time: 0 hr 0 min 21 sec) 
Heartbeat CPU  0 instructions:   13000002 cycles:    6486916 heartbeat IPC: 1.98991 cumulative IPC: 2.00403 (Simulation time: 0 hr 0 min 23 sec) 
Heartbeat CPU  0 instructions:   14000003 cycles:    6989389 heartbeat IPC: 1.99016 cumulative IPC: 2.00304 (Simulation time: 0 hr 0 min 25 sec) 
Heartbeat CPU  0 instructions:   15000002 cycles:    7491568 heartbeat IPC: 1.99132 cumulative IPC: 2.00225 (Simulation time: 0 hr 0 min 27 sec) 
Heartbeat CPU  0 instructions:   16000000 cycles:    7979131 heartbeat IPC: 2.05101 cumulative IPC: 2.00523 (Simulation time: 0 hr 0 min 28 sec) 
Heartbeat CPU  0 instructions:   17000001 cycles:    8482016 heartbeat IPC: 1.98853 cumulative IPC: 2.00424 (Simulation time: 0 hr 0 min 30 sec) 
Heartbeat CPU  0 instructions:   18000003 cycles:    8985180 heartbeat IPC: 1.98743 cumulative IPC: 2.00330 (Simulation time: 0 hr 0 min 32 sec) 
Heartbeat CPU  0 instructions:   19000003 cycles:    9487508 heartbeat IPC: 1.99073 cumulative IPC: 2.00263 (Simulation time: 0 hr 0 min 34 sec) 
Heartbeat CPU  0 instructions:   20000000 cycles:    9979600 heartbeat IPC: 2.03213 cumulative IPC: 2.00409 (Simulation time: 0 hr 0 min 35 sec) 
Heartbeat CPU  0 instructions:   21000003 cycles:   10477067 heartbeat IPC: 2.01019 cumulative IPC: 2.00438 (Simulation time: 0 hr 0 min 37 sec) 
Heartbeat CPU  0 instructions:   22000001 cycles:   10979879 heartbeat IPC: 1.98881 cumulative IPC: 2.00367 (Simulation time: 0 hr 0 min 39 sec) 
Heartbeat CPU  0 instructions:   23000002 cycles:   11482526 heartbeat IPC: 1.98947 cumulative IPC: 2.00304 (Simulation time: 0 hr 0 min 41 sec) 
Heartbeat CPU  0 instructions:   24000000 cycles:   11984661 heartbeat IPC: 1.99149 cumulative IPC: 2.00256 (Simulation time: 0 hr 0 min 42 sec) 
Heartbeat CPU  0 instructions:   25000002 cycles:   12472233 heartbeat IPC: 2.05098 cumulative IPC: 2.00445 (Simulation time: 0 hr 0 min 44 sec) 
Heartbeat CPU  0 instructions:   26000002 cycles:   12974128 heartbeat IPC: 1.99245 cumulative IPC: 2.00399 (Simulation time: 0 hr 0 min 46 sec) 
Heartbeat CPU  0 instructions:   27000001 cycles:   13476518 heartbeat IPC: 1.99048 cumulative IPC: 2.00348 (Simulation time: 0 hr 0 min 48 sec) 
Heartbeat CPU  0 instructions:   28000000 cycles:   13979215 heartbeat IPC: 1.98927 cumulative IPC: 2.00297 (Simulation time: 0 hr 0 min 49 sec) 
Heartbeat CPU  0 instructions:   29000003 cycles:   14474260 heartbeat IPC: 2.02002 cumulative IPC: 2.00356 (Simulation time: 0 hr 0 min 51 sec) 
Heartbeat CPU  0 instructions:   30000003 cycles:   14969007 heartbeat IPC: 2.02123 cumulative IPC: 2.00414 (Simulation time: 0 hr 0 min 53 sec) 
Heartbeat CPU  0 instructions:   31000001 cycles:   15471225 heartbeat IPC: 1.99116 cumulative IPC: 2.00372 (Simulation time: 0 hr 0 min 55 sec) 
Heartbeat CPU  0 instructions:   32000000 cycles:   15973569 heartbeat IPC: 1.99067 cumulative IPC: 2.00331 (Simulation time: 0 hr 0 min 56 sec) 
Heartbeat CPU  0 instructions:   33000000 cycles:   16476057 heartbeat IPC: 1.99010 cumulative IPC: 2.00291 (Simulation time: 0 hr 0 min 58 sec) 
Heartbeat CPU  0 instructions:   34000003 cycles:   16963971 heartbeat IPC: 2.04955 cumulative IPC: 2.00425 (Simulation time: 0 hr 1 min 0 sec) 
Heartbeat CPU  0 instructions:   35000003 cycles:   17466020 heartbeat IPC: 1.99184 cumulative IPC: 2.00389 (Simulation time: 0 hr 1 min 2 sec) 
Heartbeat CPU  0 instructions:   36000000 cycles:   17968096 heartbeat IPC: 1.99172 cumulative IPC: 2.00355 (Simulation time: 0 hr 1 min 3 sec) 
Heartbeat CPU  0 instructions:   37000001 cycles:   18471198 heartbeat IPC: 1.98767 cumulative IPC: 2.00312 (Simulation time: 0 hr 1 min 5 sec) 
Heartbeat CPU  0 instructions:   38000003 cycles:   18968875 heartbeat IPC: 2.00934 cumulative IPC: 2.00328 (Simulation time: 0 hr 1 min 7 sec) 
Heartbeat CPU  0 instructions:   39000001 cycles:   19461606 heartbeat IPC: 2.02950 cumulative IPC: 2.00395 (Simulation time: 0 hr 1 min 9 sec) 
Heartbeat CPU  0 instructions:   40000000 cycles:   19963829 heartbeat IPC: 1.99115 cumulative IPC: 2.00362 (Simulation time: 0 hr 1 min 10 sec) 
Heartbeat CPU  0 instructions:   41000002 cycles:   20466244 heartbeat IPC: 1.99039 cumulative IPC: 2.00330 (Simulation time: 0 hr 1 min 12 sec) 
Heartbeat CPU  0 instructions:   42000000 cycles:   20968930 heartbeat IPC: 1.98931 cumulative IPC: 2.00296 (Simulation time: 0 hr 1 min 14 sec) 
Heartbeat CPU  0 instructions:   43000000 cycles:   21457034 heartbeat IPC: 2.04874 cumulative IPC: 2.00400 (Simulation time: 0 hr 1 min 16 sec) 
Heartbeat CPU  0 instructions:   44000000 cycles:   21959394 heartbeat IPC: 1.99060 cumulative IPC: 2.00370 (Simulation time: 0 hr 1 min 18 sec) 
Heartbeat CPU  0 instructions:   45000002 cycles:   22462147 heartbeat IPC: 1.98905 cumulative IPC: 2.00337 (Simulation time: 0 hr 1 min 19 sec) 
Heartbeat CPU  0 instructions:   46000003 cycles:   22964044 heartbeat IPC: 1.99244 cumulative IPC: 2.00313 (Simulation time: 0 hr 1 min 21 sec) 
Heartbeat CPU  0 instructions:   47000000 cycles:   23463122 heartbeat IPC: 2.00369 cumulative IPC: 2.00314 (Simulation time: 0 hr 1 min 23 sec) 
Heartbeat CPU  0 instructions:   48000000 cycles:   23954223 heartbeat IPC: 2.03624 cumulative IPC: 2.00382 (Simulation time: 0 hr 1 min 25 sec) 
Heartbeat CPU  0 instructions:   49000002 cycles:   24457072 heartbeat IPC: 1.98867 cumulative IPC: 2.00351 (Simulation time: 0 hr 1 min 26 sec) 
Heartbeat CPU  0 instructions:   50000003 cycles:   24959524 heartbeat IPC: 1.99024 cumulative IPC: 2.00324 (Simulation time: 0 hr 1 min 28 sec) 
Heartbeat CPU  0 instructions:   51000001 cycles:   25461498 heartbeat IPC: 1.99213 cumulative IPC: 2.00302 (Simulation time: 0 hr 1 min 30 sec) 
Heartbeat CPU  0 instructions:   52000000 cycles:   25951670 heartbeat IPC: 2.04010 cumulative IPC: 2.00372 (Simulation time: 0 hr 1 min 32 sec) 
Heartbeat CPU  0 instructions:   53000003 cycles:   26451556 heartbeat IPC: 2.00046 cumulative IPC: 2.00366 (Simulation time: 0 hr 1 min 33 sec) 
Heartbeat CPU  0 instructions:   54000003 cycles:   26963057 heartbeat IPC: 1.95503 cumulative IPC: 2.00274 (Simulation time: 0 hr 1 min 35 sec) 
Heartbeat CPU  0 instructions:   55000001 cycles:   27482957 heartbeat IPC: 1.92344 cumulative IPC: 2.00124 (Simulation time: 0 hr 1 min 37 sec) 
Heartbeat CPU  0 instructions:   56000000 cycles:   27995649 heartbeat IPC: 1.95049 cumulative IPC: 2.00031 (Simulation time: 0 hr 1 min 38 sec) 
Heartbeat CPU  0 instructions:   57000000 cycles:   28507548 heartbeat IPC: 1.95351 cumulative IPC: 1.99947 (Simulation time: 0 hr 1 min 40 sec) 
Heartbeat CPU  0 instructions:   58000002 cycles:   29021449 heartbeat IPC: 1.94590 cumulative IPC: 1.99852 (Simulation time: 0 hr 1 min 42 sec) 
Heartbeat CPU  0 instructions:   59000003 cycles:   29532874 heartbeat IPC: 1.95532 cumulative IPC: 1.99777 (Simulation time: 0 hr 1 min 43 sec) 
Heartbeat CPU  0 instructions:   60000000 cycles:   30043389 heartbeat IPC: 1.95880 cumulative IPC: 1.99711 (Simulation time: 0 hr 1 min 45 sec) 
Heartbeat CPU  0 instructions:   61000001 cycles:   30555891 heartbeat IPC: 1.95121 cumulative IPC: 1.99634 (Simulation time: 0 hr 1 min 46 sec) 
Heartbeat CPU  0 instructions:   62000003 cycles:   31068504 heartbeat IPC: 1.95079 cumulative IPC: 1.99559 (Simulation time: 0 hr 1 min 48 sec) 
Heartbeat CPU  0 instructions:   63000001 cycles:   31580381 heartbeat IPC: 1.95359 cumulative IPC: 1.99491 (Simulation time: 0 hr 1 min 50 sec) 
Heartbeat CPU  0 instructions:   64000000 cycles:   32093727 heartbeat IPC: 1.94800 cumulative IPC: 1.99416 (Simulation time: 0 hr 1 min 51 sec) 
Heartbeat CPU  0 instructions:   65000000 cycles:   32607091 heartbeat IPC: 1.94794 cumulative IPC: 1.99343 (Simulation time: 0 hr 1 min 53 sec) 
Heartbeat CPU  0 instructions:   66000002 cycles:   33118979 heartbeat IPC: 1.95356 cumulative IPC: 1.99282 (Simulation time: 0 hr 1 min 55 sec) 
Heartbeat CPU  0 instructions:   67000002 cycles:   33632298 heartbeat IPC: 1.94811 cumulative IPC: 1.99213 (Simulation time: 0 hr 1 min 56 sec) 
Heartbeat CPU  0 instructions:   68000000 cycles:   34145466 heartbeat IPC: 1.94868 cumulative IPC: 1.99148 (Simulation time: 0 hr 1 min 58 sec) 
Heartbeat CPU  0 instructions:   69000001 cycles:   34657052 heartbeat IPC: 1.95471 cumulative IPC: 1.99094 (Simulation time: 0 hr 1 min 59 sec) 
Heartbeat CPU  0 instructions:   70000003 cycles:   35169934 heartbeat IPC: 1.94977 cumulative IPC: 1.99034 (Simulation time: 0 hr 2 min 1 sec) 
Heartbeat CPU  0 instructions:   71000002 cycles:   35682738 heartbeat IPC: 1.95006 cumulative IPC: 1.98976 (Simulation time: 0 hr 2 min 3 sec) 
Heartbeat CPU  0 instructions:   72000000 cycles:   36194191 heartbeat IPC: 1.95521 cumulative IPC: 1.98927 (Simulation time: 0 hr 2 min 4 sec) 
Heartbeat CPU  0 instructions:   73000003 cycles:   36706579 heartbeat IPC: 1.95165 cumulative IPC: 1.98874 (Simulation time: 0 hr 2 min 6 sec) 
Heartbeat CPU  0 instructions:   74000001 cycles:   37219201 heartbeat IPC: 1.95075 cumulative IPC: 1.98822 (Simulation time: 0 hr 2 min 8 sec) 
Heartbeat CPU  0 instructions:   75000001 cycles:   37731120 heartbeat IPC: 1.95343 cumulative IPC: 1.98775 (Simulation time: 0 hr 2 min 9 sec) 
Heartbeat CPU  0 instructions:   76000000 cycles:   38243821 heartbeat IPC: 1.95045 cumulative IPC: 1.98725 (Simulation time: 0 hr 2 min 11 sec) 
Heartbeat CPU  0 instructions:   77000001 cycles:   38757333 heartbeat IPC: 1.94738 cumulative IPC: 1.98672 (Simulation time: 0 hr 2 min 12 sec) 
Heartbeat CPU  0 instructions:   78000003 cycles:   39269390 heartbeat IPC: 1.95291 cumulative IPC: 1.98628 (Simulation time: 0 hr 2 min 14 sec) 
Heartbeat CPU  0 instructions:   79000000 cycles:   39781991 heartbeat IPC: 1.95083 cumulative IPC: 1.98582 (Simulation time: 0 hr 2 min 16 sec) 
Heartbeat CPU  0 instructions:   80000000 cycles:   40295403 heartbeat IPC: 1.94775 cumulative IPC: 1.98534 (Simulation time: 0 hr 2 min 17 sec) 
Heartbeat CPU  0 instructions:   81000000 cycles:   40807441 heartbeat IPC: 1.95298 cumulative IPC: 1.98493 (Simulation time: 0 hr 2 min 19 sec) 
Heartbeat CPU  0 instructions:   82000001 cycles:   41319742 heartbeat IPC: 1.95198 cumulative IPC: 1.98452 (Simulation time: 0 hr 2 min 21 sec) 
Heartbeat CPU  0 instructions:   83000001 cycles:   41833346 heartbeat IPC: 1.94703 cumulative IPC: 1.98406 (Simulation time: 0 hr 2 min 22 sec) 
Heartbeat CPU  0 instructions:   84000000 cycles:   42345240 heartbeat IPC: 1.95353 cumulative IPC: 1.98369 (Simulation time: 0 hr 2 min 24 sec) 
Heartbeat CPU  0 instructions:   85000001 cycles:   42857320 heartbeat IPC: 1.95282 cumulative IPC: 1.98333 (Simulation time: 0 hr 2 min 25 sec) 
Heartbeat CPU  0 instructions:   86000002 cycles:   43370778 heartbeat IPC: 1.94758 cumulative IPC: 1.98290 (Simulation time: 0 hr 2 min 27 sec) 
Heartbeat CPU  0 instructions:   87000003 cycles:   43882542 heartbeat IPC: 1.95403 cumulative IPC: 1.98257 (Simulation time: 0 hr 2 min 29 sec) 
Heartbeat CPU  0 instructions:   88000000 cycles:   44394665 heartbeat IPC: 1.95265 cumulative IPC: 1.98222 (Simulation time: 0 hr 2 min 30 sec) 
Heartbeat CPU  0 instructions:   89000002 cycles:   44908393 heartbeat IPC: 1.94656 cumulative IPC: 1.98181 (Simulation time: 0 hr 2 min 32 sec) 
Heartbeat CPU  0 instructions:   90000003 cycles:   45420495 heartbeat IPC: 1.95274 cumulative IPC: 1.98148 (Simulation time: 0 hr 2 min 34 sec) 
Heartbeat CPU  0 instructions:   91000002 cycles:   45931260 heartbeat IPC: 1.95785 cumulative IPC: 1.98122 (Simulation time: 0 hr 2 min 35 sec) 
Heartbeat CPU  0 instructions:   92000000 cycles:   46443838 heartbeat IPC: 1.95092 cumulative IPC: 1.98089 (Simulation time: 0 hr 2 min 37 sec) 
Heartbeat CPU  0 instructions:   93000001 cycles:   46955052 heartbeat IPC: 1.95613 cumulative IPC: 1.98062 (Simulation time: 0 hr 2 min 38 sec) 
Heartbeat CPU  0 instructions:   94000003 cycles:   47466612 heartbeat IPC: 1.95481 cumulative IPC: 1.98034 (Simulation time: 0 hr 2 min 40 sec) 
Heartbeat CPU  0 instructions:   95000003 cycles:   47980395 heartbeat IPC: 1.94635 cumulative IPC: 1.97998 (Simulation time: 0 hr 2 min 42 sec) 
Heartbeat CPU  0 instructions:   96000000 cycles:   48492774 heartbeat IPC: 1.95167 cumulative IPC: 1.97968 (Simulation time: 0 hr 2 min 43 sec) 
Heartbeat CPU  0 instructions:   97000002 cycles:   49004273 heartbeat IPC: 1.95504 cumulative IPC: 1.97942 (Simulation time: 0 hr 2 min 45 sec) 
Heartbeat CPU  0 instructions:   98000000 cycles:   49517396 heartbeat IPC: 1.94885 cumulative IPC: 1.97910 (Simulation time: 0 hr 2 min 46 sec) 
Heartbeat CPU  0 instructions:   99000000 cycles:   50029385 heartbeat IPC: 1.95317 cumulative IPC: 1.97884 (Simulation time: 0 hr 2 min 48 sec) 
Heartbeat CPU  0 instructions:  100000000 cycles:   50566236 heartbeat IPC: 1.86271 cumulative IPC: 1.97760 (Simulation time: 0 hr 2 min 50 sec) 

Warmup complete CPU  0 instructions:  100000001 cycles:   50566257 (Simulation time: 0 hr 2 min 50 sec) 

Heartbeat CPU  0 instructions:  101000003 cycles:   52651786 heartbeat IPC: 0.47949 cumulative IPC: 0.47950 (Simulation time: 0 hr 2 min 53 sec) 
Heartbeat CPU  0 instructions:  102000000 cycles:   56305471 heartbeat IPC: 0.27370 cumulative IPC: 0.34848 (Simulation time: 0 hr 2 min 57 sec) 
Heartbeat CPU  0 instructions:  103000002 cycles:   58570364 heartbeat IPC: 0.44152 cumulative IPC: 0.37481 (Simulation time: 0 hr 3 min 0 sec) 
Heartbeat CPU  0 instructions:  104000000 cycles:   59598629 heartbeat IPC: 0.97251 cumulative IPC: 0.44285 (Simulation time: 0 hr 3 min 2 sec) 
Heartbeat CPU  0 instructions:  105000002 cycles:   60395630 heartbeat IPC: 1.25471 cumulative IPC: 0.50868 (Simulation time: 0 hr 3 min 4 sec) 
Heartbeat CPU  0 instructions:  106000003 cycles:   61195874 heartbeat IPC: 1.24962 cumulative IPC: 0.56446 (Simulation time: 0 hr 3 min 6 sec) 
Heartbeat CPU  0 instructions:  107000000 cycles:   61994933 heartbeat IPC: 1.25147 cumulative IPC: 0.61249 (Simulation time: 0 hr 3 min 8 sec) 
Heartbeat CPU  0 instructions:  108000000 cycles:   62783811 heartbeat IPC: 1.26762 cumulative IPC: 0.65480 (Simulation time: 0 hr 3 min 10 sec) 
Heartbeat CPU  0 instructions:  109000001 cycles:   63584870 heartbeat IPC: 1.24835 cumulative IPC: 0.69132 (Simulation time: 0 hr 3 min 13 sec) 
Heartbeat CPU  0 instructions:  110000001 cycles:   64660352 heartbeat IPC: 0.92982 cumulative IPC: 0.70952 (Simulation time: 0 hr 3 min 15 sec) 
Heartbeat CPU  0 instructions:  111000001 cycles:   65609584 heartbeat IPC: 1.05348 cumulative IPC: 0.73122 (Simulation time: 0 hr 3 min 17 sec) 
Heartbeat CPU  0 instructions:  112000000 cycles:   66481572 heartbeat IPC: 1.14680 cumulative IPC: 0.75399 (Simulation time: 0 hr 3 min 19 sec) 
Heartbeat CPU  0 instructions:  113000003 cycles:   67316050 heartbeat IPC: 1.19836 cumulative IPC: 0.77613 (Simulation time: 0 hr 3 min 21 sec) 
Heartbeat CPU  0 instructions:  114000001 cycles:   68137034 heartbeat IPC: 1.21805 cumulative IPC: 0.79678 (Simulation time: 0 hr 3 min 23 sec) 
Heartbeat CPU  0 instructions:  115000003 cycles:   68969296 heartbeat IPC: 1.20155 cumulative IPC: 0.81508 (Simulation time: 0 hr 3 min 26 sec) 
Heartbeat CPU  0 instructions:  116000000 cycles:   69888832 heartbeat IPC: 1.08750 cumulative IPC: 0.82805 (Simulation time: 0 hr 3 min 28 sec) 
Heartbeat CPU  0 instructions:  117000000 cycles:   70908244 heartbeat IPC: 0.98096 cumulative IPC: 0.83571 (Simulation time: 0 hr 3 min 30 sec) 
Heartbeat CPU  0 instructions:  118000003 cycles:   71727945 heartbeat IPC: 1.21996 cumulative IPC: 0.85059 (Simulation time: 0 hr 3 min 32 sec) 
Heartbeat CPU  0 instructions:  119000000 cycles:   72544526 heartbeat IPC: 1.22461 cumulative IPC: 0.86449 (Simulation time: 0 hr 3 min 34 sec) 
Heartbeat CPU  0 instructions:  120000000 cycles:   73363564 heartbeat IPC: 1.22094 cumulative IPC: 0.87730 (Simulation time: 0 hr 3 min 36 sec) 
Heartbeat CPU  0 instructions:  121000001 cycles:   74178789 heartbeat IPC: 1.22666 cumulative IPC: 0.88936 (Simulation time: 0 hr 3 min 38 sec) 
Heartbeat CPU  0 instructions:  122000002 cycles:   74995061 heartbeat IPC: 1.22508 cumulative IPC: 0.90058 (Simulation time: 0 hr 3 min 40 sec) 
Heartbeat CPU  0 instructions:  123000000 cycles:   75813215 heartbeat IPC: 1.22226 cumulative IPC: 0.91100 (Simulation time: 0 hr 3 min 42 sec) 
Heartbeat CPU  0 instructions:  124000000 cycles:   76629518 heartbeat IPC: 1.22504 cumulative IPC: 0.92084 (Simulation time: 0 hr 3 min 44 sec) 
Heartbeat CPU  0 instructions:  125000002 cycles:   77445271 heartbeat IPC: 1.22586 cumulative IPC: 0.93009 (Simulation time: 0 hr 3 min 46 sec) 
Heartbeat CPU  0 instructions:  126000001 cycles:   78262676 heartbeat IPC: 1.22338 cumulative IPC: 0.93875 (Simulation time: 0 hr 3 min 48 sec) 
Heartbeat CPU  0 instructions:  127000003 cycles:   79080448 heartbeat IPC: 1.22284 cumulative IPC: 0.94690 (Simulation time: 0 hr 3 min 50 sec) 
Heartbeat CPU  0 instructions:  128000000 cycles:   79896516 heartbeat IPC: 1.22538 cumulative IPC: 0.95465 (Simulation time: 0 hr 3 min 52 sec) 
Heartbeat CPU  0 instructions:  129000001 cycles:   80711634 heartbeat IPC: 1.22682 cumulative IPC: 0.96200 (Simulation time: 0 hr 3 min 54 sec) 
Heartbeat CPU  0 instructions:  130000003 cycles:   81552428 heartbeat IPC: 1.18935 cumulative IPC: 0.96817 (Simulation time: 0 hr 3 min 56 sec) 
Heartbeat CPU  0 instructions:  131000000 cycles:   82367562 heartbeat IPC: 1.22679 cumulative IPC: 0.97480 (Simulation time: 0 hr 3 min 58 sec) 
Heartbeat CPU  0 instructions:  132000000 cycles:   83182083 heartbeat IPC: 1.22772 cumulative IPC: 0.98112 (Simulation time: 0 hr 4 min 0 sec) 
Heartbeat CPU  0 instructions:  133000000 cycles:   83996810 heartbeat IPC: 1.22740 cumulative IPC: 0.98712 (Simulation time: 0 hr 4 min 2 sec) 
Heartbeat CPU  0 instructions:  134000003 cycles:   84812593 heartbeat IPC: 1.22582 cumulative IPC: 0.99281 (Simulation time: 0 hr 4 min 4 sec) 
Heartbeat CPU  0 instructions:  135000003 cycles:   85628007 heartbeat IPC: 1.22637 cumulative IPC: 0.99824 (Simulation time: 0 hr 4 min 6 sec) 
Heartbeat CPU  0 instructions:  136000000 cycles:   86442048 heartbeat IPC: 1.22844 cumulative IPC: 1.00346 (Simulation time: 0 hr 4 min 8 sec) 
Heartbeat CPU  0 instructions:  137000003 cycles:   87257959 heartbeat IPC: 1.22563 cumulative IPC: 1.00840 (Simulation time: 0 hr 4 min 10 sec) 
Heartbeat CPU  0 instructions:  138000002 cycles:   88072902 heartbeat IPC: 1.22708 cumulative IPC: 1.01315 (Simulation time: 0 hr 4 min 12 sec) 
Heartbeat CPU  0 instructions:  139000002 cycles:   88888469 heartbeat IPC: 1.22614 cumulative IPC: 1.01769 (Simulation time: 0 hr 4 min 14 sec) 
Heartbeat CPU  0 instructions:  140000000 cycles:   89702233 heartbeat IPC: 1.22886 cumulative IPC: 1.02208 (Simulation time: 0 hr 4 min 16 sec) 
Heartbeat CPU  0 instructions:  141000000 cycles:   90524076 heartbeat IPC: 1.21678 cumulative IPC: 1.02608 (Simulation time: 0 hr 4 min 18 sec) 
Heartbeat CPU  0 instructions:  142000000 cycles:   91344963 heartbeat IPC: 1.21819 cumulative IPC: 1.02995 (Simulation time: 0 hr 4 min 20 sec) 
Heartbeat CPU  0 instructions:  143000003 cycles:   92164844 heartbeat IPC: 1.21969 cumulative IPC: 1.03369 (Simulation time: 0 hr 4 min 22 sec) 
Heartbeat CPU  0 instructions:  144000000 cycles:   92985356 heartbeat IPC: 1.21875 cumulative IPC: 1.03727 (Simulation time: 0 hr 4 min 24 sec) 
Heartbeat CPU  0 instructions:  145000001 cycles:   93831437 heartbeat IPC: 1.18192 cumulative IPC: 1.04010 (Simulation time: 0 hr 4 min 26 sec) 
Heartbeat CPU  0 instructions:  146000003 cycles:   94645431 heartbeat IPC: 1.22851 cumulative IPC: 1.04358 (Simulation time: 0 hr 4 min 28 sec) 
Heartbeat CPU  0 instructions:  147000000 cycles:   95465434 heartbeat IPC: 1.21950 cumulative IPC: 1.04679 (Simulation time: 0 hr 4 min 31 sec) 
Heartbeat CPU  0 instructions:  148000000 cycles:   96287888 heartbeat IPC: 1.21587 cumulative IPC: 1.04983 (Simulation time: 0 hr 4 min 33 sec) 
Heartbeat CPU  0 instructions:  149000003 cycles:   97110671 heartbeat IPC: 1.21539 cumulative IPC: 1.05276 (Simulation time: 0 hr 4 min 35 sec) 
Heartbeat CPU  0 instructions:  150000003 cycles:   97930412 heartbeat IPC: 1.21990 cumulative IPC: 1.05565 (Simulation time: 0 hr 4 min 37 sec) 
Heartbeat CPU  0 instructions:  151000000 cycles:   98748537 heartbeat IPC: 1.22230 cumulative IPC: 1.05848 (Simulation time: 0 hr 4 min 39 sec) 
Heartbeat CPU  0 instructions:  152000000 cycles:   99571685 heartbeat IPC: 1.21485 cumulative IPC: 1.06111 (Simulation time: 0 hr 4 min 41 sec) 
Heartbeat CPU  0 instructions:  153000002 cycles:  100391797 heartbeat IPC: 1.21935 cumulative IPC: 1.06371 (Simulation time: 0 hr 4 min 43 sec) 
Heartbeat CPU  0 instructions:  154000002 cycles:  101210635 heartbeat IPC: 1.22124 cumulative IPC: 1.06626 (Simulation time: 0 hr 4 min 45 sec) 
Heartbeat CPU  0 instructions:  155000001 cycles:  102030809 heartbeat IPC: 1.21925 cumulative IPC: 1.06870 (Simulation time: 0 hr 4 min 47 sec) 
Heartbeat CPU  0 instructions:  156000000 cycles:  102848701 heartbeat IPC: 1.22265 cumulative IPC: 1.07111 (Simulation time: 0 hr 4 min 49 sec) 
Heartbeat CPU  0 instructions:  157000000 cycles:  103666019 heartbeat IPC: 1.22351 cumulative IPC: 1.07345 (Simulation time: 0 hr 4 min 51 sec) 
Heartbeat CPU  0 instructions:  158000001 cycles:  104487513 heartbeat IPC: 1.21730 cumulative IPC: 1.07564 (Simulation time: 0 hr 4 min 53 sec) 
Heartbeat CPU  0 instructions:  159000003 cycles:  105322020 heartbeat IPC: 1.19831 cumulative IPC: 1.07751 (Simulation time: 0 hr 4 min 55 sec) 
Heartbeat CPU  0 instructions:  160000000 cycles:  106135960 heartbeat IPC: 1.22859 cumulative IPC: 1.07973 (Simulation time: 0 hr 4 min 57 sec) 
Heartbeat CPU  0 instructions:  161000001 cycles:  106950521 heartbeat IPC: 1.22766 cumulative IPC: 1.08186 (Simulation time: 0 hr 4 min 59 sec) 
Heartbeat CPU  0 instructions:  162000000 cycles:  107765374 heartbeat IPC: 1.22721 cumulative IPC: 1.08393 (Simulation time: 0 hr 5 min 1 sec) 
Heartbeat CPU  0 instructions:  163000003 cycles:  108581391 heartbeat IPC: 1.22547 cumulative IPC: 1.08592 (Simulation time: 0 hr 5 min 3 sec) 
Heartbeat CPU  0 instructions:  164000000 cycles:  109397077 heartbeat IPC: 1.22596 cumulative IPC: 1.08787 (Simulation time: 0 hr 5 min 5 sec) 
Heartbeat CPU  0 instructions:  165000000 cycles:  110211699 heartbeat IPC: 1.22756 cumulative IPC: 1.08977 (Simulation time: 0 hr 5 min 7 sec) 
Heartbeat CPU  0 instructions:  166000000 cycles:  111026992 heartbeat IPC: 1.22655 cumulative IPC: 1.09162 (Simulation time: 0 hr 5 min 9 sec) 
Heartbeat CPU  0 instructions:  167000003 cycles:  111839856 heartbeat IPC: 1.23022 cumulative IPC: 1.09346 (Simulation time: 0 hr 5 min 11 sec) 
Heartbeat CPU  0 instructions:  168000000 cycles:  112654567 heartbeat IPC: 1.22743 cumulative IPC: 1.09521 (Simulation time: 0 hr 5 min 13 sec) 
Heartbeat CPU  0 instructions:  169000003 cycles:  113469657 heartbeat IPC: 1.22686 cumulative IPC: 1.09692 (Simulation time: 0 hr 5 min 15 sec) 
Heartbeat CPU  0 instructions:  170000001 cycles:  114284316 heartbeat IPC: 1.22750 cumulative IPC: 1.09859 (Simulation time: 0 hr 5 min 17 sec) 
Heartbeat CPU  0 instructions:  171000002 cycles:  115099230 heartbeat IPC: 1.22712 cumulative IPC: 1.10021 (Simulation time: 0 hr 5 min 19 sec) 
Heartbeat CPU  0 instructions:  172000000 cycles:  115912362 heartbeat IPC: 1.22981 cumulative IPC: 1.10183 (Simulation time: 0 hr 5 min 21 sec) 
Heartbeat CPU  0 instructions:  173000002 cycles:  116750924 heartbeat IPC: 1.19252 cumulative IPC: 1.10297 (Simulation time: 0 hr 5 min 23 sec) 
Heartbeat CPU  0 instructions:  174000000 cycles:  117566401 heartbeat IPC: 1.22627 cumulative IPC: 1.10448 (Simulation time: 0 hr 5 min 25 sec) 
Heartbeat CPU  0 instructions:  175000001 cycles:  118379894 heartbeat IPC: 1.22927 cumulative IPC: 1.10597 (Simulation time: 0 hr 5 min 27 sec) 
Heartbeat CPU  0 instructions:  176000000 cycles:  119194385 heartbeat IPC: 1.22776 cumulative IPC: 1.10742 (Simulation time: 0 hr 5 min 29 sec) 
Heartbeat CPU  0 instructions:  177000000 cycles:  120008758 heartbeat IPC: 1.22794 cumulative IPC: 1.10883 (Simulation time: 0 hr 5 min 31 sec) 
Heartbeat CPU  0 instructions:  178000003 cycles:  120824439 heartbeat IPC: 1.22597 cumulative IPC: 1.11019 (Simulation time: 0 hr 5 min 33 sec) 
Heartbeat CPU  0 instructions:  179000000 cycles:  121639879 heartbeat IPC: 1.22633 cumulative IPC: 1.11152 (Simulation time: 0 hr 5 min 35 sec) 
Heartbeat CPU  0 instructions:  180000000 cycles:  122454458 heartbeat IPC: 1.22763 cumulative IPC: 1.11284 (Simulation time: 0 hr 5 min 37 sec) 
Heartbeat CPU  0 instructions:  181000003 cycles:  123268861 heartbeat IPC: 1.22790 cumulative IPC: 1.11413 (Simulation time: 0 hr 5 min 39 sec) 
Heartbeat CPU  0 instructions:  182000003 cycles:  124083462 heartbeat IPC: 1.22759 cumulative IPC: 1.11539 (Simulation time: 0 hr 5 min 41 sec) 
Heartbeat CPU  0 instructions:  183000003 cycles:  124896650 heartbeat IPC: 1.22973 cumulative IPC: 1.11664 (Simulation time: 0 hr 5 min 43 sec) 
Heartbeat CPU  0 instructions:  184000000 cycles:  125713936 heartbeat IPC: 1.22356 cumulative IPC: 1.11780 (Simulation time: 0 hr 5 min 45 sec) 
Heartbeat CPU  0 instructions:  185000002 cycles:  126529759 heartbeat IPC: 1.22576 cumulative IPC: 1.11896 (Simulation time: 0 hr 5 min 47 sec) 
Heartbeat CPU  0 instructions:  186000002 cycles:  127349865 heartbeat IPC: 1.21935 cumulative IPC: 1.12003 (Simulation time: 0 hr 5 min 49 sec) 
Heartbeat CPU  0 instructions:  187000001 cycles:  129136450 heartbeat IPC: 0.55973 cumulative IPC: 1.10729 (Simulation time: 0 hr 5 min 52 sec) 
Heartbeat CPU  0 instructions:  188000000 cycles:  130088368 heartbeat IPC: 1.05051 cumulative IPC: 1.10661 (Simulation time: 0 hr 5 min 54 sec) 
Heartbeat CPU  0 instructions:  189000000 cycles:  131022537 heartbeat IPC: 1.07047 cumulative IPC: 1.10619 (Simulation time: 0 hr 5 min 56 sec) 
Heartbeat CPU  0 instructions:  190000000 cycles:  131969816 heartbeat IPC: 1.05566 cumulative IPC: 1.10560 (Simulation time: 0 hr 5 min 58 sec) 
Heartbeat CPU  0 instructions:  191000003 cycles:  132936888 heartbeat IPC: 1.03405 cumulative IPC: 1.10476 (Simulation time: 0 hr 6 min 0 sec) 
Heartbeat CPU  0 instructions:  192000000 cycles:  133900438 heartbeat IPC: 1.03783 cumulative IPC: 1.10399 (Simulation time: 0 hr 6 min 2 sec) 
Heartbeat CPU  0 instructions:  193000003 cycles:  134845503 heartbeat IPC: 1.05813 cumulative IPC: 1.10347 (Simulation time: 0 hr 6 min 4 sec) 
Heartbeat CPU  0 instructions:  194000001 cycles:  135780028 heartbeat IPC: 1.07006 cumulative IPC: 1.10311 (Simulation time: 0 hr 6 min 6 sec) 
Heartbeat CPU  0 instructions:  195000000 cycles:  136824775 heartbeat IPC: 0.95717 cumulative IPC: 1.10134 (Simulation time: 0 hr 6 min 8 sec) 
Heartbeat CPU  0 instructions:  196000000 cycles:  138442639 heartbeat IPC: 0.61810 cumulative IPC: 1.09244 (Simulation time: 0 hr 6 min 10 sec) 
Heartbeat CPU  0 instructions:  197000000 cycles:  139382057 heartbeat IPC: 1.06449 cumulative IPC: 1.09215 (Simulation time: 0 hr 6 min 12 sec) 
Heartbeat CPU  0 instructions:  198000002 cycles:  140281841 heartbeat IPC: 1.11138 cumulative IPC: 1.09234 (Simulation time: 0 hr 6 min 14 sec) 
Heartbeat CPU  0 instructions:  199000001 cycles:  141205699 heartbeat IPC: 1.08242 cumulative IPC: 1.09224 (Simulation time: 0 hr 6 min 16 sec) 
Heartbeat CPU  0 instructions:  200000000 cycles:  142122516 heartbeat IPC: 1.09073 cumulative IPC: 1.09222 (Simulation time: 0 hr 6 min 18 sec) 
Heartbeat CPU  0 instructions:  201000001 cycles:  143039897 heartbeat IPC: 1.09006 cumulative IPC: 1.09220 (Simulation time: 0 hr 6 min 20 sec) 
Heartbeat CPU  0 instructions:  202000002 cycles:  143942560 heartbeat IPC: 1.10783 cumulative IPC: 1.09235 (Simulation time: 0 hr 6 min 22 sec) 
Heartbeat CPU  0 instructions:  203000002 cycles:  144842345 heartbeat IPC: 1.11138 cumulative IPC: 1.09254 (Simulation time: 0 hr 6 min 24 sec) 
Heartbeat CPU  0 instructions:  204000000 cycles:  146187262 heartbeat IPC: 0.74354 cumulative IPC: 1.08763 (Simulation time: 0 hr 6 min 27 sec) 
Heartbeat CPU  0 instructions:  205000003 cycles:  147517184 heartbeat IPC: 0.75193 cumulative IPC: 1.08302 (Simulation time: 0 hr 6 min 29 sec) 
Heartbeat CPU  0 instructions:  206000000 cycles:  148524070 heartbeat IPC: 0.99316 cumulative IPC: 1.08210 (Simulation time: 0 hr 6 min 31 sec) 
Heartbeat CPU  0 instructions:  207000001 cycles:  149512389 heartbeat IPC: 1.01182 cumulative IPC: 1.08140 (Simulation time: 0 hr 6 min 33 sec) 
Heartbeat CPU  0 instructions:  208000000 cycles:  150540378 heartbeat IPC: 0.97277 cumulative IPC: 1.08028 (Simulation time: 0 hr 6 min 35 sec) 
Heartbeat CPU  0 instructions:  209000001 cycles:  151572945 heartbeat IPC: 0.96846 cumulative IPC: 1.07914 (Simulation time: 0 hr 6 min 37 sec) 
Heartbeat CPU  0 instructions:  210000003 cycles:  152602033 heartbeat IPC: 0.97174 cumulative IPC: 1.07805 (Simulation time: 0 hr 6 min 39 sec) 
Heartbeat CPU  0 instructions:  211000001 cycles:  153564214 heartbeat IPC: 1.03930 cumulative IPC: 1.07769 (Simulation time: 0 hr 6 min 41 sec) 
Heartbeat CPU  0 instructions:  212000000 cycles:  154533621 heartbeat IPC: 1.03156 cumulative IPC: 1.07726 (Simulation time: 0 hr 6 min 43 sec) 
Heartbeat CPU  0 instructions:  213000001 cycles:  156090278 heartbeat IPC: 0.64240 cumulative IPC: 1.07085 (Simulation time: 0 hr 6 min 46 sec) 
Heartbeat CPU  0 instructions:  214000002 cycles:  157321306 heartbeat IPC: 0.81233 cumulative IPC: 1.06787 (Simulation time: 0 hr 6 min 48 sec) 
Heartbeat CPU  0 instructions:  215000002 cycles:  158546823 heartbeat IPC: 0.81598 cumulative IPC: 1.06501 (Simulation time: 0 hr 6 min 50 sec) 
Heartbeat CPU  0 instructions:  216000000 cycles:  159753653 heartbeat IPC: 0.82862 cumulative IPC: 1.06239 (Simulation time: 0 hr 6 min 53 sec) 
Heartbeat CPU  0 instructions:  217000002 cycles:  160966023 heartbeat IPC: 0.82483 cumulative IPC: 1.05978 (Simulation time: 0 hr 6 min 55 sec) 
Heartbeat CPU  0 instructions:  218000003 cycles:  162170940 heartbeat IPC: 0.82993 cumulative IPC: 1.05730 (Simulation time: 0 hr 6 min 58 sec) 
Heartbeat CPU  0 instructions:  219000000 cycles:  163408876 heartbeat IPC: 0.80779 cumulative IPC: 1.05457 (Simulation time: 0 hr 7 min 0 sec) 
Heartbeat CPU  0 instructions:  220000000 cycles:  164619148 heartbeat IPC: 0.82626 cumulative IPC: 1.05214 (Simulation time: 0 hr 7 min 3 sec) 
Heartbeat CPU  0 instructions:  221000000 cycles:  165830234 heartbeat IPC: 0.82571 cumulative IPC: 1.04976 (Simulation time: 0 hr 7 min 5 sec) 
Heartbeat CPU  0 instructions:  222000001 cycles:  167040068 heartbeat IPC: 0.82656 cumulative IPC: 1.04745 (Simulation time: 0 hr 7 min 8 sec) 
Heartbeat CPU  0 instructions:  223000000 cycles:  168249812 heartbeat IPC: 0.82662 cumulative IPC: 1.04518 (Simulation time: 0 hr 7 min 10 sec) 
Heartbeat CPU  0 instructions:  224000000 cycles:  169485535 heartbeat IPC: 0.80924 cumulative IPC: 1.04272 (Simulation time: 0 hr 7 min 13 sec) 
Heartbeat CPU  0 instructions:  225000002 cycles:  170700466 heartbeat IPC: 0.82309 cumulative IPC: 1.04050 (Simulation time: 0 hr 7 min 15 sec) 
Heartbeat CPU  0 instructions:  226000003 cycles:  171909159 heartbeat IPC: 0.82734 cumulative IPC: 1.03838 (Simulation time: 0 hr 7 min 18 sec) 
Heartbeat CPU  0 instructions:  227000002 cycles:  173122470 heartbeat IPC: 0.82419 cumulative IPC: 1.03626 (Simulation time: 0 hr 7 min 20 sec) 
Heartbeat CPU  0 instructions:  228000000 cycles:  174367990 heartbeat IPC: 0.80288 cumulative IPC: 1.03391 (Simulation time: 0 hr 7 min 22 sec) 
Heartbeat CPU  0 instructions:  229000002 cycles:  175575254 heartbeat IPC: 0.82832 cumulative IPC: 1.03193 (Simulation time: 0 hr 7 min 25 sec) 
Heartbeat CPU  0 instructions:  230000000 cycles:  176791919 heartbeat IPC: 0.82192 cumulative IPC: 1.02990 (Simulation time: 0 hr 7 min 27 sec) 
Heartbeat CPU  0 instructions:  231000001 cycles:  177991115 heartbeat IPC: 0.83389 cumulative IPC: 1.02806 (Simulation time: 0 hr 7 min 30 sec) 
Heartbeat CPU  0 instructions:  232000000 cycles:  179237365 heartbeat IPC: 0.80241 cumulative IPC: 1.02587 (Simulation time: 0 hr 7 min 32 sec) 
Heartbeat CPU  0 instructions:  233000001 cycles:  180437193 heartbeat IPC: 0.83345 cumulative IPC: 1.02409 (Simulation time: 0 hr 7 min 35 sec) 
Heartbeat CPU  0 instructions:  234000002 cycles:  181654899 heartbeat IPC: 0.82122 cumulative IPC: 1.02221 (Simulation time: 0 hr 7 min 37 sec) 
Heartbeat CPU  0 instructions:  235000002 cycles:  182857041 heartbeat IPC: 0.83185 cumulative IPC: 1.02048 (Simulation time: 0 hr 7 min 40 sec) 
Heartbeat CPU  0 instructions:  236000000 cycles:  184099980 heartbeat IPC: 0.80454 cumulative IPC: 1.01847 (Simulation time: 0 hr 7 min 42 sec) 
Heartbeat CPU  0 instructions:  237000003 cycles:  185309930 heartbeat IPC: 0.82648 cumulative IPC: 1.01675 (Simulation time: 0 hr 7 min 45 sec) 
Heartbeat CPU  0 instructions:  238000003 cycles:  186521397 heartbeat IPC: 0.82545 cumulative IPC: 1.01504 (Simulation time: 0 hr 7 min 47 sec) 
Heartbeat CPU  0 instructions:  239000000 cycles:  187739456 heartbeat IPC: 0.82098 cumulative IPC: 1.01332 (Simulation time: 0 hr 7 min 50 sec) 
Heartbeat CPU  0 instructions:  240000000 cycles:  188965883 heartbeat IPC: 0.81538 cumulative IPC: 1.01156 (Simulation time: 0 hr 7 min 52 sec) 
Heartbeat CPU  0 instructions:  241000000 cycles:  190190752 heartbeat IPC: 0.81641 cumulative IPC: 1.00985 (Simulation time: 0 hr 7 min 54 sec) 
Heartbeat CPU  0 instructions:  242000001 cycles:  191390635 heartbeat IPC: 0.83342 cumulative IPC: 1.00835 (Simulation time: 0 hr 7 min 57 sec) 
Heartbeat CPU  0 instructions:  243000000 cycles:  192613651 heartbeat IPC: 0.81765 cumulative IPC: 1.00671 (Simulation time: 0 hr 7 min 59 sec) 
Heartbeat CPU  0 instructions:  244000000 cycles:  193825677 heartbeat IPC: 0.82506 cumulative IPC: 1.00517 (Simulation time: 0 hr 8 min 2 sec) 
Heartbeat CPU  0 instructions:  245000002 cycles:  195051016 heartbeat IPC: 0.81610 cumulative IPC: 1.00357 (Simulation time: 0 hr 8 min 4 sec) 
Heartbeat CPU  0 instructions:  246000003 cycles:  196273439 heartbeat IPC: 0.81805 cumulative IPC: 1.00201 (Simulation time: 0 hr 8 min 7 sec) 
Heartbeat CPU  0 instructions:  247000003 cycles:  197481458 heartbeat IPC: 0.82780 cumulative IPC: 1.00058 (Simulation time: 0 hr 8 min 9 sec) 
Heartbeat CPU  0 instructions:  248000000 cycles:  198698665 heartbeat IPC: 0.82155 cumulative IPC: 0.99911 (Simulation time: 0 hr 8 min 12 sec) 
Heartbeat CPU  0 instructions:  249000003 cycles:  199926671 heartbeat IPC: 0.81433 cumulative IPC: 0.99759 (Simulation time: 0 hr 8 min 14 sec) 
Heartbeat CPU  0 instructions:  250000000 cycles:  201134862 heartbeat IPC: 0.82768 cumulative IPC: 0.99622 (Simulation time: 0 hr 8 min 17 sec) 
Heartbeat CPU  0 instructions:  251000000 cycles:  202545588 heartbeat IPC: 0.70885 cumulative IPC: 0.99356 (Simulation time: 0 hr 8 min 19 sec) 
Heartbeat CPU  0 instructions:  252000000 cycles:  203700945 heartbeat IPC: 0.86553 cumulative IPC: 0.99259 (Simulation time: 0 hr 8 min 21 sec) 
Heartbeat CPU  0 instructions:  253000002 cycles:  204601026 heartbeat IPC: 1.11101 cumulative IPC: 0.99328 (Simulation time: 0 hr 8 min 24 sec) 
Heartbeat CPU  0 instructions:  254000003 cycles:  205505951 heartbeat IPC: 1.10507 cumulative IPC: 0.99394 (Simulation time: 0 hr 8 min 26 sec) 
Heartbeat CPU  0 instructions:  255000000 cycles:  206409457 heartbeat IPC: 1.10680 cumulative IPC: 0.99459 (Simulation time: 0 hr 8 min 28 sec) 
Heartbeat CPU  0 instructions:  256000000 cycles:  207306467 heartbeat IPC: 1.11481 cumulative IPC: 0.99528 (Simulation time: 0 hr 8 min 30 sec) 
Heartbeat CPU  0 instructions:  257000000 cycles:  208192048 heartbeat IPC: 1.12920 cumulative IPC: 0.99603 (Simulation time: 0 hr 8 min 32 sec) 
Heartbeat CPU  0 instructions:  258000002 cycles:  209084655 heartbeat IPC: 1.12032 cumulative IPC: 0.99673 (Simulation time: 0 hr 8 min 34 sec) 
Heartbeat CPU  0 instructions:  259000000 cycles:  209980453 heartbeat IPC: 1.11632 cumulative IPC: 0.99740 (Simulation time: 0 hr 8 min 36 sec) 
Heartbeat CPU  0 instructions:  260000000 cycles:  210869093 heartbeat IPC: 1.12532 cumulative IPC: 0.99811 (Simulation time: 0 hr 8 min 38 sec) 
Heartbeat CPU  0 instructions:  261000001 cycles:  211753823 heartbeat IPC: 1.13029 cumulative IPC: 0.99884 (Simulation time: 0 hr 8 min 41 sec) 
Heartbeat CPU  0 instructions:  262000000 cycles:  212635671 heartbeat IPC: 1.13398 cumulative IPC: 0.99957 (Simulation time: 0 hr 8 min 43 sec) 
Heartbeat CPU  0 instructions:  263000002 cycles:  213511087 heartbeat IPC: 1.14232 cumulative IPC: 1.00034 (Simulation time: 0 hr 8 min 46 sec) 
Heartbeat CPU  0 instructions:  264000000 cycles:  214395567 heartbeat IPC: 1.13061 cumulative IPC: 1.00104 (Simulation time: 0 hr 8 min 48 sec) 
Heartbeat CPU  0 instructions:  265000002 cycles:  215272488 heartbeat IPC: 1.14036 cumulative IPC: 1.00178 (Simulation time: 0 hr 8 min 51 sec) 
Heartbeat CPU  0 instructions:  266000000 cycles:  216146125 heartbeat IPC: 1.14464 cumulative IPC: 1.00254 (Simulation time: 0 hr 8 min 54 sec) 
Heartbeat CPU  0 instructions:  267000000 cycles:  217013674 heartbeat IPC: 1.15267 cumulative IPC: 1.00332 (Simulation time: 0 hr 8 min 56 sec) 
Heartbeat CPU  0 instructions:  268000000 cycles:  217939072 heartbeat IPC: 1.08062 cumulative IPC: 1.00375 (Simulation time: 0 hr 8 min 58 sec) 
Heartbeat CPU  0 instructions:  269000000 cycles:  218820452 heartbeat IPC: 1.13458 cumulative IPC: 1.00443 (Simulation time: 0 hr 9 min 1 sec) 
Heartbeat CPU  0 instructions:  270000003 cycles:  219713185 heartbeat IPC: 1.12016 cumulative IPC: 1.00504 (Simulation time: 0 hr 9 min 3 sec) 
Heartbeat CPU  0 instructions:  271000000 cycles:  220600779 heartbeat IPC: 1.12664 cumulative IPC: 1.00568 (Simulation time: 0 hr 9 min 5 sec) 
Heartbeat CPU  0 instructions:  272000000 cycles:  221499378 heartbeat IPC: 1.11284 cumulative IPC: 1.00624 (Simulation time: 0 hr 9 min 8 sec) 
Heartbeat CPU  0 instructions:  273000000 cycles:  222379740 heartbeat IPC: 1.13590 cumulative IPC: 1.00691 (Simulation time: 0 hr 9 min 10 sec) 
Heartbeat CPU  0 instructions:  274000002 cycles:  223256825 heartbeat IPC: 1.14014 cumulative IPC: 1.00758 (Simulation time: 0 hr 9 min 13 sec) 
Heartbeat CPU  0 instructions:  275000000 cycles:  224145827 heartbeat IPC: 1.12485 cumulative IPC: 1.00818 (Simulation time: 0 hr 9 min 16 sec) 
Heartbeat CPU  0 instructions:  276000000 cycles:  225040422 heartbeat IPC: 1.11782 cumulative IPC: 1.00875 (Simulation time: 0 hr 9 min 18 sec) 
Heartbeat CPU  0 instructions:  277000002 cycles:  225929026 heartbeat IPC: 1.12536 cumulative IPC: 1.00934 (Simulation time: 0 hr 9 min 20 sec) 
Heartbeat CPU  0 instructions:  278000002 cycles:  226814256 heartbeat IPC: 1.12965 cumulative IPC: 1.00994 (Simulation time: 0 hr 9 min 23 sec) 
Heartbeat CPU  0 instructions:  279000000 cycles:  227700589 heartbeat IPC: 1.12824 cumulative IPC: 1.01053 (Simulation time: 0 hr 9 min 25 sec) 
Heartbeat CPU  0 instructions:  280000000 cycles:  228570167 heartbeat IPC: 1.14998 cumulative IPC: 1.01121 (Simulation time: 0 hr 9 min 27 sec) 
Heartbeat CPU  0 instructions:  281000002 cycles:  229456885 heartbeat IPC: 1.12776 cumulative IPC: 1.01179 (Simulation time: 0 hr 9 min 29 sec) 
Heartbeat CPU  0 instructions:  282000002 cycles:  230371515 heartbeat IPC: 1.09334 cumulative IPC: 1.01221 (Simulation time: 0 hr 9 min 32 sec) 
Heartbeat CPU  0 instructions:  283000001 cycles:  231252022 heartbeat IPC: 1.13571 cumulative IPC: 1.01281 (Simulation time: 0 hr 9 min 34 sec) 
Heartbeat CPU  0 instructions:  284000000 cycles:  232143038 heartbeat IPC: 1.12231 cumulative IPC: 1.01335 (Simulation time: 0 hr 9 min 36 sec) 
Heartbeat CPU  0 instructions:  285000003 cycles:  233023171 heartbeat IPC: 1.13620 cumulative IPC: 1.01394 (Simulation time: 0 hr 9 min 38 sec) 
Heartbeat CPU  0 instructions:  286000003 cycles:  233910021 heartbeat IPC: 1.12759 cumulative IPC: 1.01449 (Simulation time: 0 hr 9 min 40 sec) 
Heartbeat CPU  0 instructions:  287000001 cycles:  234806258 heartbeat IPC: 1.11577 cumulative IPC: 1.01498 (Simulation time: 0 hr 9 min 42 sec) 
Heartbeat CPU  0 instructions:  288000000 cycles:  235690093 heartbeat IPC: 1.13143 cumulative IPC: 1.01554 (Simulation time: 0 hr 9 min 44 sec) 
Heartbeat CPU  0 instructions:  289000001 cycles:  236573687 heartbeat IPC: 1.13174 cumulative IPC: 1.01609 (Simulation time: 0 hr 9 min 46 sec) 
Heartbeat CPU  0 instructions:  290000003 cycles:  237456213 heartbeat IPC: 1.13311 cumulative IPC: 1.01664 (Simulation time: 0 hr 9 min 48 sec) 
Heartbeat CPU  0 instructions:  291000003 cycles:  238325756 heartbeat IPC: 1.15003 cumulative IPC: 1.01726 (Simulation time: 0 hr 9 min 50 sec) 
Heartbeat CPU  0 instructions:  292000000 cycles:  239218306 heartbeat IPC: 1.12038 cumulative IPC: 1.01775 (Simulation time: 0 hr 9 min 53 sec) 
Heartbeat CPU  0 instructions:  293000002 cycles:  240147130 heartbeat IPC: 1.07663 cumulative IPC: 1.01804 (Simulation time: 0 hr 9 min 55 sec) 
Heartbeat CPU  0 instructions:  294000002 cycles:  241035613 heartbeat IPC: 1.12551 cumulative IPC: 1.01854 (Simulation time: 0 hr 9 min 57 sec) 
Heartbeat CPU  0 instructions:  295000001 cycles:  241933377 heartbeat IPC: 1.11388 cumulative IPC: 1.01898 (Simulation time: 0 hr 9 min 59 sec) 
Heartbeat CPU  0 instructions:  296000000 cycles:  242819283 heartbeat IPC: 1.12879 cumulative IPC: 1.01949 (Simulation time: 0 hr 10 min 1 sec) 
Heartbeat CPU  0 instructions:  297000003 cycles:  243694276 heartbeat IPC: 1.14287 cumulative IPC: 1.02005 (Simulation time: 0 hr 10 min 3 sec) 
Heartbeat CPU  0 instructions:  298000000 cycles:  244579222 heartbeat IPC: 1.13001 cumulative IPC: 1.02055 (Simulation time: 0 hr 10 min 5 sec) 
Heartbeat CPU  0 instructions:  299000003 cycles:  245462845 heartbeat IPC: 1.13171 cumulative IPC: 1.02105 (Simulation time: 0 hr 10 min 7 sec) 
Heartbeat CPU  0 instructions:  300000000 cycles:  246375366 heartbeat IPC: 1.09586 cumulative IPC: 1.02140 (Simulation time: 0 hr 10 min 9 sec) 
Heartbeat CPU  0 instructions:  301000000 cycles:  247271191 heartbeat IPC: 1.11629 cumulative IPC: 1.02184 (Simulation time: 0 hr 10 min 12 sec) 
Heartbeat CPU  0 instructions:  302000003 cycles:  248178284 heartbeat IPC: 1.10243 cumulative IPC: 1.02220 (Simulation time: 0 hr 10 min 14 sec) 
Heartbeat CPU  0 instructions:  303000000 cycles:  249102929 heartbeat IPC: 1.08149 cumulative IPC: 1.02248 (Simulation time: 0 hr 10 min 16 sec) 
Heartbeat CPU  0 instructions:  304000000 cycles:  250002108 heartbeat IPC: 1.11213 cumulative IPC: 1.02289 (Simulation time: 0 hr 10 min 18 sec) 
Heartbeat CPU  0 instructions:  305000003 cycles:  250898960 heartbeat IPC: 1.11501 cumulative IPC: 1.02330 (Simulation time: 0 hr 10 min 20 sec) 
Heartbeat CPU  0 instructions:  306000001 cycles:  251812667 heartbeat IPC: 1.09444 cumulative IPC: 1.02362 (Simulation time: 0 hr 10 min 23 sec) 
Heartbeat CPU  0 instructions:  307000001 cycles:  252716290 heartbeat IPC: 1.10666 cumulative IPC: 1.02399 (Simulation time: 0 hr 10 min 25 sec) 
Heartbeat CPU  0 instructions:  308000000 cycles:  253594822 heartbeat IPC: 1.13826 cumulative IPC: 1.02449 (Simulation time: 0 hr 10 min 27 sec) 
Heartbeat CPU  0 instructions:  309000001 cycles:  254489586 heartbeat IPC: 1.11761 cumulative IPC: 1.02489 (Simulation time: 0 hr 10 min 29 sec) 
Heartbeat CPU  0 instructions:  310000000 cycles:  255361560 heartbeat IPC: 1.14682 cumulative IPC: 1.02541 (Simulation time: 0 hr 10 min 31 sec) 
Heartbeat CPU  0 instructions:  311000000 cycles:  256245512 heartbeat IPC: 1.13128 cumulative IPC: 1.02587 (Simulation time: 0 hr 10 min 33 sec) 
Heartbeat CPU  0 instructions:  312000000 cycles:  257128111 heartbeat IPC: 1.13302 cumulative IPC: 1.02633 (Simulation time: 0 hr 10 min 35 sec) 
Heartbeat CPU  0 instructions:  313000003 cycles:  258003618 heartbeat IPC: 1.14220 cumulative IPC: 1.02682 (Simulation time: 0 hr 10 min 37 sec) 
Heartbeat CPU  0 instructions:  314000001 cycles:  258925346 heartbeat IPC: 1.08492 cumulative IPC: 1.02707 (Simulation time: 0 hr 10 min 39 sec) 
Heartbeat CPU  0 instructions:  315000000 cycles:  259818781 heartbeat IPC: 1.11927 cumulative IPC: 1.02747 (Simulation time: 0 hr 10 min 41 sec) 
Heartbeat CPU  0 instructions:  316000000 cycles:  260706010 heartbeat IPC: 1.12710 cumulative IPC: 1.02789 (Simulation time: 0 hr 10 min 44 sec) 
Heartbeat CPU  0 instructions:  317000003 cycles:  261604118 heartbeat IPC: 1.11346 cumulative IPC: 1.02825 (Simulation time: 0 hr 10 min 46 sec) 
Heartbeat CPU  0 instructions:  318000002 cycles:  262507985 heartbeat IPC: 1.10636 cumulative IPC: 1.02858 (Simulation time: 0 hr 10 min 48 sec) 
Heartbeat CPU  0 instructions:  319000002 cycles:  263403825 heartbeat IPC: 1.11627 cumulative IPC: 1.02895 (Simulation time: 0 hr 10 min 50 sec) 
Heartbeat CPU  0 instructions:  320000000 cycles:  264289301 heartbeat IPC: 1.12933 cumulative IPC: 1.02937 (Simulation time: 0 hr 10 min 52 sec) 
Heartbeat CPU  0 instructions:  321000002 cycles:  265162867 heartbeat IPC: 1.14474 cumulative IPC: 1.02984 (Simulation time: 0 hr 10 min 54 sec) 
Heartbeat CPU  0 instructions:  322000002 cycles:  266044822 heartbeat IPC: 1.13384 cumulative IPC: 1.03026 (Simulation time: 0 hr 10 min 56 sec) 
Heartbeat CPU  0 instructions:  323000002 cycles:  266928023 heartbeat IPC: 1.13225 cumulative IPC: 1.03068 (Simulation time: 0 hr 10 min 58 sec) 
Heartbeat CPU  0 instructions:  324000000 cycles:  267853308 heartbeat IPC: 1.08075 cumulative IPC: 1.03089 (Simulation time: 0 hr 11 min 0 sec) 
Heartbeat CPU  0 instructions:  325000002 cycles:  268735859 heartbeat IPC: 1.13308 cumulative IPC: 1.03131 (Simulation time: 0 hr 11 min 3 sec) 
Heartbeat CPU  0 instructions:  326000000 cycles:  269638428 heartbeat IPC: 1.10795 cumulative IPC: 1.03162 (Simulation time: 0 hr 11 min 5 sec) 
Heartbeat CPU  0 instructions:  327000002 cycles:  270527535 heartbeat IPC: 1.12473 cumulative IPC: 1.03200 (Simulation time: 0 hr 11 min 7 sec) 
Heartbeat CPU  0 instructions:  328000000 cycles:  271426258 heartbeat IPC: 1.11269 cumulative IPC: 1.03233 (Simulation time: 0 hr 11 min 9 sec) 
Heartbeat CPU  0 instructions:  329000001 cycles:  272332161 heartbeat IPC: 1.10387 cumulative IPC: 1.03262 (Simulation time: 0 hr 11 min 11 sec) 
Heartbeat CPU  0 instructions:  330000001 cycles:  273232554 heartbeat IPC: 1.11063 cumulative IPC: 1.03294 (Simulation time: 0 hr 11 min 13 sec) 
Heartbeat CPU  0 instructions:  331000001 cycles:  274117053 heartbeat IPC: 1.13058 cumulative IPC: 1.03332 (Simulation time: 0 hr 11 min 15 sec) 
Heartbeat CPU  0 instructions:  332000000 cycles:  274989789 heartbeat IPC: 1.14582 cumulative IPC: 1.03376 (Simulation time: 0 hr 11 min 17 sec) 
Heartbeat CPU  0 instructions:  333000001 cycles:  275867256 heartbeat IPC: 1.13965 cumulative IPC: 1.03417 (Simulation time: 0 hr 11 min 20 sec) 
Heartbeat CPU  0 instructions:  334000003 cycles:  276742771 heartbeat IPC: 1.14219 cumulative IPC: 1.03459 (Simulation time: 0 hr 11 min 22 sec) 
Heartbeat CPU  0 instructions:  335000002 cycles:  277669755 heartbeat IPC: 1.07877 cumulative IPC: 1.03477 (Simulation time: 0 hr 11 min 24 sec) 
Heartbeat CPU  0 instructions:  336000000 cycles:  278548392 heartbeat IPC: 1.13812 cumulative IPC: 1.03517 (Simulation time: 0 hr 11 min 26 sec) 
Heartbeat CPU  0 instructions:  337000002 cycles:  279453298 heartbeat IPC: 1.10509 cumulative IPC: 1.03545 (Simulation time: 0 hr 11 min 28 sec) 
Heartbeat CPU  0 instructions:  338000002 cycles:  280337263 heartbeat IPC: 1.13127 cumulative IPC: 1.03581 (Simulation time: 0 hr 11 min 30 sec) 
Heartbeat CPU  0 instructions:  339000002 cycles:  281228664 heartbeat IPC: 1.12183 cumulative IPC: 1.03615 (Simulation time: 0 hr 11 min 32 sec) 
Heartbeat CPU  0 instructions:  340000000 cycles:  282116699 heartbeat IPC: 1.12608 cumulative IPC: 1.03649 (Simulation time: 0 hr 11 min 34 sec) 
Heartbeat CPU  0 instructions:  341000001 cycles:  283002699 heartbeat IPC: 1.12867 cumulative IPC: 1.03684 (Simulation time: 0 hr 11 min 36 sec) 
Heartbeat CPU  0 instructions:  342000003 cycles:  283876946 heartbeat IPC: 1.14384 cumulative IPC: 1.03724 (Simulation time: 0 hr 11 min 38 sec) 
Heartbeat CPU  0 instructions:  343000003 cycles:  284759483 heartbeat IPC: 1.13310 cumulative IPC: 1.03760 (Simulation time: 0 hr 11 min 41 sec) 
Heartbeat CPU  0 instructions:  344000000 cycles:  285634380 heartbeat IPC: 1.14299 cumulative IPC: 1.03800 (Simulation time: 0 hr 11 min 43 sec) 
Heartbeat CPU  0 instructions:  345000001 cycles:  286560449 heartbeat IPC: 1.07983 cumulative IPC: 1.03816 (Simulation time: 0 hr 11 min 45 sec) 
Heartbeat CPU  0 instructions:  346000003 cycles:  287461100 heartbeat IPC: 1.11031 cumulative IPC: 1.03844 (Simulation time: 0 hr 11 min 47 sec) 
Heartbeat CPU  0 instructions:  347000003 cycles:  288354404 heartbeat IPC: 1.11944 cumulative IPC: 1.03874 (Simulation time: 0 hr 11 min 49 sec) 
Heartbeat CPU  0 instructions:  348000000 cycles:  289262340 heartbeat IPC: 1.10140 cumulative IPC: 1.03898 (Simulation time: 0 hr 11 min 51 sec) 
Heartbeat CPU  0 instructions:  349000000 cycles:  290151478 heartbeat IPC: 1.12468 cumulative IPC: 1.03930 (Simulation time: 0 hr 11 min 53 sec) 
Heartbeat CPU  0 instructions:  350000003 cycles:  291042517 heartbeat IPC: 1.12229 cumulative IPC: 1.03960 (Simulation time: 0 hr 11 min 55 sec) 
Heartbeat CPU  0 instructions:  351000002 cycles:  291939912 heartbeat IPC: 1.11434 cumulative IPC: 1.03988 (Simulation time: 0 hr 11 min 57 sec) 
Heartbeat CPU  0 instructions:  352000000 cycles:  292821100 heartbeat IPC: 1.13483 cumulative IPC: 1.04023 (Simulation time: 0 hr 12 min 0 sec) 
Heartbeat CPU  0 instructions:  353000003 cycles:  293712600 heartbeat IPC: 1.12171 cumulative IPC: 1.04053 (Simulation time: 0 hr 12 min 2 sec) 
Heartbeat CPU  0 instructions:  354000003 cycles:  294598158 heartbeat IPC: 1.12923 cumulative IPC: 1.04085 (Simulation time: 0 hr 12 min 4 sec) 
Heartbeat CPU  0 instructions:  355000000 cycles:  295474686 heartbeat IPC: 1.14086 cumulative IPC: 1.04121 (Simulation time: 0 hr 12 min 6 sec) 
Heartbeat CPU  0 instructions:  356000000 cycles:  296406957 heartbeat IPC: 1.07265 cumulative IPC: 1.04132 (Simulation time: 0 hr 12 min 8 sec) 
Heartbeat CPU  0 instructions:  357000001 cycles:  297301711 heartbeat IPC: 1.11763 cumulative IPC: 1.04160 (Simulation time: 0 hr 12 min 10 sec) 
Heartbeat CPU  0 instructions:  358000003 cycles:  298203869 heartbeat IPC: 1.10846 cumulative IPC: 1.04184 (Simulation time: 0 hr 12 min 12 sec) 
Heartbeat CPU  0 instructions:  359000000 cycles:  299114081 heartbeat IPC: 1.09864 cumulative IPC: 1.04205 (Simulation time: 0 hr 12 min 14 sec) 
Heartbeat CPU  0 instructions:  360000000 cycles:  300015076 heartbeat IPC: 1.10988 cumulative IPC: 1.04230 (Simulation time: 0 hr 12 min 16 sec) 
Heartbeat CPU  0 instructions:  361000002 cycles:  300916787 heartbeat IPC: 1.10900 cumulative IPC: 1.04254 (Simulation time: 0 hr 12 min 19 sec) 
Heartbeat CPU  0 instructions:  362000002 cycles:  301824565 heartbeat IPC: 1.10159 cumulative IPC: 1.04275 (Simulation time: 0 hr 12 min 21 sec) 
Heartbeat CPU  0 instructions:  363000002 cycles:  302695151 heartbeat IPC: 1.14865 cumulative IPC: 1.04312 (Simulation time: 0 hr 12 min 23 sec) 
Heartbeat CPU  0 instructions:  364000000 cycles:  303587959 heartbeat IPC: 1.12006 cumulative IPC: 1.04339 (Simulation time: 0 hr 12 min 25 sec) 
Heartbeat CPU  0 instructions:  365000001 cycles:  304473540 heartbeat IPC: 1.12920 cumulative IPC: 1.04369 (Simulation time: 0 hr 12 min 27 sec) 
Heartbeat CPU  0 instructions:  366000001 cycles:  305375128 heartbeat IPC: 1.10915 cumulative IPC: 1.04392 (Simulation time: 0 hr 12 min 29 sec) 
Heartbeat CPU  0 instructions:  367000003 cycles:  306272749 heartbeat IPC: 1.11406 cumulative IPC: 1.04417 (Simulation time: 0 hr 12 min 31 sec) 
Heartbeat CPU  0 instructions:  368000000 cycles:  307172491 heartbeat IPC: 1.11143 cumulative IPC: 1.04440 (Simulation time: 0 hr 12 min 33 sec) 
Heartbeat CPU  0 instructions:  369000001 cycles:  308067632 heartbeat IPC: 1.11714 cumulative IPC: 1.04465 (Simulation time: 0 hr 12 min 35 sec) 
Heartbeat CPU  0 instructions:  370000002 cycles:  308973104 heartbeat IPC: 1.10440 cumulative IPC: 1.04486 (Simulation time: 0 hr 12 min 38 sec) 
Heartbeat CPU  0 instructions:  371000002 cycles:  309864416 heartbeat IPC: 1.12194 cumulative IPC: 1.04513 (Simulation time: 0 hr 12 min 40 sec) 
Heartbeat CPU  0 instructions:  372000000 cycles:  310742802 heartbeat IPC: 1.13845 cumulative IPC: 1.04544 (Simulation time: 0 hr 12 min 42 sec) 
Heartbeat CPU  0 instructions:  373000001 cycles:  311621236 heartbeat IPC: 1.13839 cumulative IPC: 1.04576 (Simulation time: 0 hr 12 min 44 sec) 
Heartbeat CPU  0 instructions:  374000001 cycles:  312487723 heartbeat IPC: 1.15409 cumulative IPC: 1.04612 (Simulation time: 0 hr 12 min 46 sec) 
Heartbeat CPU  0 instructions:  375000000 cycles:  313371794 heartbeat IPC: 1.13113 cumulative IPC: 1.04640 (Simulation time: 0 hr 12 min 48 sec) 
Heartbeat CPU  0 instructions:  376000000 cycles:  314252614 heartbeat IPC: 1.13531 cumulative IPC: 1.04670 (Simulation time: 0 hr 12 min 50 sec) 
Heartbeat CPU  0 instructions:  377000002 cycles:  315174413 heartbeat IPC: 1.08484 cumulative IPC: 1.04683 (Simulation time: 0 hr 12 min 52 sec) 
Heartbeat CPU  0 instructions:  378000000 cycles:  316068532 heartbeat IPC: 1.11842 cumulative IPC: 1.04707 (Simulation time: 0 hr 12 min 54 sec) 
Heartbeat CPU  0 instructions:  379000000 cycles:  316949980 heartbeat IPC: 1.13450 cumulative IPC: 1.04736 (Simulation time: 0 hr 12 min 56 sec) 
Heartbeat CPU  0 instructions:  380000000 cycles:  317846616 heartbeat IPC: 1.11528 cumulative IPC: 1.04759 (Simulation time: 0 hr 12 min 59 sec) 
Heartbeat CPU  0 instructions:  381000002 cycles:  318735257 heartbeat IPC: 1.12532 cumulative IPC: 1.04785 (Simulation time: 0 hr 13 min 1 sec) 
Heartbeat CPU  0 instructions:  382000000 cycles:  319626911 heartbeat IPC: 1.12151 cumulative IPC: 1.04809 (Simulation time: 0 hr 13 min 3 sec) 
Heartbeat CPU  0 instructions:  383000000 cycles:  320502537 heartbeat IPC: 1.14204 cumulative IPC: 1.04840 (Simulation time: 0 hr 13 min 5 sec) 
Heartbeat CPU  0 instructions:  384000000 cycles:  321380822 heartbeat IPC: 1.13858 cumulative IPC: 1.04869 (Simulation time: 0 hr 13 min 7 sec) 
Heartbeat CPU  0 instructions:  385000001 cycles:  322252038 heartbeat IPC: 1.14782 cumulative IPC: 1.04901 (Simulation time: 0 hr 13 min 9 sec) 
Heartbeat CPU  0 instructions:  386000002 cycles:  323146957 heartbeat IPC: 1.11742 cumulative IPC: 1.04923 (Simulation time: 0 hr 13 min 11 sec) 
Heartbeat CPU  0 instructions:  387000000 cycles:  324089263 heartbeat IPC: 1.06122 cumulative IPC: 1.04927 (Simulation time: 0 hr 13 min 13 sec) 
Heartbeat CPU  0 instructions:  388000000 cycles:  324985983 heartbeat IPC: 1.11518 cumulative IPC: 1.04949 (Simulation time: 0 hr 13 min 15 sec) 
Heartbeat CPU  0 instructions:  389000003 cycles:  325878991 heartbeat IPC: 1.11981 cumulative IPC: 1.04972 (Simulation time: 0 hr 13 min 17 sec) 
Heartbeat CPU  0 instructions:  390000001 cycles:  326780762 heartbeat IPC: 1.10893 cumulative IPC: 1.04991 (Simulation time: 0 hr 13 min 20 sec) 
Heartbeat CPU  0 instructions:  391000002 cycles:  327668779 heartbeat IPC: 1.12611 cumulative IPC: 1.05015 (Simulation time: 0 hr 13 min 22 sec) 
Heartbeat CPU  0 instructions:  392000000 cycles:  328583660 heartbeat IPC: 1.09304 cumulative IPC: 1.05029 (Simulation time: 0 hr 13 min 24 sec) 
Heartbeat CPU  0 instructions:  393000003 cycles:  329480360 heartbeat IPC: 1.11520 cumulative IPC: 1.05050 (Simulation time: 0 hr 13 min 26 sec) 
Heartbeat CPU  0 instructions:  394000003 cycles:  330359602 heartbeat IPC: 1.13734 cumulative IPC: 1.05078 (Simulation time: 0 hr 13 min 28 sec) 
Heartbeat CPU  0 instructions:  395000003 cycles:  331242715 heartbeat IPC: 1.13236 cumulative IPC: 1.05103 (Simulation time: 0 hr 13 min 30 sec) 
Heartbeat CPU  0 instructions:  396000000 cycles:  332118038 heartbeat IPC: 1.14243 cumulative IPC: 1.05132 (Simulation time: 0 hr 13 min 32 sec) 
Heartbeat CPU  0 instructions:  397000001 cycles:  333003351 heartbeat IPC: 1.12955 cumulative IPC: 1.05156 (Simulation time: 0 hr 13 min 34 sec) 
Heartbeat CPU  0 instructions:  398000001 cycles:  334757573 heartbeat IPC: 0.57005 cumulative IPC: 1.04859 (Simulation time: 0 hr 13 min 37 sec) 
Heartbeat CPU  0 instructions:  399000000 cycles:  336281583 heartbeat IPC: 0.65616 cumulative IPC: 1.04650 (Simulation time: 0 hr 13 min 39 sec) 
Heartbeat CPU  0 instructions:  400000000 cycles:  337261449 heartbeat IPC: 1.02055 cumulative IPC: 1.04641 (Simulation time: 0 hr 13 min 41 sec) 
Heartbeat CPU  0 instructions:  401000001 cycles:  338226747 heartbeat IPC: 1.03595 cumulative IPC: 1.04637 (Simulation time: 0 hr 13 min 43 sec) 
Heartbeat CPU  0 instructions:  402000003 cycles:  339192273 heartbeat IPC: 1.03571 cumulative IPC: 1.04634 (Simulation time: 0 hr 13 min 45 sec) 
Heartbeat CPU  0 instructions:  403000000 cycles:  340158229 heartbeat IPC: 1.03524 cumulative IPC: 1.04630 (Simulation time: 0 hr 13 min 48 sec) 
Heartbeat CPU  0 instructions:  404000000 cycles:  341127791 heartbeat IPC: 1.03139 cumulative IPC: 1.04625 (Simulation time: 0 hr 13 min 50 sec) 
Heartbeat CPU  0 instructions:  405000003 cycles:  342094478 heartbeat IPC: 1.03446 cumulative IPC: 1.04621 (Simulation time: 0 hr 13 min 52 sec) 
Heartbeat CPU  0 instructions:  406000003 cycles:  343062925 heartbeat IPC: 1.03258 cumulative IPC: 1.04617 (Simulation time: 0 hr 13 min 54 sec) 
Heartbeat CPU  0 instructions:  407000000 cycles:  344025147 heartbeat IPC: 1.03926 cumulative IPC: 1.04614 (Simulation time: 0 hr 13 min 56 sec) 
Heartbeat CPU  0 instructions:  408000000 cycles:  344990838 heartbeat IPC: 1.03553 cumulative IPC: 1.04611 (Simulation time: 0 hr 13 min 58 sec) 
Heartbeat CPU  0 instructions:  409000002 cycles:  345952805 heartbeat IPC: 1.03954 cumulative IPC: 1.04609 (Simulation time: 0 hr 14 min 1 sec) 
Heartbeat CPU  0 instructions:  410000002 cycles:  346915539 heartbeat IPC: 1.03871 cumulative IPC: 1.04606 (Simulation time: 0 hr 14 min 3 sec) 
Heartbeat CPU  0 instructions:  411000000 cycles:  347883252 heartbeat IPC: 1.03336 cumulative IPC: 1.04602 (Simulation time: 0 hr 14 min 5 sec) 
Heartbeat CPU  0 instructions:  412000000 cycles:  348848948 heartbeat IPC: 1.03552 cumulative IPC: 1.04599 (Simulation time: 0 hr 14 min 7 sec) 
Heartbeat CPU  0 instructions:  413000001 cycles:  349813822 heartbeat IPC: 1.03641 cumulative IPC: 1.04596 (Simulation time: 0 hr 14 min 9 sec) 
Heartbeat CPU  0 instructions:  414000000 cycles:  350779470 heartbeat IPC: 1.03557 cumulative IPC: 1.04592 (Simulation time: 0 hr 14 min 11 sec) 
Heartbeat CPU  0 instructions:  415000002 cycles:  351744326 heartbeat IPC: 1.03643 cumulative IPC: 1.04589 (Simulation time: 0 hr 14 min 14 sec) 
Heartbeat CPU  0 instructions:  416000000 cycles:  352708745 heartbeat IPC: 1.03689 cumulative IPC: 1.04586 (Simulation time: 0 hr 14 min 16 sec) 
Heartbeat CPU  0 instructions:  417000001 cycles:  353672860 heartbeat IPC: 1.03722 cumulative IPC: 1.04584 (Simulation time: 0 hr 14 min 18 sec) 
Heartbeat CPU  0 instructions:  418000002 cycles:  354637330 heartbeat IPC: 1.03684 cumulative IPC: 1.04581 (Simulation time: 0 hr 14 min 20 sec) 
Heartbeat CPU  0 instructions:  419000003 cycles:  355600745 heartbeat IPC: 1.03798 cumulative IPC: 1.04578 (Simulation time: 0 hr 14 min 22 sec) 
Heartbeat CPU  0 instructions:  420000000 cycles:  356570472 heartbeat IPC: 1.03121 cumulative IPC: 1.04574 (Simulation time: 0 hr 14 min 24 sec) 
Heartbeat CPU  0 instructions:  421000002 cycles:  357546813 heartbeat IPC: 1.02423 cumulative IPC: 1.04567 (Simulation time: 0 hr 14 min 26 sec) 
Heartbeat CPU  0 instructions:  422000000 cycles:  358534114 heartbeat IPC: 1.01286 cumulative IPC: 1.04556 (Simulation time: 0 hr 14 min 29 sec) 
Heartbeat CPU  0 instructions:  423000003 cycles:  359509183 heartbeat IPC: 1.02557 cumulative IPC: 1.04550 (Simulation time: 0 hr 14 min 31 sec) 
Heartbeat CPU  0 instructions:  424000000 cycles:  360485280 heartbeat IPC: 1.02449 cumulative IPC: 1.04543 (Simulation time: 0 hr 14 min 33 sec) 
Heartbeat CPU  0 instructions:  425000000 cycles:  361461010 heartbeat IPC: 1.02487 cumulative IPC: 1.04537 (Simulation time: 0 hr 14 min 36 sec) 
Heartbeat CPU  0 instructions:  426000000 cycles:  362447898 heartbeat IPC: 1.01329 cumulative IPC: 1.04527 (Simulation time: 0 hr 14 min 38 sec) 
Heartbeat CPU  0 instructions:  427000003 cycles:  363422928 heartbeat IPC: 1.02561 cumulative IPC: 1.04521 (Simulation time: 0 hr 14 min 40 sec) 
Heartbeat CPU  0 instructions:  428000000 cycles:  364408894 heartbeat IPC: 1.01423 cumulative IPC: 1.04511 (Simulation time: 0 hr 14 min 42 sec) 
Heartbeat CPU  0 instructions:  429000000 cycles:  365384122 heartbeat IPC: 1.02540 cumulative IPC: 1.04505 (Simulation time: 0 hr 14 min 44 sec) 
Heartbeat CPU  0 instructions:  430000003 cycles:  366358755 heartbeat IPC: 1.02603 cumulative IPC: 1.04499 (Simulation time: 0 hr 14 min 46 sec) 
Heartbeat CPU  0 instructions:  431000003 cycles:  367339974 heartbeat IPC: 1.01914 cumulative IPC: 1.04491 (Simulation time: 0 hr 14 min 49 sec) 
Heartbeat CPU  0 instructions:  432000000 cycles:  368313812 heartbeat IPC: 1.02686 cumulative IPC: 1.04485 (Simulation time: 0 hr 14 min 51 sec) 
Heartbeat CPU  0 instructions:  433000001 cycles:  369290314 heartbeat IPC: 1.02406 cumulative IPC: 1.04479 (Simulation time: 0 hr 14 min 53 sec) 
Heartbeat CPU  0 instructions:  434000003 cycles:  370264405 heartbeat IPC: 1.02660 cumulative IPC: 1.04474 (Simulation time: 0 hr 14 min 55 sec) 
Heartbeat CPU  0 instructions:  435000001 cycles:  371245012 heartbeat IPC: 1.01977 cumulative IPC: 1.04466 (Simulation time: 0 hr 14 min 57 sec) 
Heartbeat CPU  0 instructions:  436000000 cycles:  372212285 heartbeat IPC: 1.03383 cumulative IPC: 1.04463 (Simulation time: 0 hr 14 min 59 sec) 
Heartbeat CPU  0 instructions:  437000000 cycles:  373185306 heartbeat IPC: 1.02773 cumulative IPC: 1.04458 (Simulation time: 0 hr 15 min 2 sec) 
Heartbeat CPU  0 instructions:  438000001 cycles:  374149799 heartbeat IPC: 1.03682 cumulative IPC: 1.04455 (Simulation time: 0 hr 15 min 4 sec) 
Heartbeat CPU  0 instructions:  439000002 cycles:  375113427 heartbeat IPC: 1.03775 cumulative IPC: 1.04453 (Simulation time: 0 hr 15 min 6 sec) 
Heartbeat CPU  0 instructions:  440000000 cycles:  376080227 heartbeat IPC: 1.03434 cumulative IPC: 1.04450 (Simulation time: 0 hr 15 min 8 sec) 
Heartbeat CPU  0 instructions:  441000001 cycles:  377044622 heartbeat IPC: 1.03692 cumulative IPC: 1.04448 (Simulation time: 0 hr 15 min 10 sec) 
Heartbeat CPU  0 instructions:  442000001 cycles:  378009649 heartbeat IPC: 1.03624 cumulative IPC: 1.04446 (Simulation time: 0 hr 15 min 12 sec) 
Heartbeat CPU  0 instructions:  443000003 cycles:  378974827 heartbeat IPC: 1.03608 cumulative IPC: 1.04443 (Simulation time: 0 hr 15 min 15 sec) 
Heartbeat CPU  0 instructions:  444000000 cycles:  379938013 heartbeat IPC: 1.03822 cumulative IPC: 1.04441 (Simulation time: 0 hr 15 min 17 sec) 
Heartbeat CPU  0 instructions:  445000001 cycles:  380903035 heartbeat IPC: 1.03625 cumulative IPC: 1.04439 (Simulation time: 0 hr 15 min 19 sec) 
Heartbeat CPU  0 instructions:  446000001 cycles:  381868495 heartbeat IPC: 1.03578 cumulative IPC: 1.04436 (Simulation time: 0 hr 15 min 21 sec) 
Heartbeat CPU  0 instructions:  447000002 cycles:  382832013 heartbeat IPC: 1.03786 cumulative IPC: 1.04434 (Simulation time: 0 hr 15 min 23 sec) 
Heartbeat CPU  0 instructions:  448000000 cycles:  383798452 heartbeat IPC: 1.03472 cumulative IPC: 1.04432 (Simulation time: 0 hr 15 min 25 sec) 
Heartbeat CPU  0 instructions:  449000003 cycles:  384761862 heartbeat IPC: 1.03798 cumulative IPC: 1.04430 (Simulation time: 0 hr 15 min 28 sec) 
Heartbeat CPU  0 instructions:  450000002 cycles:  385727670 heartbeat IPC: 1.03540 cumulative IPC: 1.04427 (Simulation time: 0 hr 15 min 30 sec) 
Heartbeat CPU  0 instructions:  451000000 cycles:  386692723 heartbeat IPC: 1.03621 cumulative IPC: 1.04425 (Simulation time: 0 hr 15 min 32 sec) 
Heartbeat CPU  0 instructions:  452000000 cycles:  387656754 heartbeat IPC: 1.03731 cumulative IPC: 1.04423 (Simulation time: 0 hr 15 min 34 sec) 
Heartbeat CPU  0 instructions:  453000003 cycles:  388621974 heartbeat IPC: 1.03604 cumulative IPC: 1.04421 (Simulation time: 0 hr 15 min 36 sec) 
Heartbeat CPU  0 instructions:  454000000 cycles:  389586583 heartbeat IPC: 1.03669 cumulative IPC: 1.04419 (Simulation time: 0 hr 15 min 38 sec) 
Heartbeat CPU  0 instructions:  455000002 cycles:  390553110 heartbeat IPC: 1.03463 cumulative IPC: 1.04416 (Simulation time: 0 hr 15 min 41 sec) 
Heartbeat CPU  0 instructions:  456000000 cycles:  391516092 heartbeat IPC: 1.03844 cumulative IPC: 1.04414 (Simulation time: 0 hr 15 min 43 sec) 
Heartbeat CPU  0 instructions:  457000000 cycles:  392481267 heartbeat IPC: 1.03608 cumulative IPC: 1.04412 (Simulation time: 0 hr 15 min 45 sec) 
Heartbeat CPU  0 instructions:  458000002 cycles:  393445567 heartbeat IPC: 1.03702 cumulative IPC: 1.04410 (Simulation time: 0 hr 15 min 47 sec) 
Heartbeat CPU  0 instructions:  459000003 cycles:  394409962 heartbeat IPC: 1.03692 cumulative IPC: 1.04408 (Simulation time: 0 hr 15 min 49 sec) 
Heartbeat CPU  0 instructions:  460000000 cycles:  395843020 heartbeat IPC: 0.69781 cumulative IPC: 1.04264 (Simulation time: 0 hr 15 min 52 sec) 
Heartbeat CPU  0 instructions:  461000000 cycles:  397119243 heartbeat IPC: 0.78356 cumulative IPC: 1.04169 (Simulation time: 0 hr 15 min 54 sec) 
Heartbeat CPU  0 instructions:  462000000 cycles:  398056917 heartbeat IPC: 1.06647 cumulative IPC: 1.04175 (Simulation time: 0 hr 15 min 56 sec) 
Heartbeat CPU  0 instructions:  463000001 cycles:  398977700 heartbeat IPC: 1.08603 cumulative IPC: 1.04187 (Simulation time: 0 hr 15 min 58 sec) 
Heartbeat CPU  0 instructions:  464000000 cycles:  399928374 heartbeat IPC: 1.05188 cumulative IPC: 1.04190 (Simulation time: 0 hr 16 min 0 sec) 
Heartbeat CPU  0 instructions:  465000002 cycles:  400888716 heartbeat IPC: 1.04130 cumulative IPC: 1.04190 (Simulation time: 0 hr 16 min 2 sec) 
Heartbeat CPU  0 instructions:  466000000 cycles:  401860782 heartbeat IPC: 1.02873 cumulative IPC: 1.04186 (Simulation time: 0 hr 16 min 4 sec) 
Heartbeat CPU  0 instructions:  467000001 cycles:  402811228 heartbeat IPC: 1.05214 cumulative IPC: 1.04189 (Simulation time: 0 hr 16 min 6 sec) 
Heartbeat CPU  0 instructions:  468000000 cycles:  403754669 heartbeat IPC: 1.05995 cumulative IPC: 1.04194 (Simulation time: 0 hr 16 min 8 sec) 
Heartbeat CPU  0 instructions:  469000003 cycles:  405514924 heartbeat IPC: 0.56810 cumulative IPC: 1.03959 (Simulation time: 0 hr 16 min 10 sec) 
Heartbeat CPU  0 instructions:  470000001 cycles:  406457864 heartbeat IPC: 1.06051 cumulative IPC: 1.03964 (Simulation time: 0 hr 16 min 12 sec) 
Heartbeat CPU  0 instructions:  471000001 cycles:  407375923 heartbeat IPC: 1.08925 cumulative IPC: 1.03977 (Simulation time: 0 hr 16 min 14 sec) 
Heartbeat CPU  0 instructions:  472000000 cycles:  408276677 heartbeat IPC: 1.11018 cumulative IPC: 1.03995 (Simulation time: 0 hr 16 min 16 sec) 
Heartbeat CPU  0 instructions:  473000002 cycles:  409186036 heartbeat IPC: 1.09968 cumulative IPC: 1.04010 (Simulation time: 0 hr 16 min 18 sec) 
Heartbeat CPU  0 instructions:  474000001 cycles:  410086805 heartbeat IPC: 1.11016 cumulative IPC: 1.04027 (Simulation time: 0 hr 16 min 20 sec) 
Heartbeat CPU  0 instructions:  475000001 cycles:  410992469 heartbeat IPC: 1.10416 cumulative IPC: 1.04043 (Simulation time: 0 hr 16 min 22 sec) 
Heartbeat CPU  0 instructions:  476000000 cycles:  411889366 heartbeat IPC: 1.11495 cumulative IPC: 1.04062 (Simulation time: 0 hr 16 min 24 sec) 
Heartbeat CPU  0 instructions:  477000002 cycles:  412790476 heartbeat IPC: 1.10974 cumulative IPC: 1.04079 (Simulation time: 0 hr 16 min 26 sec) 
Heartbeat CPU  0 instructions:  478000000 cycles:  414495041 heartbeat IPC: 0.58666 cumulative IPC: 1.03866 (Simulation time: 0 hr 16 min 29 sec) 
Heartbeat CPU  0 instructions:  479000002 cycles:  415531725 heartbeat IPC: 0.96462 cumulative IPC: 1.03845 (Simulation time: 0 hr 16 min 31 sec) 
Heartbeat CPU  0 instructions:  480000000 cycles:  416506000 heartbeat IPC: 1.02640 cumulative IPC: 1.03842 (Simulation time: 0 hr 16 min 33 sec) 
Heartbeat CPU  0 instructions:  481000003 cycles:  417544429 heartbeat IPC: 0.96300 cumulative IPC: 1.03821 (Simulation time: 0 hr 16 min 35 sec) 
Heartbeat CPU  0 instructions:  482000003 cycles:  418574775 heartbeat IPC: 0.97055 cumulative IPC: 1.03802 (Simulation time: 0 hr 16 min 37 sec) 
Heartbeat CPU  0 instructions:  483000003 cycles:  419605773 heartbeat IPC: 0.96993 cumulative IPC: 1.03783 (Simulation time: 0 hr 16 min 39 sec) 
Heartbeat CPU  0 instructions:  484000000 cycles:  420616813 heartbeat IPC: 0.98908 cumulative IPC: 1.03770 (Simulation time: 0 hr 16 min 41 sec) 
Heartbeat CPU  0 instructions:  485000002 cycles:  421603982 heartbeat IPC: 1.01300 cumulative IPC: 1.03763 (Simulation time: 0 hr 16 min 43 sec) 
Heartbeat CPU  0 instructions:  486000000 cycles:  422600619 heartbeat IPC: 1.00337 cumulative IPC: 1.03754 (Simulation time: 0 hr 16 min 45 sec) 
Heartbeat CPU  0 instructions:  487000000 cycles:  424312744 heartbeat IPC: 0.58407 cumulative IPC: 1.03546 (Simulation time: 0 hr 16 min 48 sec) 
Heartbeat CPU  0 instructions:  488000000 cycles:  425510219 heartbeat IPC: 0.83509 cumulative IPC: 1.03482 (Simulation time: 0 hr 16 min 51 sec) 
Heartbeat CPU  0 instructions:  489000000 cycles:  426729976 heartbeat IPC: 0.81984 cumulative IPC: 1.03412 (Simulation time: 0 hr 16 min 53 sec) 
Heartbeat CPU  0 instructions:  490000003 cycles:  427937518 heartbeat IPC: 0.82813 cumulative IPC: 1.03347 (Simulation time: 0 hr 16 min 55 sec) 
Heartbeat CPU  0 instructions:  491000003 cycles:  429187990 heartbeat IPC: 0.79970 cumulative IPC: 1.03269 (Simulation time: 0 hr 16 min 58 sec) 
Heartbeat CPU  0 instructions:  492000000 cycles:  430403400 heartbeat IPC: 0.82277 cumulative IPC: 1.03202 (Simulation time: 0 hr 17 min 0 sec) 
Heartbeat CPU  0 instructions:  493000001 cycles:  431620813 heartbeat IPC: 0.82141 cumulative IPC: 1.03135 (Simulation time: 0 hr 17 min 3 sec) 
Heartbeat CPU  0 instructions:  494000000 cycles:  432836697 heartbeat IPC: 0.82245 cumulative IPC: 1.03068 (Simulation time: 0 hr 17 min 5 sec) 
Heartbeat CPU  0 instructions:  495000000 cycles:  434079411 heartbeat IPC: 0.80469 cumulative IPC: 1.02995 (Simulation time: 0 hr 17 min 8 sec) 
Heartbeat CPU  0 instructions:  496000000 cycles:  435296484 heartbeat IPC: 0.82164 cumulative IPC: 1.02929 (Simulation time: 0 hr 17 min 10 sec) 
Heartbeat CPU  0 instructions:  497000002 cycles:  436509255 heartbeat IPC: 0.82456 cumulative IPC: 1.02865 (Simulation time: 0 hr 17 min 13 sec) 
Heartbeat CPU  0 instructions:  498000001 cycles:  437727291 heartbeat IPC: 0.82099 cumulative IPC: 1.02800 (Simulation time: 0 hr 17 min 15 sec) 
Heartbeat CPU  0 instructions:  499000000 cycles:  438977104 heartbeat IPC: 0.80012 cumulative IPC: 1.02726 (Simulation time: 0 hr 17 min 18 sec) 
Heartbeat CPU  0 instructions:  500000000 cycles:  440188344 heartbeat IPC: 0.82560 cumulative IPC: 1.02664 (Simulation time: 0 hr 17 min 20 sec) 
Heartbeat CPU  0 instructions:  501000003 cycles:  441410603 heartbeat IPC: 0.81816 cumulative IPC: 1.02598 (Simulation time: 0 hr 17 min 22 sec) 
Heartbeat CPU  0 instructions:  502000002 cycles:  442627901 heartbeat IPC: 0.82149 cumulative IPC: 1.02535 (Simulation time: 0 hr 17 min 25 sec) 
Heartbeat CPU  0 instructions:  503000000 cycles:  443871024 heartbeat IPC: 0.80442 cumulative IPC: 1.02465 (Simulation time: 0 hr 17 min 27 sec) 
Heartbeat CPU  0 instructions:  504000000 cycles:  445080681 heartbeat IPC: 0.82668 cumulative IPC: 1.02404 (Simulation time: 0 hr 17 min 30 sec) 
Heartbeat CPU  0 instructions:  505000000 cycles:  446301340 heartbeat IPC: 0.81923 cumulative IPC: 1.02341 (Simulation time: 0 hr 17 min 32 sec) 
Heartbeat CPU  0 instructions:  506000003 cycles:  447520429 heartbeat IPC: 0.82029 cumulative IPC: 1.02279 (Simulation time: 0 hr 17 min 35 sec) 
Heartbeat CPU  0 instructions:  507000002 cycles:  448763782 heartbeat IPC: 0.80428 cumulative IPC: 1.02211 (Simulation time: 0 hr 17 min 37 sec) 
Heartbeat CPU  0 instructions:  508000000 cycles:  449977448 heartbeat IPC: 0.82395 cumulative IPC: 1.02150 (Simulation time: 0 hr 17 min 40 sec) 
Heartbeat CPU  0 instructions:  509000001 cycles:  451197992 heartbeat IPC: 0.81931 cumulative IPC: 1.02089 (Simulation time: 0 hr 17 min 42 sec) 
Heartbeat CPU  0 instructions:  510000000 cycles:  452414987 heartbeat IPC: 0.82170 cumulative IPC: 1.02028 (Simulation time: 0 hr 17 min 45 sec) 
Heartbeat CPU  0 instructions:  511000001 cycles:  453632638 heartbeat IPC: 0.82125 cumulative IPC: 1.01968 (Simulation time: 0 hr 17 min 47 sec) 
Heartbeat CPU  0 instructions:  512000000 cycles:  454866072 heartbeat IPC: 0.81074 cumulative IPC: 1.01905 (Simulation time: 0 hr 17 min 49 sec) 
Heartbeat CPU  0 instructions:  513000000 cycles:  456083703 heartbeat IPC: 0.82127 cumulative IPC: 1.01845 (Simulation time: 0 hr 17 min 52 sec) 
Heartbeat CPU  0 instructions:  514000000 cycles:  457311212 heartbeat IPC: 0.81466 cumulative IPC: 1.01784 (Simulation time: 0 hr 17 min 54 sec) 
Heartbeat CPU  0 instructions:  515000003 cycles:  458522488 heartbeat IPC: 0.82558 cumulative IPC: 1.01727 (Simulation time: 0 hr 17 min 57 sec) 
Heartbeat CPU  0 instructions:  516000000 cycles:  459766504 heartbeat IPC: 0.80385 cumulative IPC: 1.01662 (Simulation time: 0 hr 17 min 59 sec) 
Heartbeat CPU  0 instructions:  517000001 cycles:  460979707 heartbeat IPC: 0.82427 cumulative IPC: 1.01605 (Simulation time: 0 hr 18 min 2 sec) 
Heartbeat CPU  0 instructions:  518000001 cycles:  462200094 heartbeat IPC: 0.81941 cumulative IPC: 1.01547 (Simulation time: 0 hr 18 min 4 sec) 
Heartbeat CPU  0 instructions:  519000000 cycles:  463424970 heartbeat IPC: 0.81641 cumulative IPC: 1.01488 (Simulation time: 0 hr 18 min 7 sec) 
Heartbeat CPU  0 instructions:  520000000 cycles:  464666811 heartbeat IPC: 0.80526 cumulative IPC: 1.01425 (Simulation time: 0 hr 18 min 9 sec) 
Heartbeat CPU  0 instructions:  521000002 cycles:  465882222 heartbeat IPC: 0.82277 cumulative IPC: 1.01369 (Simulation time: 0 hr 18 min 12 sec) 
Heartbeat CPU  0 instructions:  522000002 cycles:  467099564 heartbeat IPC: 0.82146 cumulative IPC: 1.01312 (Simulation time: 0 hr 18 min 14 sec) 
Heartbeat CPU  0 instructions:  523000001 cycles:  468321770 heartbeat IPC: 0.81819 cumulative IPC: 1.01255 (Simulation time: 0 hr 18 min 17 sec) 
Heartbeat CPU  0 instructions:  524000000 cycles:  469791520 heartbeat IPC: 0.68039 cumulative IPC: 1.01139 (Simulation time: 0 hr 18 min 19 sec) 
Heartbeat CPU  0 instructions:  525000000 cycles:  470899096 heartbeat IPC: 0.90287 cumulative IPC: 1.01110 (Simulation time: 0 hr 18 min 22 sec) 
Heartbeat CPU  0 instructions:  526000001 cycles:  471819271 heartbeat IPC: 1.08675 cumulative IPC: 1.01127 (Simulation time: 0 hr 18 min 24 sec) 
Heartbeat CPU  0 instructions:  527000001 cycles:  472749322 heartbeat IPC: 1.07521 cumulative IPC: 1.01141 (Simulation time: 0 hr 18 min 26 sec) 
Heartbeat CPU  0 instructions:  528000000 cycles:  473679082 heartbeat IPC: 1.07555 cumulative IPC: 1.01155 (Simulation time: 0 hr 18 min 28 sec) 
Heartbeat CPU  0 instructions:  529000003 cycles:  474616658 heartbeat IPC: 1.06658 cumulative IPC: 1.01167 (Simulation time: 0 hr 18 min 30 sec) 
Heartbeat CPU  0 instructions:  530000002 cycles:  475540747 heartbeat IPC: 1.08215 cumulative IPC: 1.01183 (Simulation time: 0 hr 18 min 32 sec) 
Heartbeat CPU  0 instructions:  531000001 cycles:  476463572 heartbeat IPC: 1.08363 cumulative IPC: 1.01198 (Simulation time: 0 hr 18 min 35 sec) 
Heartbeat CPU  0 instructions:  532000000 cycles:  477382902 heartbeat IPC: 1.08775 cumulative IPC: 1.01214 (Simulation time: 0 hr 18 min 37 sec) 
Heartbeat CPU  0 instructions:  533000003 cycles:  478500649 heartbeat IPC: 0.89466 cumulative IPC: 1.01184 (Simulation time: 0 hr 18 min 39 sec) 
Heartbeat CPU  0 instructions:  534000001 cycles:  479357824 heartbeat IPC: 1.16662 cumulative IPC: 1.01215 (Simulation time: 0 hr 18 min 41 sec) 
Heartbeat CPU  0 instructions:  535000000 cycles:  480291154 heartbeat IPC: 1.07143 cumulative IPC: 1.01228 (Simulation time: 0 hr 18 min 43 sec) 
Heartbeat CPU  0 instructions:  536000000 cycles:  481227243 heartbeat IPC: 1.06827 cumulative IPC: 1.01240 (Simulation time: 0 hr 18 min 45 sec) 
Heartbeat CPU  0 instructions:  537000003 cycles:  482151466 heartbeat IPC: 1.08199 cumulative IPC: 1.01255 (Simulation time: 0 hr 18 min 47 sec) 
Heartbeat CPU  0 instructions:  538000003 cycles:  483064554 heartbeat IPC: 1.09518 cumulative IPC: 1.01272 (Simulation time: 0 hr 18 min 49 sec) 
Heartbeat CPU  0 instructions:  539000001 cycles:  483968954 heartbeat IPC: 1.10570 cumulative IPC: 1.01291 (Simulation time: 0 hr 18 min 51 sec) 
Heartbeat CPU  0 instructions:  540000000 cycles:  484885315 heartbeat IPC: 1.09127 cumulative IPC: 1.01308 (Simulation time: 0 hr 18 min 54 sec) 
Heartbeat CPU  0 instructions:  541000003 cycles:  485791842 heartbeat IPC: 1.10311 cumulative IPC: 1.01327 (Simulation time: 0 hr 18 min 56 sec) 
Heartbeat CPU  0 instructions:  542000000 cycles:  486701364 heartbeat IPC: 1.09948 cumulative IPC: 1.01345 (Simulation time: 0 hr 18 min 58 sec) 
Heartbeat CPU  0 instructions:  543000000 cycles:  487570199 heartbeat IPC: 1.15097 cumulative IPC: 1.01372 (Simulation time: 0 hr 19 min 0 sec) 
Heartbeat CPU  0 instructions:  544000000 cycles:  488375322 heartbeat IPC: 1.24205 cumulative IPC: 1.01414 (Simulation time: 0 hr 19 min 2 sec) 
Heartbeat CPU  0 instructions:  545000003 cycles:  489293034 heartbeat IPC: 1.08967 cumulative IPC: 1.01430 (Simulation time: 0 hr 19 min 4 sec) 
Heartbeat CPU  0 instructions:  546000002 cycles:  490210850 heartbeat IPC: 1.08954 cumulative IPC: 1.01446 (Simulation time: 0 hr 19 min 6 sec) 
Heartbeat CPU  0 instructions:  547000002 cycles:  491128422 heartbeat IPC: 1.08983 cumulative IPC: 1.01461 (Simulation time: 0 hr 19 min 8 sec) 
Heartbeat CPU  0 instructions:  548000000 cycles:  492034929 heartbeat IPC: 1.10313 cumulative IPC: 1.01479 (Simulation time: 0 hr 19 min 10 sec) 
Heartbeat CPU  0 instructions:  549000003 cycles:  492948617 heartbeat IPC: 1.09447 cumulative IPC: 1.01496 (Simulation time: 0 hr 19 min 12 sec) 
Heartbeat CPU  0 instructions:  550000000 cycles:  493856812 heartbeat IPC: 1.10108 cumulative IPC: 1.01514 (Simulation time: 0 hr 19 min 15 sec) 
Heartbeat CPU  0 instructions:  551000000 cycles:  494763971 heartbeat IPC: 1.10234 cumulative IPC: 1.01531 (Simulation time: 0 hr 19 min 17 sec) 
Heartbeat CPU  0 instructions:  552000000 cycles:  495663411 heartbeat IPC: 1.11180 cumulative IPC: 1.01551 (Simulation time: 0 hr 19 min 19 sec) 
Heartbeat CPU  0 instructions:  553000000 cycles:  496570201 heartbeat IPC: 1.10279 cumulative IPC: 1.01569 (Simulation time: 0 hr 19 min 21 sec) 
Heartbeat CPU  0 instructions:  554000000 cycles:  497394426 heartbeat IPC: 1.21326 cumulative IPC: 1.01605 (Simulation time: 0 hr 19 min 23 sec) 
Heartbeat CPU  0 instructions:  555000002 cycles:  498283437 heartbeat IPC: 1.12485 cumulative IPC: 1.01627 (Simulation time: 0 hr 19 min 25 sec) 
Heartbeat CPU  0 instructions:  556000000 cycles:  499196919 heartbeat IPC: 1.09471 cumulative IPC: 1.01643 (Simulation time: 0 hr 19 min 27 sec) 
Heartbeat CPU  0 instructions:  557000000 cycles:  500110889 heartbeat IPC: 1.09413 cumulative IPC: 1.01658 (Simulation time: 0 hr 19 min 29 sec) 
Heartbeat CPU  0 instructions:  558000000 cycles:  501023496 heartbeat IPC: 1.09576 cumulative IPC: 1.01674 (Simulation time: 0 hr 19 min 31 sec) 
Heartbeat CPU  0 instructions:  559000000 cycles:  501937417 heartbeat IPC: 1.09419 cumulative IPC: 1.01690 (Simulation time: 0 hr 19 min 33 sec) 
Heartbeat CPU  0 instructions:  560000000 cycles:  502853937 heartbeat IPC: 1.09108 cumulative IPC: 1.01705 (Simulation time: 0 hr 19 min 36 sec) 
Heartbeat CPU  0 instructions:  561000001 cycles:  503759765 heartbeat IPC: 1.10396 cumulative IPC: 1.01723 (Simulation time: 0 hr 19 min 38 sec) 
Heartbeat CPU  0 instructions:  562000003 cycles:  504668848 heartbeat IPC: 1.10001 cumulative IPC: 1.01739 (Simulation time: 0 hr 19 min 40 sec) 
Heartbeat CPU  0 instructions:  563000000 cycles:  505577519 heartbeat IPC: 1.10050 cumulative IPC: 1.01756 (Simulation time: 0 hr 19 min 42 sec) 
Heartbeat CPU  0 instructions:  564000000 cycles:  506439435 heartbeat IPC: 1.16021 cumulative IPC: 1.01783 (Simulation time: 0 hr 19 min 44 sec) 
Heartbeat CPU  0 instructions:  565000003 cycles:  507250033 heartbeat IPC: 1.23366 cumulative IPC: 1.01821 (Simulation time: 0 hr 19 min 46 sec) 
Heartbeat CPU  0 instructions:  566000003 cycles:  508218132 heartbeat IPC: 1.03295 cumulative IPC: 1.01824 (Simulation time: 0 hr 19 min 48 sec) 
Heartbeat CPU  0 instructions:  567000001 cycles:  509134038 heartbeat IPC: 1.09181 cumulative IPC: 1.01839 (Simulation time: 0 hr 19 min 50 sec) 
Heartbeat CPU  0 instructions:  568000000 cycles:  510054202 heartbeat IPC: 1.08676 cumulative IPC: 1.01853 (Simulation time: 0 hr 19 min 52 sec) 
Heartbeat CPU  0 instructions:  569000002 cycles:  510969518 heartbeat IPC: 1.09252 cumulative IPC: 1.01867 (Simulation time: 0 hr 19 min 54 sec) 
Heartbeat CPU  0 instructions:  570000000 cycles:  511888407 heartbeat IPC: 1.08827 cumulative IPC: 1.01881 (Simulation time: 0 hr 19 min 57 sec) 
Heartbeat CPU  0 instructions:  571000002 cycles:  512804644 heartbeat IPC: 1.09142 cumulative IPC: 1.01895 (Simulation time: 0 hr 19 min 59 sec) 
Heartbeat CPU  0 instructions:  572000000 cycles:  513709587 heartbeat IPC: 1.10504 cumulative IPC: 1.01912 (Simulation time: 0 hr 20 min 1 sec) 
Heartbeat CPU  0 instructions:  573000001 cycles:  514612051 heartbeat IPC: 1.10808 cumulative IPC: 1.01930 (Simulation time: 0 hr 20 min 3 sec) 
Heartbeat CPU  0 instructions:  574000003 cycles:  515520914 heartbeat IPC: 1.10028 cumulative IPC: 1.01945 (Simulation time: 0 hr 20 min 5 sec) 
Heartbeat CPU  0 instructions:  575000000 cycles:  516326492 heartbeat IPC: 1.24134 cumulative IPC: 1.01984 (Simulation time: 0 hr 20 min 7 sec) 
Heartbeat CPU  0 instructions:  576000000 cycles:  517251198 heartbeat IPC: 1.08142 cumulative IPC: 1.01996 (Simulation time: 0 hr 20 min 9 sec) 
Heartbeat CPU  0 instructions:  577000000 cycles:  518170640 heartbeat IPC: 1.08762 cumulative IPC: 1.02009 (Simulation time: 0 hr 20 min 11 sec) 
Heartbeat CPU  0 instructions:  578000002 cycles:  519094977 heartbeat IPC: 1.08186 cumulative IPC: 1.02021 (Simulation time: 0 hr 20 min 13 sec) 
Heartbeat CPU  0 instructions:  579000001 cycles:  520013111 heartbeat IPC: 1.08916 cumulative IPC: 1.02035 (Simulation time: 0 hr 20 min 15 sec) 
Heartbeat CPU  0 instructions:  580000000 cycles:  520940193 heartbeat IPC: 1.07865 cumulative IPC: 1.02046 (Simulation time: 0 hr 20 min 18 sec) 
Heartbeat CPU  0 instructions:  581000002 cycles:  521866013 heartbeat IPC: 1.08013 cumulative IPC: 1.02058 (Simulation time: 0 hr 20 min 20 sec) 
Heartbeat CPU  0 instructions:  582000000 cycles:  522772367 heartbeat IPC: 1.10332 cumulative IPC: 1.02074 (Simulation time: 0 hr 20 min 22 sec) 
Heartbeat CPU  0 instructions:  583000003 cycles:  523678379 heartbeat IPC: 1.10374 cumulative IPC: 1.02090 (Simulation time: 0 hr 20 min 24 sec) 
Heartbeat CPU  0 instructions:  584000000 cycles:  524583558 heartbeat IPC: 1.10475 cumulative IPC: 1.02106 (Simulation time: 0 hr 20 min 26 sec) 
Heartbeat CPU  0 instructions:  585000002 cycles:  525432615 heartbeat IPC: 1.17778 cumulative IPC: 1.02134 (Simulation time: 0 hr 20 min 28 sec) 
Heartbeat CPU  0 instructions:  586000003 cycles:  526239346 heartbeat IPC: 1.23957 cumulative IPC: 1.02171 (Simulation time: 0 hr 20 min 30 sec) 
Heartbeat CPU  0 instructions:  587000001 cycles:  527223750 heartbeat IPC: 1.01584 cumulative IPC: 1.02170 (Simulation time: 0 hr 20 min 32 sec) 
Heartbeat CPU  0 instructions:  588000000 cycles:  528137331 heartbeat IPC: 1.09459 cumulative IPC: 1.02184 (Simulation time: 0 hr 20 min 34 sec) 
Heartbeat CPU  0 instructions:  589000002 cycles:  529061396 heartbeat IPC: 1.08218 cumulative IPC: 1.02195 (Simulation time: 0 hr 20 min 37 sec) 
Heartbeat CPU  0 instructions:  590000001 cycles:  529986098 heartbeat IPC: 1.08143 cumulative IPC: 1.02207 (Simulation time: 0 hr 20 min 39 sec) 
Heartbeat CPU  0 instructions:  591000002 cycles:  530908547 heartbeat IPC: 1.08407 cumulative IPC: 1.02219 (Simulation time: 0 hr 20 min 41 sec) 
Heartbeat CPU  0 instructions:  592000000 cycles:  531818823 heartbeat IPC: 1.09857 cumulative IPC: 1.02233 (Simulation time: 0 hr 20 min 43 sec) 
Heartbeat CPU  0 instructions:  593000003 cycles:  532726090 heartbeat IPC: 1.10221 cumulative IPC: 1.02248 (Simulation time: 0 hr 20 min 45 sec) 
Heartbeat CPU  0 instructions:  594000000 cycles:  533631605 heartbeat IPC: 1.10434 cumulative IPC: 1.02264 (Simulation time: 0 hr 20 min 47 sec) 
Heartbeat CPU  0 instructions:  595000003 cycles:  534526181 heartbeat IPC: 1.11785 cumulative IPC: 1.02281 (Simulation time: 0 hr 20 min 49 sec) 
Heartbeat CPU  0 instructions:  596000000 cycles:  535334478 heartbeat IPC: 1.23717 cumulative IPC: 1.02317 (Simulation time: 0 hr 20 min 51 sec) 
Heartbeat CPU  0 instructions:  597000001 cycles:  536258651 heartbeat IPC: 1.08205 cumulative IPC: 1.02328 (Simulation time: 0 hr 20 min 53 sec) 
Heartbeat CPU  0 instructions:  598000002 cycles:  537180833 heartbeat IPC: 1.08439 cumulative IPC: 1.02340 (Simulation time: 0 hr 20 min 55 sec) 
Heartbeat CPU  0 instructions:  599000000 cycles:  538095010 heartbeat IPC: 1.09388 cumulative IPC: 1.02353 (Simulation time: 0 hr 20 min 57 sec) 
Heartbeat CPU  0 instructions:  600000000 cycles:  539019220 heartbeat IPC: 1.08201 cumulative IPC: 1.02364 (Simulation time: 0 hr 21 min 0 sec) 
Finished CPU 0 instructions: 500000001 cycles: 488452979 cumulative IPC: 1.02364 (Simulation time: 0 hr 21 min 0 sec) 

ChampSim completed all CPUs

[ROI Statistics]
Core_0_instructions 500000001
Core_0_cycles 488452979
Core_0_IPC 1.02364

Core_0_branch_prediction_accuracy 99.14585
Core_0_branch_MPKI 0.18961
Core_0_average_ROB_occupancy_at_mispredict 243.85191

Core_0_L1D_total_access 146774270
Core_0_L1D_total_hit 141923259
Core_0_L1D_total_miss 4851011
Core_0_L1D_loads 135659657
Core_0_L1D_load_hit 132199549
Core_0_L1D_load_miss 3460108
Core_0_L1D_RFOs 11114613
Core_0_L1D_RFO_hit 9723710
Core_0_L1D_RFO_miss 1390903
Core_0_L1D_prefetches 0
Core_0_L1D_prefetch_hit 0
Core_0_L1D_prefetch_miss 0
Core_0_L1D_writebacks 0
Core_0_L1D_writeback_hit 0
Core_0_L1D_writeback_miss 0
Core_0_L1D_prefetch_requested 0
Core_0_L1D_prefetch_dropped 0
Core_0_L1D_prefetch_issued 0
Core_0_L1D_prefetch_filled 0
Core_0_L1D_prefetch_useful 0
Core_0_L1D_prefetch_useless 0
Core_0_L1D_prefetch_late 0
Core_0_L1D_average_miss_latency 92.03628

Core_0_L1D_rq_access 196253793
Core_0_L1D_rq_forward 0
Core_0_L1D_rq_merged 59752379
Core_0_L1D_rq_to_cache 136501414
Core_0_L1D_rq_full 0

Core_0_L1D_wq_access 15647860
Core_0_L1D_wq_forward 0
Core_0_L1D_wq_merged 1
Core_0_L1D_wq_to_cache 15647859
Core_0_L1D_wq_full 795525

Core_0_L1D_pq_access 0
Core_0_L1D_pq_forward 0
Core_0_L1D_pq_merged 0
Core_0_L1D_pq_to_cache 0
Core_0_L1D_pq_full 0

Core_0_L1D_acc_epochs 520711
Core_0_L1D_acc_level_0 520711
Core_0_L1D_acc_level_1 0
Core_0_L1D_acc_level_2 0
Core_0_L1D_acc_level_3 0
Core_0_L1D_acc_level_4 0
Core_0_L1D_acc_level_5 0
Core_0_L1D_acc_level_6 0
Core_0_L1D_acc_level_7 0
Core_0_L1D_acc_level_8 0
Core_0_L1D_acc_level_9 0

Core_0_L1I_total_access 116431611
Core_0_L1I_total_hit 116431235
Core_0_L1I_total_miss 376
Core_0_L1I_loads 116431611
Core_0_L1I_load_hit 116431235
Core_0_L1I_load_miss 376
Core_0_L1I_RFOs 0
Core_0_L1I_RFO_hit 0
Core_0_L1I_RFO_miss 0
Core_0_L1I_prefetches 0
Core_0_L1I_prefetch_hit 0
Core_0_L1I_prefetch_miss 0
Core_0_L1I_writebacks 0
Core_0_L1I_writeback_hit 0
Core_0_L1I_writeback_miss 0
Core_0_L1I_prefetch_requested 0
Core_0_L1I_prefetch_dropped 0
Core_0_L1I_prefetch_issued 0
Core_0_L1I_prefetch_filled 0
Core_0_L1I_prefetch_useful 0
Core_0_L1I_prefetch_useless 0
Core_0_L1I_prefetch_late 0
Core_0_L1I_average_miss_latency 380.70745

Core_0_L1I_rq_access 500000000
Core_0_L1I_rq_forward 0
Core_0_L1I_rq_merged 383567336
Core_0_L1I_rq_to_cache 116432664
Core_0_L1I_rq_full 0

Core_0_L1I_wq_access 0
Core_0_L1I_wq_forward 0
Core_0_L1I_wq_merged 0
Core_0_L1I_wq_to_cache 0
Core_0_L1I_wq_full 0

Core_0_L1I_pq_access 0
Core_0_L1I_pq_forward 0
Core_0_L1I_pq_merged 0
Core_0_L1I_pq_to_cache 0
Core_0_L1I_pq_full 0

Core_0_L1I_acc_epochs 520711
Core_0_L1I_acc_level_0 520711
Core_0_L1I_acc_level_1 0
Core_0_L1I_acc_level_2 0
Core_0_L1I_acc_level_3 0
Core_0_L1I_acc_level_4 0
Core_0_L1I_acc_level_5 0
Core_0_L1I_acc_level_6 0
Core_0_L1I_acc_level_7 0
Core_0_L1I_acc_level_8 0
Core_0_L1I_acc_level_9 0

Core_0_L2C_total_access 8961341
Core_0_L2C_total_hit 5284452
Core_0_L2C_total_miss 3676889
Core_0_L2C_loads 3460452
Core_0_L2C_load_hit 3228109
Core_0_L2C_load_miss 232343
Core_0_L2C_RFOs 1390869
Core_0_L2C_RFO_hit 379700
Core_0_L2C_RFO_miss 1011169
Core_0_L2C_prefetches 2451291
Core_0_L2C_prefetch_hit 18561
Core_0_L2C_prefetch_miss 2432730
Core_0_L2C_writebacks 1658729
Core_0_L2C_writeback_hit 1658082
Core_0_L2C_writeback_miss 647
Core_0_L2C_prefetch_requested 3332987
Core_0_L2C_prefetch_dropped 0
Core_0_L2C_prefetch_issued 3332987
Core_0_L2C_prefetch_filled 3180553
Core_0_L2C_prefetch_useful 3146444
Core_0_L2C_prefetch_useless 33571
Core_0_L2C_prefetch_late 3994
Core_0_L2C_average_miss_latency 496.83555

Core_0_L2C_rq_access 4851387
Core_0_L2C_rq_forward 0
Core_0_L2C_rq_merged 0
Core_0_L2C_rq_to_cache 4851321
Core_0_L2C_rq_full 0

Core_0_L2C_wq_access 1658729
Core_0_L2C_wq_forward 66
Core_0_L2C_wq_merged 0
Core_0_L2C_wq_to_cache 1658729
Core_0_L2C_wq_full 0

Core_0_L2C_pq_access 3332987
Core_0_L2C_pq_forward 0
Core_0_L2C_pq_merged 0
Core_0_L2C_pq_to_cache 3332987
Core_0_L2C_pq_full 0

Core_0_L2C_acc_epochs 520711
Core_0_L2C_acc_level_0 320327
Core_0_L2C_acc_level_1 53110
Core_0_L2C_acc_level_2 30489
Core_0_L2C_acc_level_3 18250
Core_0_L2C_acc_level_4 13238
Core_0_L2C_acc_level_5 16638
Core_0_L2C_acc_level_6 8343
Core_0_L2C_acc_level_7 7734
Core_0_L2C_acc_level_8 6322
Core_0_L2C_acc_level_9 46260

Core_0_LLC_total_access 4824997
Core_0_LLC_total_hit 547780
Core_0_LLC_total_miss 4277217
Core_0_LLC_loads 228464
Core_0_LLC_load_hit 29070
Core_0_LLC_load_miss 199394
Core_0_LLC_RFOs 1011168
Core_0_LLC_RFO_hit 61579
Core_0_LLC_RFO_miss 949589
Core_0_LLC_prefetches 2475495
Core_0_LLC_prefetch_hit 120145
Core_0_LLC_prefetch_miss 2355350
Core_0_LLC_writebacks 1109870
Core_0_LLC_writeback_hit 336986
Core_0_LLC_writeback_miss 772884
Core_0_LLC_prefetch_requested 0
Core_0_LLC_prefetch_dropped 0
Core_0_LLC_prefetch_issued 0
Core_0_LLC_prefetch_filled 2994990
Core_0_LLC_prefetch_useful 52547
Core_0_LLC_prefetch_useless 2930380
Core_0_LLC_prefetch_late 114
Core_0_LLC_average_miss_latency 406.05505

Core_0_LLC_rq_access 1239633
Core_0_LLC_rq_forward 0
Core_0_LLC_rq_merged 0
Core_0_LLC_rq_to_cache 1239632
Core_0_LLC_rq_full 0

Core_0_LLC_wq_access 1109870
Core_0_LLC_wq_forward 1
Core_0_LLC_wq_merged 0
Core_0_LLC_wq_to_cache 1109870
Core_0_LLC_wq_full 0

Core_0_LLC_pq_access 3275190
Core_0_LLC_pq_forward 0
Core_0_LLC_pq_merged 0
Core_0_LLC_pq_to_cache 3275190
Core_0_LLC_pq_full 0

Core_0_LLC_acc_epochs 526386
Core_0_LLC_acc_level_0 516624
Core_0_LLC_acc_level_1 2984
Core_0_LLC_acc_level_2 1875
Core_0_LLC_acc_level_3 1284
Core_0_LLC_acc_level_4 903
Core_0_LLC_acc_level_5 779
Core_0_LLC_acc_level_6 466
Core_0_LLC_acc_level_7 363
Core_0_LLC_acc_level_8 247
Core_0_LLC_acc_level_9 861

Core_0_major_page_fault 0
Core_0_minor_page_fault 19121

[Bingo] PHT Access: 147628
[Bingo] PHT Hit PC+Addr: 3730
[Bingo] PHT Hit PC+Offs: 134582
[Bingo] PHT Miss: 9316
[Bingo] Prefetch PC+Addr: 0
[Bingo] Prefetch PC+Offs: 0
[Bingo] Useful PC+Addr: 0
[Bingo] Useful PC+Offs: 0
[Bingo] Useless PC+Addr: 0
[Bingo] Useless PC+Offs: 0
[Bingo] L1 Prefetch per Region: 0.00000
[Bingo] L2 Prefetch per Region: 24.65761
[Bingo] L3 Prefetch per Region: 0.69815
[Bingo] No Prefetch per Region: 6.64425
[Bingo] Number of Voters Mean: 13.80866
[Bingo] Number of Voters SD: 4.08028

Channel_0_RQ_row_buffer_hit 1988006
Channel_0_RQ_row_buffer_miss 1516305
Channel_0_WQ_row_buffer_hit 428320
Channel_0_WQ_row_buffer_miss 622706
Channel_0_WQ_full 1848
Channel_0_dbus_congested 3432965

avg_congested_cycle 23

DRAM_bw_pochs 2105544
DRAM_bw_level_0 1607122
DRAM_bw_level_1 190782
DRAM_bw_level_2 51032
DRAM_bw_level_3 256608
