*************************************************
   ChampSim Multicore Out-of-Order Simulator
   Last compiled: Dec 11 2024 17:59:53
*************************************************
parsing config file: /home/functionmain/桌面/Pythia/config/nopref.ini

trace_0 /home/functionmain/桌面/Pythia/traces/437.leslie3d-149B.champsimtrace.xz
adding L2C_PREFETCHER: NONE
Initialize SHIP state
warmup_instructions 100000000
simulation_instructions 500000000
champsim_seed 224
measure_ipc 0
measure_ipc_epoch 1000
measure_dram_bw 1
measure_dram_bw_epoch 256
measure_cache_acc 1
measure_cache_acc_epoch 1024
l1d_perfect 0
l2c_perfect 0
llc_perfect 0
l1d_semi_perfect 0
l2c_semi_perfect 0
llc_semi_perfect 0
semi_perfect_cache_page_buffer_size 64

num_cpus 1
cpu_freq 4000
dram_io_freq 600
page_size 4096
block_size 64
max_read_per_cycle 8
max_fill_per_cycle 1
dram_channels 1
log2_dram_channels 0
dram_ranks 1
dram_banks 8
dram_rows 65536
dram_columns 128
dram_row_size 8
dram_size 4096
dram_pages 1048576

fetch_width 6
decode_width 6
exec_width 4
lq_width 2
sq_width 2
retire_width 4
scheduler_size 128
branch_mispredict_penalty 20
rob_size 256
lq_size 72
sq_size 56
num_instr_destinations_sparc 4
num_instr_destinations 2
num_instr_sources 4

itlb_set 16
itlb_way 8
itlb_rq_size 16
itlb_wq_size 16
itlb_pq_size 0
itlb_mshr_size 8
itlb_latency 1

dtlb_set 16
dtlb_way 4
dtlb_rq_size 16
dtlb_wq_size 16
dtlb_pq_size 0
dtlb_mshr_size 8
dtlb_latency 1

stlb_set 128
stlb_way 12
stlb_rq_size 32
stlb_wq_size 32
stlb_pq_size 0
stlb_mshr_size 16
stlb_latency 8

l1i_size 32
l1i_set 64
l1i_way 8
l1i_rq_size 64
l1i_wq_size 64
l1i_pq_size 8
l1i_mshr_size 8
l1i_latency 1

l1d_size 32
l1d_set 64
l1d_way 8
l1d_rq_size 64
l1d_wq_size 64
l1d_pq_size 8
l1d_mshr_size 16
l1d_latency 4

l2c_size 256
l2c_set 512
l2c_way 8
l2c_rq_size 32
l2c_wq_size 32
l2c_pq_size 32
l2c_mshr_size 32
l2c_latency 10

llc_size 2048
llc_set 2048
llc_way 16
llc_rq_size 32
llc_wq_size 32
llc_pq_size 32
llc_mshr_size 64
llc_latency 20

dram_channel_width 8
dram_wq_size 64
dram_rq_size 64
tRP 15
tRCD 15
tCAS 12.5
dram_dbus_turn_around_time 30
dram_write_high_wm 56
dram_write_low_wm 48
min_dram_writes_per_switch 16
dram_mtps 600
dram_dbus_return_time 53


Heartbeat CPU  0 instructions:    1000002 cycles:     502455 heartbeat IPC: 1.99023 cumulative IPC: 1.99023 (Simulation time: 0 hr 0 min 2 sec) 
Heartbeat CPU  0 instructions:    2000001 cycles:     990567 heartbeat IPC: 2.04871 cumulative IPC: 2.01905 (Simulation time: 0 hr 0 min 4 sec) 
Heartbeat CPU  0 instructions:    3000003 cycles:    1492263 heartbeat IPC: 1.99324 cumulative IPC: 2.01037 (Simulation time: 0 hr 0 min 5 sec) 
Heartbeat CPU  0 instructions:    4000000 cycles:    1993703 heartbeat IPC: 1.99425 cumulative IPC: 2.00632 (Simulation time: 0 hr 0 min 7 sec) 
Heartbeat CPU  0 instructions:    5000000 cycles:    2495660 heartbeat IPC: 1.99220 cumulative IPC: 2.00348 (Simulation time: 0 hr 0 min 9 sec) 
Heartbeat CPU  0 instructions:    6000001 cycles:    2995131 heartbeat IPC: 2.00212 cumulative IPC: 2.00325 (Simulation time: 0 hr 0 min 11 sec) 
Heartbeat CPU  0 instructions:    7000000 cycles:    3485011 heartbeat IPC: 2.04131 cumulative IPC: 2.00860 (Simulation time: 0 hr 0 min 12 sec) 
Heartbeat CPU  0 instructions:    8000000 cycles:    3987569 heartbeat IPC: 1.98982 cumulative IPC: 2.00623 (Simulation time: 0 hr 0 min 14 sec) 
Heartbeat CPU  0 instructions:    9000002 cycles:    4489104 heartbeat IPC: 1.99388 cumulative IPC: 2.00485 (Simulation time: 0 hr 0 min 16 sec) 
Heartbeat CPU  0 instructions:   10000000 cycles:    4990827 heartbeat IPC: 1.99313 cumulative IPC: 2.00368 (Simulation time: 0 hr 0 min 17 sec) 
Heartbeat CPU  0 instructions:   11000002 cycles:    5481674 heartbeat IPC: 2.03730 cumulative IPC: 2.00669 (Simulation time: 0 hr 0 min 19 sec) 
Heartbeat CPU  0 instructions:   12000000 cycles:    5980267 heartbeat IPC: 2.00564 cumulative IPC: 2.00660 (Simulation time: 0 hr 0 min 21 sec) 
Heartbeat CPU  0 instructions:   13000002 cycles:    6482372 heartbeat IPC: 1.99162 cumulative IPC: 2.00544 (Simulation time: 0 hr 0 min 23 sec) 
Heartbeat CPU  0 instructions:   14000003 cycles:    6984236 heartbeat IPC: 1.99257 cumulative IPC: 2.00451 (Simulation time: 0 hr 0 min 24 sec) 
Heartbeat CPU  0 instructions:   15000002 cycles:    7486143 heartbeat IPC: 1.99240 cumulative IPC: 2.00370 (Simulation time: 0 hr 0 min 26 sec) 
Heartbeat CPU  0 instructions:   16000000 cycles:    7973657 heartbeat IPC: 2.05122 cumulative IPC: 2.00661 (Simulation time: 0 hr 0 min 28 sec) 
Heartbeat CPU  0 instructions:   17000001 cycles:    8476067 heartbeat IPC: 1.99041 cumulative IPC: 2.00565 (Simulation time: 0 hr 0 min 29 sec) 
Heartbeat CPU  0 instructions:   18000003 cycles:    8978839 heartbeat IPC: 1.98898 cumulative IPC: 2.00471 (Simulation time: 0 hr 0 min 31 sec) 
Heartbeat CPU  0 instructions:   19000003 cycles:    9480621 heartbeat IPC: 1.99290 cumulative IPC: 2.00409 (Simulation time: 0 hr 0 min 33 sec) 
Heartbeat CPU  0 instructions:   20000000 cycles:    9972704 heartbeat IPC: 2.03217 cumulative IPC: 2.00547 (Simulation time: 0 hr 0 min 35 sec) 
Heartbeat CPU  0 instructions:   21000003 cycles:   10469873 heartbeat IPC: 2.01139 cumulative IPC: 2.00576 (Simulation time: 0 hr 0 min 36 sec) 
Heartbeat CPU  0 instructions:   22000001 cycles:   10971983 heartbeat IPC: 1.99159 cumulative IPC: 2.00511 (Simulation time: 0 hr 0 min 38 sec) 
Heartbeat CPU  0 instructions:   23000002 cycles:   11474237 heartbeat IPC: 1.99103 cumulative IPC: 2.00449 (Simulation time: 0 hr 0 min 40 sec) 
Heartbeat CPU  0 instructions:   24000000 cycles:   11975899 heartbeat IPC: 1.99337 cumulative IPC: 2.00402 (Simulation time: 0 hr 0 min 42 sec) 
Heartbeat CPU  0 instructions:   25000002 cycles:   12463629 heartbeat IPC: 2.05032 cumulative IPC: 2.00584 (Simulation time: 0 hr 0 min 43 sec) 
Heartbeat CPU  0 instructions:   26000002 cycles:   12965143 heartbeat IPC: 1.99396 cumulative IPC: 2.00538 (Simulation time: 0 hr 0 min 45 sec) 
Heartbeat CPU  0 instructions:   27000001 cycles:   13467037 heartbeat IPC: 1.99245 cumulative IPC: 2.00490 (Simulation time: 0 hr 0 min 47 sec) 
Heartbeat CPU  0 instructions:   28000000 cycles:   13969106 heartbeat IPC: 1.99176 cumulative IPC: 2.00442 (Simulation time: 0 hr 0 min 48 sec) 
Heartbeat CPU  0 instructions:   29000003 cycles:   14463774 heartbeat IPC: 2.02156 cumulative IPC: 2.00501 (Simulation time: 0 hr 0 min 50 sec) 
Heartbeat CPU  0 instructions:   30000003 cycles:   14958376 heartbeat IPC: 2.02183 cumulative IPC: 2.00557 (Simulation time: 0 hr 0 min 52 sec) 
Heartbeat CPU  0 instructions:   31000001 cycles:   15460208 heartbeat IPC: 1.99269 cumulative IPC: 2.00515 (Simulation time: 0 hr 0 min 54 sec) 
Heartbeat CPU  0 instructions:   32000000 cycles:   15962066 heartbeat IPC: 1.99259 cumulative IPC: 2.00475 (Simulation time: 0 hr 0 min 55 sec) 
Heartbeat CPU  0 instructions:   33000000 cycles:   16463985 heartbeat IPC: 1.99235 cumulative IPC: 2.00437 (Simulation time: 0 hr 0 min 57 sec) 
Heartbeat CPU  0 instructions:   34000003 cycles:   16951695 heartbeat IPC: 2.05041 cumulative IPC: 2.00570 (Simulation time: 0 hr 0 min 59 sec) 
Heartbeat CPU  0 instructions:   35000003 cycles:   17453282 heartbeat IPC: 1.99367 cumulative IPC: 2.00535 (Simulation time: 0 hr 1 min 1 sec) 
Heartbeat CPU  0 instructions:   36000000 cycles:   17955146 heartbeat IPC: 1.99257 cumulative IPC: 2.00500 (Simulation time: 0 hr 1 min 2 sec) 
Heartbeat CPU  0 instructions:   37000001 cycles:   18457716 heartbeat IPC: 1.98977 cumulative IPC: 2.00458 (Simulation time: 0 hr 1 min 4 sec) 
Heartbeat CPU  0 instructions:   38000003 cycles:   18954829 heartbeat IPC: 2.01162 cumulative IPC: 2.00477 (Simulation time: 0 hr 1 min 6 sec) 
Heartbeat CPU  0 instructions:   39000001 cycles:   19447430 heartbeat IPC: 2.03004 cumulative IPC: 2.00541 (Simulation time: 0 hr 1 min 7 sec) 
Heartbeat CPU  0 instructions:   40000000 cycles:   19949413 heartbeat IPC: 1.99210 cumulative IPC: 2.00507 (Simulation time: 0 hr 1 min 9 sec) 
Heartbeat CPU  0 instructions:   41000002 cycles:   20451474 heartbeat IPC: 1.99179 cumulative IPC: 2.00475 (Simulation time: 0 hr 1 min 11 sec) 
Heartbeat CPU  0 instructions:   42000000 cycles:   20953651 heartbeat IPC: 1.99133 cumulative IPC: 2.00442 (Simulation time: 0 hr 1 min 13 sec) 
Heartbeat CPU  0 instructions:   43000000 cycles:   21441620 heartbeat IPC: 2.04931 cumulative IPC: 2.00545 (Simulation time: 0 hr 1 min 14 sec) 
Heartbeat CPU  0 instructions:   44000000 cycles:   21943430 heartbeat IPC: 1.99279 cumulative IPC: 2.00516 (Simulation time: 0 hr 1 min 16 sec) 
Heartbeat CPU  0 instructions:   45000002 cycles:   22445657 heartbeat IPC: 1.99114 cumulative IPC: 2.00484 (Simulation time: 0 hr 1 min 18 sec) 
Heartbeat CPU  0 instructions:   46000003 cycles:   22947292 heartbeat IPC: 1.99348 cumulative IPC: 2.00459 (Simulation time: 0 hr 1 min 19 sec) 
Heartbeat CPU  0 instructions:   47000000 cycles:   23446029 heartbeat IPC: 2.00506 cumulative IPC: 2.00460 (Simulation time: 0 hr 1 min 21 sec) 
Heartbeat CPU  0 instructions:   48000000 cycles:   23936749 heartbeat IPC: 2.03782 cumulative IPC: 2.00528 (Simulation time: 0 hr 1 min 23 sec) 
Heartbeat CPU  0 instructions:   49000002 cycles:   24439044 heartbeat IPC: 1.99087 cumulative IPC: 2.00499 (Simulation time: 0 hr 1 min 25 sec) 
Heartbeat CPU  0 instructions:   50000003 cycles:   24940955 heartbeat IPC: 1.99239 cumulative IPC: 2.00473 (Simulation time: 0 hr 1 min 26 sec) 
Heartbeat CPU  0 instructions:   51000001 cycles:   25442656 heartbeat IPC: 1.99322 cumulative IPC: 2.00451 (Simulation time: 0 hr 1 min 28 sec) 
Heartbeat CPU  0 instructions:   52000000 cycles:   25932741 heartbeat IPC: 2.04046 cumulative IPC: 2.00519 (Simulation time: 0 hr 1 min 30 sec) 
Heartbeat CPU  0 instructions:   53000003 cycles:   26432169 heartbeat IPC: 2.00230 cumulative IPC: 2.00513 (Simulation time: 0 hr 1 min 32 sec) 
Heartbeat CPU  0 instructions:   54000003 cycles:   26943194 heartbeat IPC: 1.95685 cumulative IPC: 2.00422 (Simulation time: 0 hr 1 min 33 sec) 
Heartbeat CPU  0 instructions:   55000001 cycles:   27462670 heartbeat IPC: 1.92501 cumulative IPC: 2.00272 (Simulation time: 0 hr 1 min 35 sec) 
Heartbeat CPU  0 instructions:   56000000 cycles:   27977310 heartbeat IPC: 1.94310 cumulative IPC: 2.00162 (Simulation time: 0 hr 1 min 37 sec) 
Heartbeat CPU  0 instructions:   57000000 cycles:   28491309 heartbeat IPC: 1.94553 cumulative IPC: 2.00061 (Simulation time: 0 hr 1 min 38 sec) 
Heartbeat CPU  0 instructions:   58000002 cycles:   29007103 heartbeat IPC: 1.93876 cumulative IPC: 1.99951 (Simulation time: 0 hr 1 min 40 sec) 
Heartbeat CPU  0 instructions:   59000003 cycles:   29519682 heartbeat IPC: 1.95092 cumulative IPC: 1.99867 (Simulation time: 0 hr 1 min 41 sec) 
Heartbeat CPU  0 instructions:   60000000 cycles:   30031429 heartbeat IPC: 1.95408 cumulative IPC: 1.99791 (Simulation time: 0 hr 1 min 43 sec) 
Heartbeat CPU  0 instructions:   61000001 cycles:   30545201 heartbeat IPC: 1.94639 cumulative IPC: 1.99704 (Simulation time: 0 hr 1 min 45 sec) 
Heartbeat CPU  0 instructions:   62000003 cycles:   31058890 heartbeat IPC: 1.94671 cumulative IPC: 1.99621 (Simulation time: 0 hr 1 min 46 sec) 
Heartbeat CPU  0 instructions:   63000001 cycles:   31571806 heartbeat IPC: 1.94963 cumulative IPC: 1.99545 (Simulation time: 0 hr 1 min 48 sec) 
Heartbeat CPU  0 instructions:   64000000 cycles:   32086215 heartbeat IPC: 1.94398 cumulative IPC: 1.99463 (Simulation time: 0 hr 1 min 49 sec) 
Heartbeat CPU  0 instructions:   65000000 cycles:   32600699 heartbeat IPC: 1.94370 cumulative IPC: 1.99382 (Simulation time: 0 hr 1 min 51 sec) 
Heartbeat CPU  0 instructions:   66000002 cycles:   33113838 heartbeat IPC: 1.94879 cumulative IPC: 1.99312 (Simulation time: 0 hr 1 min 53 sec) 
Heartbeat CPU  0 instructions:   67000002 cycles:   33628362 heartbeat IPC: 1.94354 cumulative IPC: 1.99237 (Simulation time: 0 hr 1 min 54 sec) 
Heartbeat CPU  0 instructions:   68000000 cycles:   34142881 heartbeat IPC: 1.94356 cumulative IPC: 1.99163 (Simulation time: 0 hr 1 min 56 sec) 
Heartbeat CPU  0 instructions:   69000001 cycles:   34655840 heartbeat IPC: 1.94948 cumulative IPC: 1.99101 (Simulation time: 0 hr 1 min 57 sec) 
Heartbeat CPU  0 instructions:   70000003 cycles:   35170158 heartbeat IPC: 1.94433 cumulative IPC: 1.99032 (Simulation time: 0 hr 1 min 59 sec) 
Heartbeat CPU  0 instructions:   71000002 cycles:   35684457 heartbeat IPC: 1.94439 cumulative IPC: 1.98966 (Simulation time: 0 hr 2 min 1 sec) 
Heartbeat CPU  0 instructions:   72000000 cycles:   36197322 heartbeat IPC: 1.94983 cumulative IPC: 1.98910 (Simulation time: 0 hr 2 min 2 sec) 
Heartbeat CPU  0 instructions:   73000003 cycles:   36711110 heartbeat IPC: 1.94633 cumulative IPC: 1.98850 (Simulation time: 0 hr 2 min 4 sec) 
Heartbeat CPU  0 instructions:   74000001 cycles:   37225165 heartbeat IPC: 1.94531 cumulative IPC: 1.98790 (Simulation time: 0 hr 2 min 5 sec) 
Heartbeat CPU  0 instructions:   75000001 cycles:   37738303 heartbeat IPC: 1.94879 cumulative IPC: 1.98737 (Simulation time: 0 hr 2 min 7 sec) 
Heartbeat CPU  0 instructions:   76000000 cycles:   38252261 heartbeat IPC: 1.94568 cumulative IPC: 1.98681 (Simulation time: 0 hr 2 min 9 sec) 
Heartbeat CPU  0 instructions:   77000001 cycles:   38766953 heartbeat IPC: 1.94291 cumulative IPC: 1.98623 (Simulation time: 0 hr 2 min 10 sec) 
Heartbeat CPU  0 instructions:   78000003 cycles:   39280007 heartbeat IPC: 1.94912 cumulative IPC: 1.98574 (Simulation time: 0 hr 2 min 12 sec) 
Heartbeat CPU  0 instructions:   79000000 cycles:   39793733 heartbeat IPC: 1.94656 cumulative IPC: 1.98524 (Simulation time: 0 hr 2 min 13 sec) 
Heartbeat CPU  0 instructions:   80000000 cycles:   40308307 heartbeat IPC: 1.94336 cumulative IPC: 1.98470 (Simulation time: 0 hr 2 min 15 sec) 
Heartbeat CPU  0 instructions:   81000000 cycles:   40822072 heartbeat IPC: 1.94642 cumulative IPC: 1.98422 (Simulation time: 0 hr 2 min 17 sec) 
Heartbeat CPU  0 instructions:   82000001 cycles:   41336449 heartbeat IPC: 1.94410 cumulative IPC: 1.98372 (Simulation time: 0 hr 2 min 18 sec) 
Heartbeat CPU  0 instructions:   83000001 cycles:   41852085 heartbeat IPC: 1.93935 cumulative IPC: 1.98317 (Simulation time: 0 hr 2 min 20 sec) 
Heartbeat CPU  0 instructions:   84000000 cycles:   42366111 heartbeat IPC: 1.94542 cumulative IPC: 1.98272 (Simulation time: 0 hr 2 min 21 sec) 
Heartbeat CPU  0 instructions:   85000001 cycles:   42880400 heartbeat IPC: 1.94443 cumulative IPC: 1.98226 (Simulation time: 0 hr 2 min 23 sec) 
Heartbeat CPU  0 instructions:   86000002 cycles:   43396108 heartbeat IPC: 1.93908 cumulative IPC: 1.98174 (Simulation time: 0 hr 2 min 25 sec) 
Heartbeat CPU  0 instructions:   87000003 cycles:   43909888 heartbeat IPC: 1.94636 cumulative IPC: 1.98133 (Simulation time: 0 hr 2 min 26 sec) 
Heartbeat CPU  0 instructions:   88000000 cycles:   44423098 heartbeat IPC: 1.94851 cumulative IPC: 1.98095 (Simulation time: 0 hr 2 min 28 sec) 
Heartbeat CPU  0 instructions:   89000002 cycles:   44937938 heartbeat IPC: 1.94235 cumulative IPC: 1.98051 (Simulation time: 0 hr 2 min 29 sec) 
Heartbeat CPU  0 instructions:   90000003 cycles:   45451066 heartbeat IPC: 1.94883 cumulative IPC: 1.98015 (Simulation time: 0 hr 2 min 31 sec) 
Heartbeat CPU  0 instructions:   91000002 cycles:   45963737 heartbeat IPC: 1.95057 cumulative IPC: 1.97982 (Simulation time: 0 hr 2 min 32 sec) 
Heartbeat CPU  0 instructions:   92000000 cycles:   46478442 heartbeat IPC: 1.94286 cumulative IPC: 1.97941 (Simulation time: 0 hr 2 min 34 sec) 
Heartbeat CPU  0 instructions:   93000001 cycles:   46991795 heartbeat IPC: 1.94798 cumulative IPC: 1.97907 (Simulation time: 0 hr 2 min 36 sec) 
Heartbeat CPU  0 instructions:   94000003 cycles:   47504872 heartbeat IPC: 1.94903 cumulative IPC: 1.97874 (Simulation time: 0 hr 2 min 37 sec) 
Heartbeat CPU  0 instructions:   95000003 cycles:   48020143 heartbeat IPC: 1.94073 cumulative IPC: 1.97834 (Simulation time: 0 hr 2 min 39 sec) 
Heartbeat CPU  0 instructions:   96000000 cycles:   48533927 heartbeat IPC: 1.94634 cumulative IPC: 1.97800 (Simulation time: 0 hr 2 min 41 sec) 
Heartbeat CPU  0 instructions:   97000002 cycles:   49047190 heartbeat IPC: 1.94832 cumulative IPC: 1.97769 (Simulation time: 0 hr 2 min 42 sec) 
Heartbeat CPU  0 instructions:   98000000 cycles:   49562272 heartbeat IPC: 1.94143 cumulative IPC: 1.97731 (Simulation time: 0 hr 2 min 44 sec) 
Heartbeat CPU  0 instructions:   99000000 cycles:   50076250 heartbeat IPC: 1.94561 cumulative IPC: 1.97699 (Simulation time: 0 hr 2 min 45 sec) 
Heartbeat CPU  0 instructions:  100000000 cycles:   50614496 heartbeat IPC: 1.85789 cumulative IPC: 1.97572 (Simulation time: 0 hr 2 min 47 sec) 

Warmup complete CPU  0 instructions:  100000001 cycles:   50614517 (Simulation time: 0 hr 2 min 47 sec) 

Heartbeat CPU  0 instructions:  101000003 cycles:   53178000 heartbeat IPC: 0.39009 cumulative IPC: 0.39010 (Simulation time: 0 hr 2 min 50 sec) 
Heartbeat CPU  0 instructions:  102000000 cycles:   58367111 heartbeat IPC: 0.19271 cumulative IPC: 0.25798 (Simulation time: 0 hr 2 min 54 sec) 
Heartbeat CPU  0 instructions:  103000002 cycles:   61638299 heartbeat IPC: 0.30570 cumulative IPC: 0.27214 (Simulation time: 0 hr 2 min 58 sec) 
Heartbeat CPU  0 instructions:  104000000 cycles:   62989832 heartbeat IPC: 0.73990 cumulative IPC: 0.32322 (Simulation time: 0 hr 3 min 0 sec) 
Heartbeat CPU  0 instructions:  105000002 cycles:   64391110 heartbeat IPC: 0.71364 cumulative IPC: 0.36293 (Simulation time: 0 hr 3 min 2 sec) 
Heartbeat CPU  0 instructions:  106000003 cycles:   65789570 heartbeat IPC: 0.71507 cumulative IPC: 0.39539 (Simulation time: 0 hr 3 min 5 sec) 
Heartbeat CPU  0 instructions:  107000000 cycles:   67169815 heartbeat IPC: 0.72451 cumulative IPC: 0.42283 (Simulation time: 0 hr 3 min 7 sec) 
Heartbeat CPU  0 instructions:  108000000 cycles:   68547681 heartbeat IPC: 0.72576 cumulative IPC: 0.44610 (Simulation time: 0 hr 3 min 10 sec) 
Heartbeat CPU  0 instructions:  109000001 cycles:   69948387 heartbeat IPC: 0.71393 cumulative IPC: 0.46550 (Simulation time: 0 hr 3 min 12 sec) 
Heartbeat CPU  0 instructions:  110000001 cycles:   71357019 heartbeat IPC: 0.70991 cumulative IPC: 0.48210 (Simulation time: 0 hr 3 min 14 sec) 
Heartbeat CPU  0 instructions:  111000001 cycles:   72890212 heartbeat IPC: 0.65223 cumulative IPC: 0.49381 (Simulation time: 0 hr 3 min 17 sec) 
Heartbeat CPU  0 instructions:  112000000 cycles:   74468785 heartbeat IPC: 0.63348 cumulative IPC: 0.50305 (Simulation time: 0 hr 3 min 19 sec) 
Heartbeat CPU  0 instructions:  113000003 cycles:   75850657 heartbeat IPC: 0.72366 cumulative IPC: 0.51513 (Simulation time: 0 hr 3 min 22 sec) 
Heartbeat CPU  0 instructions:  114000001 cycles:   77169420 heartbeat IPC: 0.75828 cumulative IPC: 0.52721 (Simulation time: 0 hr 3 min 24 sec) 
Heartbeat CPU  0 instructions:  115000001 cycles:   78502711 heartbeat IPC: 0.75002 cumulative IPC: 0.53786 (Simulation time: 0 hr 3 min 26 sec) 
Heartbeat CPU  0 instructions:  116000000 cycles:   79898234 heartbeat IPC: 0.71658 cumulative IPC: 0.54638 (Simulation time: 0 hr 3 min 28 sec) 
Heartbeat CPU  0 instructions:  117000000 cycles:   80926884 heartbeat IPC: 0.97215 cumulative IPC: 0.56083 (Simulation time: 0 hr 3 min 31 sec) 
Heartbeat CPU  0 instructions:  118000003 cycles:   82042168 heartbeat IPC: 0.89664 cumulative IPC: 0.57274 (Simulation time: 0 hr 3 min 33 sec) 
Heartbeat CPU  0 instructions:  119000000 cycles:   83352487 heartbeat IPC: 0.76317 cumulative IPC: 0.58037 (Simulation time: 0 hr 3 min 35 sec) 
Heartbeat CPU  0 instructions:  120000000 cycles:   84669266 heartbeat IPC: 0.75943 cumulative IPC: 0.58729 (Simulation time: 0 hr 3 min 37 sec) 
Heartbeat CPU  0 instructions:  121000001 cycles:   85989757 heartbeat IPC: 0.75729 cumulative IPC: 0.59364 (Simulation time: 0 hr 3 min 39 sec) 
Heartbeat CPU  0 instructions:  122000002 cycles:   87305139 heartbeat IPC: 0.76024 cumulative IPC: 0.59961 (Simulation time: 0 hr 3 min 42 sec) 
Heartbeat CPU  0 instructions:  123000000 cycles:   88619149 heartbeat IPC: 0.76103 cumulative IPC: 0.60519 (Simulation time: 0 hr 3 min 44 sec) 
Heartbeat CPU  0 instructions:  124000000 cycles:   89932826 heartbeat IPC: 0.76122 cumulative IPC: 0.61040 (Simulation time: 0 hr 3 min 46 sec) 
Heartbeat CPU  0 instructions:  125000002 cycles:   91247087 heartbeat IPC: 0.76089 cumulative IPC: 0.61527 (Simulation time: 0 hr 3 min 48 sec) 
Heartbeat CPU  0 instructions:  126000001 cycles:   92562841 heartbeat IPC: 0.76002 cumulative IPC: 0.61981 (Simulation time: 0 hr 3 min 50 sec) 
Heartbeat CPU  0 instructions:  127000003 cycles:   93877709 heartbeat IPC: 0.76053 cumulative IPC: 0.62409 (Simulation time: 0 hr 3 min 53 sec) 
Heartbeat CPU  0 instructions:  128000000 cycles:   95192140 heartbeat IPC: 0.76078 cumulative IPC: 0.62812 (Simulation time: 0 hr 3 min 55 sec) 
Heartbeat CPU  0 instructions:  129000001 cycles:   96504234 heartbeat IPC: 0.76214 cumulative IPC: 0.63195 (Simulation time: 0 hr 3 min 57 sec) 
Heartbeat CPU  0 instructions:  130000003 cycles:   97818710 heartbeat IPC: 0.76076 cumulative IPC: 0.63554 (Simulation time: 0 hr 3 min 59 sec) 
Heartbeat CPU  0 instructions:  131000000 cycles:   99134848 heartbeat IPC: 0.75980 cumulative IPC: 0.63891 (Simulation time: 0 hr 4 min 1 sec) 
Heartbeat CPU  0 instructions:  132000000 cycles:  100447564 heartbeat IPC: 0.76178 cumulative IPC: 0.64214 (Simulation time: 0 hr 4 min 3 sec) 
Heartbeat CPU  0 instructions:  133000000 cycles:  101756707 heartbeat IPC: 0.76386 cumulative IPC: 0.64526 (Simulation time: 0 hr 4 min 6 sec) 
Heartbeat CPU  0 instructions:  134000003 cycles:  103069275 heartbeat IPC: 0.76187 cumulative IPC: 0.64818 (Simulation time: 0 hr 4 min 8 sec) 
Heartbeat CPU  0 instructions:  135000003 cycles:  104385611 heartbeat IPC: 0.75968 cumulative IPC: 0.65091 (Simulation time: 0 hr 4 min 10 sec) 
Heartbeat CPU  0 instructions:  136000000 cycles:  105700196 heartbeat IPC: 0.76069 cumulative IPC: 0.65353 (Simulation time: 0 hr 4 min 12 sec) 
Heartbeat CPU  0 instructions:  137000003 cycles:  107017434 heartbeat IPC: 0.75917 cumulative IPC: 0.65599 (Simulation time: 0 hr 4 min 14 sec) 
Heartbeat CPU  0 instructions:  138000002 cycles:  108331263 heartbeat IPC: 0.76113 cumulative IPC: 0.65839 (Simulation time: 0 hr 4 min 17 sec) 
Heartbeat CPU  0 instructions:  139000002 cycles:  109645808 heartbeat IPC: 0.76072 cumulative IPC: 0.66067 (Simulation time: 0 hr 4 min 19 sec) 
Heartbeat CPU  0 instructions:  140000000 cycles:  110958214 heartbeat IPC: 0.76196 cumulative IPC: 0.66287 (Simulation time: 0 hr 4 min 21 sec) 
Heartbeat CPU  0 instructions:  141000000 cycles:  112275383 heartbeat IPC: 0.75920 cumulative IPC: 0.66493 (Simulation time: 0 hr 4 min 23 sec) 
Heartbeat CPU  0 instructions:  142000000 cycles:  113590858 heartbeat IPC: 0.76018 cumulative IPC: 0.66692 (Simulation time: 0 hr 4 min 25 sec) 
Heartbeat CPU  0 instructions:  143000003 cycles:  114907490 heartbeat IPC: 0.75952 cumulative IPC: 0.66881 (Simulation time: 0 hr 4 min 27 sec) 
Heartbeat CPU  0 instructions:  144000000 cycles:  116223111 heartbeat IPC: 0.76010 cumulative IPC: 0.67064 (Simulation time: 0 hr 4 min 30 sec) 
Heartbeat CPU  0 instructions:  145000001 cycles:  117538383 heartbeat IPC: 0.76030 cumulative IPC: 0.67241 (Simulation time: 0 hr 4 min 32 sec) 
Heartbeat CPU  0 instructions:  146000003 cycles:  118853553 heartbeat IPC: 0.76036 cumulative IPC: 0.67410 (Simulation time: 0 hr 4 min 34 sec) 
Heartbeat CPU  0 instructions:  147000000 cycles:  120165563 heartbeat IPC: 0.76219 cumulative IPC: 0.67576 (Simulation time: 0 hr 4 min 36 sec) 
Heartbeat CPU  0 instructions:  148000000 cycles:  121479760 heartbeat IPC: 0.76092 cumulative IPC: 0.67734 (Simulation time: 0 hr 4 min 38 sec) 
Heartbeat CPU  0 instructions:  149000003 cycles:  122793777 heartbeat IPC: 0.76103 cumulative IPC: 0.67887 (Simulation time: 0 hr 4 min 41 sec) 
Heartbeat CPU  0 instructions:  150000003 cycles:  124108662 heartbeat IPC: 0.76052 cumulative IPC: 0.68033 (Simulation time: 0 hr 4 min 43 sec) 
Heartbeat CPU  0 instructions:  151000000 cycles:  125426569 heartbeat IPC: 0.75878 cumulative IPC: 0.68171 (Simulation time: 0 hr 4 min 45 sec) 
Heartbeat CPU  0 instructions:  152000000 cycles:  126743633 heartbeat IPC: 0.75926 cumulative IPC: 0.68305 (Simulation time: 0 hr 4 min 47 sec) 
Heartbeat CPU  0 instructions:  153000002 cycles:  128061579 heartbeat IPC: 0.75876 cumulative IPC: 0.68434 (Simulation time: 0 hr 4 min 49 sec) 
Heartbeat CPU  0 instructions:  154000002 cycles:  129375571 heartbeat IPC: 0.76104 cumulative IPC: 0.68562 (Simulation time: 0 hr 4 min 52 sec) 
Heartbeat CPU  0 instructions:  155000001 cycles:  130691966 heartbeat IPC: 0.75965 cumulative IPC: 0.68684 (Simulation time: 0 hr 4 min 54 sec) 
Heartbeat CPU  0 instructions:  156000000 cycles:  132004442 heartbeat IPC: 0.76192 cumulative IPC: 0.68805 (Simulation time: 0 hr 4 min 56 sec) 
Heartbeat CPU  0 instructions:  157000000 cycles:  133321379 heartbeat IPC: 0.75934 cumulative IPC: 0.68918 (Simulation time: 0 hr 4 min 58 sec) 
Heartbeat CPU  0 instructions:  158000001 cycles:  134635575 heartbeat IPC: 0.76092 cumulative IPC: 0.69030 (Simulation time: 0 hr 5 min 0 sec) 
Heartbeat CPU  0 instructions:  159000003 cycles:  135949161 heartbeat IPC: 0.76128 cumulative IPC: 0.69140 (Simulation time: 0 hr 5 min 3 sec) 
Heartbeat CPU  0 instructions:  160000000 cycles:  137265446 heartbeat IPC: 0.75971 cumulative IPC: 0.69243 (Simulation time: 0 hr 5 min 5 sec) 
Heartbeat CPU  0 instructions:  161000001 cycles:  138582583 heartbeat IPC: 0.75922 cumulative IPC: 0.69343 (Simulation time: 0 hr 5 min 7 sec) 
Heartbeat CPU  0 instructions:  162000000 cycles:  139899298 heartbeat IPC: 0.75947 cumulative IPC: 0.69441 (Simulation time: 0 hr 5 min 9 sec) 
Heartbeat CPU  0 instructions:  163000003 cycles:  141215530 heartbeat IPC: 0.75975 cumulative IPC: 0.69536 (Simulation time: 0 hr 5 min 11 sec) 
Heartbeat CPU  0 instructions:  164000000 cycles:  142530262 heartbeat IPC: 0.76061 cumulative IPC: 0.69629 (Simulation time: 0 hr 5 min 14 sec) 
Heartbeat CPU  0 instructions:  165000000 cycles:  143843407 heartbeat IPC: 0.76153 cumulative IPC: 0.69721 (Simulation time: 0 hr 5 min 16 sec) 
Heartbeat CPU  0 instructions:  166000000 cycles:  145159425 heartbeat IPC: 0.75987 cumulative IPC: 0.69808 (Simulation time: 0 hr 5 min 18 sec) 
Heartbeat CPU  0 instructions:  167000003 cycles:  146475023 heartbeat IPC: 0.76011 cumulative IPC: 0.69893 (Simulation time: 0 hr 5 min 20 sec) 
Heartbeat CPU  0 instructions:  168000000 cycles:  147791939 heartbeat IPC: 0.75935 cumulative IPC: 0.69975 (Simulation time: 0 hr 5 min 22 sec) 
Heartbeat CPU  0 instructions:  169000003 cycles:  149107802 heartbeat IPC: 0.75996 cumulative IPC: 0.70056 (Simulation time: 0 hr 5 min 24 sec) 
Heartbeat CPU  0 instructions:  170000001 cycles:  150421671 heartbeat IPC: 0.76111 cumulative IPC: 0.70135 (Simulation time: 0 hr 5 min 27 sec) 
Heartbeat CPU  0 instructions:  171000002 cycles:  151735475 heartbeat IPC: 0.76115 cumulative IPC: 0.70213 (Simulation time: 0 hr 5 min 29 sec) 
Heartbeat CPU  0 instructions:  172000000 cycles:  153051413 heartbeat IPC: 0.75991 cumulative IPC: 0.70287 (Simulation time: 0 hr 5 min 31 sec) 
Heartbeat CPU  0 instructions:  173000002 cycles:  154365992 heartbeat IPC: 0.76070 cumulative IPC: 0.70360 (Simulation time: 0 hr 5 min 33 sec) 
Heartbeat CPU  0 instructions:  174000000 cycles:  155680239 heartbeat IPC: 0.76089 cumulative IPC: 0.70432 (Simulation time: 0 hr 5 min 35 sec) 
Heartbeat CPU  0 instructions:  175000001 cycles:  156994647 heartbeat IPC: 0.76080 cumulative IPC: 0.70502 (Simulation time: 0 hr 5 min 38 sec) 
Heartbeat CPU  0 instructions:  176000000 cycles:  158311193 heartbeat IPC: 0.75956 cumulative IPC: 0.70569 (Simulation time: 0 hr 5 min 40 sec) 
Heartbeat CPU  0 instructions:  177000000 cycles:  159625974 heartbeat IPC: 0.76058 cumulative IPC: 0.70635 (Simulation time: 0 hr 5 min 42 sec) 
Heartbeat CPU  0 instructions:  178000003 cycles:  160942298 heartbeat IPC: 0.75969 cumulative IPC: 0.70698 (Simulation time: 0 hr 5 min 44 sec) 
Heartbeat CPU  0 instructions:  179000000 cycles:  162257723 heartbeat IPC: 0.76021 cumulative IPC: 0.70761 (Simulation time: 0 hr 5 min 46 sec) 
Heartbeat CPU  0 instructions:  180000000 cycles:  163571957 heartbeat IPC: 0.76090 cumulative IPC: 0.70823 (Simulation time: 0 hr 5 min 49 sec) 
Heartbeat CPU  0 instructions:  181000003 cycles:  164884493 heartbeat IPC: 0.76189 cumulative IPC: 0.70885 (Simulation time: 0 hr 5 min 51 sec) 
Heartbeat CPU  0 instructions:  182000003 cycles:  166201481 heartbeat IPC: 0.75931 cumulative IPC: 0.70942 (Simulation time: 0 hr 5 min 53 sec) 
Heartbeat CPU  0 instructions:  183000003 cycles:  167516754 heartbeat IPC: 0.76030 cumulative IPC: 0.70999 (Simulation time: 0 hr 5 min 55 sec) 
Heartbeat CPU  0 instructions:  184000000 cycles:  168834952 heartbeat IPC: 0.75861 cumulative IPC: 0.71054 (Simulation time: 0 hr 5 min 57 sec) 
Heartbeat CPU  0 instructions:  185000002 cycles:  170149087 heartbeat IPC: 0.76096 cumulative IPC: 0.71109 (Simulation time: 0 hr 6 min 0 sec) 
Heartbeat CPU  0 instructions:  186000002 cycles:  171463227 heartbeat IPC: 0.76095 cumulative IPC: 0.71163 (Simulation time: 0 hr 6 min 2 sec) 
Heartbeat CPU  0 instructions:  187000001 cycles:  173714291 heartbeat IPC: 0.44423 cumulative IPC: 0.70674 (Simulation time: 0 hr 6 min 4 sec) 
Heartbeat CPU  0 instructions:  188000000 cycles:  176486227 heartbeat IPC: 0.36076 cumulative IPC: 0.69912 (Simulation time: 0 hr 6 min 7 sec) 
Heartbeat CPU  0 instructions:  189000000 cycles:  179148624 heartbeat IPC: 0.37560 cumulative IPC: 0.69242 (Simulation time: 0 hr 6 min 10 sec) 
Heartbeat CPU  0 instructions:  190000000 cycles:  181743145 heartbeat IPC: 0.38543 cumulative IPC: 0.68635 (Simulation time: 0 hr 6 min 12 sec) 
Heartbeat CPU  0 instructions:  191000003 cycles:  184334886 heartbeat IPC: 0.38584 cumulative IPC: 0.68052 (Simulation time: 0 hr 6 min 15 sec) 
Heartbeat CPU  0 instructions:  192000000 cycles:  186913851 heartbeat IPC: 0.38775 cumulative IPC: 0.67498 (Simulation time: 0 hr 6 min 17 sec) 
Heartbeat CPU  0 instructions:  193000003 cycles:  189463335 heartbeat IPC: 0.39224 cumulative IPC: 0.66979 (Simulation time: 0 hr 6 min 20 sec) 
Heartbeat CPU  0 instructions:  194000001 cycles:  192012791 heartbeat IPC: 0.39224 cumulative IPC: 0.66479 (Simulation time: 0 hr 6 min 23 sec) 
Heartbeat CPU  0 instructions:  195000000 cycles:  194567659 heartbeat IPC: 0.39141 cumulative IPC: 0.65994 (Simulation time: 0 hr 6 min 25 sec) 
Heartbeat CPU  0 instructions:  196000000 cycles:  197198189 heartbeat IPC: 0.38015 cumulative IPC: 0.65492 (Simulation time: 0 hr 6 min 28 sec) 
Heartbeat CPU  0 instructions:  197000000 cycles:  199908769 heartbeat IPC: 0.36892 cumulative IPC: 0.64972 (Simulation time: 0 hr 6 min 31 sec) 
Heartbeat CPU  0 instructions:  198000002 cycles:  202491458 heartbeat IPC: 0.38719 cumulative IPC: 0.64526 (Simulation time: 0 hr 6 min 33 sec) 
Heartbeat CPU  0 instructions:  199000001 cycles:  205025741 heartbeat IPC: 0.39459 cumulative IPC: 0.64115 (Simulation time: 0 hr 6 min 36 sec) 
Heartbeat CPU  0 instructions:  200000000 cycles:  207545131 heartbeat IPC: 0.39692 cumulative IPC: 0.63722 (Simulation time: 0 hr 6 min 39 sec) 
Heartbeat CPU  0 instructions:  201000001 cycles:  210049753 heartbeat IPC: 0.39926 cumulative IPC: 0.63349 (Simulation time: 0 hr 6 min 41 sec) 
Heartbeat CPU  0 instructions:  202000002 cycles:  212553662 heartbeat IPC: 0.39938 cumulative IPC: 0.62987 (Simulation time: 0 hr 6 min 44 sec) 
Heartbeat CPU  0 instructions:  203000000 cycles:  215052640 heartbeat IPC: 0.40016 cumulative IPC: 0.62638 (Simulation time: 0 hr 6 min 46 sec) 
Heartbeat CPU  0 instructions:  204000000 cycles:  217564146 heartbeat IPC: 0.39817 cumulative IPC: 0.62294 (Simulation time: 0 hr 6 min 49 sec) 
Heartbeat CPU  0 instructions:  205000003 cycles:  220205724 heartbeat IPC: 0.37856 cumulative IPC: 0.61914 (Simulation time: 0 hr 6 min 52 sec) 
Heartbeat CPU  0 instructions:  206000000 cycles:  222871482 heartbeat IPC: 0.37513 cumulative IPC: 0.61536 (Simulation time: 0 hr 6 min 54 sec) 
Heartbeat CPU  0 instructions:  207000001 cycles:  225376613 heartbeat IPC: 0.39918 cumulative IPC: 0.61226 (Simulation time: 0 hr 6 min 57 sec) 
Heartbeat CPU  0 instructions:  208000000 cycles:  227880291 heartbeat IPC: 0.39941 cumulative IPC: 0.60925 (Simulation time: 0 hr 7 min 0 sec) 
Heartbeat CPU  0 instructions:  209000001 cycles:  230383579 heartbeat IPC: 0.39948 cumulative IPC: 0.60633 (Simulation time: 0 hr 7 min 2 sec) 
Heartbeat CPU  0 instructions:  210000003 cycles:  232876418 heartbeat IPC: 0.40115 cumulative IPC: 0.60353 (Simulation time: 0 hr 7 min 5 sec) 
Heartbeat CPU  0 instructions:  211000001 cycles:  235389232 heartbeat IPC: 0.39796 cumulative IPC: 0.60073 (Simulation time: 0 hr 7 min 7 sec) 
Heartbeat CPU  0 instructions:  212000000 cycles:  237891397 heartbeat IPC: 0.39965 cumulative IPC: 0.59804 (Simulation time: 0 hr 7 min 10 sec) 
Heartbeat CPU  0 instructions:  213000001 cycles:  240243426 heartbeat IPC: 0.42517 cumulative IPC: 0.59590 (Simulation time: 0 hr 7 min 13 sec) 
Heartbeat CPU  0 instructions:  214000002 cycles:  242474977 heartbeat IPC: 0.44812 cumulative IPC: 0.59418 (Simulation time: 0 hr 7 min 16 sec) 
Heartbeat CPU  0 instructions:  215000002 cycles:  244738150 heartbeat IPC: 0.44186 cumulative IPC: 0.59241 (Simulation time: 0 hr 7 min 19 sec) 
Heartbeat CPU  0 instructions:  216000000 cycles:  246944703 heartbeat IPC: 0.45319 cumulative IPC: 0.59084 (Simulation time: 0 hr 7 min 22 sec) 
Heartbeat CPU  0 instructions:  217000002 cycles:  248970856 heartbeat IPC: 0.49355 cumulative IPC: 0.58985 (Simulation time: 0 hr 7 min 25 sec) 
Heartbeat CPU  0 instructions:  218000003 cycles:  251096788 heartbeat IPC: 0.47038 cumulative IPC: 0.58858 (Simulation time: 0 hr 7 min 27 sec) 
Heartbeat CPU  0 instructions:  219000000 cycles:  253058204 heartbeat IPC: 0.50983 cumulative IPC: 0.58782 (Simulation time: 0 hr 7 min 30 sec) 
Heartbeat CPU  0 instructions:  220000000 cycles:  255173996 heartbeat IPC: 0.47264 cumulative IPC: 0.58663 (Simulation time: 0 hr 7 min 33 sec) 
Heartbeat CPU  0 instructions:  221000000 cycles:  257146042 heartbeat IPC: 0.50709 cumulative IPC: 0.58587 (Simulation time: 0 hr 7 min 36 sec) 
Heartbeat CPU  0 instructions:  222000001 cycles:  259252426 heartbeat IPC: 0.47475 cumulative IPC: 0.58475 (Simulation time: 0 hr 7 min 39 sec) 
Heartbeat CPU  0 instructions:  223000000 cycles:  261202834 heartbeat IPC: 0.51271 cumulative IPC: 0.58408 (Simulation time: 0 hr 7 min 41 sec) 
Heartbeat CPU  0 instructions:  224000000 cycles:  263308217 heartbeat IPC: 0.47497 cumulative IPC: 0.58300 (Simulation time: 0 hr 7 min 44 sec) 
Heartbeat CPU  0 instructions:  225000003 cycles:  265314866 heartbeat IPC: 0.49834 cumulative IPC: 0.58221 (Simulation time: 0 hr 7 min 47 sec) 
Heartbeat CPU  0 instructions:  226000003 cycles:  267404004 heartbeat IPC: 0.47867 cumulative IPC: 0.58121 (Simulation time: 0 hr 7 min 50 sec) 
Heartbeat CPU  0 instructions:  227000002 cycles:  269409777 heartbeat IPC: 0.49856 cumulative IPC: 0.58045 (Simulation time: 0 hr 7 min 52 sec) 
Heartbeat CPU  0 instructions:  228000000 cycles:  271506236 heartbeat IPC: 0.47699 cumulative IPC: 0.57947 (Simulation time: 0 hr 7 min 55 sec) 
Heartbeat CPU  0 instructions:  229000001 cycles:  273531932 heartbeat IPC: 0.49366 cumulative IPC: 0.57869 (Simulation time: 0 hr 7 min 58 sec) 
Heartbeat CPU  0 instructions:  230000000 cycles:  275565949 heartbeat IPC: 0.49164 cumulative IPC: 0.57790 (Simulation time: 0 hr 8 min 1 sec) 
Heartbeat CPU  0 instructions:  231000001 cycles:  277605729 heartbeat IPC: 0.49025 cumulative IPC: 0.57711 (Simulation time: 0 hr 8 min 4 sec) 
Heartbeat CPU  0 instructions:  232000000 cycles:  279646089 heartbeat IPC: 0.49011 cumulative IPC: 0.57634 (Simulation time: 0 hr 8 min 6 sec) 
Heartbeat CPU  0 instructions:  233000001 cycles:  281708068 heartbeat IPC: 0.48497 cumulative IPC: 0.57552 (Simulation time: 0 hr 8 min 9 sec) 
Heartbeat CPU  0 instructions:  234000000 cycles:  283739439 heartbeat IPC: 0.49228 cumulative IPC: 0.57480 (Simulation time: 0 hr 8 min 12 sec) 
Heartbeat CPU  0 instructions:  235000002 cycles:  285844673 heartbeat IPC: 0.47501 cumulative IPC: 0.57391 (Simulation time: 0 hr 8 min 15 sec) 
Heartbeat CPU  0 instructions:  236000000 cycles:  287863826 heartbeat IPC: 0.49526 cumulative IPC: 0.57324 (Simulation time: 0 hr 8 min 17 sec) 
Heartbeat CPU  0 instructions:  237000003 cycles:  289995800 heartbeat IPC: 0.46905 cumulative IPC: 0.57231 (Simulation time: 0 hr 8 min 20 sec) 
Heartbeat CPU  0 instructions:  238000003 cycles:  291970404 heartbeat IPC: 0.50643 cumulative IPC: 0.57177 (Simulation time: 0 hr 8 min 23 sec) 
Heartbeat CPU  0 instructions:  239000000 cycles:  294136372 heartbeat IPC: 0.46169 cumulative IPC: 0.57079 (Simulation time: 0 hr 8 min 26 sec) 
Heartbeat CPU  0 instructions:  240000000 cycles:  296142574 heartbeat IPC: 0.49845 cumulative IPC: 0.57020 (Simulation time: 0 hr 8 min 29 sec) 
Heartbeat CPU  0 instructions:  241000000 cycles:  298325496 heartbeat IPC: 0.45810 cumulative IPC: 0.56921 (Simulation time: 0 hr 8 min 32 sec) 
Heartbeat CPU  0 instructions:  242000001 cycles:  300331425 heartbeat IPC: 0.49852 cumulative IPC: 0.56864 (Simulation time: 0 hr 8 min 34 sec) 
Heartbeat CPU  0 instructions:  243000000 cycles:  302485083 heartbeat IPC: 0.46433 cumulative IPC: 0.56775 (Simulation time: 0 hr 8 min 37 sec) 
Heartbeat CPU  0 instructions:  244000000 cycles:  304484125 heartbeat IPC: 0.50024 cumulative IPC: 0.56722 (Simulation time: 0 hr 8 min 40 sec) 
Heartbeat CPU  0 instructions:  245000002 cycles:  306603760 heartbeat IPC: 0.47178 cumulative IPC: 0.56643 (Simulation time: 0 hr 8 min 43 sec) 
Heartbeat CPU  0 instructions:  246000001 cycles:  308663525 heartbeat IPC: 0.48549 cumulative IPC: 0.56578 (Simulation time: 0 hr 8 min 46 sec) 
Heartbeat CPU  0 instructions:  247000003 cycles:  310782268 heartbeat IPC: 0.47198 cumulative IPC: 0.56502 (Simulation time: 0 hr 8 min 48 sec) 
Heartbeat CPU  0 instructions:  248000000 cycles:  312939672 heartbeat IPC: 0.46352 cumulative IPC: 0.56419 (Simulation time: 0 hr 8 min 51 sec) 
Heartbeat CPU  0 instructions:  249000003 cycles:  315129528 heartbeat IPC: 0.45665 cumulative IPC: 0.56330 (Simulation time: 0 hr 8 min 54 sec) 
Heartbeat CPU  0 instructions:  250000000 cycles:  317310623 heartbeat IPC: 0.45848 cumulative IPC: 0.56244 (Simulation time: 0 hr 8 min 57 sec) 
Heartbeat CPU  0 instructions:  251000000 cycles:  319224376 heartbeat IPC: 0.52253 cumulative IPC: 0.56215 (Simulation time: 0 hr 9 min 0 sec) 
Heartbeat CPU  0 instructions:  252000000 cycles:  320726564 heartbeat IPC: 0.66570 cumulative IPC: 0.56273 (Simulation time: 0 hr 9 min 2 sec) 
Heartbeat CPU  0 instructions:  253000002 cycles:  322262447 heartbeat IPC: 0.65109 cumulative IPC: 0.56323 (Simulation time: 0 hr 9 min 4 sec) 
Heartbeat CPU  0 instructions:  254000003 cycles:  323771627 heartbeat IPC: 0.66261 cumulative IPC: 0.56378 (Simulation time: 0 hr 9 min 7 sec) 
Heartbeat CPU  0 instructions:  255000000 cycles:  325295609 heartbeat IPC: 0.65617 cumulative IPC: 0.56429 (Simulation time: 0 hr 9 min 9 sec) 
Heartbeat CPU  0 instructions:  256000000 cycles:  326809259 heartbeat IPC: 0.66065 cumulative IPC: 0.56482 (Simulation time: 0 hr 9 min 12 sec) 
Heartbeat CPU  0 instructions:  257000000 cycles:  328275706 heartbeat IPC: 0.68192 cumulative IPC: 0.56544 (Simulation time: 0 hr 9 min 14 sec) 
Heartbeat CPU  0 instructions:  258000002 cycles:  329654105 heartbeat IPC: 0.72548 cumulative IPC: 0.56623 (Simulation time: 0 hr 9 min 16 sec) 
Heartbeat CPU  0 instructions:  259000000 cycles:  330979809 heartbeat IPC: 0.75431 cumulative IPC: 0.56712 (Simulation time: 0 hr 9 min 18 sec) 
Heartbeat CPU  0 instructions:  260000000 cycles:  332281723 heartbeat IPC: 0.76810 cumulative IPC: 0.56805 (Simulation time: 0 hr 9 min 21 sec) 
Heartbeat CPU  0 instructions:  261000001 cycles:  333603073 heartbeat IPC: 0.75680 cumulative IPC: 0.56893 (Simulation time: 0 hr 9 min 23 sec) 
Heartbeat CPU  0 instructions:  262000000 cycles:  334963882 heartbeat IPC: 0.73486 cumulative IPC: 0.56972 (Simulation time: 0 hr 9 min 25 sec) 
Heartbeat CPU  0 instructions:  263000002 cycles:  336237044 heartbeat IPC: 0.78545 cumulative IPC: 0.57068 (Simulation time: 0 hr 9 min 27 sec) 
Heartbeat CPU  0 instructions:  264000000 cycles:  337470193 heartbeat IPC: 0.81093 cumulative IPC: 0.57172 (Simulation time: 0 hr 9 min 30 sec) 
Heartbeat CPU  0 instructions:  265000002 cycles:  338678539 heartbeat IPC: 0.82758 cumulative IPC: 0.57279 (Simulation time: 0 hr 9 min 32 sec) 
Heartbeat CPU  0 instructions:  266000000 cycles:  339904562 heartbeat IPC: 0.81564 cumulative IPC: 0.57382 (Simulation time: 0 hr 9 min 34 sec) 
Heartbeat CPU  0 instructions:  267000000 cycles:  341161685 heartbeat IPC: 0.79547 cumulative IPC: 0.57478 (Simulation time: 0 hr 9 min 36 sec) 
Heartbeat CPU  0 instructions:  268000000 cycles:  342495595 heartbeat IPC: 0.74968 cumulative IPC: 0.57558 (Simulation time: 0 hr 9 min 38 sec) 
Heartbeat CPU  0 instructions:  269000000 cycles:  343768522 heartbeat IPC: 0.78559 cumulative IPC: 0.57649 (Simulation time: 0 hr 9 min 41 sec) 
Heartbeat CPU  0 instructions:  270000001 cycles:  345056024 heartbeat IPC: 0.77670 cumulative IPC: 0.57736 (Simulation time: 0 hr 9 min 43 sec) 
Heartbeat CPU  0 instructions:  271000000 cycles:  346313494 heartbeat IPC: 0.79525 cumulative IPC: 0.57829 (Simulation time: 0 hr 9 min 45 sec) 
Heartbeat CPU  0 instructions:  272000000 cycles:  347684378 heartbeat IPC: 0.72946 cumulative IPC: 0.57899 (Simulation time: 0 hr 9 min 47 sec) 
Heartbeat CPU  0 instructions:  273000000 cycles:  349004723 heartbeat IPC: 0.75738 cumulative IPC: 0.57978 (Simulation time: 0 hr 9 min 50 sec) 
Heartbeat CPU  0 instructions:  274000001 cycles:  350295330 heartbeat IPC: 0.77483 cumulative IPC: 0.58062 (Simulation time: 0 hr 9 min 52 sec) 
Heartbeat CPU  0 instructions:  275000000 cycles:  351596993 heartbeat IPC: 0.76825 cumulative IPC: 0.58143 (Simulation time: 0 hr 9 min 54 sec) 
Heartbeat CPU  0 instructions:  276000000 cycles:  352871056 heartbeat IPC: 0.78489 cumulative IPC: 0.58229 (Simulation time: 0 hr 9 min 56 sec) 
Heartbeat CPU  0 instructions:  277000002 cycles:  354192187 heartbeat IPC: 0.75693 cumulative IPC: 0.58305 (Simulation time: 0 hr 9 min 58 sec) 
Heartbeat CPU  0 instructions:  278000002 cycles:  355547090 heartbeat IPC: 0.73806 cumulative IPC: 0.58374 (Simulation time: 0 hr 10 min 1 sec) 
Heartbeat CPU  0 instructions:  279000000 cycles:  356866560 heartbeat IPC: 0.75788 cumulative IPC: 0.58449 (Simulation time: 0 hr 10 min 3 sec) 
Heartbeat CPU  0 instructions:  280000000 cycles:  358165538 heartbeat IPC: 0.76984 cumulative IPC: 0.58527 (Simulation time: 0 hr 10 min 5 sec) 
Heartbeat CPU  0 instructions:  281000002 cycles:  359439001 heartbeat IPC: 0.78526 cumulative IPC: 0.58609 (Simulation time: 0 hr 10 min 7 sec) 
Heartbeat CPU  0 instructions:  282000002 cycles:  360782039 heartbeat IPC: 0.74458 cumulative IPC: 0.58678 (Simulation time: 0 hr 10 min 10 sec) 
Heartbeat CPU  0 instructions:  283000003 cycles:  362192217 heartbeat IPC: 0.70913 cumulative IPC: 0.58733 (Simulation time: 0 hr 10 min 12 sec) 
Heartbeat CPU  0 instructions:  284000000 cycles:  363557624 heartbeat IPC: 0.73238 cumulative IPC: 0.58797 (Simulation time: 0 hr 10 min 14 sec) 
Heartbeat CPU  0 instructions:  285000003 cycles:  364939424 heartbeat IPC: 0.72370 cumulative IPC: 0.58856 (Simulation time: 0 hr 10 min 16 sec) 
Heartbeat CPU  0 instructions:  286000003 cycles:  366317339 heartbeat IPC: 0.72573 cumulative IPC: 0.58916 (Simulation time: 0 hr 10 min 19 sec) 
Heartbeat CPU  0 instructions:  287000003 cycles:  367688684 heartbeat IPC: 0.72921 cumulative IPC: 0.58977 (Simulation time: 0 hr 10 min 21 sec) 
Heartbeat CPU  0 instructions:  288000000 cycles:  369095456 heartbeat IPC: 0.71085 cumulative IPC: 0.59030 (Simulation time: 0 hr 10 min 23 sec) 
Heartbeat CPU  0 instructions:  289000001 cycles:  370464118 heartbeat IPC: 0.73064 cumulative IPC: 0.59090 (Simulation time: 0 hr 10 min 25 sec) 
Heartbeat CPU  0 instructions:  290000003 cycles:  371772634 heartbeat IPC: 0.76423 cumulative IPC: 0.59161 (Simulation time: 0 hr 10 min 28 sec) 
Heartbeat CPU  0 instructions:  291000003 cycles:  373082390 heartbeat IPC: 0.76350 cumulative IPC: 0.59231 (Simulation time: 0 hr 10 min 30 sec) 
Heartbeat CPU  0 instructions:  292000000 cycles:  374399885 heartbeat IPC: 0.75901 cumulative IPC: 0.59299 (Simulation time: 0 hr 10 min 32 sec) 
Heartbeat CPU  0 instructions:  293000002 cycles:  375810497 heartbeat IPC: 0.70891 cumulative IPC: 0.59349 (Simulation time: 0 hr 10 min 34 sec) 
Heartbeat CPU  0 instructions:  294000002 cycles:  377241905 heartbeat IPC: 0.69861 cumulative IPC: 0.59395 (Simulation time: 0 hr 10 min 37 sec) 
Heartbeat CPU  0 instructions:  295000003 cycles:  378641382 heartbeat IPC: 0.71455 cumulative IPC: 0.59446 (Simulation time: 0 hr 10 min 39 sec) 
Heartbeat CPU  0 instructions:  296000000 cycles:  380063754 heartbeat IPC: 0.70305 cumulative IPC: 0.59493 (Simulation time: 0 hr 10 min 41 sec) 
Heartbeat CPU  0 instructions:  297000003 cycles:  381453076 heartbeat IPC: 0.71978 cumulative IPC: 0.59546 (Simulation time: 0 hr 10 min 44 sec) 
Heartbeat CPU  0 instructions:  298000002 cycles:  382859838 heartbeat IPC: 0.71085 cumulative IPC: 0.59595 (Simulation time: 0 hr 10 min 46 sec) 
Heartbeat CPU  0 instructions:  299000003 cycles:  384262899 heartbeat IPC: 0.71273 cumulative IPC: 0.59644 (Simulation time: 0 hr 10 min 48 sec) 
Heartbeat CPU  0 instructions:  300000000 cycles:  385595164 heartbeat IPC: 0.75060 cumulative IPC: 0.59705 (Simulation time: 0 hr 10 min 50 sec) 
Heartbeat CPU  0 instructions:  301000000 cycles:  386916366 heartbeat IPC: 0.75689 cumulative IPC: 0.59768 (Simulation time: 0 hr 10 min 53 sec) 
Heartbeat CPU  0 instructions:  302000003 cycles:  388201558 heartbeat IPC: 0.77810 cumulative IPC: 0.59836 (Simulation time: 0 hr 10 min 55 sec) 
Heartbeat CPU  0 instructions:  303000000 cycles:  389548103 heartbeat IPC: 0.74264 cumulative IPC: 0.59894 (Simulation time: 0 hr 10 min 57 sec) 
Heartbeat CPU  0 instructions:  304000000 cycles:  390992372 heartbeat IPC: 0.69239 cumulative IPC: 0.59933 (Simulation time: 0 hr 10 min 59 sec) 
Heartbeat CPU  0 instructions:  305000003 cycles:  392461456 heartbeat IPC: 0.68070 cumulative IPC: 0.59968 (Simulation time: 0 hr 11 min 2 sec) 
Heartbeat CPU  0 instructions:  306000001 cycles:  393903990 heartbeat IPC: 0.69322 cumulative IPC: 0.60008 (Simulation time: 0 hr 11 min 4 sec) 
Heartbeat CPU  0 instructions:  307000003 cycles:  395357513 heartbeat IPC: 0.68799 cumulative IPC: 0.60045 (Simulation time: 0 hr 11 min 6 sec) 
Heartbeat CPU  0 instructions:  308000000 cycles:  396791668 heartbeat IPC: 0.69727 cumulative IPC: 0.60085 (Simulation time: 0 hr 11 min 9 sec) 
Heartbeat CPU  0 instructions:  309000001 cycles:  398257237 heartbeat IPC: 0.68233 cumulative IPC: 0.60119 (Simulation time: 0 hr 11 min 11 sec) 
Heartbeat CPU  0 instructions:  310000000 cycles:  399598870 heartbeat IPC: 0.74536 cumulative IPC: 0.60175 (Simulation time: 0 hr 11 min 13 sec) 
Heartbeat CPU  0 instructions:  311000000 cycles:  400908139 heartbeat IPC: 0.76379 cumulative IPC: 0.60235 (Simulation time: 0 hr 11 min 15 sec) 
Heartbeat CPU  0 instructions:  312000000 cycles:  402209087 heartbeat IPC: 0.76867 cumulative IPC: 0.60297 (Simulation time: 0 hr 11 min 18 sec) 
Heartbeat CPU  0 instructions:  313000003 cycles:  403513092 heartbeat IPC: 0.76687 cumulative IPC: 0.60357 (Simulation time: 0 hr 11 min 20 sec) 
Heartbeat CPU  0 instructions:  314000001 cycles:  404939552 heartbeat IPC: 0.70103 cumulative IPC: 0.60397 (Simulation time: 0 hr 11 min 22 sec) 
Heartbeat CPU  0 instructions:  315000000 cycles:  406399591 heartbeat IPC: 0.68491 cumulative IPC: 0.60430 (Simulation time: 0 hr 11 min 25 sec) 
Heartbeat CPU  0 instructions:  316000000 cycles:  407852181 heartbeat IPC: 0.68843 cumulative IPC: 0.60464 (Simulation time: 0 hr 11 min 27 sec) 
Heartbeat CPU  0 instructions:  317000003 cycles:  409313552 heartbeat IPC: 0.68429 cumulative IPC: 0.60496 (Simulation time: 0 hr 11 min 29 sec) 
Heartbeat CPU  0 instructions:  318000002 cycles:  410779991 heartbeat IPC: 0.68192 cumulative IPC: 0.60528 (Simulation time: 0 hr 11 min 31 sec) 
Heartbeat CPU  0 instructions:  319000002 cycles:  412212167 heartbeat IPC: 0.69824 cumulative IPC: 0.60565 (Simulation time: 0 hr 11 min 34 sec) 
Heartbeat CPU  0 instructions:  320000000 cycles:  413655391 heartbeat IPC: 0.69289 cumulative IPC: 0.60599 (Simulation time: 0 hr 11 min 36 sec) 
Heartbeat CPU  0 instructions:  321000002 cycles:  414964731 heartbeat IPC: 0.76375 cumulative IPC: 0.60656 (Simulation time: 0 hr 11 min 38 sec) 
Heartbeat CPU  0 instructions:  322000002 cycles:  416262909 heartbeat IPC: 0.77031 cumulative IPC: 0.60714 (Simulation time: 0 hr 11 min 41 sec) 
Heartbeat CPU  0 instructions:  323000002 cycles:  417569160 heartbeat IPC: 0.76555 cumulative IPC: 0.60770 (Simulation time: 0 hr 11 min 43 sec) 
Heartbeat CPU  0 instructions:  324000000 cycles:  418917101 heartbeat IPC: 0.74187 cumulative IPC: 0.60820 (Simulation time: 0 hr 11 min 45 sec) 
Heartbeat CPU  0 instructions:  325000002 cycles:  420370184 heartbeat IPC: 0.68819 cumulative IPC: 0.60851 (Simulation time: 0 hr 11 min 47 sec) 
Heartbeat CPU  0 instructions:  326000000 cycles:  421839191 heartbeat IPC: 0.68073 cumulative IPC: 0.60880 (Simulation time: 0 hr 11 min 50 sec) 
Heartbeat CPU  0 instructions:  327000002 cycles:  423256597 heartbeat IPC: 0.70552 cumulative IPC: 0.60916 (Simulation time: 0 hr 11 min 52 sec) 
Heartbeat CPU  0 instructions:  328000000 cycles:  424709277 heartbeat IPC: 0.68838 cumulative IPC: 0.60947 (Simulation time: 0 hr 11 min 54 sec) 
Heartbeat CPU  0 instructions:  329000001 cycles:  426152704 heartbeat IPC: 0.69280 cumulative IPC: 0.60979 (Simulation time: 0 hr 11 min 56 sec) 
Heartbeat CPU  0 instructions:  330000001 cycles:  427608358 heartbeat IPC: 0.68698 cumulative IPC: 0.61009 (Simulation time: 0 hr 11 min 59 sec) 
Heartbeat CPU  0 instructions:  331000001 cycles:  428959648 heartbeat IPC: 0.74003 cumulative IPC: 0.61055 (Simulation time: 0 hr 12 min 1 sec) 
Heartbeat CPU  0 instructions:  332000000 cycles:  430252835 heartbeat IPC: 0.77328 cumulative IPC: 0.61111 (Simulation time: 0 hr 12 min 3 sec) 
Heartbeat CPU  0 instructions:  333000001 cycles:  431514733 heartbeat IPC: 0.79246 cumulative IPC: 0.61171 (Simulation time: 0 hr 12 min 5 sec) 
Heartbeat CPU  0 instructions:  334000003 cycles:  432798124 heartbeat IPC: 0.77919 cumulative IPC: 0.61227 (Simulation time: 0 hr 12 min 8 sec) 
Heartbeat CPU  0 instructions:  335000002 cycles:  434262647 heartbeat IPC: 0.68282 cumulative IPC: 0.61254 (Simulation time: 0 hr 12 min 10 sec) 
Heartbeat CPU  0 instructions:  336000000 cycles:  435698873 heartbeat IPC: 0.69627 cumulative IPC: 0.61285 (Simulation time: 0 hr 12 min 12 sec) 
Heartbeat CPU  0 instructions:  337000002 cycles:  437155149 heartbeat IPC: 0.68668 cumulative IPC: 0.61313 (Simulation time: 0 hr 12 min 15 sec) 
Heartbeat CPU  0 instructions:  338000002 cycles:  438586258 heartbeat IPC: 0.69876 cumulative IPC: 0.61345 (Simulation time: 0 hr 12 min 17 sec) 
Heartbeat CPU  0 instructions:  339000002 cycles:  440038446 heartbeat IPC: 0.68862 cumulative IPC: 0.61373 (Simulation time: 0 hr 12 min 19 sec) 
Heartbeat CPU  0 instructions:  340000000 cycles:  441483311 heartbeat IPC: 0.69210 cumulative IPC: 0.61402 (Simulation time: 0 hr 12 min 22 sec) 
Heartbeat CPU  0 instructions:  341000001 cycles:  442906211 heartbeat IPC: 0.70279 cumulative IPC: 0.61434 (Simulation time: 0 hr 12 min 24 sec) 
Heartbeat CPU  0 instructions:  342000003 cycles:  444221969 heartbeat IPC: 0.76002 cumulative IPC: 0.61483 (Simulation time: 0 hr 12 min 26 sec) 
Heartbeat CPU  0 instructions:  343000003 cycles:  445544427 heartbeat IPC: 0.75617 cumulative IPC: 0.61530 (Simulation time: 0 hr 12 min 28 sec) 
Heartbeat CPU  0 instructions:  344000000 cycles:  446829570 heartbeat IPC: 0.77812 cumulative IPC: 0.61583 (Simulation time: 0 hr 12 min 31 sec) 
Heartbeat CPU  0 instructions:  345000001 cycles:  448192222 heartbeat IPC: 0.73386 cumulative IPC: 0.61623 (Simulation time: 0 hr 12 min 33 sec) 
Heartbeat CPU  0 instructions:  346000003 cycles:  449638144 heartbeat IPC: 0.69160 cumulative IPC: 0.61650 (Simulation time: 0 hr 12 min 35 sec) 
Heartbeat CPU  0 instructions:  347000003 cycles:  451096233 heartbeat IPC: 0.68583 cumulative IPC: 0.61676 (Simulation time: 0 hr 12 min 37 sec) 
Heartbeat CPU  0 instructions:  348000000 cycles:  452539560 heartbeat IPC: 0.69284 cumulative IPC: 0.61703 (Simulation time: 0 hr 12 min 40 sec) 
Heartbeat CPU  0 instructions:  349000000 cycles:  453966634 heartbeat IPC: 0.70073 cumulative IPC: 0.61733 (Simulation time: 0 hr 12 min 42 sec) 
Heartbeat CPU  0 instructions:  350000003 cycles:  455432253 heartbeat IPC: 0.68231 cumulative IPC: 0.61756 (Simulation time: 0 hr 12 min 44 sec) 
Heartbeat CPU  0 instructions:  351000000 cycles:  456864189 heartbeat IPC: 0.69835 cumulative IPC: 0.61785 (Simulation time: 0 hr 12 min 47 sec) 
Heartbeat CPU  0 instructions:  352000000 cycles:  458232444 heartbeat IPC: 0.73086 cumulative IPC: 0.61823 (Simulation time: 0 hr 12 min 49 sec) 
Heartbeat CPU  0 instructions:  353000003 cycles:  459528275 heartbeat IPC: 0.77171 cumulative IPC: 0.61871 (Simulation time: 0 hr 12 min 51 sec) 
Heartbeat CPU  0 instructions:  354000003 cycles:  460821850 heartbeat IPC: 0.77305 cumulative IPC: 0.61920 (Simulation time: 0 hr 12 min 53 sec) 
Heartbeat CPU  0 instructions:  355000000 cycles:  462117472 heartbeat IPC: 0.77183 cumulative IPC: 0.61968 (Simulation time: 0 hr 12 min 56 sec) 
Heartbeat CPU  0 instructions:  356000000 cycles:  463602126 heartbeat IPC: 0.67356 cumulative IPC: 0.61987 (Simulation time: 0 hr 12 min 58 sec) 
Heartbeat CPU  0 instructions:  357000001 cycles:  465034346 heartbeat IPC: 0.69822 cumulative IPC: 0.62014 (Simulation time: 0 hr 13 min 0 sec) 
Heartbeat CPU  0 instructions:  358000003 cycles:  466483265 heartbeat IPC: 0.69017 cumulative IPC: 0.62039 (Simulation time: 0 hr 13 min 2 sec) 
Heartbeat CPU  0 instructions:  359000000 cycles:  467921666 heartbeat IPC: 0.69521 cumulative IPC: 0.62065 (Simulation time: 0 hr 13 min 5 sec) 
Heartbeat CPU  0 instructions:  360000000 cycles:  469367515 heartbeat IPC: 0.69164 cumulative IPC: 0.62089 (Simulation time: 0 hr 13 min 7 sec) 
Heartbeat CPU  0 instructions:  361000002 cycles:  470820356 heartbeat IPC: 0.68831 cumulative IPC: 0.62112 (Simulation time: 0 hr 13 min 9 sec) 
Heartbeat CPU  0 instructions:  362000002 cycles:  472226384 heartbeat IPC: 0.71122 cumulative IPC: 0.62142 (Simulation time: 0 hr 13 min 12 sec) 
Heartbeat CPU  0 instructions:  363000002 cycles:  473583783 heartbeat IPC: 0.73670 cumulative IPC: 0.62179 (Simulation time: 0 hr 13 min 14 sec) 
Heartbeat CPU  0 instructions:  364000000 cycles:  474882888 heartbeat IPC: 0.76976 cumulative IPC: 0.62225 (Simulation time: 0 hr 13 min 16 sec) 
Heartbeat CPU  0 instructions:  365000001 cycles:  476178029 heartbeat IPC: 0.77212 cumulative IPC: 0.62270 (Simulation time: 0 hr 13 min 18 sec) 
Heartbeat CPU  0 instructions:  366000001 cycles:  477566798 heartbeat IPC: 0.72006 cumulative IPC: 0.62302 (Simulation time: 0 hr 13 min 21 sec) 
Heartbeat CPU  0 instructions:  367000003 cycles:  479036191 heartbeat IPC: 0.68055 cumulative IPC: 0.62322 (Simulation time: 0 hr 13 min 23 sec) 
Heartbeat CPU  0 instructions:  368000000 cycles:  480473974 heartbeat IPC: 0.69551 cumulative IPC: 0.62346 (Simulation time: 0 hr 13 min 25 sec) 
Heartbeat CPU  0 instructions:  369000001 cycles:  481929301 heartbeat IPC: 0.68713 cumulative IPC: 0.62367 (Simulation time: 0 hr 13 min 27 sec) 
Heartbeat CPU  0 instructions:  370000002 cycles:  483374719 heartbeat IPC: 0.69184 cumulative IPC: 0.62390 (Simulation time: 0 hr 13 min 30 sec) 
Heartbeat CPU  0 instructions:  371000002 cycles:  484839229 heartbeat IPC: 0.68282 cumulative IPC: 0.62410 (Simulation time: 0 hr 13 min 32 sec) 
Heartbeat CPU  0 instructions:  372000000 cycles:  486263789 heartbeat IPC: 0.70197 cumulative IPC: 0.62436 (Simulation time: 0 hr 13 min 34 sec) 
Heartbeat CPU  0 instructions:  373000001 cycles:  487624699 heartbeat IPC: 0.73480 cumulative IPC: 0.62470 (Simulation time: 0 hr 13 min 37 sec) 
Heartbeat CPU  0 instructions:  374000001 cycles:  488937571 heartbeat IPC: 0.76169 cumulative IPC: 0.62511 (Simulation time: 0 hr 13 min 39 sec) 
Heartbeat CPU  0 instructions:  375000003 cycles:  490261589 heartbeat IPC: 0.75528 cumulative IPC: 0.62550 (Simulation time: 0 hr 13 min 41 sec) 
Heartbeat CPU  0 instructions:  376000000 cycles:  491538487 heartbeat IPC: 0.78315 cumulative IPC: 0.62596 (Simulation time: 0 hr 13 min 43 sec) 
Heartbeat CPU  0 instructions:  377000002 cycles:  492999947 heartbeat IPC: 0.68425 cumulative IPC: 0.62615 (Simulation time: 0 hr 13 min 46 sec) 
Heartbeat CPU  0 instructions:  378000000 cycles:  494452940 heartbeat IPC: 0.68823 cumulative IPC: 0.62635 (Simulation time: 0 hr 13 min 48 sec) 
Heartbeat CPU  0 instructions:  379000000 cycles:  495881322 heartbeat IPC: 0.70009 cumulative IPC: 0.62659 (Simulation time: 0 hr 13 min 50 sec) 
Heartbeat CPU  0 instructions:  380000000 cycles:  497350045 heartbeat IPC: 0.68086 cumulative IPC: 0.62677 (Simulation time: 0 hr 13 min 52 sec) 
Heartbeat CPU  0 instructions:  381000002 cycles:  498805998 heartbeat IPC: 0.68684 cumulative IPC: 0.62696 (Simulation time: 0 hr 13 min 55 sec) 
Heartbeat CPU  0 instructions:  382000000 cycles:  500260709 heartbeat IPC: 0.68742 cumulative IPC: 0.62716 (Simulation time: 0 hr 13 min 57 sec) 
Heartbeat CPU  0 instructions:  383000000 cycles:  501675135 heartbeat IPC: 0.70700 cumulative IPC: 0.62741 (Simulation time: 0 hr 13 min 59 sec) 
Heartbeat CPU  0 instructions:  384000000 cycles:  503040801 heartbeat IPC: 0.73224 cumulative IPC: 0.62773 (Simulation time: 0 hr 14 min 2 sec) 
Heartbeat CPU  0 instructions:  385000001 cycles:  504386003 heartbeat IPC: 0.74338 cumulative IPC: 0.62807 (Simulation time: 0 hr 14 min 4 sec) 
Heartbeat CPU  0 instructions:  386000002 cycles:  505729999 heartbeat IPC: 0.74405 cumulative IPC: 0.62841 (Simulation time: 0 hr 14 min 6 sec) 
Heartbeat CPU  0 instructions:  387000000 cycles:  507148878 heartbeat IPC: 0.70478 cumulative IPC: 0.62865 (Simulation time: 0 hr 14 min 8 sec) 
Heartbeat CPU  0 instructions:  388000000 cycles:  508619080 heartbeat IPC: 0.68018 cumulative IPC: 0.62881 (Simulation time: 0 hr 14 min 11 sec) 
Heartbeat CPU  0 instructions:  389000003 cycles:  510046410 heartbeat IPC: 0.70061 cumulative IPC: 0.62904 (Simulation time: 0 hr 14 min 13 sec) 
Heartbeat CPU  0 instructions:  390000001 cycles:  511506550 heartbeat IPC: 0.68486 cumulative IPC: 0.62921 (Simulation time: 0 hr 14 min 15 sec) 
Heartbeat CPU  0 instructions:  391000002 cycles:  512958588 heartbeat IPC: 0.68869 cumulative IPC: 0.62940 (Simulation time: 0 hr 14 min 18 sec) 
Heartbeat CPU  0 instructions:  392000000 cycles:  514404199 heartbeat IPC: 0.69175 cumulative IPC: 0.62960 (Simulation time: 0 hr 14 min 20 sec) 
Heartbeat CPU  0 instructions:  393000003 cycles:  515849313 heartbeat IPC: 0.69199 cumulative IPC: 0.62979 (Simulation time: 0 hr 14 min 22 sec) 
Heartbeat CPU  0 instructions:  394000003 cycles:  517220662 heartbeat IPC: 0.72921 cumulative IPC: 0.63008 (Simulation time: 0 hr 14 min 24 sec) 
Heartbeat CPU  0 instructions:  395000003 cycles:  518615949 heartbeat IPC: 0.71670 cumulative IPC: 0.63034 (Simulation time: 0 hr 14 min 27 sec) 
Heartbeat CPU  0 instructions:  396000000 cycles:  519974514 heartbeat IPC: 0.73607 cumulative IPC: 0.63065 (Simulation time: 0 hr 14 min 29 sec) 
Heartbeat CPU  0 instructions:  397000001 cycles:  521330447 heartbeat IPC: 0.73750 cumulative IPC: 0.63095 (Simulation time: 0 hr 14 min 31 sec) 
Heartbeat CPU  0 instructions:  398000001 cycles:  523798625 heartbeat IPC: 0.40516 cumulative IPC: 0.62978 (Simulation time: 0 hr 14 min 34 sec) 
Heartbeat CPU  0 instructions:  399000002 cycles:  525516927 heartbeat IPC: 0.58197 cumulative IPC: 0.62960 (Simulation time: 0 hr 14 min 36 sec) 
Heartbeat CPU  0 instructions:  400000000 cycles:  527235824 heartbeat IPC: 0.58177 cumulative IPC: 0.62943 (Simulation time: 0 hr 14 min 39 sec) 
Heartbeat CPU  0 instructions:  401000001 cycles:  528957768 heartbeat IPC: 0.58074 cumulative IPC: 0.62926 (Simulation time: 0 hr 14 min 41 sec) 
Heartbeat CPU  0 instructions:  402000003 cycles:  530674702 heartbeat IPC: 0.58243 cumulative IPC: 0.62909 (Simulation time: 0 hr 14 min 44 sec) 
Heartbeat CPU  0 instructions:  403000000 cycles:  532382580 heartbeat IPC: 0.58552 cumulative IPC: 0.62893 (Simulation time: 0 hr 14 min 46 sec) 
Heartbeat CPU  0 instructions:  404000000 cycles:  534062014 heartbeat IPC: 0.59544 cumulative IPC: 0.62882 (Simulation time: 0 hr 14 min 49 sec) 
Heartbeat CPU  0 instructions:  405000003 cycles:  535751402 heartbeat IPC: 0.59193 cumulative IPC: 0.62869 (Simulation time: 0 hr 14 min 51 sec) 
Heartbeat CPU  0 instructions:  406000003 cycles:  537429776 heartbeat IPC: 0.59581 cumulative IPC: 0.62858 (Simulation time: 0 hr 14 min 54 sec) 
Heartbeat CPU  0 instructions:  407000000 cycles:  539107300 heartbeat IPC: 0.59611 cumulative IPC: 0.62846 (Simulation time: 0 hr 14 min 56 sec) 
Heartbeat CPU  0 instructions:  408000000 cycles:  540774819 heartbeat IPC: 0.59969 cumulative IPC: 0.62837 (Simulation time: 0 hr 14 min 58 sec) 
Heartbeat CPU  0 instructions:  409000002 cycles:  542441845 heartbeat IPC: 0.59987 cumulative IPC: 0.62827 (Simulation time: 0 hr 15 min 1 sec) 
Heartbeat CPU  0 instructions:  410000002 cycles:  544096225 heartbeat IPC: 0.60446 cumulative IPC: 0.62819 (Simulation time: 0 hr 15 min 3 sec) 
Heartbeat CPU  0 instructions:  411000000 cycles:  545765636 heartbeat IPC: 0.59901 cumulative IPC: 0.62809 (Simulation time: 0 hr 15 min 6 sec) 
Heartbeat CPU  0 instructions:  412000000 cycles:  547432239 heartbeat IPC: 0.60002 cumulative IPC: 0.62800 (Simulation time: 0 hr 15 min 8 sec) 
Heartbeat CPU  0 instructions:  413000001 cycles:  549089613 heartbeat IPC: 0.60336 cumulative IPC: 0.62792 (Simulation time: 0 hr 15 min 10 sec) 
Heartbeat CPU  0 instructions:  414000000 cycles:  550756323 heartbeat IPC: 0.59998 cumulative IPC: 0.62782 (Simulation time: 0 hr 15 min 13 sec) 
Heartbeat CPU  0 instructions:  415000002 cycles:  552428718 heartbeat IPC: 0.59795 cumulative IPC: 0.62772 (Simulation time: 0 hr 15 min 15 sec) 
Heartbeat CPU  0 instructions:  416000000 cycles:  554120772 heartbeat IPC: 0.59100 cumulative IPC: 0.62760 (Simulation time: 0 hr 15 min 18 sec) 
Heartbeat CPU  0 instructions:  417000001 cycles:  555805493 heartbeat IPC: 0.59357 cumulative IPC: 0.62749 (Simulation time: 0 hr 15 min 20 sec) 
Heartbeat CPU  0 instructions:  418000002 cycles:  557501964 heartbeat IPC: 0.58946 cumulative IPC: 0.62736 (Simulation time: 0 hr 15 min 22 sec) 
Heartbeat CPU  0 instructions:  419000003 cycles:  559189607 heartbeat IPC: 0.59254 cumulative IPC: 0.62724 (Simulation time: 0 hr 15 min 25 sec) 
Heartbeat CPU  0 instructions:  420000000 cycles:  560876012 heartbeat IPC: 0.59298 cumulative IPC: 0.62713 (Simulation time: 0 hr 15 min 27 sec) 
Heartbeat CPU  0 instructions:  421000002 cycles:  562568662 heartbeat IPC: 0.59079 cumulative IPC: 0.62701 (Simulation time: 0 hr 15 min 30 sec) 
Heartbeat CPU  0 instructions:  422000000 cycles:  564252683 heartbeat IPC: 0.59382 cumulative IPC: 0.62690 (Simulation time: 0 hr 15 min 32 sec) 
Heartbeat CPU  0 instructions:  423000003 cycles:  565936431 heartbeat IPC: 0.59391 cumulative IPC: 0.62679 (Simulation time: 0 hr 15 min 34 sec) 
Heartbeat CPU  0 instructions:  424000000 cycles:  567627101 heartbeat IPC: 0.59148 cumulative IPC: 0.62668 (Simulation time: 0 hr 15 min 37 sec) 
Heartbeat CPU  0 instructions:  425000000 cycles:  569324401 heartbeat IPC: 0.58917 cumulative IPC: 0.62655 (Simulation time: 0 hr 15 min 39 sec) 
Heartbeat CPU  0 instructions:  426000000 cycles:  571008095 heartbeat IPC: 0.59393 cumulative IPC: 0.62645 (Simulation time: 0 hr 15 min 42 sec) 
Heartbeat CPU  0 instructions:  427000003 cycles:  572698915 heartbeat IPC: 0.59143 cumulative IPC: 0.62634 (Simulation time: 0 hr 15 min 44 sec) 
Heartbeat CPU  0 instructions:  428000000 cycles:  574390932 heartbeat IPC: 0.59101 cumulative IPC: 0.62622 (Simulation time: 0 hr 15 min 47 sec) 
Heartbeat CPU  0 instructions:  429000000 cycles:  576081290 heartbeat IPC: 0.59159 cumulative IPC: 0.62611 (Simulation time: 0 hr 15 min 49 sec) 
Heartbeat CPU  0 instructions:  430000003 cycles:  577779842 heartbeat IPC: 0.58874 cumulative IPC: 0.62599 (Simulation time: 0 hr 15 min 51 sec) 
Heartbeat CPU  0 instructions:  431000003 cycles:  579462025 heartbeat IPC: 0.59447 cumulative IPC: 0.62589 (Simulation time: 0 hr 15 min 54 sec) 
Heartbeat CPU  0 instructions:  432000000 cycles:  581161433 heartbeat IPC: 0.58844 cumulative IPC: 0.62577 (Simulation time: 0 hr 15 min 56 sec) 
Heartbeat CPU  0 instructions:  433000000 cycles:  582850533 heartbeat IPC: 0.59203 cumulative IPC: 0.62566 (Simulation time: 0 hr 15 min 59 sec) 
Heartbeat CPU  0 instructions:  434000003 cycles:  584542087 heartbeat IPC: 0.59117 cumulative IPC: 0.62555 (Simulation time: 0 hr 16 min 1 sec) 
Heartbeat CPU  0 instructions:  435000003 cycles:  586230552 heartbeat IPC: 0.59225 cumulative IPC: 0.62545 (Simulation time: 0 hr 16 min 4 sec) 
Heartbeat CPU  0 instructions:  436000000 cycles:  587924147 heartbeat IPC: 0.59046 cumulative IPC: 0.62534 (Simulation time: 0 hr 16 min 6 sec) 
Heartbeat CPU  0 instructions:  437000000 cycles:  589619866 heartbeat IPC: 0.58972 cumulative IPC: 0.62523 (Simulation time: 0 hr 16 min 8 sec) 
Heartbeat CPU  0 instructions:  438000001 cycles:  591316527 heartbeat IPC: 0.58939 cumulative IPC: 0.62511 (Simulation time: 0 hr 16 min 11 sec) 
Heartbeat CPU  0 instructions:  439000002 cycles:  593005993 heartbeat IPC: 0.59190 cumulative IPC: 0.62501 (Simulation time: 0 hr 16 min 13 sec) 
Heartbeat CPU  0 instructions:  440000000 cycles:  594697658 heartbeat IPC: 0.59113 cumulative IPC: 0.62490 (Simulation time: 0 hr 16 min 16 sec) 
Heartbeat CPU  0 instructions:  441000001 cycles:  596393542 heartbeat IPC: 0.58966 cumulative IPC: 0.62479 (Simulation time: 0 hr 16 min 18 sec) 
Heartbeat CPU  0 instructions:  442000001 cycles:  598087737 heartbeat IPC: 0.59025 cumulative IPC: 0.62469 (Simulation time: 0 hr 16 min 21 sec) 
Heartbeat CPU  0 instructions:  443000003 cycles:  599780327 heartbeat IPC: 0.59081 cumulative IPC: 0.62458 (Simulation time: 0 hr 16 min 23 sec) 
Heartbeat CPU  0 instructions:  444000000 cycles:  601472441 heartbeat IPC: 0.59097 cumulative IPC: 0.62448 (Simulation time: 0 hr 16 min 25 sec) 
Heartbeat CPU  0 instructions:  445000001 cycles:  603167318 heartbeat IPC: 0.59001 cumulative IPC: 0.62437 (Simulation time: 0 hr 16 min 28 sec) 
Heartbeat CPU  0 instructions:  446000001 cycles:  604854783 heartbeat IPC: 0.59260 cumulative IPC: 0.62428 (Simulation time: 0 hr 16 min 30 sec) 
Heartbeat CPU  0 instructions:  447000000 cycles:  606544462 heartbeat IPC: 0.59183 cumulative IPC: 0.62418 (Simulation time: 0 hr 16 min 33 sec) 
Heartbeat CPU  0 instructions:  448000000 cycles:  608241103 heartbeat IPC: 0.58940 cumulative IPC: 0.62407 (Simulation time: 0 hr 16 min 35 sec) 
Heartbeat CPU  0 instructions:  449000003 cycles:  609925749 heartbeat IPC: 0.59360 cumulative IPC: 0.62398 (Simulation time: 0 hr 16 min 38 sec) 
Heartbeat CPU  0 instructions:  450000002 cycles:  611625457 heartbeat IPC: 0.58834 cumulative IPC: 0.62387 (Simulation time: 0 hr 16 min 40 sec) 
Heartbeat CPU  0 instructions:  451000000 cycles:  613312958 heartbeat IPC: 0.59259 cumulative IPC: 0.62378 (Simulation time: 0 hr 16 min 42 sec) 
Heartbeat CPU  0 instructions:  452000000 cycles:  615012262 heartbeat IPC: 0.58848 cumulative IPC: 0.62367 (Simulation time: 0 hr 16 min 45 sec) 
Heartbeat CPU  0 instructions:  453000003 cycles:  616695292 heartbeat IPC: 0.59417 cumulative IPC: 0.62359 (Simulation time: 0 hr 16 min 47 sec) 
Heartbeat CPU  0 instructions:  454000000 cycles:  618387417 heartbeat IPC: 0.59097 cumulative IPC: 0.62349 (Simulation time: 0 hr 16 min 50 sec) 
Heartbeat CPU  0 instructions:  455000002 cycles:  620081120 heartbeat IPC: 0.59042 cumulative IPC: 0.62339 (Simulation time: 0 hr 16 min 52 sec) 
Heartbeat CPU  0 instructions:  456000000 cycles:  621773153 heartbeat IPC: 0.59100 cumulative IPC: 0.62329 (Simulation time: 0 hr 16 min 55 sec) 
Heartbeat CPU  0 instructions:  457000000 cycles:  623464303 heartbeat IPC: 0.59131 cumulative IPC: 0.62320 (Simulation time: 0 hr 16 min 57 sec) 
Heartbeat CPU  0 instructions:  458000002 cycles:  625160644 heartbeat IPC: 0.58951 cumulative IPC: 0.62310 (Simulation time: 0 hr 16 min 59 sec) 
Heartbeat CPU  0 instructions:  459000003 cycles:  626855620 heartbeat IPC: 0.58998 cumulative IPC: 0.62300 (Simulation time: 0 hr 17 min 2 sec) 
Heartbeat CPU  0 instructions:  460000000 cycles:  628821509 heartbeat IPC: 0.50867 cumulative IPC: 0.62261 (Simulation time: 0 hr 17 min 4 sec) 
Heartbeat CPU  0 instructions:  461000000 cycles:  631377204 heartbeat IPC: 0.39128 cumulative IPC: 0.62160 (Simulation time: 0 hr 17 min 7 sec) 
Heartbeat CPU  0 instructions:  462000000 cycles:  633936048 heartbeat IPC: 0.39080 cumulative IPC: 0.62058 (Simulation time: 0 hr 17 min 10 sec) 
Heartbeat CPU  0 instructions:  463000001 cycles:  636510359 heartbeat IPC: 0.38845 cumulative IPC: 0.61956 (Simulation time: 0 hr 17 min 12 sec) 
Heartbeat CPU  0 instructions:  464000000 cycles:  639103189 heartbeat IPC: 0.38568 cumulative IPC: 0.61853 (Simulation time: 0 hr 17 min 15 sec) 
Heartbeat CPU  0 instructions:  465000002 cycles:  641701025 heartbeat IPC: 0.38494 cumulative IPC: 0.61751 (Simulation time: 0 hr 17 min 17 sec) 
Heartbeat CPU  0 instructions:  466000000 cycles:  644303094 heartbeat IPC: 0.38431 cumulative IPC: 0.61648 (Simulation time: 0 hr 17 min 20 sec) 
Heartbeat CPU  0 instructions:  467000001 cycles:  646904409 heartbeat IPC: 0.38442 cumulative IPC: 0.61547 (Simulation time: 0 hr 17 min 23 sec) 
Heartbeat CPU  0 instructions:  468000000 cycles:  649497650 heartbeat IPC: 0.38562 cumulative IPC: 0.61448 (Simulation time: 0 hr 17 min 25 sec) 
Heartbeat CPU  0 instructions:  469000003 cycles:  652145110 heartbeat IPC: 0.37772 cumulative IPC: 0.61344 (Simulation time: 0 hr 17 min 28 sec) 
Heartbeat CPU  0 instructions:  470000001 cycles:  654830839 heartbeat IPC: 0.37234 cumulative IPC: 0.61236 (Simulation time: 0 hr 17 min 31 sec) 
Heartbeat CPU  0 instructions:  471000003 cycles:  657483132 heartbeat IPC: 0.37703 cumulative IPC: 0.61133 (Simulation time: 0 hr 17 min 33 sec) 
Heartbeat CPU  0 instructions:  472000000 cycles:  659985787 heartbeat IPC: 0.39957 cumulative IPC: 0.61047 (Simulation time: 0 hr 17 min 36 sec) 
Heartbeat CPU  0 instructions:  473000002 cycles:  662492210 heartbeat IPC: 0.39898 cumulative IPC: 0.60960 (Simulation time: 0 hr 17 min 39 sec) 
Heartbeat CPU  0 instructions:  474000001 cycles:  664991942 heartbeat IPC: 0.40004 cumulative IPC: 0.60875 (Simulation time: 0 hr 17 min 41 sec) 
Heartbeat CPU  0 instructions:  475000002 cycles:  667481931 heartbeat IPC: 0.40161 cumulative IPC: 0.60791 (Simulation time: 0 hr 17 min 44 sec) 
Heartbeat CPU  0 instructions:  476000000 cycles:  669962739 heartbeat IPC: 0.40309 cumulative IPC: 0.60709 (Simulation time: 0 hr 17 min 46 sec) 
Heartbeat CPU  0 instructions:  477000002 cycles:  672440279 heartbeat IPC: 0.40363 cumulative IPC: 0.60628 (Simulation time: 0 hr 17 min 49 sec) 
Heartbeat CPU  0 instructions:  478000000 cycles:  675002807 heartbeat IPC: 0.39024 cumulative IPC: 0.60539 (Simulation time: 0 hr 17 min 52 sec) 
Heartbeat CPU  0 instructions:  479000002 cycles:  677726359 heartbeat IPC: 0.36717 cumulative IPC: 0.60436 (Simulation time: 0 hr 17 min 54 sec) 
Heartbeat CPU  0 instructions:  480000000 cycles:  680343921 heartbeat IPC: 0.38203 cumulative IPC: 0.60343 (Simulation time: 0 hr 17 min 57 sec) 
Heartbeat CPU  0 instructions:  481000003 cycles:  682884663 heartbeat IPC: 0.39359 cumulative IPC: 0.60259 (Simulation time: 0 hr 18 min 0 sec) 
Heartbeat CPU  0 instructions:  482000003 cycles:  685427811 heartbeat IPC: 0.39321 cumulative IPC: 0.60175 (Simulation time: 0 hr 18 min 2 sec) 
Heartbeat CPU  0 instructions:  483000003 cycles:  687967685 heartbeat IPC: 0.39372 cumulative IPC: 0.60092 (Simulation time: 0 hr 18 min 5 sec) 
Heartbeat CPU  0 instructions:  484000000 cycles:  690507802 heartbeat IPC: 0.39368 cumulative IPC: 0.60010 (Simulation time: 0 hr 18 min 7 sec) 
Heartbeat CPU  0 instructions:  485000002 cycles:  693056888 heartbeat IPC: 0.39230 cumulative IPC: 0.59928 (Simulation time: 0 hr 18 min 10 sec) 
Heartbeat CPU  0 instructions:  486000000 cycles:  695578484 heartbeat IPC: 0.39657 cumulative IPC: 0.59848 (Simulation time: 0 hr 18 min 13 sec) 
Heartbeat CPU  0 instructions:  487000000 cycles:  697802883 heartbeat IPC: 0.44956 cumulative IPC: 0.59797 (Simulation time: 0 hr 18 min 16 sec) 
Heartbeat CPU  0 instructions:  488000000 cycles:  700061301 heartbeat IPC: 0.44279 cumulative IPC: 0.59743 (Simulation time: 0 hr 18 min 19 sec) 
Heartbeat CPU  0 instructions:  489000000 cycles:  702333525 heartbeat IPC: 0.44010 cumulative IPC: 0.59688 (Simulation time: 0 hr 18 min 22 sec) 
Heartbeat CPU  0 instructions:  490000003 cycles:  704398434 heartbeat IPC: 0.48428 cumulative IPC: 0.59653 (Simulation time: 0 hr 18 min 24 sec) 
Heartbeat CPU  0 instructions:  491000003 cycles:  706516824 heartbeat IPC: 0.47206 cumulative IPC: 0.59613 (Simulation time: 0 hr 18 min 27 sec) 
Heartbeat CPU  0 instructions:  492000000 cycles:  708537950 heartbeat IPC: 0.49477 cumulative IPC: 0.59581 (Simulation time: 0 hr 18 min 30 sec) 
Heartbeat CPU  0 instructions:  493000001 cycles:  710623696 heartbeat IPC: 0.47945 cumulative IPC: 0.59545 (Simulation time: 0 hr 18 min 33 sec) 
Heartbeat CPU  0 instructions:  494000000 cycles:  712649928 heartbeat IPC: 0.49353 cumulative IPC: 0.59513 (Simulation time: 0 hr 18 min 36 sec) 
Heartbeat CPU  0 instructions:  495000000 cycles:  714722000 heartbeat IPC: 0.48261 cumulative IPC: 0.59478 (Simulation time: 0 hr 18 min 38 sec) 
Heartbeat CPU  0 instructions:  496000000 cycles:  716746676 heartbeat IPC: 0.49391 cumulative IPC: 0.59448 (Simulation time: 0 hr 18 min 41 sec) 
Heartbeat CPU  0 instructions:  497000002 cycles:  718786871 heartbeat IPC: 0.49015 cumulative IPC: 0.59416 (Simulation time: 0 hr 18 min 44 sec) 
Heartbeat CPU  0 instructions:  498000001 cycles:  720849458 heartbeat IPC: 0.48483 cumulative IPC: 0.59382 (Simulation time: 0 hr 18 min 47 sec) 
Heartbeat CPU  0 instructions:  499000000 cycles:  722903677 heartbeat IPC: 0.48680 cumulative IPC: 0.59349 (Simulation time: 0 hr 18 min 49 sec) 
Heartbeat CPU  0 instructions:  500000000 cycles:  724969812 heartbeat IPC: 0.48400 cumulative IPC: 0.59316 (Simulation time: 0 hr 18 min 52 sec) 
Heartbeat CPU  0 instructions:  501000003 cycles:  727015463 heartbeat IPC: 0.48884 cumulative IPC: 0.59284 (Simulation time: 0 hr 18 min 55 sec) 
Heartbeat CPU  0 instructions:  502000000 cycles:  729097268 heartbeat IPC: 0.48035 cumulative IPC: 0.59250 (Simulation time: 0 hr 18 min 58 sec) 
Heartbeat CPU  0 instructions:  503000000 cycles:  731101415 heartbeat IPC: 0.49897 cumulative IPC: 0.59222 (Simulation time: 0 hr 19 min 0 sec) 
Heartbeat CPU  0 instructions:  504000000 cycles:  733197800 heartbeat IPC: 0.47701 cumulative IPC: 0.59187 (Simulation time: 0 hr 19 min 3 sec) 
Heartbeat CPU  0 instructions:  505000000 cycles:  735188354 heartbeat IPC: 0.50237 cumulative IPC: 0.59161 (Simulation time: 0 hr 19 min 6 sec) 
Heartbeat CPU  0 instructions:  506000003 cycles:  737316987 heartbeat IPC: 0.46979 cumulative IPC: 0.59123 (Simulation time: 0 hr 19 min 9 sec) 
Heartbeat CPU  0 instructions:  507000002 cycles:  739305197 heartbeat IPC: 0.50296 cumulative IPC: 0.59098 (Simulation time: 0 hr 19 min 11 sec) 
Heartbeat CPU  0 instructions:  508000000 cycles:  741445279 heartbeat IPC: 0.46727 cumulative IPC: 0.59059 (Simulation time: 0 hr 19 min 14 sec) 
Heartbeat CPU  0 instructions:  509000001 cycles:  743456040 heartbeat IPC: 0.49732 cumulative IPC: 0.59032 (Simulation time: 0 hr 19 min 17 sec) 
Heartbeat CPU  0 instructions:  510000000 cycles:  745593294 heartbeat IPC: 0.46789 cumulative IPC: 0.58995 (Simulation time: 0 hr 19 min 20 sec) 
Heartbeat CPU  0 instructions:  511000001 cycles:  747565770 heartbeat IPC: 0.50698 cumulative IPC: 0.58971 (Simulation time: 0 hr 19 min 23 sec) 
Heartbeat CPU  0 instructions:  512000000 cycles:  749730018 heartbeat IPC: 0.46205 cumulative IPC: 0.58932 (Simulation time: 0 hr 19 min 25 sec) 
Heartbeat CPU  0 instructions:  513000000 cycles:  751764253 heartbeat IPC: 0.49159 cumulative IPC: 0.58903 (Simulation time: 0 hr 19 min 28 sec) 
Heartbeat CPU  0 instructions:  514000000 cycles:  753953081 heartbeat IPC: 0.45687 cumulative IPC: 0.58862 (Simulation time: 0 hr 19 min 31 sec) 
Heartbeat CPU  0 instructions:  515000003 cycles:  755984084 heartbeat IPC: 0.49237 cumulative IPC: 0.58834 (Simulation time: 0 hr 19 min 34 sec) 
Heartbeat CPU  0 instructions:  516000000 cycles:  758124342 heartbeat IPC: 0.46723 cumulative IPC: 0.58798 (Simulation time: 0 hr 19 min 37 sec) 
Heartbeat CPU  0 instructions:  517000001 cycles:  760153422 heartbeat IPC: 0.49283 cumulative IPC: 0.58771 (Simulation time: 0 hr 19 min 39 sec) 
Heartbeat CPU  0 instructions:  518000001 cycles:  762264604 heartbeat IPC: 0.47367 cumulative IPC: 0.58737 (Simulation time: 0 hr 19 min 42 sec) 
Heartbeat CPU  0 instructions:  519000000 cycles:  764342448 heartbeat IPC: 0.48127 cumulative IPC: 0.58706 (Simulation time: 0 hr 19 min 45 sec) 
Heartbeat CPU  0 instructions:  520000000 cycles:  766458246 heartbeat IPC: 0.47263 cumulative IPC: 0.58672 (Simulation time: 0 hr 19 min 48 sec) 
Heartbeat CPU  0 instructions:  521000002 cycles:  768624346 heartbeat IPC: 0.46166 cumulative IPC: 0.58634 (Simulation time: 0 hr 19 min 51 sec) 
Heartbeat CPU  0 instructions:  522000002 cycles:  770819693 heartbeat IPC: 0.45551 cumulative IPC: 0.58594 (Simulation time: 0 hr 19 min 54 sec) 
Heartbeat CPU  0 instructions:  523000001 cycles:  773013431 heartbeat IPC: 0.45584 cumulative IPC: 0.58555 (Simulation time: 0 hr 19 min 57 sec) 
Heartbeat CPU  0 instructions:  524000000 cycles:  775011998 heartbeat IPC: 0.50036 cumulative IPC: 0.58531 (Simulation time: 0 hr 19 min 59 sec) 
Heartbeat CPU  0 instructions:  525000000 cycles:  776730275 heartbeat IPC: 0.58198 cumulative IPC: 0.58531 (Simulation time: 0 hr 20 min 2 sec) 
Heartbeat CPU  0 instructions:  526000001 cycles:  778449543 heartbeat IPC: 0.58164 cumulative IPC: 0.58530 (Simulation time: 0 hr 20 min 4 sec) 
Heartbeat CPU  0 instructions:  527000001 cycles:  780170637 heartbeat IPC: 0.58103 cumulative IPC: 0.58529 (Simulation time: 0 hr 20 min 7 sec) 
Heartbeat CPU  0 instructions:  528000000 cycles:  781888000 heartbeat IPC: 0.58229 cumulative IPC: 0.58528 (Simulation time: 0 hr 20 min 9 sec) 
Heartbeat CPU  0 instructions:  529000003 cycles:  783568483 heartbeat IPC: 0.59507 cumulative IPC: 0.58530 (Simulation time: 0 hr 20 min 12 sec) 
Heartbeat CPU  0 instructions:  530000002 cycles:  785144581 heartbeat IPC: 0.63448 cumulative IPC: 0.58541 (Simulation time: 0 hr 20 min 14 sec) 
Heartbeat CPU  0 instructions:  531000001 cycles:  786674784 heartbeat IPC: 0.65351 cumulative IPC: 0.58555 (Simulation time: 0 hr 20 min 16 sec) 
Heartbeat CPU  0 instructions:  532000000 cycles:  788228967 heartbeat IPC: 0.64342 cumulative IPC: 0.58567 (Simulation time: 0 hr 20 min 19 sec) 
Heartbeat CPU  0 instructions:  533000003 cycles:  789771957 heartbeat IPC: 0.64809 cumulative IPC: 0.58580 (Simulation time: 0 hr 20 min 21 sec) 
Heartbeat CPU  0 instructions:  534000001 cycles:  791328851 heartbeat IPC: 0.64230 cumulative IPC: 0.58592 (Simulation time: 0 hr 20 min 23 sec) 
Heartbeat CPU  0 instructions:  535000000 cycles:  792897407 heartbeat IPC: 0.63753 cumulative IPC: 0.58603 (Simulation time: 0 hr 20 min 25 sec) 
Heartbeat CPU  0 instructions:  536000000 cycles:  794429207 heartbeat IPC: 0.65283 cumulative IPC: 0.58617 (Simulation time: 0 hr 20 min 28 sec) 
Heartbeat CPU  0 instructions:  537000003 cycles:  795878942 heartbeat IPC: 0.68978 cumulative IPC: 0.58637 (Simulation time: 0 hr 20 min 30 sec) 
Heartbeat CPU  0 instructions:  538000003 cycles:  797249529 heartbeat IPC: 0.72961 cumulative IPC: 0.58663 (Simulation time: 0 hr 20 min 32 sec) 
Heartbeat CPU  0 instructions:  539000001 cycles:  798560713 heartbeat IPC: 0.76267 cumulative IPC: 0.58694 (Simulation time: 0 hr 20 min 34 sec) 
Heartbeat CPU  0 instructions:  540000000 cycles:  799970452 heartbeat IPC: 0.70935 cumulative IPC: 0.58717 (Simulation time: 0 hr 20 min 37 sec) 
Heartbeat CPU  0 instructions:  541000003 cycles:  801387398 heartbeat IPC: 0.70575 cumulative IPC: 0.58739 (Simulation time: 0 hr 20 min 39 sec) 
Heartbeat CPU  0 instructions:  542000000 cycles:  802775600 heartbeat IPC: 0.72035 cumulative IPC: 0.58764 (Simulation time: 0 hr 20 min 41 sec) 
Heartbeat CPU  0 instructions:  543000000 cycles:  804162319 heartbeat IPC: 0.72113 cumulative IPC: 0.58789 (Simulation time: 0 hr 20 min 44 sec) 
Heartbeat CPU  0 instructions:  544000000 cycles:  805596146 heartbeat IPC: 0.69743 cumulative IPC: 0.58809 (Simulation time: 0 hr 20 min 46 sec) 
Heartbeat CPU  0 instructions:  545000003 cycles:  807229593 heartbeat IPC: 0.61220 cumulative IPC: 0.58815 (Simulation time: 0 hr 20 min 48 sec) 
Heartbeat CPU  0 instructions:  546000002 cycles:  808807501 heartbeat IPC: 0.63375 cumulative IPC: 0.58824 (Simulation time: 0 hr 20 min 50 sec) 
Heartbeat CPU  0 instructions:  547000002 cycles:  810327853 heartbeat IPC: 0.65774 cumulative IPC: 0.58838 (Simulation time: 0 hr 20 min 53 sec) 
Heartbeat CPU  0 instructions:  548000000 cycles:  811760290 heartbeat IPC: 0.69811 cumulative IPC: 0.58859 (Simulation time: 0 hr 20 min 55 sec) 
Heartbeat CPU  0 instructions:  549000003 cycles:  813195068 heartbeat IPC: 0.69697 cumulative IPC: 0.58879 (Simulation time: 0 hr 20 min 57 sec) 
Heartbeat CPU  0 instructions:  550000000 cycles:  814626152 heartbeat IPC: 0.69877 cumulative IPC: 0.58900 (Simulation time: 0 hr 21 min 0 sec) 
Heartbeat CPU  0 instructions:  551000000 cycles:  816052004 heartbeat IPC: 0.70134 cumulative IPC: 0.58921 (Simulation time: 0 hr 21 min 3 sec) 
Heartbeat CPU  0 instructions:  552000000 cycles:  817435608 heartbeat IPC: 0.72275 cumulative IPC: 0.58945 (Simulation time: 0 hr 21 min 5 sec) 
Heartbeat CPU  0 instructions:  553000000 cycles:  818869362 heartbeat IPC: 0.69747 cumulative IPC: 0.58965 (Simulation time: 0 hr 21 min 7 sec) 
Heartbeat CPU  0 instructions:  554000000 cycles:  820331282 heartbeat IPC: 0.68403 cumulative IPC: 0.58983 (Simulation time: 0 hr 21 min 9 sec) 
Heartbeat CPU  0 instructions:  555000001 cycles:  822037573 heartbeat IPC: 0.58607 cumulative IPC: 0.58982 (Simulation time: 0 hr 21 min 12 sec) 
Heartbeat CPU  0 instructions:  556000000 cycles:  823656797 heartbeat IPC: 0.61758 cumulative IPC: 0.58988 (Simulation time: 0 hr 21 min 14 sec) 
Heartbeat CPU  0 instructions:  557000000 cycles:  825214502 heartbeat IPC: 0.64197 cumulative IPC: 0.58998 (Simulation time: 0 hr 21 min 16 sec) 
Heartbeat CPU  0 instructions:  558000000 cycles:  826725591 heartbeat IPC: 0.66177 cumulative IPC: 0.59012 (Simulation time: 0 hr 21 min 19 sec) 
Heartbeat CPU  0 instructions:  559000000 cycles:  828209179 heartbeat IPC: 0.67404 cumulative IPC: 0.59028 (Simulation time: 0 hr 21 min 21 sec) 
Heartbeat CPU  0 instructions:  560000000 cycles:  829698967 heartbeat IPC: 0.67124 cumulative IPC: 0.59044 (Simulation time: 0 hr 21 min 23 sec) 
Heartbeat CPU  0 instructions:  561000001 cycles:  831142405 heartbeat IPC: 0.69279 cumulative IPC: 0.59063 (Simulation time: 0 hr 21 min 26 sec) 
Heartbeat CPU  0 instructions:  562000003 cycles:  832565577 heartbeat IPC: 0.70266 cumulative IPC: 0.59083 (Simulation time: 0 hr 21 min 28 sec) 
Heartbeat CPU  0 instructions:  563000000 cycles:  833975364 heartbeat IPC: 0.70932 cumulative IPC: 0.59104 (Simulation time: 0 hr 21 min 30 sec) 
Heartbeat CPU  0 instructions:  564000000 cycles:  835353910 heartbeat IPC: 0.72540 cumulative IPC: 0.59128 (Simulation time: 0 hr 21 min 32 sec) 
Heartbeat CPU  0 instructions:  565000003 cycles:  837033774 heartbeat IPC: 0.59529 cumulative IPC: 0.59129 (Simulation time: 0 hr 21 min 35 sec) 
Heartbeat CPU  0 instructions:  566000003 cycles:  838733822 heartbeat IPC: 0.58822 cumulative IPC: 0.59128 (Simulation time: 0 hr 21 min 37 sec) 
Heartbeat CPU  0 instructions:  567000001 cycles:  840323564 heartbeat IPC: 0.62903 cumulative IPC: 0.59136 (Simulation time: 0 hr 21 min 40 sec) 
Heartbeat CPU  0 instructions:  568000000 cycles:  841863259 heartbeat IPC: 0.64948 cumulative IPC: 0.59147 (Simulation time: 0 hr 21 min 42 sec) 
Heartbeat CPU  0 instructions:  569000002 cycles:  843385660 heartbeat IPC: 0.65686 cumulative IPC: 0.59160 (Simulation time: 0 hr 21 min 44 sec) 
Heartbeat CPU  0 instructions:  570000001 cycles:  844912696 heartbeat IPC: 0.65486 cumulative IPC: 0.59172 (Simulation time: 0 hr 21 min 47 sec) 
Heartbeat CPU  0 instructions:  571000002 cycles:  846427329 heartbeat IPC: 0.66023 cumulative IPC: 0.59185 (Simulation time: 0 hr 21 min 49 sec) 
Heartbeat CPU  0 instructions:  572000000 cycles:  847848847 heartbeat IPC: 0.70347 cumulative IPC: 0.59205 (Simulation time: 0 hr 21 min 51 sec) 
Heartbeat CPU  0 instructions:  573000001 cycles:  849250687 heartbeat IPC: 0.71335 cumulative IPC: 0.59226 (Simulation time: 0 hr 21 min 53 sec) 
Heartbeat CPU  0 instructions:  574000003 cycles:  850648259 heartbeat IPC: 0.71553 cumulative IPC: 0.59247 (Simulation time: 0 hr 21 min 56 sec) 
Heartbeat CPU  0 instructions:  575000000 cycles:  852151149 heartbeat IPC: 0.66538 cumulative IPC: 0.59261 (Simulation time: 0 hr 21 min 58 sec) 
Heartbeat CPU  0 instructions:  576000000 cycles:  853908468 heartbeat IPC: 0.56905 cumulative IPC: 0.59256 (Simulation time: 0 hr 22 min 0 sec) 
Heartbeat CPU  0 instructions:  577000000 cycles:  855504086 heartbeat IPC: 0.62672 cumulative IPC: 0.59263 (Simulation time: 0 hr 22 min 3 sec) 
Heartbeat CPU  0 instructions:  578000002 cycles:  857091180 heartbeat IPC: 0.63008 cumulative IPC: 0.59270 (Simulation time: 0 hr 22 min 5 sec) 
Heartbeat CPU  0 instructions:  579000001 cycles:  858672665 heartbeat IPC: 0.63232 cumulative IPC: 0.59278 (Simulation time: 0 hr 22 min 7 sec) 
Heartbeat CPU  0 instructions:  580000000 cycles:  860240752 heartbeat IPC: 0.63772 cumulative IPC: 0.59287 (Simulation time: 0 hr 22 min 10 sec) 
Heartbeat CPU  0 instructions:  581000002 cycles:  861818617 heartbeat IPC: 0.63377 cumulative IPC: 0.59295 (Simulation time: 0 hr 22 min 12 sec) 
Heartbeat CPU  0 instructions:  582000000 cycles:  863252400 heartbeat IPC: 0.69745 cumulative IPC: 0.59313 (Simulation time: 0 hr 22 min 14 sec) 
Heartbeat CPU  0 instructions:  583000003 cycles:  864673015 heartbeat IPC: 0.70392 cumulative IPC: 0.59332 (Simulation time: 0 hr 22 min 17 sec) 
Heartbeat CPU  0 instructions:  584000000 cycles:  866090578 heartbeat IPC: 0.70543 cumulative IPC: 0.59352 (Simulation time: 0 hr 22 min 19 sec) 
Heartbeat CPU  0 instructions:  585000002 cycles:  867489631 heartbeat IPC: 0.71477 cumulative IPC: 0.59373 (Simulation time: 0 hr 22 min 21 sec) 
Heartbeat CPU  0 instructions:  586000003 cycles:  869200731 heartbeat IPC: 0.58442 cumulative IPC: 0.59371 (Simulation time: 0 hr 22 min 23 sec) 
Heartbeat CPU  0 instructions:  587000001 cycles:  870895581 heartbeat IPC: 0.59002 cumulative IPC: 0.59370 (Simulation time: 0 hr 22 min 26 sec) 
Heartbeat CPU  0 instructions:  588000000 cycles:  872482356 heartbeat IPC: 0.63021 cumulative IPC: 0.59377 (Simulation time: 0 hr 22 min 28 sec) 
Heartbeat CPU  0 instructions:  589000002 cycles:  874064569 heartbeat IPC: 0.63203 cumulative IPC: 0.59384 (Simulation time: 0 hr 22 min 31 sec) 
Heartbeat CPU  0 instructions:  590000001 cycles:  875647929 heartbeat IPC: 0.63157 cumulative IPC: 0.59392 (Simulation time: 0 hr 22 min 33 sec) 
Heartbeat CPU  0 instructions:  591000002 cycles:  877216591 heartbeat IPC: 0.63749 cumulative IPC: 0.59400 (Simulation time: 0 hr 22 min 35 sec) 
Heartbeat CPU  0 instructions:  592000000 cycles:  878755930 heartbeat IPC: 0.64963 cumulative IPC: 0.59410 (Simulation time: 0 hr 22 min 38 sec) 
Heartbeat CPU  0 instructions:  593000003 cycles:  880182990 heartbeat IPC: 0.70074 cumulative IPC: 0.59428 (Simulation time: 0 hr 22 min 40 sec) 
Heartbeat CPU  0 instructions:  594000000 cycles:  881573719 heartbeat IPC: 0.71905 cumulative IPC: 0.59449 (Simulation time: 0 hr 22 min 42 sec) 
Heartbeat CPU  0 instructions:  595000003 cycles:  882957792 heartbeat IPC: 0.72251 cumulative IPC: 0.59471 (Simulation time: 0 hr 22 min 45 sec) 
Heartbeat CPU  0 instructions:  596000000 cycles:  884506282 heartbeat IPC: 0.64579 cumulative IPC: 0.59480 (Simulation time: 0 hr 22 min 47 sec) 
Heartbeat CPU  0 instructions:  597000001 cycles:  886212328 heartbeat IPC: 0.58615 cumulative IPC: 0.59478 (Simulation time: 0 hr 22 min 49 sec) 
Heartbeat CPU  0 instructions:  598000002 cycles:  887819244 heartbeat IPC: 0.62231 cumulative IPC: 0.59484 (Simulation time: 0 hr 22 min 51 sec) 
Heartbeat CPU  0 instructions:  599000000 cycles:  889386863 heartbeat IPC: 0.63791 cumulative IPC: 0.59492 (Simulation time: 0 hr 22 min 54 sec) 
Heartbeat CPU  0 instructions:  600000000 cycles:  890958825 heartbeat IPC: 0.63615 cumulative IPC: 0.59499 (Simulation time: 0 hr 22 min 56 sec) 
Finished CPU 0 instructions: 500000001 cycles: 840344324 cumulative IPC: 0.59499 (Simulation time: 0 hr 22 min 56 sec) 

ChampSim completed all CPUs

[ROI Statistics]
Core_0_instructions 500000001
Core_0_cycles 840344324
Core_0_IPC 0.59499

Core_0_branch_prediction_accuracy 99.14585
Core_0_branch_MPKI 0.18961
Core_0_average_ROB_occupancy_at_mispredict 244.16124

Core_0_L1D_total_access 145508036
Core_0_L1D_total_hit 140656930
Core_0_L1D_total_miss 4851106
Core_0_L1D_loads 133965943
Core_0_L1D_load_hit 130505709
Core_0_L1D_load_miss 3460234
Core_0_L1D_RFOs 11542093
Core_0_L1D_RFO_hit 10151221
Core_0_L1D_RFO_miss 1390872
Core_0_L1D_prefetches 0
Core_0_L1D_prefetch_hit 0
Core_0_L1D_prefetch_miss 0
Core_0_L1D_writebacks 0
Core_0_L1D_writeback_hit 0
Core_0_L1D_writeback_miss 0
Core_0_L1D_prefetch_requested 0
Core_0_L1D_prefetch_dropped 0
Core_0_L1D_prefetch_issued 0
Core_0_L1D_prefetch_filled 0
Core_0_L1D_prefetch_useful 0
Core_0_L1D_prefetch_useless 0
Core_0_L1D_prefetch_late 0
Core_0_L1D_average_miss_latency 205.85856

Core_0_L1D_rq_access 196244287
Core_0_L1D_rq_forward 0
Core_0_L1D_rq_merged 60032189
Core_0_L1D_rq_to_cache 136212098
Core_0_L1D_rq_full 0

Core_0_L1D_wq_access 15647860
Core_0_L1D_wq_forward 0
Core_0_L1D_wq_merged 1
Core_0_L1D_wq_to_cache 15647859
Core_0_L1D_wq_full 1531964

Core_0_L1D_pq_access 0
Core_0_L1D_pq_forward 0
Core_0_L1D_pq_merged 0
Core_0_L1D_pq_to_cache 0
Core_0_L1D_pq_full 0

Core_0_L1D_acc_epochs 864402
Core_0_L1D_acc_level_0 864402
Core_0_L1D_acc_level_1 0
Core_0_L1D_acc_level_2 0
Core_0_L1D_acc_level_3 0
Core_0_L1D_acc_level_4 0
Core_0_L1D_acc_level_5 0
Core_0_L1D_acc_level_6 0
Core_0_L1D_acc_level_7 0
Core_0_L1D_acc_level_8 0
Core_0_L1D_acc_level_9 0

Core_0_L1I_total_access 116646111
Core_0_L1I_total_hit 116645735
Core_0_L1I_total_miss 376
Core_0_L1I_loads 116646111
Core_0_L1I_load_hit 116645735
Core_0_L1I_load_miss 376
Core_0_L1I_RFOs 0
Core_0_L1I_RFO_hit 0
Core_0_L1I_RFO_miss 0
Core_0_L1I_prefetches 0
Core_0_L1I_prefetch_hit 0
Core_0_L1I_prefetch_miss 0
Core_0_L1I_writebacks 0
Core_0_L1I_writeback_hit 0
Core_0_L1I_writeback_miss 0
Core_0_L1I_prefetch_requested 0
Core_0_L1I_prefetch_dropped 0
Core_0_L1I_prefetch_issued 0
Core_0_L1I_prefetch_filled 0
Core_0_L1I_prefetch_useful 0
Core_0_L1I_prefetch_useless 0
Core_0_L1I_prefetch_late 0
Core_0_L1I_average_miss_latency 510.53989

Core_0_L1I_rq_access 500000000
Core_0_L1I_rq_forward 0
Core_0_L1I_rq_merged 383352821
Core_0_L1I_rq_to_cache 116647179
Core_0_L1I_rq_full 0

Core_0_L1I_wq_access 0
Core_0_L1I_wq_forward 0
Core_0_L1I_wq_merged 0
Core_0_L1I_wq_to_cache 0
Core_0_L1I_wq_full 0

Core_0_L1I_pq_access 0
Core_0_L1I_pq_forward 0
Core_0_L1I_pq_merged 0
Core_0_L1I_pq_to_cache 0
Core_0_L1I_pq_full 0

Core_0_L1I_acc_epochs 864402
Core_0_L1I_acc_level_0 864402
Core_0_L1I_acc_level_1 0
Core_0_L1I_acc_level_2 0
Core_0_L1I_acc_level_3 0
Core_0_L1I_acc_level_4 0
Core_0_L1I_acc_level_5 0
Core_0_L1I_acc_level_6 0
Core_0_L1I_acc_level_7 0
Core_0_L1I_acc_level_8 0
Core_0_L1I_acc_level_9 0

Core_0_L2C_total_access 6510133
Core_0_L2C_total_hit 2858602
Core_0_L2C_total_miss 3651531
Core_0_L2C_loads 3460585
Core_0_L2C_load_hit 838885
Core_0_L2C_load_miss 2621700
Core_0_L2C_RFOs 1390856
Core_0_L2C_RFO_hit 361098
Core_0_L2C_RFO_miss 1029758
Core_0_L2C_prefetches 0
Core_0_L2C_prefetch_hit 0
Core_0_L2C_prefetch_miss 0
Core_0_L2C_writebacks 1658692
Core_0_L2C_writeback_hit 1658619
Core_0_L2C_writeback_miss 73
Core_0_L2C_prefetch_requested 0
Core_0_L2C_prefetch_dropped 0
Core_0_L2C_prefetch_issued 0
Core_0_L2C_prefetch_filled 0
Core_0_L2C_prefetch_useful 0
Core_0_L2C_prefetch_useless 0
Core_0_L2C_prefetch_late 0
Core_0_L2C_average_miss_latency 254.52683

Core_0_L2C_rq_access 4851482
Core_0_L2C_rq_forward 0
Core_0_L2C_rq_merged 0
Core_0_L2C_rq_to_cache 4851441
Core_0_L2C_rq_full 0

Core_0_L2C_wq_access 1658692
Core_0_L2C_wq_forward 41
Core_0_L2C_wq_merged 0
Core_0_L2C_wq_to_cache 1658692
Core_0_L2C_wq_full 0

Core_0_L2C_pq_access 0
Core_0_L2C_pq_forward 0
Core_0_L2C_pq_merged 0
Core_0_L2C_pq_to_cache 0
Core_0_L2C_pq_full 0

Core_0_L2C_acc_epochs 864402
Core_0_L2C_acc_level_0 864402
Core_0_L2C_acc_level_1 0
Core_0_L2C_acc_level_2 0
Core_0_L2C_acc_level_3 0
Core_0_L2C_acc_level_4 0
Core_0_L2C_acc_level_5 0
Core_0_L2C_acc_level_6 0
Core_0_L2C_acc_level_7 0
Core_0_L2C_acc_level_8 0
Core_0_L2C_acc_level_9 0

Core_0_LLC_total_access 4760237
Core_0_LLC_total_hit 500496
Core_0_LLC_total_miss 4259741
Core_0_LLC_loads 2621700
Core_0_LLC_load_hit 111318
Core_0_LLC_load_miss 2510382
Core_0_LLC_RFOs 1029758
Core_0_LLC_RFO_hit 67507
Core_0_LLC_RFO_miss 962251
Core_0_LLC_prefetches 0
Core_0_LLC_prefetch_hit 0
Core_0_LLC_prefetch_miss 0
Core_0_LLC_writebacks 1108779
Core_0_LLC_writeback_hit 321671
Core_0_LLC_writeback_miss 787108
Core_0_LLC_prefetch_requested 0
Core_0_LLC_prefetch_dropped 0
Core_0_LLC_prefetch_issued 0
Core_0_LLC_prefetch_filled 0
Core_0_LLC_prefetch_useful 0
Core_0_LLC_prefetch_useless 0
Core_0_LLC_prefetch_late 0
Core_0_LLC_average_miss_latency 192.24207

Core_0_LLC_rq_access 3651458
Core_0_LLC_rq_forward 0
Core_0_LLC_rq_merged 0
Core_0_LLC_rq_to_cache 3651458
Core_0_LLC_rq_full 0

Core_0_LLC_wq_access 1108779
Core_0_LLC_wq_forward 0
Core_0_LLC_wq_merged 0
Core_0_LLC_wq_to_cache 1108779
Core_0_LLC_wq_full 0

Core_0_LLC_pq_access 0
Core_0_LLC_pq_forward 0
Core_0_LLC_pq_merged 0
Core_0_LLC_pq_to_cache 0
Core_0_LLC_pq_full 0

Core_0_LLC_acc_epochs 870077
Core_0_LLC_acc_level_0 870077
Core_0_LLC_acc_level_1 0
Core_0_LLC_acc_level_2 0
Core_0_LLC_acc_level_3 0
Core_0_LLC_acc_level_4 0
Core_0_LLC_acc_level_5 0
Core_0_LLC_acc_level_6 0
Core_0_LLC_acc_level_7 0
Core_0_LLC_acc_level_8 0
Core_0_LLC_acc_level_9 0

Core_0_major_page_fault 0
Core_0_minor_page_fault 19121

Channel_0_RQ_row_buffer_hit 749979
Channel_0_RQ_row_buffer_miss 2722627
Channel_0_WQ_row_buffer_hit 487489
Channel_0_WQ_row_buffer_miss 561637
Channel_0_WQ_full 0
Channel_0_dbus_congested 1513306

avg_congested_cycle 32

DRAM_bw_pochs 3480308
DRAM_bw_level_0 1801655
DRAM_bw_level_1 1079695
DRAM_bw_level_2 351027
DRAM_bw_level_3 247931
