*************************************************
   ChampSim Multicore Out-of-Order Simulator
   Last compiled: Dec 11 2024 17:59:53
*************************************************
parsing config file: /home/functionmain/桌面/Pythia/config/bingo.ini

trace_0 /home/functionmain/桌面/Pythia/traces/437.leslie3d-232B.champsimtrace.xz
adding L2C_PREFETCHER: Bingo
Initialize SHIP state
warmup_instructions 100000000
simulation_instructions 500000000
champsim_seed 217
measure_ipc 0
measure_ipc_epoch 1000
measure_dram_bw 1
measure_dram_bw_epoch 256
measure_cache_acc 1
measure_cache_acc_epoch 1024
l1d_perfect 0
l2c_perfect 0
llc_perfect 0
l1d_semi_perfect 0
l2c_semi_perfect 0
llc_semi_perfect 0
semi_perfect_cache_page_buffer_size 64

num_cpus 1
cpu_freq 4000
dram_io_freq 9600
page_size 4096
block_size 64
max_read_per_cycle 8
max_fill_per_cycle 1
dram_channels 1
log2_dram_channels 0
dram_ranks 1
dram_banks 8
dram_rows 65536
dram_columns 128
dram_row_size 8
dram_size 4096
dram_pages 1048576

fetch_width 6
decode_width 6
exec_width 4
lq_width 2
sq_width 2
retire_width 4
scheduler_size 128
branch_mispredict_penalty 20
rob_size 256
lq_size 72
sq_size 56
num_instr_destinations_sparc 4
num_instr_destinations 2
num_instr_sources 4

itlb_set 16
itlb_way 8
itlb_rq_size 16
itlb_wq_size 16
itlb_pq_size 0
itlb_mshr_size 8
itlb_latency 1

dtlb_set 16
dtlb_way 4
dtlb_rq_size 16
dtlb_wq_size 16
dtlb_pq_size 0
dtlb_mshr_size 8
dtlb_latency 1

stlb_set 128
stlb_way 12
stlb_rq_size 32
stlb_wq_size 32
stlb_pq_size 0
stlb_mshr_size 16
stlb_latency 8

l1i_size 32
l1i_set 64
l1i_way 8
l1i_rq_size 64
l1i_wq_size 64
l1i_pq_size 8
l1i_mshr_size 8
l1i_latency 1

l1d_size 32
l1d_set 64
l1d_way 8
l1d_rq_size 64
l1d_wq_size 64
l1d_pq_size 8
l1d_mshr_size 16
l1d_latency 4

l2c_size 256
l2c_set 512
l2c_way 8
l2c_rq_size 32
l2c_wq_size 32
l2c_pq_size 32
l2c_mshr_size 32
l2c_latency 10

llc_size 2048
llc_set 2048
llc_way 16
llc_rq_size 32
llc_wq_size 32
llc_pq_size 32
llc_mshr_size 64
llc_latency 20

dram_channel_width 8
dram_wq_size 64
dram_rq_size 64
tRP 15
tRCD 15
tCAS 12.5
dram_dbus_turn_around_time 30
dram_write_high_wm 56
dram_write_low_wm 48
min_dram_writes_per_switch 16
dram_mtps 9600
dram_dbus_return_time 3

bingo_region_size 2048
bingo_pattern_len 32
bingo_pc_width 16
bingo_min_addr_width 5
bingo_max_addr_width 16
bingo_ft_size 64
bingo_at_size 128
bingo_pht_size 4096
bingo_pht_ways 16
bingo_pf_streamer_size 128
bingo_debug_level 0
bingo_l1d_thresh 1.01
bingo_l2c_thresh 0.8
bingo_llc_thresh 0.05
bingo_pc_address_fill_level L2


Heartbeat CPU  0 instructions:    1000000 cycles:     488191 heartbeat IPC: 2.04838 cumulative IPC: 2.04838 (Simulation time: 0 hr 0 min 2 sec) 
Heartbeat CPU  0 instructions:    2000001 cycles:     995363 heartbeat IPC: 1.97172 cumulative IPC: 2.00932 (Simulation time: 0 hr 0 min 4 sec) 
Heartbeat CPU  0 instructions:    3000003 cycles:    1554436 heartbeat IPC: 1.78868 cumulative IPC: 1.92996 (Simulation time: 0 hr 0 min 5 sec) 
Heartbeat CPU  0 instructions:    4000000 cycles:    2079224 heartbeat IPC: 1.90553 cumulative IPC: 1.92379 (Simulation time: 0 hr 0 min 7 sec) 
Heartbeat CPU  0 instructions:    5000002 cycles:    2567398 heartbeat IPC: 2.04845 cumulative IPC: 1.94750 (Simulation time: 0 hr 0 min 9 sec) 
Heartbeat CPU  0 instructions:    6000003 cycles:    3054998 heartbeat IPC: 2.05086 cumulative IPC: 1.96400 (Simulation time: 0 hr 0 min 11 sec) 
Heartbeat CPU  0 instructions:    7000001 cycles:    3542987 heartbeat IPC: 2.04922 cumulative IPC: 1.97573 (Simulation time: 0 hr 0 min 12 sec) 
Heartbeat CPU  0 instructions:    8000000 cycles:    4031145 heartbeat IPC: 2.04852 cumulative IPC: 1.98455 (Simulation time: 0 hr 0 min 14 sec) 
Heartbeat CPU  0 instructions:    9000000 cycles:    4519734 heartbeat IPC: 2.04671 cumulative IPC: 1.99127 (Simulation time: 0 hr 0 min 16 sec) 
Heartbeat CPU  0 instructions:   10000003 cycles:    5008426 heartbeat IPC: 2.04628 cumulative IPC: 1.99664 (Simulation time: 0 hr 0 min 18 sec) 
Heartbeat CPU  0 instructions:   11000000 cycles:    5497200 heartbeat IPC: 2.04593 cumulative IPC: 2.00102 (Simulation time: 0 hr 0 min 19 sec) 
Heartbeat CPU  0 instructions:   12000000 cycles:    5985647 heartbeat IPC: 2.04731 cumulative IPC: 2.00480 (Simulation time: 0 hr 0 min 21 sec) 
Heartbeat CPU  0 instructions:   13000001 cycles:    6532540 heartbeat IPC: 1.82851 cumulative IPC: 1.99004 (Simulation time: 0 hr 0 min 23 sec) 
Heartbeat CPU  0 instructions:   14000001 cycles:    7088294 heartbeat IPC: 1.79936 cumulative IPC: 1.97509 (Simulation time: 0 hr 0 min 25 sec) 
Heartbeat CPU  0 instructions:   15000000 cycles:    7576438 heartbeat IPC: 2.04857 cumulative IPC: 1.97982 (Simulation time: 0 hr 0 min 26 sec) 
Heartbeat CPU  0 instructions:   16000000 cycles:    8064722 heartbeat IPC: 2.04799 cumulative IPC: 1.98395 (Simulation time: 0 hr 0 min 28 sec) 
Heartbeat CPU  0 instructions:   17000003 cycles:    8552959 heartbeat IPC: 2.04819 cumulative IPC: 1.98762 (Simulation time: 0 hr 0 min 30 sec) 
Heartbeat CPU  0 instructions:   18000003 cycles:    9041223 heartbeat IPC: 2.04807 cumulative IPC: 1.99088 (Simulation time: 0 hr 0 min 32 sec) 
Heartbeat CPU  0 instructions:   19000001 cycles:    9529632 heartbeat IPC: 2.04746 cumulative IPC: 1.99378 (Simulation time: 0 hr 0 min 34 sec) 
Heartbeat CPU  0 instructions:   20000000 cycles:   10018499 heartbeat IPC: 2.04554 cumulative IPC: 1.99631 (Simulation time: 0 hr 0 min 35 sec) 
Heartbeat CPU  0 instructions:   21000000 cycles:   10507427 heartbeat IPC: 2.04529 cumulative IPC: 1.99859 (Simulation time: 0 hr 0 min 37 sec) 
Heartbeat CPU  0 instructions:   22000002 cycles:   10995720 heartbeat IPC: 2.04795 cumulative IPC: 2.00078 (Simulation time: 0 hr 0 min 39 sec) 
Heartbeat CPU  0 instructions:   23000002 cycles:   11510986 heartbeat IPC: 1.94075 cumulative IPC: 1.99809 (Simulation time: 0 hr 0 min 41 sec) 
Heartbeat CPU  0 instructions:   24000000 cycles:   12070214 heartbeat IPC: 1.78818 cumulative IPC: 1.98837 (Simulation time: 0 hr 0 min 42 sec) 
Heartbeat CPU  0 instructions:   25000001 cycles:   12585927 heartbeat IPC: 1.93906 cumulative IPC: 1.98635 (Simulation time: 0 hr 0 min 44 sec) 
Heartbeat CPU  0 instructions:   26000001 cycles:   13074549 heartbeat IPC: 2.04657 cumulative IPC: 1.98860 (Simulation time: 0 hr 0 min 46 sec) 
Heartbeat CPU  0 instructions:   27000000 cycles:   13563057 heartbeat IPC: 2.04705 cumulative IPC: 1.99070 (Simulation time: 0 hr 0 min 48 sec) 
Heartbeat CPU  0 instructions:   28000000 cycles:   14051921 heartbeat IPC: 2.04556 cumulative IPC: 1.99261 (Simulation time: 0 hr 0 min 49 sec) 
Heartbeat CPU  0 instructions:   29000002 cycles:   14540510 heartbeat IPC: 2.04671 cumulative IPC: 1.99443 (Simulation time: 0 hr 0 min 51 sec) 
Heartbeat CPU  0 instructions:   30000001 cycles:   15029278 heartbeat IPC: 2.04596 cumulative IPC: 1.99610 (Simulation time: 0 hr 0 min 53 sec) 
Heartbeat CPU  0 instructions:   31000001 cycles:   15517291 heartbeat IPC: 2.04913 cumulative IPC: 1.99777 (Simulation time: 0 hr 0 min 55 sec) 
Heartbeat CPU  0 instructions:   32000000 cycles:   16005362 heartbeat IPC: 2.04888 cumulative IPC: 1.99933 (Simulation time: 0 hr 0 min 56 sec) 
Heartbeat CPU  0 instructions:   33000002 cycles:   16493652 heartbeat IPC: 2.04797 cumulative IPC: 2.00077 (Simulation time: 0 hr 0 min 58 sec) 
Heartbeat CPU  0 instructions:   34000001 cycles:   17048906 heartbeat IPC: 1.80098 cumulative IPC: 1.99426 (Simulation time: 0 hr 1 min 0 sec) 
Heartbeat CPU  0 instructions:   35000001 cycles:   17595817 heartbeat IPC: 1.82845 cumulative IPC: 1.98911 (Simulation time: 0 hr 1 min 2 sec) 
Heartbeat CPU  0 instructions:   36000000 cycles:   18084212 heartbeat IPC: 2.04752 cumulative IPC: 1.99069 (Simulation time: 0 hr 1 min 3 sec) 
Heartbeat CPU  0 instructions:   37000003 cycles:   18573306 heartbeat IPC: 2.04460 cumulative IPC: 1.99211 (Simulation time: 0 hr 1 min 5 sec) 
Heartbeat CPU  0 instructions:   38000001 cycles:   19061971 heartbeat IPC: 2.04639 cumulative IPC: 1.99350 (Simulation time: 0 hr 1 min 7 sec) 
Heartbeat CPU  0 instructions:   39000002 cycles:   19550538 heartbeat IPC: 2.04680 cumulative IPC: 1.99483 (Simulation time: 0 hr 1 min 9 sec) 
Heartbeat CPU  0 instructions:   40000000 cycles:   20038404 heartbeat IPC: 2.04974 cumulative IPC: 1.99617 (Simulation time: 0 hr 1 min 10 sec) 
Heartbeat CPU  0 instructions:   41000001 cycles:   20526222 heartbeat IPC: 2.04995 cumulative IPC: 1.99745 (Simulation time: 0 hr 1 min 12 sec) 
Heartbeat CPU  0 instructions:   42000001 cycles:   21014270 heartbeat IPC: 2.04898 cumulative IPC: 1.99864 (Simulation time: 0 hr 1 min 14 sec) 
Heartbeat CPU  0 instructions:   43000001 cycles:   21502788 heartbeat IPC: 2.04701 cumulative IPC: 1.99974 (Simulation time: 0 hr 1 min 16 sec) 
Heartbeat CPU  0 instructions:   44000000 cycles:   22026960 heartbeat IPC: 1.90777 cumulative IPC: 1.99755 (Simulation time: 0 hr 1 min 17 sec) 
Heartbeat CPU  0 instructions:   45000000 cycles:   22586606 heartbeat IPC: 1.78684 cumulative IPC: 1.99233 (Simulation time: 0 hr 1 min 19 sec) 
Heartbeat CPU  0 instructions:   46000002 cycles:   23094962 heartbeat IPC: 1.96713 cumulative IPC: 1.99178 (Simulation time: 0 hr 1 min 21 sec) 
Heartbeat CPU  0 instructions:   47000002 cycles:   23583622 heartbeat IPC: 2.04641 cumulative IPC: 1.99291 (Simulation time: 0 hr 1 min 23 sec) 
Heartbeat CPU  0 instructions:   48000000 cycles:   24071784 heartbeat IPC: 2.04850 cumulative IPC: 1.99404 (Simulation time: 0 hr 1 min 24 sec) 
Heartbeat CPU  0 instructions:   49000002 cycles:   24559876 heartbeat IPC: 2.04880 cumulative IPC: 1.99512 (Simulation time: 0 hr 1 min 26 sec) 
Heartbeat CPU  0 instructions:   50000000 cycles:   25048284 heartbeat IPC: 2.04746 cumulative IPC: 1.99614 (Simulation time: 0 hr 1 min 28 sec) 
Heartbeat CPU  0 instructions:   51000002 cycles:   25536458 heartbeat IPC: 2.04845 cumulative IPC: 1.99714 (Simulation time: 0 hr 1 min 30 sec) 
Heartbeat CPU  0 instructions:   52000000 cycles:   26024887 heartbeat IPC: 2.04738 cumulative IPC: 1.99809 (Simulation time: 0 hr 1 min 31 sec) 
Heartbeat CPU  0 instructions:   53000000 cycles:   26513220 heartbeat IPC: 2.04778 cumulative IPC: 1.99900 (Simulation time: 0 hr 1 min 33 sec) 
Heartbeat CPU  0 instructions:   54000000 cycles:   27005817 heartbeat IPC: 2.03006 cumulative IPC: 1.99957 (Simulation time: 0 hr 1 min 35 sec) 
Heartbeat CPU  0 instructions:   55000002 cycles:   27564992 heartbeat IPC: 1.78835 cumulative IPC: 1.99528 (Simulation time: 0 hr 1 min 37 sec) 
Heartbeat CPU  0 instructions:   56000000 cycles:   28105366 heartbeat IPC: 1.85057 cumulative IPC: 1.99250 (Simulation time: 0 hr 1 min 38 sec) 
Heartbeat CPU  0 instructions:   57000000 cycles:   28593334 heartbeat IPC: 2.04931 cumulative IPC: 1.99347 (Simulation time: 0 hr 1 min 40 sec) 
Heartbeat CPU  0 instructions:   58000003 cycles:   29081217 heartbeat IPC: 2.04968 cumulative IPC: 1.99441 (Simulation time: 0 hr 1 min 42 sec) 
Heartbeat CPU  0 instructions:   59000001 cycles:   29569254 heartbeat IPC: 2.04902 cumulative IPC: 1.99532 (Simulation time: 0 hr 1 min 44 sec) 
Heartbeat CPU  0 instructions:   60000000 cycles:   30057601 heartbeat IPC: 2.04772 cumulative IPC: 1.99617 (Simulation time: 0 hr 1 min 46 sec) 
Heartbeat CPU  0 instructions:   61000000 cycles:   30546120 heartbeat IPC: 2.04700 cumulative IPC: 1.99698 (Simulation time: 0 hr 1 min 47 sec) 
Heartbeat CPU  0 instructions:   62000000 cycles:   31034990 heartbeat IPC: 2.04553 cumulative IPC: 1.99775 (Simulation time: 0 hr 1 min 49 sec) 
Heartbeat CPU  0 instructions:   63000002 cycles:   31523548 heartbeat IPC: 2.04684 cumulative IPC: 1.99851 (Simulation time: 0 hr 1 min 51 sec) 
Heartbeat CPU  0 instructions:   64000000 cycles:   32012050 heartbeat IPC: 2.04707 cumulative IPC: 1.99925 (Simulation time: 0 hr 1 min 53 sec) 
Heartbeat CPU  0 instructions:   65000000 cycles:   32543128 heartbeat IPC: 1.88296 cumulative IPC: 1.99735 (Simulation time: 0 hr 1 min 54 sec) 
Heartbeat CPU  0 instructions:   66000001 cycles:   33102382 heartbeat IPC: 1.78810 cumulative IPC: 1.99381 (Simulation time: 0 hr 1 min 56 sec) 
Heartbeat CPU  0 instructions:   67000000 cycles:   33602550 heartbeat IPC: 1.99933 cumulative IPC: 1.99390 (Simulation time: 0 hr 1 min 58 sec) 
Heartbeat CPU  0 instructions:   68000000 cycles:   34090801 heartbeat IPC: 2.04813 cumulative IPC: 1.99467 (Simulation time: 0 hr 2 min 0 sec) 
Heartbeat CPU  0 instructions:   69000001 cycles:   34579255 heartbeat IPC: 2.04728 cumulative IPC: 1.99542 (Simulation time: 0 hr 2 min 1 sec) 
Heartbeat CPU  0 instructions:   70000001 cycles:   35067390 heartbeat IPC: 2.04861 cumulative IPC: 1.99616 (Simulation time: 0 hr 2 min 3 sec) 
Heartbeat CPU  0 instructions:   71000003 cycles:   35556193 heartbeat IPC: 2.04582 cumulative IPC: 1.99684 (Simulation time: 0 hr 2 min 5 sec) 
Heartbeat CPU  0 instructions:   72000000 cycles:   36045057 heartbeat IPC: 2.04555 cumulative IPC: 1.99750 (Simulation time: 0 hr 2 min 7 sec) 
Heartbeat CPU  0 instructions:   73000001 cycles:   36533969 heartbeat IPC: 2.04536 cumulative IPC: 1.99814 (Simulation time: 0 hr 2 min 8 sec) 
Heartbeat CPU  0 instructions:   74000000 cycles:   37021994 heartbeat IPC: 2.04907 cumulative IPC: 1.99881 (Simulation time: 0 hr 2 min 10 sec) 
Heartbeat CPU  0 instructions:   75000001 cycles:   37521630 heartbeat IPC: 2.00146 cumulative IPC: 1.99885 (Simulation time: 0 hr 2 min 12 sec) 
Heartbeat CPU  0 instructions:   76000000 cycles:   38080850 heartbeat IPC: 1.78820 cumulative IPC: 1.99575 (Simulation time: 0 hr 2 min 14 sec) 
Heartbeat CPU  0 instructions:   77000002 cycles:   38611824 heartbeat IPC: 1.88334 cumulative IPC: 1.99421 (Simulation time: 0 hr 2 min 15 sec) 
Heartbeat CPU  0 instructions:   78000001 cycles:   39100177 heartbeat IPC: 2.04770 cumulative IPC: 1.99488 (Simulation time: 0 hr 2 min 17 sec) 
Heartbeat CPU  0 instructions:   79000001 cycles:   39588990 heartbeat IPC: 2.04577 cumulative IPC: 1.99550 (Simulation time: 0 hr 2 min 19 sec) 
Heartbeat CPU  0 instructions:   80000000 cycles:   40077545 heartbeat IPC: 2.04685 cumulative IPC: 1.99613 (Simulation time: 0 hr 2 min 21 sec) 
Heartbeat CPU  0 instructions:   81000003 cycles:   40566276 heartbeat IPC: 2.04612 cumulative IPC: 1.99673 (Simulation time: 0 hr 2 min 22 sec) 
Heartbeat CPU  0 instructions:   82000001 cycles:   41054471 heartbeat IPC: 2.04836 cumulative IPC: 1.99735 (Simulation time: 0 hr 2 min 24 sec) 
Heartbeat CPU  0 instructions:   83000000 cycles:   41542487 heartbeat IPC: 2.04911 cumulative IPC: 1.99795 (Simulation time: 0 hr 2 min 26 sec) 
Heartbeat CPU  0 instructions:   84000000 cycles:   42030605 heartbeat IPC: 2.04868 cumulative IPC: 1.99854 (Simulation time: 0 hr 2 min 28 sec) 
Heartbeat CPU  0 instructions:   85000002 cycles:   42518890 heartbeat IPC: 2.04799 cumulative IPC: 1.99911 (Simulation time: 0 hr 2 min 29 sec) 
Heartbeat CPU  0 instructions:   86000000 cycles:   43059393 heartbeat IPC: 1.85012 cumulative IPC: 1.99724 (Simulation time: 0 hr 2 min 31 sec) 
Heartbeat CPU  0 instructions:   87000002 cycles:   43618838 heartbeat IPC: 1.78749 cumulative IPC: 1.99455 (Simulation time: 0 hr 2 min 33 sec) 
Heartbeat CPU  0 instructions:   88000000 cycles:   44132098 heartbeat IPC: 1.94833 cumulative IPC: 1.99401 (Simulation time: 0 hr 2 min 35 sec) 
Heartbeat CPU  0 instructions:   89000002 cycles:   44659681 heartbeat IPC: 1.89544 cumulative IPC: 1.99285 (Simulation time: 0 hr 2 min 36 sec) 
Heartbeat CPU  0 instructions:   90000002 cycles:   45186653 heartbeat IPC: 1.89763 cumulative IPC: 1.99174 (Simulation time: 0 hr 2 min 38 sec) 
Heartbeat CPU  0 instructions:   91000003 cycles:   45714007 heartbeat IPC: 1.89626 cumulative IPC: 1.99064 (Simulation time: 0 hr 2 min 40 sec) 
Heartbeat CPU  0 instructions:   92000000 cycles:   46240819 heartbeat IPC: 1.89820 cumulative IPC: 1.98958 (Simulation time: 0 hr 2 min 42 sec) 
Heartbeat CPU  0 instructions:   93000001 cycles:   46767927 heartbeat IPC: 1.89715 cumulative IPC: 1.98854 (Simulation time: 0 hr 2 min 44 sec) 
Heartbeat CPU  0 instructions:   94000003 cycles:   47295928 heartbeat IPC: 1.89394 cumulative IPC: 1.98749 (Simulation time: 0 hr 2 min 45 sec) 
Heartbeat CPU  0 instructions:   95000001 cycles:   47822800 heartbeat IPC: 1.89799 cumulative IPC: 1.98650 (Simulation time: 0 hr 2 min 47 sec) 
Heartbeat CPU  0 instructions:   96000000 cycles:   48349760 heartbeat IPC: 1.89768 cumulative IPC: 1.98553 (Simulation time: 0 hr 2 min 49 sec) 
Heartbeat CPU  0 instructions:   97000003 cycles:   48877456 heartbeat IPC: 1.89504 cumulative IPC: 1.98456 (Simulation time: 0 hr 2 min 51 sec) 
Heartbeat CPU  0 instructions:   98000002 cycles:   49403770 heartbeat IPC: 1.90000 cumulative IPC: 1.98365 (Simulation time: 0 hr 2 min 53 sec) 
Heartbeat CPU  0 instructions:   99000002 cycles:   49930569 heartbeat IPC: 1.89826 cumulative IPC: 1.98275 (Simulation time: 0 hr 2 min 54 sec) 
Heartbeat CPU  0 instructions:  100000000 cycles:   50457857 heartbeat IPC: 1.89649 cumulative IPC: 1.98185 (Simulation time: 0 hr 2 min 56 sec) 

Warmup complete CPU  0 instructions:  100000001 cycles:   50457858 (Simulation time: 0 hr 2 min 56 sec) 

Heartbeat CPU  0 instructions:  101000002 cycles:   51435791 heartbeat IPC: 1.02257 cumulative IPC: 1.02257 (Simulation time: 0 hr 2 min 58 sec) 
Heartbeat CPU  0 instructions:  102000002 cycles:   52413299 heartbeat IPC: 1.02301 cumulative IPC: 1.02279 (Simulation time: 0 hr 3 min 0 sec) 
Heartbeat CPU  0 instructions:  103000000 cycles:   53393316 heartbeat IPC: 1.02039 cumulative IPC: 1.02199 (Simulation time: 0 hr 3 min 3 sec) 
Heartbeat CPU  0 instructions:  104000000 cycles:   54388061 heartbeat IPC: 1.00528 cumulative IPC: 1.01776 (Simulation time: 0 hr 3 min 5 sec) 
Heartbeat CPU  0 instructions:  105000002 cycles:   55384626 heartbeat IPC: 1.00345 cumulative IPC: 1.01486 (Simulation time: 0 hr 3 min 7 sec) 
Heartbeat CPU  0 instructions:  106000000 cycles:   56391685 heartbeat IPC: 0.99299 cumulative IPC: 1.01115 (Simulation time: 0 hr 3 min 9 sec) 
Heartbeat CPU  0 instructions:  107000003 cycles:   57395646 heartbeat IPC: 0.99606 cumulative IPC: 1.00897 (Simulation time: 0 hr 3 min 11 sec) 
Heartbeat CPU  0 instructions:  108000000 cycles:   58387511 heartbeat IPC: 1.00820 cumulative IPC: 1.00887 (Simulation time: 0 hr 3 min 13 sec) 
Heartbeat CPU  0 instructions:  109000002 cycles:   59406248 heartbeat IPC: 0.98161 cumulative IPC: 1.00577 (Simulation time: 0 hr 3 min 15 sec) 
Heartbeat CPU  0 instructions:  110000000 cycles:   60395763 heartbeat IPC: 1.01059 cumulative IPC: 1.00625 (Simulation time: 0 hr 3 min 18 sec) 
Heartbeat CPU  0 instructions:  111000000 cycles:   61380148 heartbeat IPC: 1.01586 cumulative IPC: 1.00711 (Simulation time: 0 hr 3 min 20 sec) 
Heartbeat CPU  0 instructions:  112000000 cycles:   62367345 heartbeat IPC: 1.01297 cumulative IPC: 1.00760 (Simulation time: 0 hr 3 min 22 sec) 
Heartbeat CPU  0 instructions:  113000001 cycles:   63366195 heartbeat IPC: 1.00115 cumulative IPC: 1.00710 (Simulation time: 0 hr 3 min 24 sec) 
Heartbeat CPU  0 instructions:  114000000 cycles:   64363466 heartbeat IPC: 1.00274 cumulative IPC: 1.00679 (Simulation time: 0 hr 3 min 26 sec) 
Heartbeat CPU  0 instructions:  115000001 cycles:   65379291 heartbeat IPC: 0.98442 cumulative IPC: 1.00527 (Simulation time: 0 hr 3 min 28 sec) 
Heartbeat CPU  0 instructions:  116000000 cycles:   66380380 heartbeat IPC: 0.99891 cumulative IPC: 1.00487 (Simulation time: 0 hr 3 min 31 sec) 
Heartbeat CPU  0 instructions:  117000003 cycles:   67381358 heartbeat IPC: 0.99903 cumulative IPC: 1.00452 (Simulation time: 0 hr 3 min 33 sec) 
Heartbeat CPU  0 instructions:  118000000 cycles:   68379445 heartbeat IPC: 1.00191 cumulative IPC: 1.00438 (Simulation time: 0 hr 3 min 35 sec) 
Heartbeat CPU  0 instructions:  119000002 cycles:   69391426 heartbeat IPC: 0.98816 cumulative IPC: 1.00351 (Simulation time: 0 hr 3 min 37 sec) 
Heartbeat CPU  0 instructions:  120000000 cycles:   70386659 heartbeat IPC: 1.00479 cumulative IPC: 1.00357 (Simulation time: 0 hr 3 min 39 sec) 
Heartbeat CPU  0 instructions:  121000003 cycles:   71361050 heartbeat IPC: 1.02629 cumulative IPC: 1.00463 (Simulation time: 0 hr 3 min 41 sec) 
Heartbeat CPU  0 instructions:  122000003 cycles:   72338727 heartbeat IPC: 1.02283 cumulative IPC: 1.00544 (Simulation time: 0 hr 3 min 44 sec) 
Heartbeat CPU  0 instructions:  123000000 cycles:   73316655 heartbeat IPC: 1.02257 cumulative IPC: 1.00618 (Simulation time: 0 hr 3 min 46 sec) 
Heartbeat CPU  0 instructions:  124000000 cycles:   74299079 heartbeat IPC: 1.01789 cumulative IPC: 1.00666 (Simulation time: 0 hr 3 min 48 sec) 
Heartbeat CPU  0 instructions:  125000003 cycles:   75304910 heartbeat IPC: 0.99421 cumulative IPC: 1.00616 (Simulation time: 0 hr 3 min 50 sec) 
Heartbeat CPU  0 instructions:  126000000 cycles:   76294644 heartbeat IPC: 1.01037 cumulative IPC: 1.00632 (Simulation time: 0 hr 3 min 52 sec) 
Heartbeat CPU  0 instructions:  127000000 cycles:   77285728 heartbeat IPC: 1.00900 cumulative IPC: 1.00642 (Simulation time: 0 hr 3 min 54 sec) 
Heartbeat CPU  0 instructions:  128000000 cycles:   78277856 heartbeat IPC: 1.00793 cumulative IPC: 1.00647 (Simulation time: 0 hr 3 min 56 sec) 
Heartbeat CPU  0 instructions:  129000002 cycles:   79272714 heartbeat IPC: 1.00517 cumulative IPC: 1.00643 (Simulation time: 0 hr 3 min 59 sec) 
Heartbeat CPU  0 instructions:  130000001 cycles:   80274142 heartbeat IPC: 0.99857 cumulative IPC: 1.00616 (Simulation time: 0 hr 4 min 1 sec) 
Heartbeat CPU  0 instructions:  131000002 cycles:   81255109 heartbeat IPC: 1.01940 cumulative IPC: 1.00658 (Simulation time: 0 hr 4 min 3 sec) 
Heartbeat CPU  0 instructions:  132000000 cycles:   82230578 heartbeat IPC: 1.02515 cumulative IPC: 1.00715 (Simulation time: 0 hr 4 min 5 sec) 
Heartbeat CPU  0 instructions:  133000000 cycles:   83219176 heartbeat IPC: 1.01153 cumulative IPC: 1.00729 (Simulation time: 0 hr 4 min 7 sec) 
Heartbeat CPU  0 instructions:  134000001 cycles:   84210230 heartbeat IPC: 1.00903 cumulative IPC: 1.00734 (Simulation time: 0 hr 4 min 9 sec) 
Heartbeat CPU  0 instructions:  135000002 cycles:   85206182 heartbeat IPC: 1.00407 cumulative IPC: 1.00724 (Simulation time: 0 hr 4 min 12 sec) 
Heartbeat CPU  0 instructions:  136000000 cycles:   86199337 heartbeat IPC: 1.00689 cumulative IPC: 1.00723 (Simulation time: 0 hr 4 min 14 sec) 
Heartbeat CPU  0 instructions:  137000001 cycles:   87196579 heartbeat IPC: 1.00277 cumulative IPC: 1.00711 (Simulation time: 0 hr 4 min 16 sec) 
Heartbeat CPU  0 instructions:  138000003 cycles:   88186695 heartbeat IPC: 1.00998 cumulative IPC: 1.00719 (Simulation time: 0 hr 4 min 18 sec) 
Heartbeat CPU  0 instructions:  139000000 cycles:   89178605 heartbeat IPC: 1.00815 cumulative IPC: 1.00721 (Simulation time: 0 hr 4 min 20 sec) 
Heartbeat CPU  0 instructions:  140000000 cycles:   90924520 heartbeat IPC: 0.57277 cumulative IPC: 0.98847 (Simulation time: 0 hr 4 min 23 sec) 
Heartbeat CPU  0 instructions:  141000001 cycles:   91834391 heartbeat IPC: 1.09906 cumulative IPC: 0.99090 (Simulation time: 0 hr 4 min 25 sec) 
Heartbeat CPU  0 instructions:  142000001 cycles:   92740709 heartbeat IPC: 1.10337 cumulative IPC: 0.99331 (Simulation time: 0 hr 4 min 27 sec) 
Heartbeat CPU  0 instructions:  143000000 cycles:   93645623 heartbeat IPC: 1.10508 cumulative IPC: 0.99565 (Simulation time: 0 hr 4 min 29 sec) 
Heartbeat CPU  0 instructions:  144000000 cycles:   94544597 heartbeat IPC: 1.11238 cumulative IPC: 0.99803 (Simulation time: 0 hr 4 min 31 sec) 
Heartbeat CPU  0 instructions:  145000001 cycles:   95445038 heartbeat IPC: 1.11057 cumulative IPC: 1.00029 (Simulation time: 0 hr 4 min 33 sec) 
Heartbeat CPU  0 instructions:  146000001 cycles:   96346009 heartbeat IPC: 1.10991 cumulative IPC: 1.00244 (Simulation time: 0 hr 4 min 35 sec) 
Heartbeat CPU  0 instructions:  147000002 cycles:   97770919 heartbeat IPC: 0.70180 cumulative IPC: 0.99338 (Simulation time: 0 hr 4 min 37 sec) 
Heartbeat CPU  0 instructions:  148000000 cycles:   98766003 heartbeat IPC: 1.00494 cumulative IPC: 0.99362 (Simulation time: 0 hr 4 min 39 sec) 
Heartbeat CPU  0 instructions:  149000000 cycles:   99623924 heartbeat IPC: 1.16561 cumulative IPC: 0.99662 (Simulation time: 0 hr 4 min 41 sec) 
Heartbeat CPU  0 instructions:  150000001 cycles:  100474659 heartbeat IPC: 1.17546 cumulative IPC: 0.99966 (Simulation time: 0 hr 4 min 43 sec) 
Heartbeat CPU  0 instructions:  151000002 cycles:  101324426 heartbeat IPC: 1.17679 cumulative IPC: 1.00262 (Simulation time: 0 hr 4 min 45 sec) 
Heartbeat CPU  0 instructions:  152000000 cycles:  102179694 heartbeat IPC: 1.16922 cumulative IPC: 1.00538 (Simulation time: 0 hr 4 min 47 sec) 
Heartbeat CPU  0 instructions:  153000002 cycles:  103027762 heartbeat IPC: 1.17915 cumulative IPC: 1.00818 (Simulation time: 0 hr 4 min 49 sec) 
Heartbeat CPU  0 instructions:  154000000 cycles:  103877367 heartbeat IPC: 1.17702 cumulative IPC: 1.01087 (Simulation time: 0 hr 4 min 51 sec) 
Heartbeat CPU  0 instructions:  155000003 cycles:  105518500 heartbeat IPC: 0.60934 cumulative IPC: 0.99890 (Simulation time: 0 hr 4 min 53 sec) 
Heartbeat CPU  0 instructions:  156000000 cycles:  106395198 heartbeat IPC: 1.14064 cumulative IPC: 1.00112 (Simulation time: 0 hr 4 min 55 sec) 
Heartbeat CPU  0 instructions:  157000003 cycles:  107260080 heartbeat IPC: 1.15623 cumulative IPC: 1.00348 (Simulation time: 0 hr 4 min 57 sec) 
Heartbeat CPU  0 instructions:  158000003 cycles:  108142592 heartbeat IPC: 1.13313 cumulative IPC: 1.00547 (Simulation time: 0 hr 4 min 59 sec) 
Heartbeat CPU  0 instructions:  159000003 cycles:  109029419 heartbeat IPC: 1.12762 cumulative IPC: 1.00731 (Simulation time: 0 hr 5 min 1 sec) 
Heartbeat CPU  0 instructions:  160000000 cycles:  109915796 heartbeat IPC: 1.12818 cumulative IPC: 1.00912 (Simulation time: 0 hr 5 min 3 sec) 
Heartbeat CPU  0 instructions:  161000001 cycles:  110793205 heartbeat IPC: 1.13972 cumulative IPC: 1.01102 (Simulation time: 0 hr 5 min 5 sec) 
Heartbeat CPU  0 instructions:  162000001 cycles:  112279428 heartbeat IPC: 0.67285 cumulative IPC: 1.00289 (Simulation time: 0 hr 5 min 8 sec) 
Heartbeat CPU  0 instructions:  163000002 cycles:  113412119 heartbeat IPC: 0.88285 cumulative IPC: 1.00073 (Simulation time: 0 hr 5 min 10 sec) 
Heartbeat CPU  0 instructions:  164000000 cycles:  114535476 heartbeat IPC: 0.89019 cumulative IPC: 0.99879 (Simulation time: 0 hr 5 min 12 sec) 
Heartbeat CPU  0 instructions:  165000000 cycles:  115630980 heartbeat IPC: 0.91282 cumulative IPC: 0.99734 (Simulation time: 0 hr 5 min 15 sec) 
Heartbeat CPU  0 instructions:  166000002 cycles:  116729007 heartbeat IPC: 0.91073 cumulative IPC: 0.99591 (Simulation time: 0 hr 5 min 17 sec) 
Heartbeat CPU  0 instructions:  167000002 cycles:  117834009 heartbeat IPC: 0.90498 cumulative IPC: 0.99442 (Simulation time: 0 hr 5 min 20 sec) 
Heartbeat CPU  0 instructions:  168000000 cycles:  118968861 heartbeat IPC: 0.88117 cumulative IPC: 0.99254 (Simulation time: 0 hr 5 min 22 sec) 
Heartbeat CPU  0 instructions:  169000002 cycles:  120068808 heartbeat IPC: 0.90914 cumulative IPC: 0.99122 (Simulation time: 0 hr 5 min 24 sec) 
Heartbeat CPU  0 instructions:  170000002 cycles:  121168593 heartbeat IPC: 0.90927 cumulative IPC: 0.98995 (Simulation time: 0 hr 5 min 27 sec) 
Heartbeat CPU  0 instructions:  171000003 cycles:  122266320 heartbeat IPC: 0.91097 cumulative IPC: 0.98874 (Simulation time: 0 hr 5 min 29 sec) 
Heartbeat CPU  0 instructions:  172000000 cycles:  123379881 heartbeat IPC: 0.89802 cumulative IPC: 0.98736 (Simulation time: 0 hr 5 min 32 sec) 
Heartbeat CPU  0 instructions:  173000003 cycles:  124470079 heartbeat IPC: 0.91727 cumulative IPC: 0.98632 (Simulation time: 0 hr 5 min 34 sec) 
Heartbeat CPU  0 instructions:  174000000 cycles:  125559818 heartbeat IPC: 0.91765 cumulative IPC: 0.98533 (Simulation time: 0 hr 5 min 36 sec) 
Heartbeat CPU  0 instructions:  175000000 cycles:  126648807 heartbeat IPC: 0.91828 cumulative IPC: 0.98437 (Simulation time: 0 hr 5 min 39 sec) 
Heartbeat CPU  0 instructions:  176000000 cycles:  127731270 heartbeat IPC: 0.92382 cumulative IPC: 0.98352 (Simulation time: 0 hr 5 min 41 sec) 
Heartbeat CPU  0 instructions:  177000003 cycles:  128831266 heartbeat IPC: 0.90910 cumulative IPC: 0.98248 (Simulation time: 0 hr 5 min 43 sec) 
Heartbeat CPU  0 instructions:  178000001 cycles:  129916412 heartbeat IPC: 0.92153 cumulative IPC: 0.98164 (Simulation time: 0 hr 5 min 46 sec) 
Heartbeat CPU  0 instructions:  179000000 cycles:  131013806 heartbeat IPC: 0.91125 cumulative IPC: 0.98068 (Simulation time: 0 hr 5 min 48 sec) 
Heartbeat CPU  0 instructions:  180000000 cycles:  132103564 heartbeat IPC: 0.91763 cumulative IPC: 0.97984 (Simulation time: 0 hr 5 min 51 sec) 
Heartbeat CPU  0 instructions:  181000000 cycles:  133225304 heartbeat IPC: 0.89147 cumulative IPC: 0.97865 (Simulation time: 0 hr 5 min 53 sec) 
Heartbeat CPU  0 instructions:  182000001 cycles:  134321472 heartbeat IPC: 0.91227 cumulative IPC: 0.97778 (Simulation time: 0 hr 5 min 55 sec) 
Heartbeat CPU  0 instructions:  183000003 cycles:  135417491 heartbeat IPC: 0.91239 cumulative IPC: 0.97693 (Simulation time: 0 hr 5 min 58 sec) 
Heartbeat CPU  0 instructions:  184000000 cycles:  136512739 heartbeat IPC: 0.91303 cumulative IPC: 0.97612 (Simulation time: 0 hr 6 min 0 sec) 
Heartbeat CPU  0 instructions:  185000000 cycles:  137629347 heartbeat IPC: 0.89557 cumulative IPC: 0.97509 (Simulation time: 0 hr 6 min 3 sec) 
Heartbeat CPU  0 instructions:  186000002 cycles:  138721462 heartbeat IPC: 0.91566 cumulative IPC: 0.97435 (Simulation time: 0 hr 6 min 5 sec) 
Heartbeat CPU  0 instructions:  187000001 cycles:  139817507 heartbeat IPC: 0.91237 cumulative IPC: 0.97359 (Simulation time: 0 hr 6 min 7 sec) 
Heartbeat CPU  0 instructions:  188000000 cycles:  140912727 heartbeat IPC: 0.91306 cumulative IPC: 0.97286 (Simulation time: 0 hr 6 min 10 sec) 
Heartbeat CPU  0 instructions:  189000001 cycles:  142030500 heartbeat IPC: 0.89464 cumulative IPC: 0.97191 (Simulation time: 0 hr 6 min 12 sec) 
Heartbeat CPU  0 instructions:  190000002 cycles:  143128935 heartbeat IPC: 0.91039 cumulative IPC: 0.97118 (Simulation time: 0 hr 6 min 14 sec) 
Heartbeat CPU  0 instructions:  191000001 cycles:  144227102 heartbeat IPC: 0.91061 cumulative IPC: 0.97047 (Simulation time: 0 hr 6 min 17 sec) 
Heartbeat CPU  0 instructions:  192000000 cycles:  145322356 heartbeat IPC: 0.91303 cumulative IPC: 0.96980 (Simulation time: 0 hr 6 min 19 sec) 
Heartbeat CPU  0 instructions:  193000003 cycles:  146418798 heartbeat IPC: 0.91204 cumulative IPC: 0.96914 (Simulation time: 0 hr 6 min 22 sec) 
Heartbeat CPU  0 instructions:  194000002 cycles:  147852232 heartbeat IPC: 0.69762 cumulative IPC: 0.96515 (Simulation time: 0 hr 6 min 24 sec) 
Heartbeat CPU  0 instructions:  195000001 cycles:  149259120 heartbeat IPC: 0.71079 cumulative IPC: 0.96153 (Simulation time: 0 hr 6 min 26 sec) 
Heartbeat CPU  0 instructions:  196000000 cycles:  150361058 heartbeat IPC: 0.90749 cumulative IPC: 0.96093 (Simulation time: 0 hr 6 min 28 sec) 
Heartbeat CPU  0 instructions:  197000003 cycles:  151306432 heartbeat IPC: 1.05779 cumulative IPC: 0.96184 (Simulation time: 0 hr 6 min 31 sec) 
Heartbeat CPU  0 instructions:  198000000 cycles:  152186657 heartbeat IPC: 1.13607 cumulative IPC: 0.96335 (Simulation time: 0 hr 6 min 33 sec) 
Heartbeat CPU  0 instructions:  199000000 cycles:  153115614 heartbeat IPC: 1.07648 cumulative IPC: 0.96437 (Simulation time: 0 hr 6 min 35 sec) 
Heartbeat CPU  0 instructions:  200000000 cycles:  154035357 heartbeat IPC: 1.08726 cumulative IPC: 0.96546 (Simulation time: 0 hr 6 min 37 sec) 
Heartbeat CPU  0 instructions:  201000002 cycles:  154925873 heartbeat IPC: 1.12295 cumulative IPC: 0.96680 (Simulation time: 0 hr 6 min 39 sec) 
Heartbeat CPU  0 instructions:  202000000 cycles:  155842895 heartbeat IPC: 1.09048 cumulative IPC: 0.96788 (Simulation time: 0 hr 6 min 41 sec) 
Heartbeat CPU  0 instructions:  203000001 cycles:  156725281 heartbeat IPC: 1.13329 cumulative IPC: 0.96925 (Simulation time: 0 hr 6 min 43 sec) 
Heartbeat CPU  0 instructions:  204000000 cycles:  157629598 heartbeat IPC: 1.10581 cumulative IPC: 0.97041 (Simulation time: 0 hr 6 min 45 sec) 
Heartbeat CPU  0 instructions:  205000002 cycles:  158544347 heartbeat IPC: 1.09320 cumulative IPC: 0.97144 (Simulation time: 0 hr 6 min 47 sec) 
Heartbeat CPU  0 instructions:  206000003 cycles:  159412932 heartbeat IPC: 1.15130 cumulative IPC: 0.97288 (Simulation time: 0 hr 6 min 49 sec) 
Heartbeat CPU  0 instructions:  207000001 cycles:  160296497 heartbeat IPC: 1.13178 cumulative IPC: 0.97416 (Simulation time: 0 hr 6 min 51 sec) 
Heartbeat CPU  0 instructions:  208000000 cycles:  161197500 heartbeat IPC: 1.10987 cumulative IPC: 0.97526 (Simulation time: 0 hr 6 min 53 sec) 
Heartbeat CPU  0 instructions:  209000001 cycles:  162092731 heartbeat IPC: 1.11703 cumulative IPC: 0.97640 (Simulation time: 0 hr 6 min 55 sec) 
Heartbeat CPU  0 instructions:  210000003 cycles:  163006174 heartbeat IPC: 1.09476 cumulative IPC: 0.97736 (Simulation time: 0 hr 6 min 58 sec) 
Heartbeat CPU  0 instructions:  211000002 cycles:  163891126 heartbeat IPC: 1.13000 cumulative IPC: 0.97855 (Simulation time: 0 hr 7 min 0 sec) 
Heartbeat CPU  0 instructions:  212000000 cycles:  164769717 heartbeat IPC: 1.13818 cumulative IPC: 0.97978 (Simulation time: 0 hr 7 min 2 sec) 
Heartbeat CPU  0 instructions:  213000003 cycles:  165666383 heartbeat IPC: 1.11525 cumulative IPC: 0.98083 (Simulation time: 0 hr 7 min 4 sec) 
Heartbeat CPU  0 instructions:  214000001 cycles:  166550411 heartbeat IPC: 1.13118 cumulative IPC: 0.98198 (Simulation time: 0 hr 7 min 6 sec) 
Heartbeat CPU  0 instructions:  215000002 cycles:  167461873 heartbeat IPC: 1.09714 cumulative IPC: 0.98287 (Simulation time: 0 hr 7 min 8 sec) 
Heartbeat CPU  0 instructions:  216000000 cycles:  168341322 heartbeat IPC: 1.13707 cumulative IPC: 0.98402 (Simulation time: 0 hr 7 min 10 sec) 
Heartbeat CPU  0 instructions:  217000002 cycles:  169228425 heartbeat IPC: 1.12727 cumulative IPC: 0.98509 (Simulation time: 0 hr 7 min 12 sec) 
Heartbeat CPU  0 instructions:  218000000 cycles:  170133039 heartbeat IPC: 1.10544 cumulative IPC: 0.98600 (Simulation time: 0 hr 7 min 14 sec) 
Heartbeat CPU  0 instructions:  219000003 cycles:  171022583 heartbeat IPC: 1.12417 cumulative IPC: 0.98702 (Simulation time: 0 hr 7 min 16 sec) 
Heartbeat CPU  0 instructions:  220000000 cycles:  171921543 heartbeat IPC: 1.11239 cumulative IPC: 0.98795 (Simulation time: 0 hr 7 min 18 sec) 
Heartbeat CPU  0 instructions:  221000002 cycles:  172806110 heartbeat IPC: 1.13050 cumulative IPC: 0.98898 (Simulation time: 0 hr 7 min 20 sec) 
Heartbeat CPU  0 instructions:  222000001 cycles:  173688789 heartbeat IPC: 1.13291 cumulative IPC: 0.99001 (Simulation time: 0 hr 7 min 22 sec) 
Heartbeat CPU  0 instructions:  223000000 cycles:  174580888 heartbeat IPC: 1.12095 cumulative IPC: 0.99095 (Simulation time: 0 hr 7 min 24 sec) 
Heartbeat CPU  0 instructions:  224000000 cycles:  175479242 heartbeat IPC: 1.11315 cumulative IPC: 0.99183 (Simulation time: 0 hr 7 min 27 sec) 
Heartbeat CPU  0 instructions:  225000001 cycles:  176356238 heartbeat IPC: 1.14026 cumulative IPC: 0.99286 (Simulation time: 0 hr 7 min 29 sec) 
Heartbeat CPU  0 instructions:  226000003 cycles:  177251777 heartbeat IPC: 1.11665 cumulative IPC: 0.99374 (Simulation time: 0 hr 7 min 31 sec) 
Heartbeat CPU  0 instructions:  227000001 cycles:  178140506 heartbeat IPC: 1.12520 cumulative IPC: 0.99465 (Simulation time: 0 hr 7 min 33 sec) 
Heartbeat CPU  0 instructions:  228000000 cycles:  179030898 heartbeat IPC: 1.12310 cumulative IPC: 0.99554 (Simulation time: 0 hr 7 min 35 sec) 
Heartbeat CPU  0 instructions:  229000002 cycles:  179933152 heartbeat IPC: 1.10834 cumulative IPC: 0.99633 (Simulation time: 0 hr 7 min 37 sec) 
Heartbeat CPU  0 instructions:  230000002 cycles:  180809637 heartbeat IPC: 1.14092 cumulative IPC: 0.99730 (Simulation time: 0 hr 7 min 39 sec) 
Heartbeat CPU  0 instructions:  231000001 cycles:  181699256 heartbeat IPC: 1.12408 cumulative IPC: 0.99816 (Simulation time: 0 hr 7 min 41 sec) 
Heartbeat CPU  0 instructions:  232000000 cycles:  182584929 heartbeat IPC: 1.12908 cumulative IPC: 0.99904 (Simulation time: 0 hr 7 min 43 sec) 
Heartbeat CPU  0 instructions:  233000000 cycles:  183462202 heartbeat IPC: 1.13990 cumulative IPC: 0.99997 (Simulation time: 0 hr 7 min 45 sec) 
Heartbeat CPU  0 instructions:  234000002 cycles:  184358986 heartbeat IPC: 1.11510 cumulative IPC: 1.00074 (Simulation time: 0 hr 7 min 47 sec) 
Heartbeat CPU  0 instructions:  235000003 cycles:  185241273 heartbeat IPC: 1.13342 cumulative IPC: 1.00161 (Simulation time: 0 hr 7 min 49 sec) 
Heartbeat CPU  0 instructions:  236000000 cycles:  186135097 heartbeat IPC: 1.11879 cumulative IPC: 1.00238 (Simulation time: 0 hr 7 min 51 sec) 
Heartbeat CPU  0 instructions:  237000000 cycles:  187020533 heartbeat IPC: 1.12939 cumulative IPC: 1.00320 (Simulation time: 0 hr 7 min 53 sec) 
Heartbeat CPU  0 instructions:  238000001 cycles:  187891113 heartbeat IPC: 1.14866 cumulative IPC: 1.00412 (Simulation time: 0 hr 7 min 55 sec) 
Heartbeat CPU  0 instructions:  239000003 cycles:  188774807 heartbeat IPC: 1.13162 cumulative IPC: 1.00494 (Simulation time: 0 hr 7 min 58 sec) 
Heartbeat CPU  0 instructions:  240000000 cycles:  189663574 heartbeat IPC: 1.12515 cumulative IPC: 1.00571 (Simulation time: 0 hr 8 min 0 sec) 
Heartbeat CPU  0 instructions:  241000000 cycles:  190554571 heartbeat IPC: 1.12234 cumulative IPC: 1.00645 (Simulation time: 0 hr 8 min 2 sec) 
Heartbeat CPU  0 instructions:  242000000 cycles:  191441823 heartbeat IPC: 1.12708 cumulative IPC: 1.00721 (Simulation time: 0 hr 8 min 4 sec) 
Heartbeat CPU  0 instructions:  243000003 cycles:  192313671 heartbeat IPC: 1.14699 cumulative IPC: 1.00807 (Simulation time: 0 hr 8 min 6 sec) 
Heartbeat CPU  0 instructions:  244000000 cycles:  193196766 heartbeat IPC: 1.13238 cumulative IPC: 1.00883 (Simulation time: 0 hr 8 min 8 sec) 
Heartbeat CPU  0 instructions:  245000000 cycles:  194084821 heartbeat IPC: 1.12606 cumulative IPC: 1.00956 (Simulation time: 0 hr 8 min 10 sec) 
Heartbeat CPU  0 instructions:  246000002 cycles:  194984429 heartbeat IPC: 1.11160 cumulative IPC: 1.01019 (Simulation time: 0 hr 8 min 12 sec) 
Heartbeat CPU  0 instructions:  247000000 cycles:  195883124 heartbeat IPC: 1.11272 cumulative IPC: 1.01083 (Simulation time: 0 hr 8 min 14 sec) 
Heartbeat CPU  0 instructions:  248000000 cycles:  196746078 heartbeat IPC: 1.15881 cumulative IPC: 1.01170 (Simulation time: 0 hr 8 min 17 sec) 
Heartbeat CPU  0 instructions:  249000000 cycles:  197637185 heartbeat IPC: 1.12220 cumulative IPC: 1.01237 (Simulation time: 0 hr 8 min 19 sec) 
Heartbeat CPU  0 instructions:  250000001 cycles:  198529044 heartbeat IPC: 1.12125 cumulative IPC: 1.01303 (Simulation time: 0 hr 8 min 21 sec) 
Heartbeat CPU  0 instructions:  251000003 cycles:  199427479 heartbeat IPC: 1.11305 cumulative IPC: 1.01363 (Simulation time: 0 hr 8 min 23 sec) 
Heartbeat CPU  0 instructions:  252000000 cycles:  200319909 heartbeat IPC: 1.12053 cumulative IPC: 1.01427 (Simulation time: 0 hr 8 min 25 sec) 
Heartbeat CPU  0 instructions:  253000000 cycles:  201183668 heartbeat IPC: 1.15773 cumulative IPC: 1.01509 (Simulation time: 0 hr 8 min 27 sec) 
Heartbeat CPU  0 instructions:  254000000 cycles:  202080028 heartbeat IPC: 1.11562 cumulative IPC: 1.01568 (Simulation time: 0 hr 8 min 29 sec) 
Heartbeat CPU  0 instructions:  255000003 cycles:  202977575 heartbeat IPC: 1.11415 cumulative IPC: 1.01626 (Simulation time: 0 hr 8 min 31 sec) 
Heartbeat CPU  0 instructions:  256000000 cycles:  203866489 heartbeat IPC: 1.12496 cumulative IPC: 1.01689 (Simulation time: 0 hr 8 min 33 sec) 
Heartbeat CPU  0 instructions:  257000003 cycles:  204760030 heartbeat IPC: 1.11915 cumulative IPC: 1.01748 (Simulation time: 0 hr 8 min 35 sec) 
Heartbeat CPU  0 instructions:  258000000 cycles:  205631039 heartbeat IPC: 1.14809 cumulative IPC: 1.01822 (Simulation time: 0 hr 8 min 37 sec) 
Heartbeat CPU  0 instructions:  259000003 cycles:  206519217 heartbeat IPC: 1.12590 cumulative IPC: 1.01883 (Simulation time: 0 hr 8 min 39 sec) 
Heartbeat CPU  0 instructions:  260000000 cycles:  207412863 heartbeat IPC: 1.11901 cumulative IPC: 1.01940 (Simulation time: 0 hr 8 min 41 sec) 
Heartbeat CPU  0 instructions:  261000001 cycles:  208300499 heartbeat IPC: 1.12659 cumulative IPC: 1.02000 (Simulation time: 0 hr 8 min 44 sec) 
Heartbeat CPU  0 instructions:  262000000 cycles:  209204453 heartbeat IPC: 1.10625 cumulative IPC: 1.02049 (Simulation time: 0 hr 8 min 46 sec) 
Heartbeat CPU  0 instructions:  263000000 cycles:  210080931 heartbeat IPC: 1.14093 cumulative IPC: 1.02116 (Simulation time: 0 hr 8 min 48 sec) 
Heartbeat CPU  0 instructions:  264000000 cycles:  210970010 heartbeat IPC: 1.12476 cumulative IPC: 1.02173 (Simulation time: 0 hr 8 min 50 sec) 
Heartbeat CPU  0 instructions:  265000002 cycles:  211872544 heartbeat IPC: 1.10799 cumulative IPC: 1.02221 (Simulation time: 0 hr 8 min 52 sec) 
Heartbeat CPU  0 instructions:  266000001 cycles:  212740565 heartbeat IPC: 1.15204 cumulative IPC: 1.02291 (Simulation time: 0 hr 8 min 54 sec) 
Heartbeat CPU  0 instructions:  267000000 cycles:  213656479 heartbeat IPC: 1.09180 cumulative IPC: 1.02329 (Simulation time: 0 hr 8 min 56 sec) 
Heartbeat CPU  0 instructions:  268000000 cycles:  214554745 heartbeat IPC: 1.11326 cumulative IPC: 1.02379 (Simulation time: 0 hr 8 min 58 sec) 
Heartbeat CPU  0 instructions:  269000003 cycles:  215443806 heartbeat IPC: 1.12479 cumulative IPC: 1.02433 (Simulation time: 0 hr 9 min 0 sec) 
Heartbeat CPU  0 instructions:  270000002 cycles:  216351217 heartbeat IPC: 1.10204 cumulative IPC: 1.02475 (Simulation time: 0 hr 9 min 2 sec) 
Heartbeat CPU  0 instructions:  271000000 cycles:  217222831 heartbeat IPC: 1.14729 cumulative IPC: 1.02540 (Simulation time: 0 hr 9 min 4 sec) 
Heartbeat CPU  0 instructions:  272000000 cycles:  218139391 heartbeat IPC: 1.09104 cumulative IPC: 1.02575 (Simulation time: 0 hr 9 min 6 sec) 
Heartbeat CPU  0 instructions:  273000002 cycles:  219039599 heartbeat IPC: 1.11086 cumulative IPC: 1.02621 (Simulation time: 0 hr 9 min 8 sec) 
Heartbeat CPU  0 instructions:  274000002 cycles:  219919592 heartbeat IPC: 1.13637 cumulative IPC: 1.02678 (Simulation time: 0 hr 9 min 10 sec) 
Heartbeat CPU  0 instructions:  275000001 cycles:  220829462 heartbeat IPC: 1.09906 cumulative IPC: 1.02717 (Simulation time: 0 hr 9 min 12 sec) 
Heartbeat CPU  0 instructions:  276000000 cycles:  221714581 heartbeat IPC: 1.12979 cumulative IPC: 1.02770 (Simulation time: 0 hr 9 min 15 sec) 
Heartbeat CPU  0 instructions:  277000003 cycles:  222631860 heartbeat IPC: 1.09018 cumulative IPC: 1.02803 (Simulation time: 0 hr 9 min 17 sec) 
Heartbeat CPU  0 instructions:  278000002 cycles:  223541845 heartbeat IPC: 1.09892 cumulative IPC: 1.02840 (Simulation time: 0 hr 9 min 19 sec) 
Heartbeat CPU  0 instructions:  279000003 cycles:  224413844 heartbeat IPC: 1.14679 cumulative IPC: 1.02900 (Simulation time: 0 hr 9 min 21 sec) 
Heartbeat CPU  0 instructions:  280000000 cycles:  225310984 heartbeat IPC: 1.11465 cumulative IPC: 1.02944 (Simulation time: 0 hr 9 min 23 sec) 
Heartbeat CPU  0 instructions:  281000002 cycles:  226202939 heartbeat IPC: 1.12113 cumulative IPC: 1.02990 (Simulation time: 0 hr 9 min 25 sec) 
Heartbeat CPU  0 instructions:  282000001 cycles:  227107640 heartbeat IPC: 1.10534 cumulative IPC: 1.03029 (Simulation time: 0 hr 9 min 27 sec) 
Heartbeat CPU  0 instructions:  283000002 cycles:  228024141 heartbeat IPC: 1.09111 cumulative IPC: 1.03060 (Simulation time: 0 hr 9 min 29 sec) 
Heartbeat CPU  0 instructions:  284000000 cycles:  228885598 heartbeat IPC: 1.16082 cumulative IPC: 1.03123 (Simulation time: 0 hr 9 min 31 sec) 
Heartbeat CPU  0 instructions:  285000002 cycles:  229775862 heartbeat IPC: 1.12326 cumulative IPC: 1.03169 (Simulation time: 0 hr 9 min 33 sec) 
Heartbeat CPU  0 instructions:  286000000 cycles:  230675014 heartbeat IPC: 1.11216 cumulative IPC: 1.03209 (Simulation time: 0 hr 9 min 35 sec) 
Heartbeat CPU  0 instructions:  287000001 cycles:  231560272 heartbeat IPC: 1.12962 cumulative IPC: 1.03256 (Simulation time: 0 hr 9 min 37 sec) 
Heartbeat CPU  0 instructions:  288000000 cycles:  232475596 heartbeat IPC: 1.09251 cumulative IPC: 1.03287 (Simulation time: 0 hr 9 min 39 sec) 
Heartbeat CPU  0 instructions:  289000000 cycles:  233345761 heartbeat IPC: 1.14921 cumulative IPC: 1.03342 (Simulation time: 0 hr 9 min 41 sec) 
Heartbeat CPU  0 instructions:  290000000 cycles:  234237636 heartbeat IPC: 1.12123 cumulative IPC: 1.03385 (Simulation time: 0 hr 9 min 44 sec) 
Heartbeat CPU  0 instructions:  291000002 cycles:  235144101 heartbeat IPC: 1.10319 cumulative IPC: 1.03419 (Simulation time: 0 hr 9 min 46 sec) 
Heartbeat CPU  0 instructions:  292000000 cycles:  236024533 heartbeat IPC: 1.13580 cumulative IPC: 1.03467 (Simulation time: 0 hr 9 min 48 sec) 
Heartbeat CPU  0 instructions:  293000001 cycles:  236929022 heartbeat IPC: 1.10560 cumulative IPC: 1.03501 (Simulation time: 0 hr 9 min 50 sec) 
Heartbeat CPU  0 instructions:  294000002 cycles:  237817280 heartbeat IPC: 1.12580 cumulative IPC: 1.03544 (Simulation time: 0 hr 9 min 52 sec) 
Heartbeat CPU  0 instructions:  295000003 cycles:  238702204 heartbeat IPC: 1.13004 cumulative IPC: 1.03589 (Simulation time: 0 hr 9 min 54 sec) 
Heartbeat CPU  0 instructions:  296000000 cycles:  239606734 heartbeat IPC: 1.10554 cumulative IPC: 1.03622 (Simulation time: 0 hr 9 min 56 sec) 
Heartbeat CPU  0 instructions:  297000003 cycles:  240492826 heartbeat IPC: 1.12855 cumulative IPC: 1.03665 (Simulation time: 0 hr 9 min 58 sec) 
Heartbeat CPU  0 instructions:  298000002 cycles:  241384173 heartbeat IPC: 1.12190 cumulative IPC: 1.03705 (Simulation time: 0 hr 10 min 0 sec) 
Heartbeat CPU  0 instructions:  299000003 cycles:  242275252 heartbeat IPC: 1.12224 cumulative IPC: 1.03745 (Simulation time: 0 hr 10 min 2 sec) 
Heartbeat CPU  0 instructions:  300000000 cycles:  243151584 heartbeat IPC: 1.14112 cumulative IPC: 1.03792 (Simulation time: 0 hr 10 min 4 sec) 
Heartbeat CPU  0 instructions:  301000000 cycles:  244049858 heartbeat IPC: 1.11325 cumulative IPC: 1.03827 (Simulation time: 0 hr 10 min 6 sec) 
Heartbeat CPU  0 instructions:  302000003 cycles:  244948610 heartbeat IPC: 1.11266 cumulative IPC: 1.03861 (Simulation time: 0 hr 10 min 8 sec) 
Heartbeat CPU  0 instructions:  303000002 cycles:  245830657 heartbeat IPC: 1.13373 cumulative IPC: 1.03904 (Simulation time: 0 hr 10 min 10 sec) 
Heartbeat CPU  0 instructions:  304000000 cycles:  246721579 heartbeat IPC: 1.12243 cumulative IPC: 1.03942 (Simulation time: 0 hr 10 min 12 sec) 
Heartbeat CPU  0 instructions:  305000001 cycles:  247602785 heartbeat IPC: 1.13481 cumulative IPC: 1.03984 (Simulation time: 0 hr 10 min 14 sec) 
Heartbeat CPU  0 instructions:  306000003 cycles:  248488270 heartbeat IPC: 1.12933 cumulative IPC: 1.04024 (Simulation time: 0 hr 10 min 17 sec) 
Heartbeat CPU  0 instructions:  307000000 cycles:  249382023 heartbeat IPC: 1.11887 cumulative IPC: 1.04060 (Simulation time: 0 hr 10 min 19 sec) 
Heartbeat CPU  0 instructions:  308000000 cycles:  250269608 heartbeat IPC: 1.12665 cumulative IPC: 1.04098 (Simulation time: 0 hr 10 min 21 sec) 
Heartbeat CPU  0 instructions:  309000000 cycles:  251163202 heartbeat IPC: 1.11908 cumulative IPC: 1.04133 (Simulation time: 0 hr 10 min 23 sec) 
Heartbeat CPU  0 instructions:  310000003 cycles:  252050660 heartbeat IPC: 1.12682 cumulative IPC: 1.04170 (Simulation time: 0 hr 10 min 25 sec) 
Heartbeat CPU  0 instructions:  311000001 cycles:  252925334 heartbeat IPC: 1.14328 cumulative IPC: 1.04214 (Simulation time: 0 hr 10 min 27 sec) 
Heartbeat CPU  0 instructions:  312000000 cycles:  253810084 heartbeat IPC: 1.13026 cumulative IPC: 1.04253 (Simulation time: 0 hr 10 min 29 sec) 
Heartbeat CPU  0 instructions:  313000001 cycles:  254702438 heartbeat IPC: 1.12063 cumulative IPC: 1.04287 (Simulation time: 0 hr 10 min 31 sec) 
Heartbeat CPU  0 instructions:  314000000 cycles:  255589788 heartbeat IPC: 1.12695 cumulative IPC: 1.04323 (Simulation time: 0 hr 10 min 33 sec) 
Heartbeat CPU  0 instructions:  315000000 cycles:  256484291 heartbeat IPC: 1.11794 cumulative IPC: 1.04356 (Simulation time: 0 hr 10 min 35 sec) 
Heartbeat CPU  0 instructions:  316000000 cycles:  257347644 heartbeat IPC: 1.15827 cumulative IPC: 1.04403 (Simulation time: 0 hr 10 min 37 sec) 
Heartbeat CPU  0 instructions:  317000000 cycles:  258238657 heartbeat IPC: 1.12232 cumulative IPC: 1.04437 (Simulation time: 0 hr 10 min 39 sec) 
Heartbeat CPU  0 instructions:  318000000 cycles:  259129349 heartbeat IPC: 1.12272 cumulative IPC: 1.04470 (Simulation time: 0 hr 10 min 41 sec) 
Heartbeat CPU  0 instructions:  319000001 cycles:  260017023 heartbeat IPC: 1.12654 cumulative IPC: 1.04505 (Simulation time: 0 hr 10 min 44 sec) 
Heartbeat CPU  0 instructions:  320000000 cycles:  260913642 heartbeat IPC: 1.11530 cumulative IPC: 1.04535 (Simulation time: 0 hr 10 min 46 sec) 
Heartbeat CPU  0 instructions:  321000003 cycles:  261775327 heartbeat IPC: 1.16052 cumulative IPC: 1.04582 (Simulation time: 0 hr 10 min 48 sec) 
Heartbeat CPU  0 instructions:  322000003 cycles:  262664896 heartbeat IPC: 1.12414 cumulative IPC: 1.04615 (Simulation time: 0 hr 10 min 50 sec) 
Heartbeat CPU  0 instructions:  323000003 cycles:  263554239 heartbeat IPC: 1.12443 cumulative IPC: 1.04647 (Simulation time: 0 hr 10 min 52 sec) 
Heartbeat CPU  0 instructions:  324000000 cycles:  264443404 heartbeat IPC: 1.12465 cumulative IPC: 1.04680 (Simulation time: 0 hr 10 min 54 sec) 
Heartbeat CPU  0 instructions:  325000000 cycles:  265331370 heartbeat IPC: 1.12617 cumulative IPC: 1.04713 (Simulation time: 0 hr 10 min 56 sec) 
Heartbeat CPU  0 instructions:  326000001 cycles:  266190478 heartbeat IPC: 1.16400 cumulative IPC: 1.04759 (Simulation time: 0 hr 10 min 58 sec) 
Heartbeat CPU  0 instructions:  327000001 cycles:  267076499 heartbeat IPC: 1.12864 cumulative IPC: 1.04792 (Simulation time: 0 hr 11 min 0 sec) 
Heartbeat CPU  0 instructions:  328000000 cycles:  267968587 heartbeat IPC: 1.12096 cumulative IPC: 1.04822 (Simulation time: 0 hr 11 min 2 sec) 
Heartbeat CPU  0 instructions:  329000000 cycles:  268859372 heartbeat IPC: 1.12261 cumulative IPC: 1.04853 (Simulation time: 0 hr 11 min 4 sec) 
Heartbeat CPU  0 instructions:  330000000 cycles:  269742807 heartbeat IPC: 1.13195 cumulative IPC: 1.04886 (Simulation time: 0 hr 11 min 6 sec) 
Heartbeat CPU  0 instructions:  331000003 cycles:  270625081 heartbeat IPC: 1.13344 cumulative IPC: 1.04920 (Simulation time: 0 hr 11 min 8 sec) 
Heartbeat CPU  0 instructions:  332000000 cycles:  271514568 heartbeat IPC: 1.12424 cumulative IPC: 1.04950 (Simulation time: 0 hr 11 min 10 sec) 
Heartbeat CPU  0 instructions:  333000002 cycles:  272412983 heartbeat IPC: 1.11307 cumulative IPC: 1.04976 (Simulation time: 0 hr 11 min 12 sec) 
Heartbeat CPU  0 instructions:  334000003 cycles:  273297792 heartbeat IPC: 1.13019 cumulative IPC: 1.05008 (Simulation time: 0 hr 11 min 14 sec) 
Heartbeat CPU  0 instructions:  335000000 cycles:  274188037 heartbeat IPC: 1.12328 cumulative IPC: 1.05037 (Simulation time: 0 hr 11 min 17 sec) 
Heartbeat CPU  0 instructions:  336000000 cycles:  275066662 heartbeat IPC: 1.13814 cumulative IPC: 1.05072 (Simulation time: 0 hr 11 min 19 sec) 
Heartbeat CPU  0 instructions:  337000001 cycles:  275949412 heartbeat IPC: 1.13282 cumulative IPC: 1.05104 (Simulation time: 0 hr 11 min 21 sec) 
Heartbeat CPU  0 instructions:  338000003 cycles:  276840633 heartbeat IPC: 1.12206 cumulative IPC: 1.05132 (Simulation time: 0 hr 11 min 23 sec) 
Heartbeat CPU  0 instructions:  339000000 cycles:  277711948 heartbeat IPC: 1.14769 cumulative IPC: 1.05169 (Simulation time: 0 hr 11 min 25 sec) 
Heartbeat CPU  0 instructions:  340000000 cycles:  278611360 heartbeat IPC: 1.11184 cumulative IPC: 1.05192 (Simulation time: 0 hr 11 min 27 sec) 
Heartbeat CPU  0 instructions:  341000002 cycles:  279495358 heartbeat IPC: 1.13123 cumulative IPC: 1.05223 (Simulation time: 0 hr 11 min 29 sec) 
Heartbeat CPU  0 instructions:  342000001 cycles:  280387829 heartbeat IPC: 1.12048 cumulative IPC: 1.05249 (Simulation time: 0 hr 11 min 31 sec) 
Heartbeat CPU  0 instructions:  343000001 cycles:  281286780 heartbeat IPC: 1.11241 cumulative IPC: 1.05273 (Simulation time: 0 hr 11 min 33 sec) 
Heartbeat CPU  0 instructions:  344000000 cycles:  282152878 heartbeat IPC: 1.15460 cumulative IPC: 1.05311 (Simulation time: 0 hr 11 min 35 sec) 
Heartbeat CPU  0 instructions:  345000001 cycles:  283062893 heartbeat IPC: 1.09888 cumulative IPC: 1.05329 (Simulation time: 0 hr 11 min 37 sec) 
Heartbeat CPU  0 instructions:  346000001 cycles:  283957724 heartbeat IPC: 1.11753 cumulative IPC: 1.05353 (Simulation time: 0 hr 11 min 39 sec) 
Heartbeat CPU  0 instructions:  347000003 cycles:  285444496 heartbeat IPC: 0.67260 cumulative IPC: 1.05112 (Simulation time: 0 hr 11 min 42 sec) 
Heartbeat CPU  0 instructions:  348000000 cycles:  286664256 heartbeat IPC: 0.81983 cumulative IPC: 1.04993 (Simulation time: 0 hr 11 min 44 sec) 
Heartbeat CPU  0 instructions:  349000002 cycles:  287765334 heartbeat IPC: 0.90820 cumulative IPC: 1.04927 (Simulation time: 0 hr 11 min 46 sec) 
Heartbeat CPU  0 instructions:  350000000 cycles:  288885004 heartbeat IPC: 0.89312 cumulative IPC: 1.04854 (Simulation time: 0 hr 11 min 48 sec) 
Heartbeat CPU  0 instructions:  351000002 cycles:  289979557 heartbeat IPC: 0.91362 cumulative IPC: 1.04792 (Simulation time: 0 hr 11 min 50 sec) 
Heartbeat CPU  0 instructions:  352000000 cycles:  291077308 heartbeat IPC: 0.91095 cumulative IPC: 1.04730 (Simulation time: 0 hr 11 min 52 sec) 
Heartbeat CPU  0 instructions:  353000000 cycles:  292178416 heartbeat IPC: 0.90818 cumulative IPC: 1.04666 (Simulation time: 0 hr 11 min 54 sec) 
Heartbeat CPU  0 instructions:  354000000 cycles:  293319801 heartbeat IPC: 0.87613 cumulative IPC: 1.04586 (Simulation time: 0 hr 11 min 56 sec) 
Heartbeat CPU  0 instructions:  355000003 cycles:  294419418 heartbeat IPC: 0.90941 cumulative IPC: 1.04525 (Simulation time: 0 hr 11 min 58 sec) 
Heartbeat CPU  0 instructions:  356000000 cycles:  295525191 heartbeat IPC: 0.90434 cumulative IPC: 1.04461 (Simulation time: 0 hr 12 min 0 sec) 
Heartbeat CPU  0 instructions:  357000000 cycles:  296634565 heartbeat IPC: 0.90141 cumulative IPC: 1.04397 (Simulation time: 0 hr 12 min 3 sec) 
Heartbeat CPU  0 instructions:  358000000 cycles:  297731231 heartbeat IPC: 0.91185 cumulative IPC: 1.04338 (Simulation time: 0 hr 12 min 5 sec) 
Heartbeat CPU  0 instructions:  359000000 cycles:  298829161 heartbeat IPC: 0.91080 cumulative IPC: 1.04279 (Simulation time: 0 hr 12 min 7 sec) 
Heartbeat CPU  0 instructions:  360000000 cycles:  299970274 heartbeat IPC: 0.87634 cumulative IPC: 1.04203 (Simulation time: 0 hr 12 min 9 sec) 
Heartbeat CPU  0 instructions:  361000000 cycles:  301067592 heartbeat IPC: 0.91131 cumulative IPC: 1.04146 (Simulation time: 0 hr 12 min 11 sec) 
Heartbeat CPU  0 instructions:  362000001 cycles:  302165841 heartbeat IPC: 0.91054 cumulative IPC: 1.04089 (Simulation time: 0 hr 12 min 13 sec) 
Heartbeat CPU  0 instructions:  363000003 cycles:  303281010 heartbeat IPC: 0.89673 cumulative IPC: 1.04025 (Simulation time: 0 hr 12 min 15 sec) 
Heartbeat CPU  0 instructions:  364000000 cycles:  304379502 heartbeat IPC: 0.91034 cumulative IPC: 1.03969 (Simulation time: 0 hr 12 min 17 sec) 
Heartbeat CPU  0 instructions:  365000000 cycles:  305478572 heartbeat IPC: 0.90986 cumulative IPC: 1.03913 (Simulation time: 0 hr 12 min 19 sec) 
Heartbeat CPU  0 instructions:  366000000 cycles:  306616292 heartbeat IPC: 0.87895 cumulative IPC: 1.03842 (Simulation time: 0 hr 12 min 22 sec) 
Heartbeat CPU  0 instructions:  367000001 cycles:  307721176 heartbeat IPC: 0.90507 cumulative IPC: 1.03785 (Simulation time: 0 hr 12 min 24 sec) 
Heartbeat CPU  0 instructions:  368000000 cycles:  308822353 heartbeat IPC: 0.90812 cumulative IPC: 1.03729 (Simulation time: 0 hr 12 min 26 sec) 
Heartbeat CPU  0 instructions:  369000000 cycles:  309923115 heartbeat IPC: 0.90846 cumulative IPC: 1.03675 (Simulation time: 0 hr 12 min 28 sec) 
Heartbeat CPU  0 instructions:  370000002 cycles:  311027707 heartbeat IPC: 0.90531 cumulative IPC: 1.03619 (Simulation time: 0 hr 12 min 30 sec) 
Heartbeat CPU  0 instructions:  371000002 cycles:  312130139 heartbeat IPC: 0.90709 cumulative IPC: 1.03565 (Simulation time: 0 hr 12 min 32 sec) 
Heartbeat CPU  0 instructions:  372000000 cycles:  313230301 heartbeat IPC: 0.90896 cumulative IPC: 1.03512 (Simulation time: 0 hr 12 min 34 sec) 
Heartbeat CPU  0 instructions:  373000002 cycles:  314373651 heartbeat IPC: 0.87462 cumulative IPC: 1.03442 (Simulation time: 0 hr 12 min 36 sec) 
Heartbeat CPU  0 instructions:  374000003 cycles:  315473347 heartbeat IPC: 0.90934 cumulative IPC: 1.03390 (Simulation time: 0 hr 12 min 38 sec) 
Heartbeat CPU  0 instructions:  375000003 cycles:  316576370 heartbeat IPC: 0.90660 cumulative IPC: 1.03337 (Simulation time: 0 hr 12 min 40 sec) 
Heartbeat CPU  0 instructions:  376000000 cycles:  317680047 heartbeat IPC: 0.90606 cumulative IPC: 1.03285 (Simulation time: 0 hr 12 min 43 sec) 
Heartbeat CPU  0 instructions:  377000003 cycles:  318780099 heartbeat IPC: 0.90905 cumulative IPC: 1.03234 (Simulation time: 0 hr 12 min 45 sec) 
Heartbeat CPU  0 instructions:  378000003 cycles:  319882457 heartbeat IPC: 0.90715 cumulative IPC: 1.03183 (Simulation time: 0 hr 12 min 47 sec) 
Heartbeat CPU  0 instructions:  379000003 cycles:  321014700 heartbeat IPC: 0.88320 cumulative IPC: 1.03121 (Simulation time: 0 hr 12 min 49 sec) 
Heartbeat CPU  0 instructions:  380000000 cycles:  322115831 heartbeat IPC: 0.90815 cumulative IPC: 1.03071 (Simulation time: 0 hr 12 min 51 sec) 
Heartbeat CPU  0 instructions:  381000002 cycles:  323219602 heartbeat IPC: 0.90599 cumulative IPC: 1.03020 (Simulation time: 0 hr 12 min 53 sec) 
Heartbeat CPU  0 instructions:  382000001 cycles:  324319447 heartbeat IPC: 0.90922 cumulative IPC: 1.02972 (Simulation time: 0 hr 12 min 55 sec) 
Heartbeat CPU  0 instructions:  383000000 cycles:  325428219 heartbeat IPC: 0.90190 cumulative IPC: 1.02920 (Simulation time: 0 hr 12 min 57 sec) 
Heartbeat CPU  0 instructions:  384000000 cycles:  326529159 heartbeat IPC: 0.90831 cumulative IPC: 1.02872 (Simulation time: 0 hr 13 min 0 sec) 
Heartbeat CPU  0 instructions:  385000000 cycles:  327629442 heartbeat IPC: 0.90886 cumulative IPC: 1.02824 (Simulation time: 0 hr 13 min 2 sec) 
Heartbeat CPU  0 instructions:  386000001 cycles:  328775081 heartbeat IPC: 0.87288 cumulative IPC: 1.02760 (Simulation time: 0 hr 13 min 4 sec) 
Heartbeat CPU  0 instructions:  387000003 cycles:  329875590 heartbeat IPC: 0.90867 cumulative IPC: 1.02714 (Simulation time: 0 hr 13 min 6 sec) 
Heartbeat CPU  0 instructions:  388000000 cycles:  330971577 heartbeat IPC: 0.91242 cumulative IPC: 1.02669 (Simulation time: 0 hr 13 min 8 sec) 
Heartbeat CPU  0 instructions:  389000001 cycles:  332079766 heartbeat IPC: 0.90237 cumulative IPC: 1.02620 (Simulation time: 0 hr 13 min 10 sec) 
Heartbeat CPU  0 instructions:  390000000 cycles:  333177511 heartbeat IPC: 0.91096 cumulative IPC: 1.02575 (Simulation time: 0 hr 13 min 12 sec) 
Heartbeat CPU  0 instructions:  391000000 cycles:  334274792 heartbeat IPC: 0.91134 cumulative IPC: 1.02531 (Simulation time: 0 hr 13 min 14 sec) 
Heartbeat CPU  0 instructions:  392000000 cycles:  335522901 heartbeat IPC: 0.80121 cumulative IPC: 1.02433 (Simulation time: 0 hr 13 min 17 sec) 
Heartbeat CPU  0 instructions:  393000002 cycles:  337469403 heartbeat IPC: 0.51374 cumulative IPC: 1.02086 (Simulation time: 0 hr 13 min 20 sec) 
Heartbeat CPU  0 instructions:  394000001 cycles:  340673751 heartbeat IPC: 0.31208 cumulative IPC: 1.01304 (Simulation time: 0 hr 13 min 23 sec) 
Heartbeat CPU  0 instructions:  395000000 cycles:  342754140 heartbeat IPC: 0.48068 cumulative IPC: 1.00925 (Simulation time: 0 hr 13 min 26 sec) 
Heartbeat CPU  0 instructions:  396000000 cycles:  343771895 heartbeat IPC: 0.98255 cumulative IPC: 1.00916 (Simulation time: 0 hr 13 min 28 sec) 
Heartbeat CPU  0 instructions:  397000000 cycles:  344538672 heartbeat IPC: 1.30416 cumulative IPC: 1.00993 (Simulation time: 0 hr 13 min 30 sec) 
Heartbeat CPU  0 instructions:  398000001 cycles:  345312228 heartbeat IPC: 1.29273 cumulative IPC: 1.01067 (Simulation time: 0 hr 13 min 32 sec) 
Heartbeat CPU  0 instructions:  399000002 cycles:  346093834 heartbeat IPC: 1.27942 cumulative IPC: 1.01138 (Simulation time: 0 hr 13 min 34 sec) 
Heartbeat CPU  0 instructions:  400000000 cycles:  346864938 heartbeat IPC: 1.29684 cumulative IPC: 1.01212 (Simulation time: 0 hr 13 min 37 sec) 
Heartbeat CPU  0 instructions:  401000003 cycles:  347639827 heartbeat IPC: 1.29051 cumulative IPC: 1.01285 (Simulation time: 0 hr 13 min 39 sec) 
Heartbeat CPU  0 instructions:  402000002 cycles:  348703213 heartbeat IPC: 0.94039 cumulative IPC: 1.01259 (Simulation time: 0 hr 13 min 41 sec) 
Heartbeat CPU  0 instructions:  403000002 cycles:  349599721 heartbeat IPC: 1.11544 cumulative IPC: 1.01290 (Simulation time: 0 hr 13 min 43 sec) 
Heartbeat CPU  0 instructions:  404000000 cycles:  350401725 heartbeat IPC: 1.24687 cumulative IPC: 1.01352 (Simulation time: 0 hr 13 min 45 sec) 
Heartbeat CPU  0 instructions:  405000000 cycles:  351208996 heartbeat IPC: 1.23874 cumulative IPC: 1.01413 (Simulation time: 0 hr 13 min 47 sec) 
Heartbeat CPU  0 instructions:  406000000 cycles:  352013020 heartbeat IPC: 1.24374 cumulative IPC: 1.01474 (Simulation time: 0 hr 13 min 49 sec) 
Heartbeat CPU  0 instructions:  407000000 cycles:  352812469 heartbeat IPC: 1.25086 cumulative IPC: 1.01536 (Simulation time: 0 hr 13 min 52 sec) 
Heartbeat CPU  0 instructions:  408000000 cycles:  353889596 heartbeat IPC: 0.92840 cumulative IPC: 1.01506 (Simulation time: 0 hr 13 min 54 sec) 
Heartbeat CPU  0 instructions:  409000001 cycles:  354998287 heartbeat IPC: 0.90197 cumulative IPC: 1.01464 (Simulation time: 0 hr 13 min 56 sec) 
Heartbeat CPU  0 instructions:  410000003 cycles:  355977280 heartbeat IPC: 1.02146 cumulative IPC: 1.01467 (Simulation time: 0 hr 13 min 58 sec) 
Heartbeat CPU  0 instructions:  411000002 cycles:  357068026 heartbeat IPC: 0.91680 cumulative IPC: 1.01432 (Simulation time: 0 hr 14 min 0 sec) 
Heartbeat CPU  0 instructions:  412000000 cycles:  358203158 heartbeat IPC: 0.88095 cumulative IPC: 1.01383 (Simulation time: 0 hr 14 min 2 sec) 
Heartbeat CPU  0 instructions:  413000003 cycles:  359063720 heartbeat IPC: 1.16203 cumulative IPC: 1.01424 (Simulation time: 0 hr 14 min 4 sec) 
Heartbeat CPU  0 instructions:  414000002 cycles:  359878890 heartbeat IPC: 1.22674 cumulative IPC: 1.01480 (Simulation time: 0 hr 14 min 6 sec) 
Heartbeat CPU  0 instructions:  415000002 cycles:  360697824 heartbeat IPC: 1.22110 cumulative IPC: 1.01534 (Simulation time: 0 hr 14 min 8 sec) 
Heartbeat CPU  0 instructions:  416000000 cycles:  361510958 heartbeat IPC: 1.22981 cumulative IPC: 1.01590 (Simulation time: 0 hr 14 min 10 sec) 
Heartbeat CPU  0 instructions:  417000000 cycles:  362336732 heartbeat IPC: 1.21099 cumulative IPC: 1.01642 (Simulation time: 0 hr 14 min 12 sec) 
Heartbeat CPU  0 instructions:  418000001 cycles:  363157288 heartbeat IPC: 1.21869 cumulative IPC: 1.01695 (Simulation time: 0 hr 14 min 14 sec) 
Heartbeat CPU  0 instructions:  419000003 cycles:  363976768 heartbeat IPC: 1.22029 cumulative IPC: 1.01748 (Simulation time: 0 hr 14 min 16 sec) 
Heartbeat CPU  0 instructions:  420000000 cycles:  364795766 heartbeat IPC: 1.22100 cumulative IPC: 1.01801 (Simulation time: 0 hr 14 min 18 sec) 
Heartbeat CPU  0 instructions:  421000001 cycles:  365615661 heartbeat IPC: 1.21967 cumulative IPC: 1.01854 (Simulation time: 0 hr 14 min 20 sec) 
Heartbeat CPU  0 instructions:  422000000 cycles:  366443626 heartbeat IPC: 1.20778 cumulative IPC: 1.01903 (Simulation time: 0 hr 14 min 22 sec) 
Heartbeat CPU  0 instructions:  423000002 cycles:  367262240 heartbeat IPC: 1.22158 cumulative IPC: 1.01956 (Simulation time: 0 hr 14 min 24 sec) 
Heartbeat CPU  0 instructions:  424000000 cycles:  368084138 heartbeat IPC: 1.21669 cumulative IPC: 1.02007 (Simulation time: 0 hr 14 min 26 sec) 
Heartbeat CPU  0 instructions:  425000000 cycles:  368920818 heartbeat IPC: 1.19520 cumulative IPC: 1.02053 (Simulation time: 0 hr 14 min 28 sec) 
Heartbeat CPU  0 instructions:  426000003 cycles:  369756196 heartbeat IPC: 1.19707 cumulative IPC: 1.02099 (Simulation time: 0 hr 14 min 30 sec) 
Heartbeat CPU  0 instructions:  427000003 cycles:  370578370 heartbeat IPC: 1.21629 cumulative IPC: 1.02149 (Simulation time: 0 hr 14 min 32 sec) 
Heartbeat CPU  0 instructions:  428000000 cycles:  371402452 heartbeat IPC: 1.21347 cumulative IPC: 1.02198 (Simulation time: 0 hr 14 min 34 sec) 
Heartbeat CPU  0 instructions:  429000002 cycles:  372227936 heartbeat IPC: 1.21141 cumulative IPC: 1.02247 (Simulation time: 0 hr 14 min 36 sec) 
Heartbeat CPU  0 instructions:  430000002 cycles:  373051504 heartbeat IPC: 1.21423 cumulative IPC: 1.02296 (Simulation time: 0 hr 14 min 38 sec) 
Heartbeat CPU  0 instructions:  431000003 cycles:  373874470 heartbeat IPC: 1.21512 cumulative IPC: 1.02345 (Simulation time: 0 hr 14 min 40 sec) 
Heartbeat CPU  0 instructions:  432000000 cycles:  374693692 heartbeat IPC: 1.22067 cumulative IPC: 1.02395 (Simulation time: 0 hr 14 min 42 sec) 
Heartbeat CPU  0 instructions:  433000001 cycles:  375520365 heartbeat IPC: 1.20967 cumulative IPC: 1.02442 (Simulation time: 0 hr 14 min 44 sec) 
Heartbeat CPU  0 instructions:  434000001 cycles:  376342198 heartbeat IPC: 1.21679 cumulative IPC: 1.02490 (Simulation time: 0 hr 14 min 46 sec) 
Heartbeat CPU  0 instructions:  435000003 cycles:  377164496 heartbeat IPC: 1.21611 cumulative IPC: 1.02538 (Simulation time: 0 hr 14 min 48 sec) 
Heartbeat CPU  0 instructions:  436000000 cycles:  377986411 heartbeat IPC: 1.21667 cumulative IPC: 1.02586 (Simulation time: 0 hr 14 min 50 sec) 
Heartbeat CPU  0 instructions:  437000002 cycles:  378810841 heartbeat IPC: 1.21296 cumulative IPC: 1.02633 (Simulation time: 0 hr 14 min 52 sec) 
Heartbeat CPU  0 instructions:  438000000 cycles:  379634587 heartbeat IPC: 1.21396 cumulative IPC: 1.02680 (Simulation time: 0 hr 14 min 54 sec) 
Heartbeat CPU  0 instructions:  439000003 cycles:  380455074 heartbeat IPC: 1.21879 cumulative IPC: 1.02728 (Simulation time: 0 hr 14 min 56 sec) 
Heartbeat CPU  0 instructions:  440000000 cycles:  381300832 heartbeat IPC: 1.18237 cumulative IPC: 1.02768 (Simulation time: 0 hr 14 min 58 sec) 
Heartbeat CPU  0 instructions:  441000000 cycles:  382124330 heartbeat IPC: 1.21433 cumulative IPC: 1.02814 (Simulation time: 0 hr 15 min 0 sec) 
Heartbeat CPU  0 instructions:  442000003 cycles:  382944861 heartbeat IPC: 1.21873 cumulative IPC: 1.02861 (Simulation time: 0 hr 15 min 2 sec) 
Heartbeat CPU  0 instructions:  443000002 cycles:  383765954 heartbeat IPC: 1.21789 cumulative IPC: 1.02908 (Simulation time: 0 hr 15 min 4 sec) 
Heartbeat CPU  0 instructions:  444000000 cycles:  384589438 heartbeat IPC: 1.21435 cumulative IPC: 1.02953 (Simulation time: 0 hr 15 min 6 sec) 
Heartbeat CPU  0 instructions:  445000003 cycles:  385408692 heartbeat IPC: 1.22063 cumulative IPC: 1.03000 (Simulation time: 0 hr 15 min 8 sec) 
Heartbeat CPU  0 instructions:  446000002 cycles:  386229630 heartbeat IPC: 1.21812 cumulative IPC: 1.03046 (Simulation time: 0 hr 15 min 10 sec) 
Heartbeat CPU  0 instructions:  447000000 cycles:  387051260 heartbeat IPC: 1.21709 cumulative IPC: 1.03092 (Simulation time: 0 hr 15 min 12 sec) 
Heartbeat CPU  0 instructions:  448000000 cycles:  387872110 heartbeat IPC: 1.21825 cumulative IPC: 1.03137 (Simulation time: 0 hr 15 min 14 sec) 
Heartbeat CPU  0 instructions:  449000003 cycles:  388692780 heartbeat IPC: 1.21852 cumulative IPC: 1.03183 (Simulation time: 0 hr 15 min 16 sec) 
Heartbeat CPU  0 instructions:  450000001 cycles:  389512983 heartbeat IPC: 1.21921 cumulative IPC: 1.03228 (Simulation time: 0 hr 15 min 18 sec) 
Heartbeat CPU  0 instructions:  451000003 cycles:  390334383 heartbeat IPC: 1.21744 cumulative IPC: 1.03273 (Simulation time: 0 hr 15 min 20 sec) 
Heartbeat CPU  0 instructions:  452000000 cycles:  391153196 heartbeat IPC: 1.22128 cumulative IPC: 1.03318 (Simulation time: 0 hr 15 min 22 sec) 
Heartbeat CPU  0 instructions:  453000000 cycles:  391972703 heartbeat IPC: 1.22025 cumulative IPC: 1.03363 (Simulation time: 0 hr 15 min 24 sec) 
Heartbeat CPU  0 instructions:  454000000 cycles:  392805042 heartbeat IPC: 1.20143 cumulative IPC: 1.03404 (Simulation time: 0 hr 15 min 26 sec) 
Heartbeat CPU  0 instructions:  455000002 cycles:  393624293 heartbeat IPC: 1.22063 cumulative IPC: 1.03448 (Simulation time: 0 hr 15 min 28 sec) 
Heartbeat CPU  0 instructions:  456000000 cycles:  394443278 heartbeat IPC: 1.22102 cumulative IPC: 1.03493 (Simulation time: 0 hr 15 min 30 sec) 
Heartbeat CPU  0 instructions:  457000000 cycles:  395264752 heartbeat IPC: 1.21732 cumulative IPC: 1.03536 (Simulation time: 0 hr 15 min 32 sec) 
Heartbeat CPU  0 instructions:  458000002 cycles:  396083019 heartbeat IPC: 1.22210 cumulative IPC: 1.03580 (Simulation time: 0 hr 15 min 34 sec) 
Heartbeat CPU  0 instructions:  459000001 cycles:  396903559 heartbeat IPC: 1.21871 cumulative IPC: 1.03624 (Simulation time: 0 hr 15 min 36 sec) 
Heartbeat CPU  0 instructions:  460000000 cycles:  397721438 heartbeat IPC: 1.22267 cumulative IPC: 1.03668 (Simulation time: 0 hr 15 min 38 sec) 
Heartbeat CPU  0 instructions:  461000003 cycles:  398539931 heartbeat IPC: 1.22176 cumulative IPC: 1.03711 (Simulation time: 0 hr 15 min 40 sec) 
Heartbeat CPU  0 instructions:  462000002 cycles:  399360220 heartbeat IPC: 1.21908 cumulative IPC: 1.03754 (Simulation time: 0 hr 15 min 42 sec) 
Heartbeat CPU  0 instructions:  463000002 cycles:  400179988 heartbeat IPC: 1.21986 cumulative IPC: 1.03797 (Simulation time: 0 hr 15 min 44 sec) 
Heartbeat CPU  0 instructions:  464000000 cycles:  400999179 heartbeat IPC: 1.22071 cumulative IPC: 1.03839 (Simulation time: 0 hr 15 min 46 sec) 
Heartbeat CPU  0 instructions:  465000001 cycles:  401819130 heartbeat IPC: 1.21959 cumulative IPC: 1.03882 (Simulation time: 0 hr 15 min 48 sec) 
Heartbeat CPU  0 instructions:  466000001 cycles:  402642133 heartbeat IPC: 1.21506 cumulative IPC: 1.03923 (Simulation time: 0 hr 15 min 50 sec) 
Heartbeat CPU  0 instructions:  467000001 cycles:  403461034 heartbeat IPC: 1.22115 cumulative IPC: 1.03965 (Simulation time: 0 hr 15 min 52 sec) 
Heartbeat CPU  0 instructions:  468000000 cycles:  404299886 heartbeat IPC: 1.19210 cumulative IPC: 1.04001 (Simulation time: 0 hr 15 min 54 sec) 
Heartbeat CPU  0 instructions:  469000000 cycles:  405118581 heartbeat IPC: 1.22146 cumulative IPC: 1.04043 (Simulation time: 0 hr 15 min 56 sec) 
Heartbeat CPU  0 instructions:  470000003 cycles:  405937403 heartbeat IPC: 1.22127 cumulative IPC: 1.04085 (Simulation time: 0 hr 15 min 58 sec) 
Heartbeat CPU  0 instructions:  471000002 cycles:  406755765 heartbeat IPC: 1.22195 cumulative IPC: 1.04126 (Simulation time: 0 hr 16 min 0 sec) 
Heartbeat CPU  0 instructions:  472000000 cycles:  407575861 heartbeat IPC: 1.21937 cumulative IPC: 1.04167 (Simulation time: 0 hr 16 min 2 sec) 
Heartbeat CPU  0 instructions:  473000001 cycles:  408395963 heartbeat IPC: 1.21936 cumulative IPC: 1.04208 (Simulation time: 0 hr 16 min 4 sec) 
Heartbeat CPU  0 instructions:  474000002 cycles:  409213838 heartbeat IPC: 1.22268 cumulative IPC: 1.04249 (Simulation time: 0 hr 16 min 6 sec) 
Heartbeat CPU  0 instructions:  475000003 cycles:  410033564 heartbeat IPC: 1.21992 cumulative IPC: 1.04290 (Simulation time: 0 hr 16 min 8 sec) 
Heartbeat CPU  0 instructions:  476000000 cycles:  410851714 heartbeat IPC: 1.22227 cumulative IPC: 1.04330 (Simulation time: 0 hr 16 min 10 sec) 
Heartbeat CPU  0 instructions:  477000002 cycles:  411671025 heartbeat IPC: 1.22054 cumulative IPC: 1.04370 (Simulation time: 0 hr 16 min 12 sec) 
Heartbeat CPU  0 instructions:  478000002 cycles:  412491319 heartbeat IPC: 1.21908 cumulative IPC: 1.04410 (Simulation time: 0 hr 16 min 14 sec) 
Heartbeat CPU  0 instructions:  479000002 cycles:  413311131 heartbeat IPC: 1.21979 cumulative IPC: 1.04450 (Simulation time: 0 hr 16 min 16 sec) 
Heartbeat CPU  0 instructions:  480000000 cycles:  414130393 heartbeat IPC: 1.22061 cumulative IPC: 1.04490 (Simulation time: 0 hr 16 min 18 sec) 
Heartbeat CPU  0 instructions:  481000001 cycles:  414949341 heartbeat IPC: 1.22108 cumulative IPC: 1.04529 (Simulation time: 0 hr 16 min 20 sec) 
Heartbeat CPU  0 instructions:  482000000 cycles:  416651853 heartbeat IPC: 0.58737 cumulative IPC: 1.04316 (Simulation time: 0 hr 16 min 22 sec) 
Heartbeat CPU  0 instructions:  483000003 cycles:  417534192 heartbeat IPC: 1.13335 cumulative IPC: 1.04338 (Simulation time: 0 hr 16 min 24 sec) 
Heartbeat CPU  0 instructions:  484000000 cycles:  418423434 heartbeat IPC: 1.12455 cumulative IPC: 1.04358 (Simulation time: 0 hr 16 min 26 sec) 
Heartbeat CPU  0 instructions:  485000003 cycles:  419312667 heartbeat IPC: 1.12457 cumulative IPC: 1.04377 (Simulation time: 0 hr 16 min 28 sec) 
Heartbeat CPU  0 instructions:  486000002 cycles:  420202774 heartbeat IPC: 1.12346 cumulative IPC: 1.04396 (Simulation time: 0 hr 16 min 30 sec) 
Heartbeat CPU  0 instructions:  487000001 cycles:  421082646 heartbeat IPC: 1.13653 cumulative IPC: 1.04418 (Simulation time: 0 hr 16 min 32 sec) 
Heartbeat CPU  0 instructions:  488000000 cycles:  421962766 heartbeat IPC: 1.13621 cumulative IPC: 1.04440 (Simulation time: 0 hr 16 min 34 sec) 
Heartbeat CPU  0 instructions:  489000001 cycles:  422841395 heartbeat IPC: 1.13814 cumulative IPC: 1.04462 (Simulation time: 0 hr 16 min 36 sec) 
Heartbeat CPU  0 instructions:  490000001 cycles:  423775917 heartbeat IPC: 1.07007 cumulative IPC: 1.04469 (Simulation time: 0 hr 16 min 38 sec) 
Heartbeat CPU  0 instructions:  491000000 cycles:  425322493 heartbeat IPC: 0.64659 cumulative IPC: 1.04304 (Simulation time: 0 hr 16 min 40 sec) 
Heartbeat CPU  0 instructions:  492000000 cycles:  426181418 heartbeat IPC: 1.16425 cumulative IPC: 1.04332 (Simulation time: 0 hr 16 min 42 sec) 
Heartbeat CPU  0 instructions:  493000002 cycles:  427039789 heartbeat IPC: 1.16500 cumulative IPC: 1.04360 (Simulation time: 0 hr 16 min 44 sec) 
Heartbeat CPU  0 instructions:  494000001 cycles:  427905577 heartbeat IPC: 1.15502 cumulative IPC: 1.04385 (Simulation time: 0 hr 16 min 46 sec) 
Heartbeat CPU  0 instructions:  495000001 cycles:  428764102 heartbeat IPC: 1.16479 cumulative IPC: 1.04413 (Simulation time: 0 hr 16 min 48 sec) 
Heartbeat CPU  0 instructions:  496000000 cycles:  429622228 heartbeat IPC: 1.16533 cumulative IPC: 1.04440 (Simulation time: 0 hr 16 min 50 sec) 
Heartbeat CPU  0 instructions:  497000000 cycles:  430480080 heartbeat IPC: 1.16570 cumulative IPC: 1.04468 (Simulation time: 0 hr 16 min 52 sec) 
Heartbeat CPU  0 instructions:  498000001 cycles:  431335819 heartbeat IPC: 1.16858 cumulative IPC: 1.04495 (Simulation time: 0 hr 16 min 54 sec) 
Heartbeat CPU  0 instructions:  499000000 cycles:  432528226 heartbeat IPC: 0.83864 cumulative IPC: 1.04431 (Simulation time: 0 hr 16 min 56 sec) 
Heartbeat CPU  0 instructions:  500000000 cycles:  433750666 heartbeat IPC: 0.81804 cumulative IPC: 1.04359 (Simulation time: 0 hr 16 min 58 sec) 
Heartbeat CPU  0 instructions:  501000002 cycles:  434628621 heartbeat IPC: 1.13901 cumulative IPC: 1.04381 (Simulation time: 0 hr 17 min 0 sec) 
Heartbeat CPU  0 instructions:  502000003 cycles:  435503548 heartbeat IPC: 1.14295 cumulative IPC: 1.04403 (Simulation time: 0 hr 17 min 2 sec) 
Heartbeat CPU  0 instructions:  503000003 cycles:  436383471 heartbeat IPC: 1.13646 cumulative IPC: 1.04424 (Simulation time: 0 hr 17 min 4 sec) 
Heartbeat CPU  0 instructions:  504000000 cycles:  437274946 heartbeat IPC: 1.12173 cumulative IPC: 1.04442 (Simulation time: 0 hr 17 min 6 sec) 
Heartbeat CPU  0 instructions:  505000003 cycles:  438154834 heartbeat IPC: 1.13651 cumulative IPC: 1.04463 (Simulation time: 0 hr 17 min 8 sec) 
Heartbeat CPU  0 instructions:  506000002 cycles:  439033448 heartbeat IPC: 1.13816 cumulative IPC: 1.04484 (Simulation time: 0 hr 17 min 10 sec) 
Heartbeat CPU  0 instructions:  507000000 cycles:  439907003 heartbeat IPC: 1.14475 cumulative IPC: 1.04507 (Simulation time: 0 hr 17 min 12 sec) 
Heartbeat CPU  0 instructions:  508000000 cycles:  441367160 heartbeat IPC: 0.68486 cumulative IPC: 1.04372 (Simulation time: 0 hr 17 min 15 sec) 
Heartbeat CPU  0 instructions:  509000002 cycles:  442568976 heartbeat IPC: 0.83208 cumulative IPC: 1.04307 (Simulation time: 0 hr 17 min 17 sec) 
Heartbeat CPU  0 instructions:  510000002 cycles:  443693445 heartbeat IPC: 0.88931 cumulative IPC: 1.04263 (Simulation time: 0 hr 17 min 19 sec) 
Heartbeat CPU  0 instructions:  511000003 cycles:  444782720 heartbeat IPC: 0.91804 cumulative IPC: 1.04229 (Simulation time: 0 hr 17 min 22 sec) 
Heartbeat CPU  0 instructions:  512000000 cycles:  445881382 heartbeat IPC: 0.91020 cumulative IPC: 1.04192 (Simulation time: 0 hr 17 min 24 sec) 
Heartbeat CPU  0 instructions:  513000003 cycles:  446980052 heartbeat IPC: 0.91019 cumulative IPC: 1.04156 (Simulation time: 0 hr 17 min 27 sec) 
Heartbeat CPU  0 instructions:  514000003 cycles:  448114242 heartbeat IPC: 0.88169 cumulative IPC: 1.04110 (Simulation time: 0 hr 17 min 29 sec) 
Heartbeat CPU  0 instructions:  515000000 cycles:  449204177 heartbeat IPC: 0.91748 cumulative IPC: 1.04076 (Simulation time: 0 hr 17 min 31 sec) 
Heartbeat CPU  0 instructions:  516000000 cycles:  450307137 heartbeat IPC: 0.90665 cumulative IPC: 1.04039 (Simulation time: 0 hr 17 min 34 sec) 
Heartbeat CPU  0 instructions:  517000001 cycles:  451395105 heartbeat IPC: 0.91915 cumulative IPC: 1.04006 (Simulation time: 0 hr 17 min 36 sec) 
Heartbeat CPU  0 instructions:  518000001 cycles:  452497378 heartbeat IPC: 0.90722 cumulative IPC: 1.03970 (Simulation time: 0 hr 17 min 39 sec) 
Heartbeat CPU  0 instructions:  519000000 cycles:  453619149 heartbeat IPC: 0.89145 cumulative IPC: 1.03929 (Simulation time: 0 hr 17 min 41 sec) 
Heartbeat CPU  0 instructions:  520000000 cycles:  454702661 heartbeat IPC: 0.92292 cumulative IPC: 1.03897 (Simulation time: 0 hr 17 min 43 sec) 
Heartbeat CPU  0 instructions:  521000003 cycles:  455796250 heartbeat IPC: 0.91442 cumulative IPC: 1.03864 (Simulation time: 0 hr 17 min 46 sec) 
Heartbeat CPU  0 instructions:  522000002 cycles:  456865920 heartbeat IPC: 0.93487 cumulative IPC: 1.03837 (Simulation time: 0 hr 17 min 48 sec) 
Heartbeat CPU  0 instructions:  523000001 cycles:  457983899 heartbeat IPC: 0.89447 cumulative IPC: 1.03797 (Simulation time: 0 hr 17 min 51 sec) 
Heartbeat CPU  0 instructions:  524000000 cycles:  459049989 heartbeat IPC: 0.93801 cumulative IPC: 1.03771 (Simulation time: 0 hr 17 min 53 sec) 
Heartbeat CPU  0 instructions:  525000000 cycles:  460141706 heartbeat IPC: 0.91599 cumulative IPC: 1.03739 (Simulation time: 0 hr 17 min 55 sec) 
Heartbeat CPU  0 instructions:  526000001 cycles:  461217906 heartbeat IPC: 0.92920 cumulative IPC: 1.03710 (Simulation time: 0 hr 17 min 58 sec) 
Heartbeat CPU  0 instructions:  527000001 cycles:  462332631 heartbeat IPC: 0.89708 cumulative IPC: 1.03672 (Simulation time: 0 hr 18 min 0 sec) 
Heartbeat CPU  0 instructions:  528000000 cycles:  463425460 heartbeat IPC: 0.91506 cumulative IPC: 1.03640 (Simulation time: 0 hr 18 min 3 sec) 
Heartbeat CPU  0 instructions:  529000002 cycles:  464515049 heartbeat IPC: 0.91778 cumulative IPC: 1.03609 (Simulation time: 0 hr 18 min 5 sec) 
Heartbeat CPU  0 instructions:  530000003 cycles:  465611289 heartbeat IPC: 0.91221 cumulative IPC: 1.03576 (Simulation time: 0 hr 18 min 7 sec) 
Heartbeat CPU  0 instructions:  531000002 cycles:  466716160 heartbeat IPC: 0.90508 cumulative IPC: 1.03541 (Simulation time: 0 hr 18 min 10 sec) 
Heartbeat CPU  0 instructions:  532000000 cycles:  467810993 heartbeat IPC: 0.91338 cumulative IPC: 1.03509 (Simulation time: 0 hr 18 min 12 sec) 
Heartbeat CPU  0 instructions:  533000000 cycles:  468900408 heartbeat IPC: 0.91792 cumulative IPC: 1.03479 (Simulation time: 0 hr 18 min 14 sec) 
Heartbeat CPU  0 instructions:  534000000 cycles:  469989085 heartbeat IPC: 0.91855 cumulative IPC: 1.03449 (Simulation time: 0 hr 18 min 17 sec) 
Heartbeat CPU  0 instructions:  535000000 cycles:  471077338 heartbeat IPC: 0.91890 cumulative IPC: 1.03419 (Simulation time: 0 hr 18 min 19 sec) 
Heartbeat CPU  0 instructions:  536000000 cycles:  472179150 heartbeat IPC: 0.90760 cumulative IPC: 1.03386 (Simulation time: 0 hr 18 min 22 sec) 
Heartbeat CPU  0 instructions:  537000001 cycles:  473274902 heartbeat IPC: 0.91262 cumulative IPC: 1.03354 (Simulation time: 0 hr 18 min 24 sec) 
Heartbeat CPU  0 instructions:  538000002 cycles:  474368928 heartbeat IPC: 0.91406 cumulative IPC: 1.03324 (Simulation time: 0 hr 18 min 26 sec) 
Heartbeat CPU  0 instructions:  539000000 cycles:  475468533 heartbeat IPC: 0.90942 cumulative IPC: 1.03292 (Simulation time: 0 hr 18 min 29 sec) 
Heartbeat CPU  0 instructions:  540000000 cycles:  476582252 heartbeat IPC: 0.89789 cumulative IPC: 1.03256 (Simulation time: 0 hr 18 min 31 sec) 
Heartbeat CPU  0 instructions:  541000003 cycles:  477678758 heartbeat IPC: 0.91199 cumulative IPC: 1.03225 (Simulation time: 0 hr 18 min 34 sec) 
Heartbeat CPU  0 instructions:  542000000 cycles:  478773359 heartbeat IPC: 0.91357 cumulative IPC: 1.03195 (Simulation time: 0 hr 18 min 36 sec) 
Heartbeat CPU  0 instructions:  543000001 cycles:  479860467 heartbeat IPC: 0.91987 cumulative IPC: 1.03167 (Simulation time: 0 hr 18 min 38 sec) 
Heartbeat CPU  0 instructions:  544000000 cycles:  480964166 heartbeat IPC: 0.90604 cumulative IPC: 1.03134 (Simulation time: 0 hr 18 min 41 sec) 
Heartbeat CPU  0 instructions:  545000000 cycles:  482044713 heartbeat IPC: 0.92546 cumulative IPC: 1.03108 (Simulation time: 0 hr 18 min 43 sec) 
Heartbeat CPU  0 instructions:  546000001 cycles:  483356707 heartbeat IPC: 0.76220 cumulative IPC: 1.03026 (Simulation time: 0 hr 18 min 46 sec) 
Heartbeat CPU  0 instructions:  547000001 cycles:  484473768 heartbeat IPC: 0.89521 cumulative IPC: 1.02992 (Simulation time: 0 hr 18 min 48 sec) 
Heartbeat CPU  0 instructions:  548000000 cycles:  485336217 heartbeat IPC: 1.15949 cumulative IPC: 1.03017 (Simulation time: 0 hr 18 min 50 sec) 
Heartbeat CPU  0 instructions:  549000000 cycles:  486188639 heartbeat IPC: 1.17313 cumulative IPC: 1.03045 (Simulation time: 0 hr 18 min 52 sec) 
Heartbeat CPU  0 instructions:  550000002 cycles:  487056154 heartbeat IPC: 1.15272 cumulative IPC: 1.03070 (Simulation time: 0 hr 18 min 54 sec) 
Heartbeat CPU  0 instructions:  551000001 cycles:  487917858 heartbeat IPC: 1.16049 cumulative IPC: 1.03095 (Simulation time: 0 hr 18 min 56 sec) 
Heartbeat CPU  0 instructions:  552000000 cycles:  488770528 heartbeat IPC: 1.17279 cumulative IPC: 1.03123 (Simulation time: 0 hr 18 min 58 sec) 
Heartbeat CPU  0 instructions:  553000003 cycles:  489629712 heartbeat IPC: 1.16390 cumulative IPC: 1.03149 (Simulation time: 0 hr 19 min 0 sec) 
Heartbeat CPU  0 instructions:  554000001 cycles:  490489706 heartbeat IPC: 1.16280 cumulative IPC: 1.03174 (Simulation time: 0 hr 19 min 2 sec) 
Heartbeat CPU  0 instructions:  555000001 cycles:  491348649 heartbeat IPC: 1.16422 cumulative IPC: 1.03200 (Simulation time: 0 hr 19 min 5 sec) 
Heartbeat CPU  0 instructions:  556000000 cycles:  492210681 heartbeat IPC: 1.16005 cumulative IPC: 1.03225 (Simulation time: 0 hr 19 min 7 sec) 
Heartbeat CPU  0 instructions:  557000002 cycles:  493076071 heartbeat IPC: 1.15555 cumulative IPC: 1.03249 (Simulation time: 0 hr 19 min 9 sec) 
Heartbeat CPU  0 instructions:  558000003 cycles:  493926098 heartbeat IPC: 1.17643 cumulative IPC: 1.03277 (Simulation time: 0 hr 19 min 11 sec) 
Heartbeat CPU  0 instructions:  559000002 cycles:  494774433 heartbeat IPC: 1.17878 cumulative IPC: 1.03305 (Simulation time: 0 hr 19 min 13 sec) 
Heartbeat CPU  0 instructions:  560000000 cycles:  495615795 heartbeat IPC: 1.18855 cumulative IPC: 1.03334 (Simulation time: 0 hr 19 min 15 sec) 
Heartbeat CPU  0 instructions:  561000002 cycles:  496458545 heartbeat IPC: 1.18659 cumulative IPC: 1.03363 (Simulation time: 0 hr 19 min 17 sec) 
Heartbeat CPU  0 instructions:  562000002 cycles:  497303497 heartbeat IPC: 1.18350 cumulative IPC: 1.03391 (Simulation time: 0 hr 19 min 19 sec) 
Heartbeat CPU  0 instructions:  563000001 cycles:  498153359 heartbeat IPC: 1.17666 cumulative IPC: 1.03419 (Simulation time: 0 hr 19 min 21 sec) 
Heartbeat CPU  0 instructions:  564000000 cycles:  499010544 heartbeat IPC: 1.16661 cumulative IPC: 1.03444 (Simulation time: 0 hr 19 min 23 sec) 
Heartbeat CPU  0 instructions:  565000003 cycles:  499870013 heartbeat IPC: 1.16351 cumulative IPC: 1.03469 (Simulation time: 0 hr 19 min 25 sec) 
Heartbeat CPU  0 instructions:  566000002 cycles:  500717154 heartbeat IPC: 1.18044 cumulative IPC: 1.03496 (Simulation time: 0 hr 19 min 27 sec) 
Heartbeat CPU  0 instructions:  567000001 cycles:  501612703 heartbeat IPC: 1.11663 cumulative IPC: 1.03512 (Simulation time: 0 hr 19 min 29 sec) 
Heartbeat CPU  0 instructions:  568000000 cycles:  502452720 heartbeat IPC: 1.19045 cumulative IPC: 1.03541 (Simulation time: 0 hr 19 min 31 sec) 
Heartbeat CPU  0 instructions:  569000001 cycles:  503298793 heartbeat IPC: 1.18193 cumulative IPC: 1.03568 (Simulation time: 0 hr 19 min 34 sec) 
Heartbeat CPU  0 instructions:  570000001 cycles:  504150890 heartbeat IPC: 1.17358 cumulative IPC: 1.03594 (Simulation time: 0 hr 19 min 36 sec) 
Heartbeat CPU  0 instructions:  571000003 cycles:  505002431 heartbeat IPC: 1.17434 cumulative IPC: 1.03620 (Simulation time: 0 hr 19 min 38 sec) 
Heartbeat CPU  0 instructions:  572000000 cycles:  505838575 heartbeat IPC: 1.19596 cumulative IPC: 1.03650 (Simulation time: 0 hr 19 min 40 sec) 
Heartbeat CPU  0 instructions:  573000001 cycles:  506686617 heartbeat IPC: 1.17919 cumulative IPC: 1.03676 (Simulation time: 0 hr 19 min 42 sec) 
Heartbeat CPU  0 instructions:  574000003 cycles:  507529786 heartbeat IPC: 1.18600 cumulative IPC: 1.03704 (Simulation time: 0 hr 19 min 44 sec) 
Heartbeat CPU  0 instructions:  575000000 cycles:  508383080 heartbeat IPC: 1.17193 cumulative IPC: 1.03729 (Simulation time: 0 hr 19 min 46 sec) 
Heartbeat CPU  0 instructions:  576000000 cycles:  509236604 heartbeat IPC: 1.17161 cumulative IPC: 1.03754 (Simulation time: 0 hr 19 min 48 sec) 
Heartbeat CPU  0 instructions:  577000002 cycles:  510095813 heartbeat IPC: 1.16386 cumulative IPC: 1.03777 (Simulation time: 0 hr 19 min 50 sec) 
Heartbeat CPU  0 instructions:  578000003 cycles:  510951802 heartbeat IPC: 1.16824 cumulative IPC: 1.03802 (Simulation time: 0 hr 19 min 52 sec) 
Heartbeat CPU  0 instructions:  579000000 cycles:  511796272 heartbeat IPC: 1.18417 cumulative IPC: 1.03828 (Simulation time: 0 hr 19 min 54 sec) 
Heartbeat CPU  0 instructions:  580000000 cycles:  512638445 heartbeat IPC: 1.18740 cumulative IPC: 1.03856 (Simulation time: 0 hr 19 min 56 sec) 
Heartbeat CPU  0 instructions:  581000002 cycles:  513482160 heartbeat IPC: 1.18524 cumulative IPC: 1.03882 (Simulation time: 0 hr 19 min 58 sec) 
Heartbeat CPU  0 instructions:  582000000 cycles:  514330271 heartbeat IPC: 1.17909 cumulative IPC: 1.03908 (Simulation time: 0 hr 20 min 0 sec) 
Heartbeat CPU  0 instructions:  583000000 cycles:  515170948 heartbeat IPC: 1.18952 cumulative IPC: 1.03935 (Simulation time: 0 hr 20 min 3 sec) 
Heartbeat CPU  0 instructions:  584000000 cycles:  516023425 heartbeat IPC: 1.17305 cumulative IPC: 1.03960 (Simulation time: 0 hr 20 min 5 sec) 
Heartbeat CPU  0 instructions:  585000001 cycles:  516866836 heartbeat IPC: 1.18566 cumulative IPC: 1.03986 (Simulation time: 0 hr 20 min 7 sec) 
Heartbeat CPU  0 instructions:  586000000 cycles:  517716640 heartbeat IPC: 1.17674 cumulative IPC: 1.04011 (Simulation time: 0 hr 20 min 9 sec) 
Heartbeat CPU  0 instructions:  587000000 cycles:  518568863 heartbeat IPC: 1.17340 cumulative IPC: 1.04035 (Simulation time: 0 hr 20 min 11 sec) 
Heartbeat CPU  0 instructions:  588000000 cycles:  519446696 heartbeat IPC: 1.13917 cumulative IPC: 1.04054 (Simulation time: 0 hr 20 min 13 sec) 
Heartbeat CPU  0 instructions:  589000001 cycles:  520291824 heartbeat IPC: 1.18325 cumulative IPC: 1.04079 (Simulation time: 0 hr 20 min 15 sec) 
Heartbeat CPU  0 instructions:  590000003 cycles:  521138484 heartbeat IPC: 1.18111 cumulative IPC: 1.04105 (Simulation time: 0 hr 20 min 17 sec) 
Heartbeat CPU  0 instructions:  591000002 cycles:  521979873 heartbeat IPC: 1.18851 cumulative IPC: 1.04131 (Simulation time: 0 hr 20 min 19 sec) 
Heartbeat CPU  0 instructions:  592000000 cycles:  522823430 heartbeat IPC: 1.18545 cumulative IPC: 1.04157 (Simulation time: 0 hr 20 min 21 sec) 
Heartbeat CPU  0 instructions:  593000000 cycles:  523670030 heartbeat IPC: 1.18120 cumulative IPC: 1.04182 (Simulation time: 0 hr 20 min 23 sec) 
Heartbeat CPU  0 instructions:  594000003 cycles:  524507874 heartbeat IPC: 1.19354 cumulative IPC: 1.04208 (Simulation time: 0 hr 20 min 25 sec) 
Heartbeat CPU  0 instructions:  595000000 cycles:  525360649 heartbeat IPC: 1.17264 cumulative IPC: 1.04232 (Simulation time: 0 hr 20 min 27 sec) 
Heartbeat CPU  0 instructions:  596000000 cycles:  526202385 heartbeat IPC: 1.18802 cumulative IPC: 1.04258 (Simulation time: 0 hr 20 min 30 sec) 
Heartbeat CPU  0 instructions:  597000001 cycles:  527048074 heartbeat IPC: 1.18247 cumulative IPC: 1.04282 (Simulation time: 0 hr 20 min 32 sec) 
Heartbeat CPU  0 instructions:  598000002 cycles:  527923146 heartbeat IPC: 1.14276 cumulative IPC: 1.04301 (Simulation time: 0 hr 20 min 34 sec) 
Heartbeat CPU  0 instructions:  599000000 cycles:  528769926 heartbeat IPC: 1.18094 cumulative IPC: 1.04325 (Simulation time: 0 hr 20 min 36 sec) 
Heartbeat CPU  0 instructions:  600000000 cycles:  529612513 heartbeat IPC: 1.18682 cumulative IPC: 1.04350 (Simulation time: 0 hr 20 min 38 sec) 
Finished CPU 0 instructions: 500000002 cycles: 479154669 cumulative IPC: 1.04350 (Simulation time: 0 hr 20 min 38 sec) 

ChampSim completed all CPUs

[ROI Statistics]
Core_0_instructions 500000002
Core_0_cycles 479154669
Core_0_IPC 1.04350

Core_0_branch_prediction_accuracy 99.14567
Core_0_branch_MPKI 0.22121
Core_0_average_ROB_occupancy_at_mispredict 245.20320

Core_0_L1D_total_access 145124792
Core_0_L1D_total_hit 139417963
Core_0_L1D_total_miss 5706829
Core_0_L1D_loads 131724197
Core_0_L1D_load_hit 127428294
Core_0_L1D_load_miss 4295903
Core_0_L1D_RFOs 13400595
Core_0_L1D_RFO_hit 11989669
Core_0_L1D_RFO_miss 1410926
Core_0_L1D_prefetches 0
Core_0_L1D_prefetch_hit 0
Core_0_L1D_prefetch_miss 0
Core_0_L1D_writebacks 0
Core_0_L1D_writeback_hit 0
Core_0_L1D_writeback_miss 0
Core_0_L1D_prefetch_requested 0
Core_0_L1D_prefetch_dropped 0
Core_0_L1D_prefetch_issued 0
Core_0_L1D_prefetch_filled 0
Core_0_L1D_prefetch_useful 0
Core_0_L1D_prefetch_useless 0
Core_0_L1D_prefetch_late 0
Core_0_L1D_average_miss_latency 61.42172

Core_0_L1D_rq_access 194151646
Core_0_L1D_rq_forward 0
Core_0_L1D_rq_merged 61354108
Core_0_L1D_rq_to_cache 132797538
Core_0_L1D_rq_full 0

Core_0_L1D_wq_access 17666329
Core_0_L1D_wq_forward 0
Core_0_L1D_wq_merged 2556
Core_0_L1D_wq_to_cache 17663773
Core_0_L1D_wq_full 0

Core_0_L1D_pq_access 0
Core_0_L1D_pq_forward 0
Core_0_L1D_pq_merged 0
Core_0_L1D_pq_to_cache 0
Core_0_L1D_pq_full 0

Core_0_L1D_acc_epochs 511066
Core_0_L1D_acc_level_0 511066
Core_0_L1D_acc_level_1 0
Core_0_L1D_acc_level_2 0
Core_0_L1D_acc_level_3 0
Core_0_L1D_acc_level_4 0
Core_0_L1D_acc_level_5 0
Core_0_L1D_acc_level_6 0
Core_0_L1D_acc_level_7 0
Core_0_L1D_acc_level_8 0
Core_0_L1D_acc_level_9 0

Core_0_L1I_total_access 115127024
Core_0_L1I_total_hit 115126218
Core_0_L1I_total_miss 806
Core_0_L1I_loads 115127024
Core_0_L1I_load_hit 115126218
Core_0_L1I_load_miss 806
Core_0_L1I_RFOs 0
Core_0_L1I_RFO_hit 0
Core_0_L1I_RFO_miss 0
Core_0_L1I_prefetches 0
Core_0_L1I_prefetch_hit 0
Core_0_L1I_prefetch_miss 0
Core_0_L1I_writebacks 0
Core_0_L1I_writeback_hit 0
Core_0_L1I_writeback_miss 0
Core_0_L1I_prefetch_requested 0
Core_0_L1I_prefetch_dropped 0
Core_0_L1I_prefetch_issued 0
Core_0_L1I_prefetch_filled 0
Core_0_L1I_prefetch_useful 0
Core_0_L1I_prefetch_useless 0
Core_0_L1I_prefetch_late 0
Core_0_L1I_average_miss_latency 228.53102

Core_0_L1I_rq_access 500000001
Core_0_L1I_rq_forward 0
Core_0_L1I_rq_merged 384871830
Core_0_L1I_rq_to_cache 115128171
Core_0_L1I_rq_full 0

Core_0_L1I_wq_access 0
Core_0_L1I_wq_forward 0
Core_0_L1I_wq_merged 0
Core_0_L1I_wq_to_cache 0
Core_0_L1I_wq_full 0

Core_0_L1I_pq_access 0
Core_0_L1I_pq_forward 0
Core_0_L1I_pq_merged 0
Core_0_L1I_pq_to_cache 0
Core_0_L1I_pq_full 0

Core_0_L1I_acc_epochs 511066
Core_0_L1I_acc_level_0 511066
Core_0_L1I_acc_level_1 0
Core_0_L1I_acc_level_2 0
Core_0_L1I_acc_level_3 0
Core_0_L1I_acc_level_4 0
Core_0_L1I_acc_level_5 0
Core_0_L1I_acc_level_6 0
Core_0_L1I_acc_level_7 0
Core_0_L1I_acc_level_8 0
Core_0_L1I_acc_level_9 0

Core_0_L2C_total_access 10581273
Core_0_L2C_total_hit 6269651
Core_0_L2C_total_miss 4311622
Core_0_L2C_loads 4296673
Core_0_L2C_load_hit 3888111
Core_0_L2C_load_miss 408562
Core_0_L2C_RFOs 1410617
Core_0_L2C_RFO_hit 441270
Core_0_L2C_RFO_miss 969347
Core_0_L2C_prefetches 3028577
Core_0_L2C_prefetch_hit 96628
Core_0_L2C_prefetch_miss 2931949
Core_0_L2C_writebacks 1845406
Core_0_L2C_writeback_hit 1843642
Core_0_L2C_writeback_miss 1764
Core_0_L2C_prefetch_requested 3919048
Core_0_L2C_prefetch_dropped 0
Core_0_L2C_prefetch_issued 3919048
Core_0_L2C_prefetch_filled 3591629
Core_0_L2C_prefetch_useful 3545995
Core_0_L2C_prefetch_useless 45208
Core_0_L2C_prefetch_late 11484
Core_0_L2C_average_miss_latency 219.01744

Core_0_L2C_rq_access 5707635
Core_0_L2C_rq_forward 0
Core_0_L2C_rq_merged 0
Core_0_L2C_rq_to_cache 5707290
Core_0_L2C_rq_full 0

Core_0_L2C_wq_access 1845406
Core_0_L2C_wq_forward 345
Core_0_L2C_wq_merged 0
Core_0_L2C_wq_to_cache 1845406
Core_0_L2C_wq_full 0

Core_0_L2C_pq_access 3919048
Core_0_L2C_pq_forward 0
Core_0_L2C_pq_merged 0
Core_0_L2C_pq_to_cache 3919048
Core_0_L2C_pq_full 0

Core_0_L2C_acc_epochs 511066
Core_0_L2C_acc_level_0 295278
Core_0_L2C_acc_level_1 53792
Core_0_L2C_acc_level_2 30771
Core_0_L2C_acc_level_3 20904
Core_0_L2C_acc_level_4 13342
Core_0_L2C_acc_level_5 15903
Core_0_L2C_acc_level_6 9329
Core_0_L2C_acc_level_7 8195
Core_0_L2C_acc_level_8 5063
Core_0_L2C_acc_level_9 58489

Core_0_LLC_total_access 5806669
Core_0_LLC_total_hit 1352869
Core_0_LLC_total_miss 4453800
Core_0_LLC_loads 397086
Core_0_LLC_load_hit 165449
Core_0_LLC_load_miss 231637
Core_0_LLC_RFOs 969343
Core_0_LLC_RFO_hit 79514
Core_0_LLC_RFO_miss 889829
Core_0_LLC_prefetches 3121920
Core_0_LLC_prefetch_hit 652806
Core_0_LLC_prefetch_miss 2469114
Core_0_LLC_writebacks 1318320
Core_0_LLC_writeback_hit 455100
Core_0_LLC_writeback_miss 863220
Core_0_LLC_prefetch_requested 0
Core_0_LLC_prefetch_dropped 0
Core_0_LLC_prefetch_issued 0
Core_0_LLC_prefetch_filled 2972836
Core_0_LLC_prefetch_useful 130977
Core_0_LLC_prefetch_useless 2839289
Core_0_LLC_prefetch_late 53
Core_0_LLC_average_miss_latency 189.04911

Core_0_LLC_rq_access 1366430
Core_0_LLC_rq_forward 0
Core_0_LLC_rq_merged 0
Core_0_LLC_rq_to_cache 1366429
Core_0_LLC_rq_full 0

Core_0_LLC_wq_access 1318320
Core_0_LLC_wq_forward 4
Core_0_LLC_wq_merged 0
Core_0_LLC_wq_to_cache 1318320
Core_0_LLC_wq_full 0

Core_0_LLC_pq_access 3794224
Core_0_LLC_pq_forward 0
Core_0_LLC_pq_merged 0
Core_0_LLC_pq_to_cache 3794221
Core_0_LLC_pq_full 0

Core_0_LLC_acc_epochs 517200
Core_0_LLC_acc_level_0 498804
Core_0_LLC_acc_level_1 7482
Core_0_LLC_acc_level_2 3341
Core_0_LLC_acc_level_3 1969
Core_0_LLC_acc_level_4 985
Core_0_LLC_acc_level_5 1426
Core_0_LLC_acc_level_6 665
Core_0_LLC_acc_level_7 589
Core_0_LLC_acc_level_8 315
Core_0_LLC_acc_level_9 1624

Core_0_major_page_fault 0
Core_0_minor_page_fault 19646

[Bingo] PHT Access: 188944
[Bingo] PHT Hit PC+Addr: 7529
[Bingo] PHT Hit PC+Offs: 169869
[Bingo] PHT Miss: 11546
[Bingo] Prefetch PC+Addr: 0
[Bingo] Prefetch PC+Offs: 0
[Bingo] Useful PC+Addr: 0
[Bingo] Useful PC+Offs: 0
[Bingo] Useless PC+Addr: 0
[Bingo] Useless PC+Offs: 0
[Bingo] L1 Prefetch per Region: 0.00000
[Bingo] L2 Prefetch per Region: 22.11723
[Bingo] L3 Prefetch per Region: 1.13867
[Bingo] No Prefetch per Region: 8.74411
[Bingo] Number of Voters Mean: 13.06570
[Bingo] Number of Voters SD: 4.51169

Channel_0_RQ_row_buffer_hit 2038250
Channel_0_RQ_row_buffer_miss 1552305
Channel_0_WQ_row_buffer_hit 419585
Channel_0_WQ_row_buffer_miss 736052
Channel_0_WQ_full 17589
Channel_0_dbus_congested 1107332

avg_congested_cycle 1

DRAM_bw_pochs 2068799
DRAM_bw_level_0 1996957
DRAM_bw_level_1 71005
DRAM_bw_level_2 834
DRAM_bw_level_3 3
