*************************************************
   ChampSim Multicore Out-of-Order Simulator
   Last compiled: Dec 11 2024 17:59:53
*************************************************
parsing config file: /home/functionmain/桌面/Pythia/config/mlop.ini

trace_0 /home/functionmain/桌面/Pythia/traces/437.leslie3d-271B.champsimtrace.xz
adding L2C_PREFETCHER: MLOP
Initialize SHIP state
warmup_instructions 100000000
simulation_instructions 500000000
champsim_seed 220
measure_ipc 0
measure_ipc_epoch 1000
measure_dram_bw 1
measure_dram_bw_epoch 256
measure_cache_acc 1
measure_cache_acc_epoch 1024
l1d_perfect 0
l2c_perfect 0
llc_perfect 0
l1d_semi_perfect 0
l2c_semi_perfect 0
llc_semi_perfect 0
semi_perfect_cache_page_buffer_size 64

num_cpus 1
cpu_freq 4000
dram_io_freq 600
page_size 4096
block_size 64
max_read_per_cycle 8
max_fill_per_cycle 1
dram_channels 1
log2_dram_channels 0
dram_ranks 1
dram_banks 8
dram_rows 65536
dram_columns 128
dram_row_size 8
dram_size 4096
dram_pages 1048576

fetch_width 6
decode_width 6
exec_width 4
lq_width 2
sq_width 2
retire_width 4
scheduler_size 128
branch_mispredict_penalty 20
rob_size 256
lq_size 72
sq_size 56
num_instr_destinations_sparc 4
num_instr_destinations 2
num_instr_sources 4

itlb_set 16
itlb_way 8
itlb_rq_size 16
itlb_wq_size 16
itlb_pq_size 0
itlb_mshr_size 8
itlb_latency 1

dtlb_set 16
dtlb_way 4
dtlb_rq_size 16
dtlb_wq_size 16
dtlb_pq_size 0
dtlb_mshr_size 8
dtlb_latency 1

stlb_set 128
stlb_way 12
stlb_rq_size 32
stlb_wq_size 32
stlb_pq_size 0
stlb_mshr_size 16
stlb_latency 8

l1i_size 32
l1i_set 64
l1i_way 8
l1i_rq_size 64
l1i_wq_size 64
l1i_pq_size 8
l1i_mshr_size 8
l1i_latency 1

l1d_size 32
l1d_set 64
l1d_way 8
l1d_rq_size 64
l1d_wq_size 64
l1d_pq_size 8
l1d_mshr_size 16
l1d_latency 4

l2c_size 256
l2c_set 512
l2c_way 8
l2c_rq_size 32
l2c_wq_size 32
l2c_pq_size 32
l2c_mshr_size 32
l2c_latency 10

llc_size 2048
llc_set 2048
llc_way 16
llc_rq_size 32
llc_wq_size 32
llc_pq_size 32
llc_mshr_size 64
llc_latency 20

dram_channel_width 8
dram_wq_size 64
dram_rq_size 64
tRP 15
tRCD 15
tCAS 12.5
dram_dbus_turn_around_time 30
dram_write_high_wm 56
dram_write_low_wm 48
min_dram_writes_per_switch 16
dram_mtps 600
dram_dbus_return_time 53

mlop_pref_degree 16
mlop_num_updates 500
mlop_l1d_thresh 2
mlop_l2c_thresh 0.75
mlop_llc_thresh 0.3
mlop_debug_level 0
mlop_blocks_in_cache 4096
mlop_blocks_in_zone 64
mlop_amt_size 2048
mlop_PF_DEGREE 16
mlop_NUM_UPDATES 500
mlop_L1D_THRESH 1000
mlop_L2C_THRESH 375
mlop_LLC_THRESH 150
mlop_ORIGIN 63
mlop_MAX_OFFSET 63
mlop_MIN_OFFSET -63
mlop_ORIGIN 63
mlop_NUM_OFFSETS 127


Heartbeat CPU  0 instructions:    1000002 cycles:     515609 heartbeat IPC: 1.93946 cumulative IPC: 1.93946 (Simulation time: 0 hr 0 min 2 sec) 
Heartbeat CPU  0 instructions:    2000001 cycles:    1030228 heartbeat IPC: 1.94318 cumulative IPC: 1.94132 (Simulation time: 0 hr 0 min 4 sec) 
Heartbeat CPU  0 instructions:    3000003 cycles:    1545143 heartbeat IPC: 1.94207 cumulative IPC: 1.94157 (Simulation time: 0 hr 0 min 6 sec) 
Heartbeat CPU  0 instructions:    4000000 cycles:    2059888 heartbeat IPC: 1.94270 cumulative IPC: 1.94185 (Simulation time: 0 hr 0 min 8 sec) 
Heartbeat CPU  0 instructions:    5000001 cycles:    2574727 heartbeat IPC: 1.94236 cumulative IPC: 1.94195 (Simulation time: 0 hr 0 min 10 sec) 
Heartbeat CPU  0 instructions:    6000001 cycles:    3089498 heartbeat IPC: 1.94261 cumulative IPC: 1.94206 (Simulation time: 0 hr 0 min 12 sec) 
Heartbeat CPU  0 instructions:    7000003 cycles:    3604707 heartbeat IPC: 1.94096 cumulative IPC: 1.94191 (Simulation time: 0 hr 0 min 14 sec) 
Heartbeat CPU  0 instructions:    8000000 cycles:    4119707 heartbeat IPC: 1.94174 cumulative IPC: 1.94189 (Simulation time: 0 hr 0 min 16 sec) 
Heartbeat CPU  0 instructions:    9000000 cycles:    4634429 heartbeat IPC: 1.94280 cumulative IPC: 1.94199 (Simulation time: 0 hr 0 min 18 sec) 
Heartbeat CPU  0 instructions:   10000003 cycles:    5149379 heartbeat IPC: 1.94194 cumulative IPC: 1.94198 (Simulation time: 0 hr 0 min 20 sec) 
Heartbeat CPU  0 instructions:   11000000 cycles:    5664377 heartbeat IPC: 1.94175 cumulative IPC: 1.94196 (Simulation time: 0 hr 0 min 22 sec) 
Heartbeat CPU  0 instructions:   12000000 cycles:    6179045 heartbeat IPC: 1.94300 cumulative IPC: 1.94205 (Simulation time: 0 hr 0 min 24 sec) 
Heartbeat CPU  0 instructions:   13000001 cycles:    6694023 heartbeat IPC: 1.94183 cumulative IPC: 1.94203 (Simulation time: 0 hr 0 min 26 sec) 
Heartbeat CPU  0 instructions:   14000002 cycles:    7209201 heartbeat IPC: 1.94108 cumulative IPC: 1.94196 (Simulation time: 0 hr 0 min 29 sec) 
Heartbeat CPU  0 instructions:   15000000 cycles:    7723920 heartbeat IPC: 1.94280 cumulative IPC: 1.94202 (Simulation time: 0 hr 0 min 31 sec) 
Heartbeat CPU  0 instructions:   16000000 cycles:    8238905 heartbeat IPC: 1.94180 cumulative IPC: 1.94201 (Simulation time: 0 hr 0 min 33 sec) 
Heartbeat CPU  0 instructions:   17000003 cycles:    8754031 heartbeat IPC: 1.94128 cumulative IPC: 1.94196 (Simulation time: 0 hr 0 min 35 sec) 
Heartbeat CPU  0 instructions:   18000002 cycles:    9268582 heartbeat IPC: 1.94344 cumulative IPC: 1.94204 (Simulation time: 0 hr 0 min 37 sec) 
Heartbeat CPU  0 instructions:   19000003 cycles:    9783485 heartbeat IPC: 1.94212 cumulative IPC: 1.94205 (Simulation time: 0 hr 0 min 39 sec) 
Heartbeat CPU  0 instructions:   20000000 cycles:   10298479 heartbeat IPC: 1.94176 cumulative IPC: 1.94203 (Simulation time: 0 hr 0 min 41 sec) 
Heartbeat CPU  0 instructions:   21000001 cycles:   10813323 heartbeat IPC: 1.94234 cumulative IPC: 1.94205 (Simulation time: 0 hr 0 min 43 sec) 
Heartbeat CPU  0 instructions:   22000000 cycles:   11328254 heartbeat IPC: 1.94201 cumulative IPC: 1.94205 (Simulation time: 0 hr 0 min 45 sec) 
Heartbeat CPU  0 instructions:   23000003 cycles:   11843372 heartbeat IPC: 1.94131 cumulative IPC: 1.94201 (Simulation time: 0 hr 0 min 47 sec) 
Heartbeat CPU  0 instructions:   24000000 cycles:   12358131 heartbeat IPC: 1.94265 cumulative IPC: 1.94204 (Simulation time: 0 hr 0 min 49 sec) 
Heartbeat CPU  0 instructions:   25000000 cycles:   12872919 heartbeat IPC: 1.94255 cumulative IPC: 1.94206 (Simulation time: 0 hr 0 min 51 sec) 
Heartbeat CPU  0 instructions:   26000003 cycles:   13387874 heartbeat IPC: 1.94192 cumulative IPC: 1.94206 (Simulation time: 0 hr 0 min 53 sec) 
Heartbeat CPU  0 instructions:   27000002 cycles:   13902712 heartbeat IPC: 1.94236 cumulative IPC: 1.94207 (Simulation time: 0 hr 0 min 55 sec) 
Heartbeat CPU  0 instructions:   28000000 cycles:   14417441 heartbeat IPC: 1.94277 cumulative IPC: 1.94209 (Simulation time: 0 hr 0 min 57 sec) 
Heartbeat CPU  0 instructions:   29000000 cycles:   14932387 heartbeat IPC: 1.94195 cumulative IPC: 1.94209 (Simulation time: 0 hr 0 min 59 sec) 
Heartbeat CPU  0 instructions:   30000002 cycles:   15447255 heartbeat IPC: 1.94225 cumulative IPC: 1.94209 (Simulation time: 0 hr 1 min 1 sec) 
Heartbeat CPU  0 instructions:   31000001 cycles:   15961912 heartbeat IPC: 1.94304 cumulative IPC: 1.94212 (Simulation time: 0 hr 1 min 3 sec) 
Heartbeat CPU  0 instructions:   32000000 cycles:   16477131 heartbeat IPC: 1.94092 cumulative IPC: 1.94209 (Simulation time: 0 hr 1 min 5 sec) 
Heartbeat CPU  0 instructions:   33000000 cycles:   16992085 heartbeat IPC: 1.94192 cumulative IPC: 1.94208 (Simulation time: 0 hr 1 min 7 sec) 
Heartbeat CPU  0 instructions:   34000001 cycles:   17506806 heartbeat IPC: 1.94280 cumulative IPC: 1.94210 (Simulation time: 0 hr 1 min 9 sec) 
Heartbeat CPU  0 instructions:   35000000 cycles:   18021800 heartbeat IPC: 1.94177 cumulative IPC: 1.94209 (Simulation time: 0 hr 1 min 11 sec) 
Heartbeat CPU  0 instructions:   36000000 cycles:   18536766 heartbeat IPC: 1.94188 cumulative IPC: 1.94209 (Simulation time: 0 hr 1 min 13 sec) 
Heartbeat CPU  0 instructions:   37000001 cycles:   19051550 heartbeat IPC: 1.94256 cumulative IPC: 1.94210 (Simulation time: 0 hr 1 min 15 sec) 
Heartbeat CPU  0 instructions:   38000000 cycles:   19566527 heartbeat IPC: 1.94183 cumulative IPC: 1.94209 (Simulation time: 0 hr 1 min 17 sec) 
Heartbeat CPU  0 instructions:   39000002 cycles:   20081616 heartbeat IPC: 1.94142 cumulative IPC: 1.94207 (Simulation time: 0 hr 1 min 19 sec) 
Heartbeat CPU  0 instructions:   40000000 cycles:   20596340 heartbeat IPC: 1.94278 cumulative IPC: 1.94209 (Simulation time: 0 hr 1 min 21 sec) 
Heartbeat CPU  0 instructions:   41000000 cycles:   21111182 heartbeat IPC: 1.94234 cumulative IPC: 1.94210 (Simulation time: 0 hr 1 min 23 sec) 
Heartbeat CPU  0 instructions:   42000000 cycles:   21626174 heartbeat IPC: 1.94178 cumulative IPC: 1.94209 (Simulation time: 0 hr 1 min 26 sec) 
Heartbeat CPU  0 instructions:   43000003 cycles:   22140753 heartbeat IPC: 1.94334 cumulative IPC: 1.94212 (Simulation time: 0 hr 1 min 28 sec) 
Heartbeat CPU  0 instructions:   44000000 cycles:   22655622 heartbeat IPC: 1.94224 cumulative IPC: 1.94212 (Simulation time: 0 hr 1 min 30 sec) 
Heartbeat CPU  0 instructions:   45000003 cycles:   23170690 heartbeat IPC: 1.94150 cumulative IPC: 1.94211 (Simulation time: 0 hr 1 min 32 sec) 
Heartbeat CPU  0 instructions:   46000001 cycles:   23685464 heartbeat IPC: 1.94260 cumulative IPC: 1.94212 (Simulation time: 0 hr 1 min 34 sec) 
Heartbeat CPU  0 instructions:   47000000 cycles:   24200305 heartbeat IPC: 1.94235 cumulative IPC: 1.94212 (Simulation time: 0 hr 1 min 36 sec) 
Heartbeat CPU  0 instructions:   48000000 cycles:   24715582 heartbeat IPC: 1.94070 cumulative IPC: 1.94209 (Simulation time: 0 hr 1 min 38 sec) 
Heartbeat CPU  0 instructions:   49000000 cycles:   25230506 heartbeat IPC: 1.94203 cumulative IPC: 1.94209 (Simulation time: 0 hr 1 min 40 sec) 
Heartbeat CPU  0 instructions:   50000000 cycles:   25745295 heartbeat IPC: 1.94254 cumulative IPC: 1.94210 (Simulation time: 0 hr 1 min 42 sec) 
Heartbeat CPU  0 instructions:   51000003 cycles:   26260274 heartbeat IPC: 1.94183 cumulative IPC: 1.94210 (Simulation time: 0 hr 1 min 44 sec) 
Heartbeat CPU  0 instructions:   52000000 cycles:   26775062 heartbeat IPC: 1.94254 cumulative IPC: 1.94211 (Simulation time: 0 hr 1 min 46 sec) 
Heartbeat CPU  0 instructions:   53000001 cycles:   27289983 heartbeat IPC: 1.94205 cumulative IPC: 1.94210 (Simulation time: 0 hr 1 min 48 sec) 
Heartbeat CPU  0 instructions:   54000003 cycles:   27805110 heartbeat IPC: 1.94127 cumulative IPC: 1.94209 (Simulation time: 0 hr 1 min 50 sec) 
Heartbeat CPU  0 instructions:   55000003 cycles:   28319936 heartbeat IPC: 1.94240 cumulative IPC: 1.94209 (Simulation time: 0 hr 1 min 52 sec) 
Heartbeat CPU  0 instructions:   56000000 cycles:   28834629 heartbeat IPC: 1.94290 cumulative IPC: 1.94211 (Simulation time: 0 hr 1 min 54 sec) 
Heartbeat CPU  0 instructions:   57000002 cycles:   29376399 heartbeat IPC: 1.84581 cumulative IPC: 1.94033 (Simulation time: 0 hr 1 min 56 sec) 
Heartbeat CPU  0 instructions:   58000001 cycles:   29923576 heartbeat IPC: 1.82756 cumulative IPC: 1.93827 (Simulation time: 0 hr 1 min 58 sec) 
Heartbeat CPU  0 instructions:   59000001 cycles:   30470686 heartbeat IPC: 1.82779 cumulative IPC: 1.93629 (Simulation time: 0 hr 2 min 0 sec) 
Heartbeat CPU  0 instructions:   60000000 cycles:   31017950 heartbeat IPC: 1.82727 cumulative IPC: 1.93436 (Simulation time: 0 hr 2 min 2 sec) 
Heartbeat CPU  0 instructions:   61000003 cycles:   31565116 heartbeat IPC: 1.82760 cumulative IPC: 1.93251 (Simulation time: 0 hr 2 min 4 sec) 
Heartbeat CPU  0 instructions:   62000003 cycles:   32112109 heartbeat IPC: 1.82818 cumulative IPC: 1.93074 (Simulation time: 0 hr 2 min 6 sec) 
Heartbeat CPU  0 instructions:   63000003 cycles:   32659272 heartbeat IPC: 1.82761 cumulative IPC: 1.92901 (Simulation time: 0 hr 2 min 8 sec) 
Heartbeat CPU  0 instructions:   64000000 cycles:   33206278 heartbeat IPC: 1.82813 cumulative IPC: 1.92735 (Simulation time: 0 hr 2 min 10 sec) 
Heartbeat CPU  0 instructions:   65000002 cycles:   33749044 heartbeat IPC: 1.84242 cumulative IPC: 1.92598 (Simulation time: 0 hr 2 min 12 sec) 
Heartbeat CPU  0 instructions:   66000002 cycles:   34280660 heartbeat IPC: 1.88106 cumulative IPC: 1.92528 (Simulation time: 0 hr 2 min 14 sec) 
Heartbeat CPU  0 instructions:   67000001 cycles:   34812401 heartbeat IPC: 1.88061 cumulative IPC: 1.92460 (Simulation time: 0 hr 2 min 16 sec) 
Heartbeat CPU  0 instructions:   68000000 cycles:   35344048 heartbeat IPC: 1.88095 cumulative IPC: 1.92394 (Simulation time: 0 hr 2 min 18 sec) 
Heartbeat CPU  0 instructions:   69000003 cycles:   35875911 heartbeat IPC: 1.88019 cumulative IPC: 1.92330 (Simulation time: 0 hr 2 min 20 sec) 
Heartbeat CPU  0 instructions:   70000000 cycles:   36407457 heartbeat IPC: 1.88130 cumulative IPC: 1.92268 (Simulation time: 0 hr 2 min 22 sec) 
Heartbeat CPU  0 instructions:   71000000 cycles:   36939222 heartbeat IPC: 1.88053 cumulative IPC: 1.92208 (Simulation time: 0 hr 2 min 24 sec) 
Heartbeat CPU  0 instructions:   72000000 cycles:   37470927 heartbeat IPC: 1.88074 cumulative IPC: 1.92149 (Simulation time: 0 hr 2 min 26 sec) 
Heartbeat CPU  0 instructions:   73000000 cycles:   38002852 heartbeat IPC: 1.87996 cumulative IPC: 1.92091 (Simulation time: 0 hr 2 min 28 sec) 
Heartbeat CPU  0 instructions:   74000001 cycles:   38533541 heartbeat IPC: 1.88434 cumulative IPC: 1.92040 (Simulation time: 0 hr 2 min 30 sec) 
Heartbeat CPU  0 instructions:   75000001 cycles:   39064769 heartbeat IPC: 1.88243 cumulative IPC: 1.91989 (Simulation time: 0 hr 2 min 32 sec) 
Heartbeat CPU  0 instructions:   76000000 cycles:   39595554 heartbeat IPC: 1.88400 cumulative IPC: 1.91941 (Simulation time: 0 hr 2 min 34 sec) 
Heartbeat CPU  0 instructions:   77000003 cycles:   40126756 heartbeat IPC: 1.88253 cumulative IPC: 1.91892 (Simulation time: 0 hr 2 min 36 sec) 
Heartbeat CPU  0 instructions:   78000002 cycles:   40657587 heartbeat IPC: 1.88384 cumulative IPC: 1.91846 (Simulation time: 0 hr 2 min 38 sec) 
Heartbeat CPU  0 instructions:   79000000 cycles:   41188077 heartbeat IPC: 1.88505 cumulative IPC: 1.91803 (Simulation time: 0 hr 2 min 40 sec) 
Heartbeat CPU  0 instructions:   80000000 cycles:   41718933 heartbeat IPC: 1.88375 cumulative IPC: 1.91759 (Simulation time: 0 hr 2 min 42 sec) 
Heartbeat CPU  0 instructions:   81000003 cycles:   42250307 heartbeat IPC: 1.88192 cumulative IPC: 1.91715 (Simulation time: 0 hr 2 min 44 sec) 
Heartbeat CPU  0 instructions:   82000003 cycles:   42781003 heartbeat IPC: 1.88432 cumulative IPC: 1.91674 (Simulation time: 0 hr 2 min 46 sec) 
Heartbeat CPU  0 instructions:   83000000 cycles:   43367959 heartbeat IPC: 1.70370 cumulative IPC: 1.91386 (Simulation time: 0 hr 2 min 49 sec) 
Heartbeat CPU  0 instructions:   84000000 cycles:   43975528 heartbeat IPC: 1.64590 cumulative IPC: 1.91015 (Simulation time: 0 hr 2 min 51 sec) 
Heartbeat CPU  0 instructions:   85000001 cycles:   44583386 heartbeat IPC: 1.64512 cumulative IPC: 1.90654 (Simulation time: 0 hr 2 min 54 sec) 
Heartbeat CPU  0 instructions:   86000001 cycles:   45190977 heartbeat IPC: 1.64584 cumulative IPC: 1.90303 (Simulation time: 0 hr 2 min 56 sec) 
Heartbeat CPU  0 instructions:   87000002 cycles:   45798644 heartbeat IPC: 1.64564 cumulative IPC: 1.89962 (Simulation time: 0 hr 2 min 59 sec) 
Heartbeat CPU  0 instructions:   88000000 cycles:   46406484 heartbeat IPC: 1.64517 cumulative IPC: 1.89629 (Simulation time: 0 hr 3 min 1 sec) 
Heartbeat CPU  0 instructions:   89000002 cycles:   47014348 heartbeat IPC: 1.64511 cumulative IPC: 1.89304 (Simulation time: 0 hr 3 min 4 sec) 
Heartbeat CPU  0 instructions:   90000003 cycles:   47621969 heartbeat IPC: 1.64576 cumulative IPC: 1.88988 (Simulation time: 0 hr 3 min 6 sec) 
Heartbeat CPU  0 instructions:   91000000 cycles:   48229700 heartbeat IPC: 1.64546 cumulative IPC: 1.88680 (Simulation time: 0 hr 3 min 9 sec) 
Heartbeat CPU  0 instructions:   92000000 cycles:   48837484 heartbeat IPC: 1.64532 cumulative IPC: 1.88380 (Simulation time: 0 hr 3 min 11 sec) 
Heartbeat CPU  0 instructions:   93000000 cycles:   49445044 heartbeat IPC: 1.64593 cumulative IPC: 1.88088 (Simulation time: 0 hr 3 min 14 sec) 
Heartbeat CPU  0 instructions:   94000001 cycles:   50052648 heartbeat IPC: 1.64581 cumulative IPC: 1.87802 (Simulation time: 0 hr 3 min 16 sec) 
Heartbeat CPU  0 instructions:   95000003 cycles:   50660204 heartbeat IPC: 1.64594 cumulative IPC: 1.87524 (Simulation time: 0 hr 3 min 19 sec) 
Heartbeat CPU  0 instructions:   96000000 cycles:   51267900 heartbeat IPC: 1.64555 cumulative IPC: 1.87252 (Simulation time: 0 hr 3 min 21 sec) 
Heartbeat CPU  0 instructions:   97000000 cycles:   51875599 heartbeat IPC: 1.64555 cumulative IPC: 1.86986 (Simulation time: 0 hr 3 min 23 sec) 
Heartbeat CPU  0 instructions:   98000002 cycles:   52483100 heartbeat IPC: 1.64609 cumulative IPC: 1.86727 (Simulation time: 0 hr 3 min 26 sec) 
Heartbeat CPU  0 instructions:   99000003 cycles:   53090585 heartbeat IPC: 1.64613 cumulative IPC: 1.86474 (Simulation time: 0 hr 3 min 28 sec) 
Heartbeat CPU  0 instructions:  100000000 cycles:   53697956 heartbeat IPC: 1.64644 cumulative IPC: 1.86227 (Simulation time: 0 hr 3 min 31 sec) 

Warmup complete CPU  0 instructions:  100000002 cycles:   53697957 (Simulation time: 0 hr 3 min 31 sec) 

Heartbeat CPU  0 instructions:  101000003 cycles:   55277862 heartbeat IPC: 0.63295 cumulative IPC: 0.63295 (Simulation time: 0 hr 3 min 34 sec) 
Heartbeat CPU  0 instructions:  102000000 cycles:   56854362 heartbeat IPC: 0.63431 cumulative IPC: 0.63363 (Simulation time: 0 hr 3 min 37 sec) 
Heartbeat CPU  0 instructions:  103000000 cycles:   58412203 heartbeat IPC: 0.64191 cumulative IPC: 0.63637 (Simulation time: 0 hr 3 min 40 sec) 
Heartbeat CPU  0 instructions:  104000000 cycles:   59980930 heartbeat IPC: 0.63746 cumulative IPC: 0.63664 (Simulation time: 0 hr 3 min 43 sec) 
Heartbeat CPU  0 instructions:  105000001 cycles:   61538333 heartbeat IPC: 0.64210 cumulative IPC: 0.63772 (Simulation time: 0 hr 3 min 47 sec) 
Heartbeat CPU  0 instructions:  106000001 cycles:   63098162 heartbeat IPC: 0.64110 cumulative IPC: 0.63828 (Simulation time: 0 hr 3 min 50 sec) 
Heartbeat CPU  0 instructions:  107000002 cycles:   64667936 heartbeat IPC: 0.63704 cumulative IPC: 0.63811 (Simulation time: 0 hr 3 min 53 sec) 
Heartbeat CPU  0 instructions:  108000000 cycles:   66239739 heartbeat IPC: 0.63621 cumulative IPC: 0.63787 (Simulation time: 0 hr 3 min 56 sec) 
Heartbeat CPU  0 instructions:  109000002 cycles:   67810486 heartbeat IPC: 0.63664 cumulative IPC: 0.63773 (Simulation time: 0 hr 3 min 59 sec) 
Heartbeat CPU  0 instructions:  110000003 cycles:   69391555 heartbeat IPC: 0.63248 cumulative IPC: 0.63720 (Simulation time: 0 hr 4 min 3 sec) 
Heartbeat CPU  0 instructions:  111000000 cycles:   70958302 heartbeat IPC: 0.63826 cumulative IPC: 0.63730 (Simulation time: 0 hr 4 min 6 sec) 
Heartbeat CPU  0 instructions:  112000000 cycles:   72535670 heartbeat IPC: 0.63397 cumulative IPC: 0.63702 (Simulation time: 0 hr 4 min 9 sec) 
Heartbeat CPU  0 instructions:  113000000 cycles:   74106571 heartbeat IPC: 0.63658 cumulative IPC: 0.63699 (Simulation time: 0 hr 4 min 12 sec) 
Heartbeat CPU  0 instructions:  114000001 cycles:   75683220 heartbeat IPC: 0.63426 cumulative IPC: 0.63679 (Simulation time: 0 hr 4 min 15 sec) 
Heartbeat CPU  0 instructions:  115000002 cycles:   77260218 heartbeat IPC: 0.63412 cumulative IPC: 0.63661 (Simulation time: 0 hr 4 min 18 sec) 
Heartbeat CPU  0 instructions:  116000000 cycles:   78831415 heartbeat IPC: 0.63646 cumulative IPC: 0.63660 (Simulation time: 0 hr 4 min 22 sec) 
Heartbeat CPU  0 instructions:  117000001 cycles:   80399864 heartbeat IPC: 0.63757 cumulative IPC: 0.63666 (Simulation time: 0 hr 4 min 25 sec) 
Heartbeat CPU  0 instructions:  118000002 cycles:   81976760 heartbeat IPC: 0.63416 cumulative IPC: 0.63652 (Simulation time: 0 hr 4 min 28 sec) 
Heartbeat CPU  0 instructions:  119000003 cycles:   83561041 heartbeat IPC: 0.63120 cumulative IPC: 0.63624 (Simulation time: 0 hr 4 min 31 sec) 
Heartbeat CPU  0 instructions:  120000000 cycles:   85129000 heartbeat IPC: 0.63777 cumulative IPC: 0.63631 (Simulation time: 0 hr 4 min 34 sec) 
Heartbeat CPU  0 instructions:  121000003 cycles:   86241567 heartbeat IPC: 0.89882 cumulative IPC: 0.64529 (Simulation time: 0 hr 4 min 37 sec) 
Heartbeat CPU  0 instructions:  122000002 cycles:   87128809 heartbeat IPC: 1.12709 cumulative IPC: 0.65807 (Simulation time: 0 hr 4 min 40 sec) 
Heartbeat CPU  0 instructions:  123000002 cycles:   87996435 heartbeat IPC: 1.15257 cumulative IPC: 0.67058 (Simulation time: 0 hr 4 min 42 sec) 
Heartbeat CPU  0 instructions:  124000000 cycles:   88887639 heartbeat IPC: 1.12208 cumulative IPC: 0.68202 (Simulation time: 0 hr 4 min 45 sec) 
Heartbeat CPU  0 instructions:  125000000 cycles:   89758794 heartbeat IPC: 1.14790 cumulative IPC: 0.69327 (Simulation time: 0 hr 4 min 48 sec) 
Heartbeat CPU  0 instructions:  126000001 cycles:   90616666 heartbeat IPC: 1.16568 cumulative IPC: 0.70425 (Simulation time: 0 hr 4 min 50 sec) 
Heartbeat CPU  0 instructions:  127000002 cycles:   91479432 heartbeat IPC: 1.15906 cumulative IPC: 0.71464 (Simulation time: 0 hr 4 min 53 sec) 
Heartbeat CPU  0 instructions:  128000000 cycles:   92346187 heartbeat IPC: 1.15373 cumulative IPC: 0.72448 (Simulation time: 0 hr 4 min 55 sec) 
Heartbeat CPU  0 instructions:  129000003 cycles:   93213231 heartbeat IPC: 1.15335 cumulative IPC: 0.73389 (Simulation time: 0 hr 4 min 58 sec) 
Heartbeat CPU  0 instructions:  130000003 cycles:   94081495 heartbeat IPC: 1.15172 cumulative IPC: 0.74288 (Simulation time: 0 hr 5 min 0 sec) 
Heartbeat CPU  0 instructions:  131000000 cycles:   94966010 heartbeat IPC: 1.13056 cumulative IPC: 0.75119 (Simulation time: 0 hr 5 min 3 sec) 
Heartbeat CPU  0 instructions:  132000000 cycles:   95886982 heartbeat IPC: 1.08581 cumulative IPC: 0.75849 (Simulation time: 0 hr 5 min 5 sec) 
Heartbeat CPU  0 instructions:  133000002 cycles:   96805869 heartbeat IPC: 1.08828 cumulative IPC: 0.76552 (Simulation time: 0 hr 5 min 8 sec) 
Heartbeat CPU  0 instructions:  134000002 cycles:   97719782 heartbeat IPC: 1.09420 cumulative IPC: 0.77234 (Simulation time: 0 hr 5 min 11 sec) 
Heartbeat CPU  0 instructions:  135000000 cycles:   98671069 heartbeat IPC: 1.05121 cumulative IPC: 0.77824 (Simulation time: 0 hr 5 min 13 sec) 
Heartbeat CPU  0 instructions:  136000000 cycles:   99596776 heartbeat IPC: 1.08026 cumulative IPC: 0.78433 (Simulation time: 0 hr 5 min 16 sec) 
Heartbeat CPU  0 instructions:  137000000 cycles:  100549338 heartbeat IPC: 1.04980 cumulative IPC: 0.78973 (Simulation time: 0 hr 5 min 18 sec) 
Heartbeat CPU  0 instructions:  138000003 cycles:  101494294 heartbeat IPC: 1.05825 cumulative IPC: 0.79504 (Simulation time: 0 hr 5 min 21 sec) 
Heartbeat CPU  0 instructions:  139000002 cycles:  102432014 heartbeat IPC: 1.06642 cumulative IPC: 0.80026 (Simulation time: 0 hr 5 min 23 sec) 
Heartbeat CPU  0 instructions:  140000000 cycles:  103354041 heartbeat IPC: 1.08456 cumulative IPC: 0.80554 (Simulation time: 0 hr 5 min 26 sec) 
Heartbeat CPU  0 instructions:  141000000 cycles:  104311831 heartbeat IPC: 1.04407 cumulative IPC: 0.81005 (Simulation time: 0 hr 5 min 29 sec) 
Heartbeat CPU  0 instructions:  142000000 cycles:  105267086 heartbeat IPC: 1.04684 cumulative IPC: 0.81444 (Simulation time: 0 hr 5 min 31 sec) 
Heartbeat CPU  0 instructions:  143000001 cycles:  106190659 heartbeat IPC: 1.08275 cumulative IPC: 0.81916 (Simulation time: 0 hr 5 min 34 sec) 
Heartbeat CPU  0 instructions:  144000000 cycles:  107141458 heartbeat IPC: 1.05175 cumulative IPC: 0.82330 (Simulation time: 0 hr 5 min 36 sec) 
Heartbeat CPU  0 instructions:  145000003 cycles:  108063405 heartbeat IPC: 1.08466 cumulative IPC: 0.82773 (Simulation time: 0 hr 5 min 39 sec) 
Heartbeat CPU  0 instructions:  146000001 cycles:  109003126 heartbeat IPC: 1.06414 cumulative IPC: 0.83175 (Simulation time: 0 hr 5 min 41 sec) 
Heartbeat CPU  0 instructions:  147000002 cycles:  109945155 heartbeat IPC: 1.06154 cumulative IPC: 0.83560 (Simulation time: 0 hr 5 min 44 sec) 
Heartbeat CPU  0 instructions:  148000000 cycles:  110868541 heartbeat IPC: 1.08297 cumulative IPC: 0.83959 (Simulation time: 0 hr 5 min 47 sec) 
Heartbeat CPU  0 instructions:  149000000 cycles:  111777860 heartbeat IPC: 1.09972 cumulative IPC: 0.84367 (Simulation time: 0 hr 5 min 49 sec) 
Heartbeat CPU  0 instructions:  150000003 cycles:  112689939 heartbeat IPC: 1.09640 cumulative IPC: 0.84757 (Simulation time: 0 hr 5 min 52 sec) 
Heartbeat CPU  0 instructions:  151000001 cycles:  113605530 heartbeat IPC: 1.09219 cumulative IPC: 0.85131 (Simulation time: 0 hr 5 min 54 sec) 
Heartbeat CPU  0 instructions:  152000000 cycles:  114571106 heartbeat IPC: 1.03565 cumulative IPC: 0.85424 (Simulation time: 0 hr 5 min 57 sec) 
Heartbeat CPU  0 instructions:  153000001 cycles:  115505698 heartbeat IPC: 1.06999 cumulative IPC: 0.85750 (Simulation time: 0 hr 5 min 59 sec) 
Heartbeat CPU  0 instructions:  154000003 cycles:  116447948 heartbeat IPC: 1.06129 cumulative IPC: 0.86056 (Simulation time: 0 hr 6 min 2 sec) 
Heartbeat CPU  0 instructions:  155000003 cycles:  117386506 heartbeat IPC: 1.06546 cumulative IPC: 0.86358 (Simulation time: 0 hr 6 min 5 sec) 
Heartbeat CPU  0 instructions:  156000000 cycles:  118311643 heartbeat IPC: 1.08092 cumulative IPC: 0.86669 (Simulation time: 0 hr 6 min 7 sec) 
Heartbeat CPU  0 instructions:  157000000 cycles:  119248070 heartbeat IPC: 1.06789 cumulative IPC: 0.86956 (Simulation time: 0 hr 6 min 10 sec) 
Heartbeat CPU  0 instructions:  158000002 cycles:  120190047 heartbeat IPC: 1.06160 cumulative IPC: 0.87228 (Simulation time: 0 hr 6 min 12 sec) 
Heartbeat CPU  0 instructions:  159000002 cycles:  121129052 heartbeat IPC: 1.06496 cumulative IPC: 0.87497 (Simulation time: 0 hr 6 min 15 sec) 
Heartbeat CPU  0 instructions:  160000000 cycles:  122055747 heartbeat IPC: 1.07910 cumulative IPC: 0.87773 (Simulation time: 0 hr 6 min 17 sec) 
Heartbeat CPU  0 instructions:  161000003 cycles:  123005803 heartbeat IPC: 1.05257 cumulative IPC: 0.88013 (Simulation time: 0 hr 6 min 20 sec) 
Heartbeat CPU  0 instructions:  162000000 cycles:  123922141 heartbeat IPC: 1.09130 cumulative IPC: 0.88289 (Simulation time: 0 hr 6 min 23 sec) 
Heartbeat CPU  0 instructions:  163000001 cycles:  124871704 heartbeat IPC: 1.05312 cumulative IPC: 0.88516 (Simulation time: 0 hr 6 min 25 sec) 
Heartbeat CPU  0 instructions:  164000000 cycles:  125788557 heartbeat IPC: 1.09069 cumulative IPC: 0.88777 (Simulation time: 0 hr 6 min 28 sec) 
Heartbeat CPU  0 instructions:  165000001 cycles:  126703314 heartbeat IPC: 1.09319 cumulative IPC: 0.89035 (Simulation time: 0 hr 6 min 30 sec) 
Heartbeat CPU  0 instructions:  166000003 cycles:  127609057 heartbeat IPC: 1.10407 cumulative IPC: 0.89296 (Simulation time: 0 hr 6 min 33 sec) 
Heartbeat CPU  0 instructions:  167000001 cycles:  128554801 heartbeat IPC: 1.05737 cumulative IPC: 0.89504 (Simulation time: 0 hr 6 min 35 sec) 
Heartbeat CPU  0 instructions:  168000000 cycles:  129491232 heartbeat IPC: 1.06788 cumulative IPC: 0.89718 (Simulation time: 0 hr 6 min 38 sec) 
Heartbeat CPU  0 instructions:  169000001 cycles:  130421735 heartbeat IPC: 1.07469 cumulative IPC: 0.89933 (Simulation time: 0 hr 6 min 41 sec) 
Heartbeat CPU  0 instructions:  170000000 cycles:  131317515 heartbeat IPC: 1.11634 cumulative IPC: 0.90183 (Simulation time: 0 hr 6 min 43 sec) 
Heartbeat CPU  0 instructions:  171000000 cycles:  132233721 heartbeat IPC: 1.09146 cumulative IPC: 0.90405 (Simulation time: 0 hr 6 min 46 sec) 
Heartbeat CPU  0 instructions:  172000000 cycles:  133156715 heartbeat IPC: 1.08343 cumulative IPC: 0.90613 (Simulation time: 0 hr 6 min 48 sec) 
Heartbeat CPU  0 instructions:  173000002 cycles:  134090097 heartbeat IPC: 1.07137 cumulative IPC: 0.90805 (Simulation time: 0 hr 6 min 51 sec) 
Heartbeat CPU  0 instructions:  174000002 cycles:  135055480 heartbeat IPC: 1.03586 cumulative IPC: 0.90957 (Simulation time: 0 hr 6 min 53 sec) 
Heartbeat CPU  0 instructions:  175000000 cycles:  135973850 heartbeat IPC: 1.08888 cumulative IPC: 0.91157 (Simulation time: 0 hr 6 min 56 sec) 
Heartbeat CPU  0 instructions:  176000000 cycles:  136920443 heartbeat IPC: 1.05642 cumulative IPC: 0.91321 (Simulation time: 0 hr 6 min 58 sec) 
Heartbeat CPU  0 instructions:  177000001 cycles:  137846280 heartbeat IPC: 1.08010 cumulative IPC: 0.91505 (Simulation time: 0 hr 7 min 1 sec) 
Heartbeat CPU  0 instructions:  178000002 cycles:  138823426 heartbeat IPC: 1.02339 cumulative IPC: 0.91629 (Simulation time: 0 hr 7 min 4 sec) 
Heartbeat CPU  0 instructions:  179000001 cycles:  139764334 heartbeat IPC: 1.06280 cumulative IPC: 0.91790 (Simulation time: 0 hr 7 min 6 sec) 
Heartbeat CPU  0 instructions:  180000000 cycles:  140696531 heartbeat IPC: 1.07273 cumulative IPC: 0.91956 (Simulation time: 0 hr 7 min 9 sec) 
Heartbeat CPU  0 instructions:  181000000 cycles:  141620393 heartbeat IPC: 1.08241 cumulative IPC: 0.92127 (Simulation time: 0 hr 7 min 11 sec) 
Heartbeat CPU  0 instructions:  182000000 cycles:  142565678 heartbeat IPC: 1.05788 cumulative IPC: 0.92272 (Simulation time: 0 hr 7 min 14 sec) 
Heartbeat CPU  0 instructions:  183000003 cycles:  143514590 heartbeat IPC: 1.05384 cumulative IPC: 0.92410 (Simulation time: 0 hr 7 min 16 sec) 
Heartbeat CPU  0 instructions:  184000000 cycles:  144451335 heartbeat IPC: 1.06752 cumulative IPC: 0.92559 (Simulation time: 0 hr 7 min 19 sec) 
Heartbeat CPU  0 instructions:  185000002 cycles:  145386290 heartbeat IPC: 1.06957 cumulative IPC: 0.92705 (Simulation time: 0 hr 7 min 22 sec) 
Heartbeat CPU  0 instructions:  186000003 cycles:  146316326 heartbeat IPC: 1.07523 cumulative IPC: 0.92854 (Simulation time: 0 hr 7 min 24 sec) 
Heartbeat CPU  0 instructions:  187000003 cycles:  147274522 heartbeat IPC: 1.04363 cumulative IPC: 0.92972 (Simulation time: 0 hr 7 min 27 sec) 
Heartbeat CPU  0 instructions:  188000000 cycles:  148200931 heartbeat IPC: 1.07943 cumulative IPC: 0.93119 (Simulation time: 0 hr 7 min 29 sec) 
Heartbeat CPU  0 instructions:  189000001 cycles:  149161244 heartbeat IPC: 1.04133 cumulative IPC: 0.93230 (Simulation time: 0 hr 7 min 32 sec) 
Heartbeat CPU  0 instructions:  190000003 cycles:  150104837 heartbeat IPC: 1.05978 cumulative IPC: 0.93354 (Simulation time: 0 hr 7 min 34 sec) 
Heartbeat CPU  0 instructions:  191000001 cycles:  151043587 heartbeat IPC: 1.06524 cumulative IPC: 0.93481 (Simulation time: 0 hr 7 min 37 sec) 
Heartbeat CPU  0 instructions:  192000000 cycles:  151978074 heartbeat IPC: 1.07010 cumulative IPC: 0.93610 (Simulation time: 0 hr 7 min 39 sec) 
Heartbeat CPU  0 instructions:  193000000 cycles:  152918999 heartbeat IPC: 1.06278 cumulative IPC: 0.93730 (Simulation time: 0 hr 7 min 42 sec) 
Heartbeat CPU  0 instructions:  194000003 cycles:  153857704 heartbeat IPC: 1.06530 cumulative IPC: 0.93850 (Simulation time: 0 hr 7 min 45 sec) 
Heartbeat CPU  0 instructions:  195000002 cycles:  154799297 heartbeat IPC: 1.06203 cumulative IPC: 0.93965 (Simulation time: 0 hr 7 min 47 sec) 
Heartbeat CPU  0 instructions:  196000000 cycles:  155712249 heartbeat IPC: 1.09535 cumulative IPC: 0.94104 (Simulation time: 0 hr 7 min 50 sec) 
Heartbeat CPU  0 instructions:  197000000 cycles:  156651332 heartbeat IPC: 1.06487 cumulative IPC: 0.94217 (Simulation time: 0 hr 7 min 52 sec) 
Heartbeat CPU  0 instructions:  198000001 cycles:  157575581 heartbeat IPC: 1.08196 cumulative IPC: 0.94342 (Simulation time: 0 hr 7 min 55 sec) 
Heartbeat CPU  0 instructions:  199000003 cycles:  158524694 heartbeat IPC: 1.05362 cumulative IPC: 0.94442 (Simulation time: 0 hr 7 min 57 sec) 
Heartbeat CPU  0 instructions:  200000000 cycles:  159460319 heartbeat IPC: 1.06880 cumulative IPC: 0.94552 (Simulation time: 0 hr 8 min 0 sec) 
Heartbeat CPU  0 instructions:  201000002 cycles:  160381117 heartbeat IPC: 1.08602 cumulative IPC: 0.94673 (Simulation time: 0 hr 8 min 3 sec) 
Heartbeat CPU  0 instructions:  202000000 cycles:  161309333 heartbeat IPC: 1.07733 cumulative IPC: 0.94786 (Simulation time: 0 hr 8 min 5 sec) 
Heartbeat CPU  0 instructions:  203000000 cycles:  162237685 heartbeat IPC: 1.07718 cumulative IPC: 0.94896 (Simulation time: 0 hr 8 min 8 sec) 
Heartbeat CPU  0 instructions:  204000000 cycles:  163187826 heartbeat IPC: 1.05248 cumulative IPC: 0.94986 (Simulation time: 0 hr 8 min 10 sec) 
Heartbeat CPU  0 instructions:  205000000 cycles:  164105190 heartbeat IPC: 1.09008 cumulative IPC: 0.95102 (Simulation time: 0 hr 8 min 13 sec) 
Heartbeat CPU  0 instructions:  206000003 cycles:  165040416 heartbeat IPC: 1.06926 cumulative IPC: 0.95202 (Simulation time: 0 hr 8 min 15 sec) 
Heartbeat CPU  0 instructions:  207000003 cycles:  165960410 heartbeat IPC: 1.08696 cumulative IPC: 0.95312 (Simulation time: 0 hr 8 min 18 sec) 
Heartbeat CPU  0 instructions:  208000000 cycles:  166898144 heartbeat IPC: 1.06640 cumulative IPC: 0.95406 (Simulation time: 0 hr 8 min 21 sec) 
Heartbeat CPU  0 instructions:  209000000 cycles:  167809751 heartbeat IPC: 1.09696 cumulative IPC: 0.95520 (Simulation time: 0 hr 8 min 23 sec) 
Heartbeat CPU  0 instructions:  210000003 cycles:  168770608 heartbeat IPC: 1.04074 cumulative IPC: 0.95592 (Simulation time: 0 hr 8 min 26 sec) 
Heartbeat CPU  0 instructions:  211000002 cycles:  169708733 heartbeat IPC: 1.06595 cumulative IPC: 0.95681 (Simulation time: 0 hr 8 min 28 sec) 
Heartbeat CPU  0 instructions:  212000000 cycles:  170635178 heartbeat IPC: 1.07939 cumulative IPC: 0.95778 (Simulation time: 0 hr 8 min 31 sec) 
Heartbeat CPU  0 instructions:  213000002 cycles:  171579868 heartbeat IPC: 1.05855 cumulative IPC: 0.95859 (Simulation time: 0 hr 8 min 33 sec) 
Heartbeat CPU  0 instructions:  214000001 cycles:  172506236 heartbeat IPC: 1.07948 cumulative IPC: 0.95953 (Simulation time: 0 hr 8 min 36 sec) 
Heartbeat CPU  0 instructions:  215000002 cycles:  173460026 heartbeat IPC: 1.04845 cumulative IPC: 0.96024 (Simulation time: 0 hr 8 min 39 sec) 
Heartbeat CPU  0 instructions:  216000000 cycles:  174389948 heartbeat IPC: 1.07536 cumulative IPC: 0.96112 (Simulation time: 0 hr 8 min 41 sec) 
Heartbeat CPU  0 instructions:  217000002 cycles:  175345825 heartbeat IPC: 1.04616 cumulative IPC: 0.96179 (Simulation time: 0 hr 8 min 44 sec) 
Heartbeat CPU  0 instructions:  218000000 cycles:  176282962 heartbeat IPC: 1.06708 cumulative IPC: 0.96260 (Simulation time: 0 hr 8 min 46 sec) 
Heartbeat CPU  0 instructions:  219000002 cycles:  177233774 heartbeat IPC: 1.05173 cumulative IPC: 0.96328 (Simulation time: 0 hr 8 min 49 sec) 
Heartbeat CPU  0 instructions:  220000000 cycles:  178145172 heartbeat IPC: 1.09721 cumulative IPC: 0.96426 (Simulation time: 0 hr 8 min 51 sec) 
Heartbeat CPU  0 instructions:  221000002 cycles:  179098844 heartbeat IPC: 1.04858 cumulative IPC: 0.96491 (Simulation time: 0 hr 8 min 54 sec) 
Heartbeat CPU  0 instructions:  222000000 cycles:  180000647 heartbeat IPC: 1.10889 cumulative IPC: 0.96593 (Simulation time: 0 hr 8 min 57 sec) 
Heartbeat CPU  0 instructions:  223000002 cycles:  180946721 heartbeat IPC: 1.05700 cumulative IPC: 0.96661 (Simulation time: 0 hr 8 min 59 sec) 
Heartbeat CPU  0 instructions:  224000000 cycles:  181867394 heartbeat IPC: 1.08616 cumulative IPC: 0.96747 (Simulation time: 0 hr 9 min 2 sec) 
Heartbeat CPU  0 instructions:  225000000 cycles:  182818231 heartbeat IPC: 1.05171 cumulative IPC: 0.96809 (Simulation time: 0 hr 9 min 4 sec) 
Heartbeat CPU  0 instructions:  226000000 cycles:  183721497 heartbeat IPC: 1.10709 cumulative IPC: 0.96906 (Simulation time: 0 hr 9 min 7 sec) 
Heartbeat CPU  0 instructions:  227000001 cycles:  184665276 heartbeat IPC: 1.05957 cumulative IPC: 0.96971 (Simulation time: 0 hr 9 min 9 sec) 
Heartbeat CPU  0 instructions:  228000000 cycles:  185607037 heartbeat IPC: 1.06184 cumulative IPC: 0.97037 (Simulation time: 0 hr 9 min 12 sec) 
Heartbeat CPU  0 instructions:  229000001 cycles:  186527156 heartbeat IPC: 1.08682 cumulative IPC: 0.97117 (Simulation time: 0 hr 9 min 14 sec) 
Heartbeat CPU  0 instructions:  230000001 cycles:  187475197 heartbeat IPC: 1.05481 cumulative IPC: 0.97176 (Simulation time: 0 hr 9 min 17 sec) 
Heartbeat CPU  0 instructions:  231000003 cycles:  188424949 heartbeat IPC: 1.05291 cumulative IPC: 0.97234 (Simulation time: 0 hr 9 min 20 sec) 
Heartbeat CPU  0 instructions:  232000000 cycles:  189348330 heartbeat IPC: 1.08297 cumulative IPC: 0.97309 (Simulation time: 0 hr 9 min 22 sec) 
Heartbeat CPU  0 instructions:  233000000 cycles:  190276497 heartbeat IPC: 1.07739 cumulative IPC: 0.97380 (Simulation time: 0 hr 9 min 25 sec) 
Heartbeat CPU  0 instructions:  234000001 cycles:  191224683 heartbeat IPC: 1.05465 cumulative IPC: 0.97436 (Simulation time: 0 hr 9 min 27 sec) 
Heartbeat CPU  0 instructions:  235000001 cycles:  192139212 heartbeat IPC: 1.09346 cumulative IPC: 0.97514 (Simulation time: 0 hr 9 min 30 sec) 
Heartbeat CPU  0 instructions:  236000000 cycles:  193078418 heartbeat IPC: 1.06473 cumulative IPC: 0.97575 (Simulation time: 0 hr 9 min 32 sec) 
Heartbeat CPU  0 instructions:  237000000 cycles:  194020913 heartbeat IPC: 1.06101 cumulative IPC: 0.97632 (Simulation time: 0 hr 9 min 35 sec) 
Heartbeat CPU  0 instructions:  238000000 cycles:  194993462 heartbeat IPC: 1.02823 cumulative IPC: 0.97668 (Simulation time: 0 hr 9 min 37 sec) 
Heartbeat CPU  0 instructions:  239000003 cycles:  195926746 heartbeat IPC: 1.07149 cumulative IPC: 0.97730 (Simulation time: 0 hr 9 min 40 sec) 
Heartbeat CPU  0 instructions:  240000000 cycles:  196885975 heartbeat IPC: 1.04250 cumulative IPC: 0.97774 (Simulation time: 0 hr 9 min 42 sec) 
Heartbeat CPU  0 instructions:  241000001 cycles:  197832317 heartbeat IPC: 1.05670 cumulative IPC: 0.97825 (Simulation time: 0 hr 9 min 45 sec) 
Heartbeat CPU  0 instructions:  242000002 cycles:  198783917 heartbeat IPC: 1.05086 cumulative IPC: 0.97873 (Simulation time: 0 hr 9 min 48 sec) 
Heartbeat CPU  0 instructions:  243000001 cycles:  199727149 heartbeat IPC: 1.06018 cumulative IPC: 0.97926 (Simulation time: 0 hr 9 min 50 sec) 
Heartbeat CPU  0 instructions:  244000000 cycles:  200662543 heartbeat IPC: 1.06907 cumulative IPC: 0.97983 (Simulation time: 0 hr 9 min 53 sec) 
Heartbeat CPU  0 instructions:  245000002 cycles:  201588416 heartbeat IPC: 1.08006 cumulative IPC: 0.98046 (Simulation time: 0 hr 9 min 55 sec) 
Heartbeat CPU  0 instructions:  246000003 cycles:  202531012 heartbeat IPC: 1.06090 cumulative IPC: 0.98096 (Simulation time: 0 hr 9 min 58 sec) 
Heartbeat CPU  0 instructions:  247000003 cycles:  203495006 heartbeat IPC: 1.03735 cumulative IPC: 0.98133 (Simulation time: 0 hr 10 min 0 sec) 
Heartbeat CPU  0 instructions:  248000000 cycles:  204429516 heartbeat IPC: 1.07008 cumulative IPC: 0.98188 (Simulation time: 0 hr 10 min 3 sec) 
Heartbeat CPU  0 instructions:  249000003 cycles:  205390060 heartbeat IPC: 1.04108 cumulative IPC: 0.98225 (Simulation time: 0 hr 10 min 5 sec) 
Heartbeat CPU  0 instructions:  250000003 cycles:  206356718 heartbeat IPC: 1.03449 cumulative IPC: 0.98258 (Simulation time: 0 hr 10 min 8 sec) 
Heartbeat CPU  0 instructions:  251000003 cycles:  207300538 heartbeat IPC: 1.05952 cumulative IPC: 0.98306 (Simulation time: 0 hr 10 min 11 sec) 
Heartbeat CPU  0 instructions:  252000000 cycles:  208236119 heartbeat IPC: 1.06885 cumulative IPC: 0.98358 (Simulation time: 0 hr 10 min 13 sec) 
Heartbeat CPU  0 instructions:  253000001 cycles:  209226073 heartbeat IPC: 1.01015 cumulative IPC: 0.98374 (Simulation time: 0 hr 10 min 16 sec) 
Heartbeat CPU  0 instructions:  254000000 cycles:  210131502 heartbeat IPC: 1.10445 cumulative IPC: 0.98444 (Simulation time: 0 hr 10 min 18 sec) 
Heartbeat CPU  0 instructions:  255000002 cycles:  211094228 heartbeat IPC: 1.03872 cumulative IPC: 0.98478 (Simulation time: 0 hr 10 min 21 sec) 
Heartbeat CPU  0 instructions:  256000000 cycles:  212033191 heartbeat IPC: 1.06500 cumulative IPC: 0.98525 (Simulation time: 0 hr 10 min 24 sec) 
Heartbeat CPU  0 instructions:  257000002 cycles:  212990835 heartbeat IPC: 1.04423 cumulative IPC: 0.98561 (Simulation time: 0 hr 10 min 26 sec) 
Heartbeat CPU  0 instructions:  258000003 cycles:  213919117 heartbeat IPC: 1.07726 cumulative IPC: 0.98614 (Simulation time: 0 hr 10 min 29 sec) 
Heartbeat CPU  0 instructions:  259000002 cycles:  214868763 heartbeat IPC: 1.05302 cumulative IPC: 0.98653 (Simulation time: 0 hr 10 min 31 sec) 
Heartbeat CPU  0 instructions:  260000000 cycles:  215813673 heartbeat IPC: 1.05830 cumulative IPC: 0.98695 (Simulation time: 0 hr 10 min 34 sec) 
Heartbeat CPU  0 instructions:  261000001 cycles:  216740500 heartbeat IPC: 1.07895 cumulative IPC: 0.98747 (Simulation time: 0 hr 10 min 36 sec) 
Heartbeat CPU  0 instructions:  262000002 cycles:  217668069 heartbeat IPC: 1.07809 cumulative IPC: 0.98798 (Simulation time: 0 hr 10 min 39 sec) 
Heartbeat CPU  0 instructions:  263000001 cycles:  218603758 heartbeat IPC: 1.06873 cumulative IPC: 0.98844 (Simulation time: 0 hr 10 min 42 sec) 
Heartbeat CPU  0 instructions:  264000000 cycles:  219534333 heartbeat IPC: 1.07460 cumulative IPC: 0.98893 (Simulation time: 0 hr 10 min 44 sec) 
Heartbeat CPU  0 instructions:  265000002 cycles:  220477748 heartbeat IPC: 1.05998 cumulative IPC: 0.98933 (Simulation time: 0 hr 10 min 47 sec) 
Heartbeat CPU  0 instructions:  266000000 cycles:  221434489 heartbeat IPC: 1.04521 cumulative IPC: 0.98965 (Simulation time: 0 hr 10 min 50 sec) 
Heartbeat CPU  0 instructions:  267000002 cycles:  222526734 heartbeat IPC: 0.91555 cumulative IPC: 0.98917 (Simulation time: 0 hr 10 min 52 sec) 
Heartbeat CPU  0 instructions:  268000000 cycles:  223893906 heartbeat IPC: 0.73144 cumulative IPC: 0.98710 (Simulation time: 0 hr 10 min 55 sec) 
Heartbeat CPU  0 instructions:  269000002 cycles:  224848380 heartbeat IPC: 1.04770 cumulative IPC: 0.98744 (Simulation time: 0 hr 10 min 57 sec) 
Heartbeat CPU  0 instructions:  270000003 cycles:  225804275 heartbeat IPC: 1.04614 cumulative IPC: 0.98776 (Simulation time: 0 hr 11 min 0 sec) 
Heartbeat CPU  0 instructions:  271000001 cycles:  226758658 heartbeat IPC: 1.04780 cumulative IPC: 0.98809 (Simulation time: 0 hr 11 min 3 sec) 
Heartbeat CPU  0 instructions:  272000000 cycles:  227712142 heartbeat IPC: 1.04878 cumulative IPC: 0.98843 (Simulation time: 0 hr 11 min 6 sec) 
Heartbeat CPU  0 instructions:  273000002 cycles:  228665717 heartbeat IPC: 1.04869 cumulative IPC: 0.98875 (Simulation time: 0 hr 11 min 8 sec) 
Heartbeat CPU  0 instructions:  274000003 cycles:  229619840 heartbeat IPC: 1.04808 cumulative IPC: 0.98908 (Simulation time: 0 hr 11 min 11 sec) 
Heartbeat CPU  0 instructions:  275000000 cycles:  230573473 heartbeat IPC: 1.04862 cumulative IPC: 0.98940 (Simulation time: 0 hr 11 min 14 sec) 
Heartbeat CPU  0 instructions:  276000000 cycles:  231526739 heartbeat IPC: 1.04903 cumulative IPC: 0.98972 (Simulation time: 0 hr 11 min 16 sec) 
Heartbeat CPU  0 instructions:  277000003 cycles:  232482104 heartbeat IPC: 1.04672 cumulative IPC: 0.99002 (Simulation time: 0 hr 11 min 19 sec) 
Heartbeat CPU  0 instructions:  278000003 cycles:  233437473 heartbeat IPC: 1.04672 cumulative IPC: 0.99032 (Simulation time: 0 hr 11 min 22 sec) 
Heartbeat CPU  0 instructions:  279000001 cycles:  234389899 heartbeat IPC: 1.04995 cumulative IPC: 0.99064 (Simulation time: 0 hr 11 min 24 sec) 
Heartbeat CPU  0 instructions:  280000000 cycles:  235343694 heartbeat IPC: 1.04844 cumulative IPC: 0.99094 (Simulation time: 0 hr 11 min 27 sec) 
Heartbeat CPU  0 instructions:  281000001 cycles:  236290239 heartbeat IPC: 1.05647 cumulative IPC: 0.99128 (Simulation time: 0 hr 11 min 30 sec) 
Heartbeat CPU  0 instructions:  282000003 cycles:  237237922 heartbeat IPC: 1.05521 cumulative IPC: 0.99161 (Simulation time: 0 hr 11 min 32 sec) 
Heartbeat CPU  0 instructions:  283000000 cycles:  238184794 heartbeat IPC: 1.05611 cumulative IPC: 0.99194 (Simulation time: 0 hr 11 min 35 sec) 
Heartbeat CPU  0 instructions:  284000000 cycles:  239135391 heartbeat IPC: 1.05197 cumulative IPC: 0.99225 (Simulation time: 0 hr 11 min 38 sec) 
Heartbeat CPU  0 instructions:  285000002 cycles:  240084514 heartbeat IPC: 1.05361 cumulative IPC: 0.99256 (Simulation time: 0 hr 11 min 40 sec) 
Heartbeat CPU  0 instructions:  286000000 cycles:  241033688 heartbeat IPC: 1.05355 cumulative IPC: 0.99287 (Simulation time: 0 hr 11 min 43 sec) 
Heartbeat CPU  0 instructions:  287000000 cycles:  241985331 heartbeat IPC: 1.05081 cumulative IPC: 0.99316 (Simulation time: 0 hr 11 min 45 sec) 
Heartbeat CPU  0 instructions:  288000000 cycles:  242934788 heartbeat IPC: 1.05323 cumulative IPC: 0.99346 (Simulation time: 0 hr 11 min 48 sec) 
Heartbeat CPU  0 instructions:  289000003 cycles:  243887210 heartbeat IPC: 1.04996 cumulative IPC: 0.99375 (Simulation time: 0 hr 11 min 51 sec) 
Heartbeat CPU  0 instructions:  290000000 cycles:  244837613 heartbeat IPC: 1.05218 cumulative IPC: 0.99404 (Simulation time: 0 hr 11 min 53 sec) 
Heartbeat CPU  0 instructions:  291000000 cycles:  245786713 heartbeat IPC: 1.05363 cumulative IPC: 0.99433 (Simulation time: 0 hr 11 min 56 sec) 
Heartbeat CPU  0 instructions:  292000000 cycles:  246734653 heartbeat IPC: 1.05492 cumulative IPC: 0.99463 (Simulation time: 0 hr 11 min 59 sec) 
Heartbeat CPU  0 instructions:  293000000 cycles:  247683208 heartbeat IPC: 1.05424 cumulative IPC: 0.99492 (Simulation time: 0 hr 12 min 1 sec) 
Heartbeat CPU  0 instructions:  294000002 cycles:  248630463 heartbeat IPC: 1.05568 cumulative IPC: 0.99522 (Simulation time: 0 hr 12 min 4 sec) 
Heartbeat CPU  0 instructions:  295000002 cycles:  249579708 heartbeat IPC: 1.05347 cumulative IPC: 0.99550 (Simulation time: 0 hr 12 min 7 sec) 
Heartbeat CPU  0 instructions:  296000000 cycles:  250526625 heartbeat IPC: 1.05606 cumulative IPC: 0.99579 (Simulation time: 0 hr 12 min 9 sec) 
Heartbeat CPU  0 instructions:  297000001 cycles:  251473703 heartbeat IPC: 1.05588 cumulative IPC: 0.99608 (Simulation time: 0 hr 12 min 12 sec) 
Heartbeat CPU  0 instructions:  298000000 cycles:  252425836 heartbeat IPC: 1.05027 cumulative IPC: 0.99634 (Simulation time: 0 hr 12 min 15 sec) 
Heartbeat CPU  0 instructions:  299000003 cycles:  253373980 heartbeat IPC: 1.05470 cumulative IPC: 0.99661 (Simulation time: 0 hr 12 min 17 sec) 
Heartbeat CPU  0 instructions:  300000000 cycles:  254322587 heartbeat IPC: 1.05417 cumulative IPC: 0.99689 (Simulation time: 0 hr 12 min 20 sec) 
Heartbeat CPU  0 instructions:  301000002 cycles:  255270167 heartbeat IPC: 1.05532 cumulative IPC: 0.99716 (Simulation time: 0 hr 12 min 23 sec) 
Heartbeat CPU  0 instructions:  302000002 cycles:  256218821 heartbeat IPC: 1.05413 cumulative IPC: 0.99743 (Simulation time: 0 hr 12 min 25 sec) 
Heartbeat CPU  0 instructions:  303000001 cycles:  257166611 heartbeat IPC: 1.05508 cumulative IPC: 0.99770 (Simulation time: 0 hr 12 min 28 sec) 
Heartbeat CPU  0 instructions:  304000000 cycles:  258115085 heartbeat IPC: 1.05432 cumulative IPC: 0.99796 (Simulation time: 0 hr 12 min 31 sec) 
Heartbeat CPU  0 instructions:  305000000 cycles:  259062368 heartbeat IPC: 1.05565 cumulative IPC: 0.99823 (Simulation time: 0 hr 12 min 33 sec) 
Heartbeat CPU  0 instructions:  306000001 cycles:  260007855 heartbeat IPC: 1.05766 cumulative IPC: 0.99850 (Simulation time: 0 hr 12 min 36 sec) 
Heartbeat CPU  0 instructions:  307000003 cycles:  260953702 heartbeat IPC: 1.05726 cumulative IPC: 0.99877 (Simulation time: 0 hr 12 min 38 sec) 
Heartbeat CPU  0 instructions:  308000000 cycles:  261900236 heartbeat IPC: 1.05648 cumulative IPC: 0.99903 (Simulation time: 0 hr 12 min 41 sec) 
Heartbeat CPU  0 instructions:  309000000 cycles:  262851735 heartbeat IPC: 1.05097 cumulative IPC: 0.99926 (Simulation time: 0 hr 12 min 44 sec) 
Heartbeat CPU  0 instructions:  310000001 cycles:  263801604 heartbeat IPC: 1.05278 cumulative IPC: 0.99951 (Simulation time: 0 hr 12 min 46 sec) 
Heartbeat CPU  0 instructions:  311000001 cycles:  264748155 heartbeat IPC: 1.05647 cumulative IPC: 0.99976 (Simulation time: 0 hr 12 min 49 sec) 
Heartbeat CPU  0 instructions:  312000000 cycles:  265694843 heartbeat IPC: 1.05631 cumulative IPC: 1.00001 (Simulation time: 0 hr 12 min 52 sec) 
Heartbeat CPU  0 instructions:  313000000 cycles:  266641622 heartbeat IPC: 1.05621 cumulative IPC: 1.00026 (Simulation time: 0 hr 12 min 54 sec) 
Heartbeat CPU  0 instructions:  314000001 cycles:  267587790 heartbeat IPC: 1.05690 cumulative IPC: 1.00052 (Simulation time: 0 hr 12 min 57 sec) 
Heartbeat CPU  0 instructions:  315000000 cycles:  268533274 heartbeat IPC: 1.05766 cumulative IPC: 1.00077 (Simulation time: 0 hr 13 min 0 sec) 
Heartbeat CPU  0 instructions:  316000000 cycles:  269480403 heartbeat IPC: 1.05582 cumulative IPC: 1.00101 (Simulation time: 0 hr 13 min 2 sec) 
Heartbeat CPU  0 instructions:  317000001 cycles:  270427957 heartbeat IPC: 1.05535 cumulative IPC: 1.00125 (Simulation time: 0 hr 13 min 5 sec) 
Heartbeat CPU  0 instructions:  318000001 cycles:  271374761 heartbeat IPC: 1.05618 cumulative IPC: 1.00148 (Simulation time: 0 hr 13 min 8 sec) 
Heartbeat CPU  0 instructions:  319000002 cycles:  272319894 heartbeat IPC: 1.05805 cumulative IPC: 1.00173 (Simulation time: 0 hr 13 min 10 sec) 
Heartbeat CPU  0 instructions:  320000000 cycles:  273267442 heartbeat IPC: 1.05535 cumulative IPC: 1.00196 (Simulation time: 0 hr 13 min 13 sec) 
Heartbeat CPU  0 instructions:  321000000 cycles:  274213835 heartbeat IPC: 1.05664 cumulative IPC: 1.00220 (Simulation time: 0 hr 13 min 16 sec) 
Heartbeat CPU  0 instructions:  322000001 cycles:  275164582 heartbeat IPC: 1.05181 cumulative IPC: 1.00241 (Simulation time: 0 hr 13 min 18 sec) 
Heartbeat CPU  0 instructions:  323000000 cycles:  276109957 heartbeat IPC: 1.05778 cumulative IPC: 1.00264 (Simulation time: 0 hr 13 min 21 sec) 
Heartbeat CPU  0 instructions:  324000000 cycles:  277057465 heartbeat IPC: 1.05540 cumulative IPC: 1.00287 (Simulation time: 0 hr 13 min 24 sec) 
Heartbeat CPU  0 instructions:  325000001 cycles:  278004326 heartbeat IPC: 1.05612 cumulative IPC: 1.00309 (Simulation time: 0 hr 13 min 26 sec) 
Heartbeat CPU  0 instructions:  326000000 cycles:  278951856 heartbeat IPC: 1.05537 cumulative IPC: 1.00331 (Simulation time: 0 hr 13 min 29 sec) 
Heartbeat CPU  0 instructions:  327000001 cycles:  279902134 heartbeat IPC: 1.05232 cumulative IPC: 1.00352 (Simulation time: 0 hr 13 min 31 sec) 
Heartbeat CPU  0 instructions:  328000000 cycles:  280854444 heartbeat IPC: 1.05008 cumulative IPC: 1.00371 (Simulation time: 0 hr 13 min 34 sec) 
Heartbeat CPU  0 instructions:  329000001 cycles:  281803089 heartbeat IPC: 1.05414 cumulative IPC: 1.00392 (Simulation time: 0 hr 13 min 37 sec) 
Heartbeat CPU  0 instructions:  330000000 cycles:  282829914 heartbeat IPC: 0.97387 cumulative IPC: 1.00379 (Simulation time: 0 hr 13 min 39 sec) 
Heartbeat CPU  0 instructions:  331000000 cycles:  283824467 heartbeat IPC: 1.00548 cumulative IPC: 1.00380 (Simulation time: 0 hr 13 min 42 sec) 
Heartbeat CPU  0 instructions:  332000000 cycles:  284799167 heartbeat IPC: 1.02596 cumulative IPC: 1.00389 (Simulation time: 0 hr 13 min 45 sec) 
Heartbeat CPU  0 instructions:  333000001 cycles:  285740985 heartbeat IPC: 1.06178 cumulative IPC: 1.00412 (Simulation time: 0 hr 13 min 47 sec) 
Heartbeat CPU  0 instructions:  334000002 cycles:  286744557 heartbeat IPC: 0.99644 cumulative IPC: 1.00409 (Simulation time: 0 hr 13 min 50 sec) 
Heartbeat CPU  0 instructions:  335000002 cycles:  287813168 heartbeat IPC: 0.93579 cumulative IPC: 1.00378 (Simulation time: 0 hr 13 min 52 sec) 
Heartbeat CPU  0 instructions:  336000000 cycles:  288839225 heartbeat IPC: 0.97460 cumulative IPC: 1.00365 (Simulation time: 0 hr 13 min 55 sec) 
Heartbeat CPU  0 instructions:  337000003 cycles:  289831965 heartbeat IPC: 1.00732 cumulative IPC: 1.00367 (Simulation time: 0 hr 13 min 57 sec) 
Heartbeat CPU  0 instructions:  338000000 cycles:  290838255 heartbeat IPC: 0.99375 cumulative IPC: 1.00363 (Simulation time: 0 hr 14 min 0 sec) 
Heartbeat CPU  0 instructions:  339000001 cycles:  291979586 heartbeat IPC: 0.87617 cumulative IPC: 1.00301 (Simulation time: 0 hr 14 min 3 sec) 
Heartbeat CPU  0 instructions:  340000000 cycles:  293026460 heartbeat IPC: 0.95522 cumulative IPC: 1.00281 (Simulation time: 0 hr 14 min 5 sec) 
Heartbeat CPU  0 instructions:  341000000 cycles:  294459276 heartbeat IPC: 0.69793 cumulative IPC: 1.00099 (Simulation time: 0 hr 14 min 8 sec) 
Heartbeat CPU  0 instructions:  342000000 cycles:  295450563 heartbeat IPC: 1.00879 cumulative IPC: 1.00102 (Simulation time: 0 hr 14 min 10 sec) 
Heartbeat CPU  0 instructions:  343000003 cycles:  296558107 heartbeat IPC: 0.90290 cumulative IPC: 1.00058 (Simulation time: 0 hr 14 min 13 sec) 
Heartbeat CPU  0 instructions:  344000000 cycles:  297975956 heartbeat IPC: 0.70529 cumulative IPC: 0.99886 (Simulation time: 0 hr 14 min 16 sec) 
Heartbeat CPU  0 instructions:  345000000 cycles:  298909949 heartbeat IPC: 1.07067 cumulative IPC: 0.99914 (Simulation time: 0 hr 14 min 18 sec) 
Heartbeat CPU  0 instructions:  346000003 cycles:  299880787 heartbeat IPC: 1.03004 cumulative IPC: 0.99926 (Simulation time: 0 hr 14 min 21 sec) 
Heartbeat CPU  0 instructions:  347000002 cycles:  301220448 heartbeat IPC: 0.74646 cumulative IPC: 0.99789 (Simulation time: 0 hr 14 min 23 sec) 
Heartbeat CPU  0 instructions:  348000000 cycles:  302739591 heartbeat IPC: 0.65826 cumulative IPC: 0.99582 (Simulation time: 0 hr 14 min 26 sec) 
Heartbeat CPU  0 instructions:  349000000 cycles:  304096729 heartbeat IPC: 0.73684 cumulative IPC: 0.99441 (Simulation time: 0 hr 14 min 29 sec) 
Heartbeat CPU  0 instructions:  350000003 cycles:  305391836 heartbeat IPC: 0.77214 cumulative IPC: 0.99327 (Simulation time: 0 hr 14 min 31 sec) 
Heartbeat CPU  0 instructions:  351000003 cycles:  306690716 heartbeat IPC: 0.76989 cumulative IPC: 0.99212 (Simulation time: 0 hr 14 min 34 sec) 
Heartbeat CPU  0 instructions:  352000000 cycles:  308122697 heartbeat IPC: 0.69833 cumulative IPC: 0.99047 (Simulation time: 0 hr 14 min 37 sec) 
Heartbeat CPU  0 instructions:  353000000 cycles:  309663537 heartbeat IPC: 0.64900 cumulative IPC: 0.98841 (Simulation time: 0 hr 14 min 39 sec) 
Heartbeat CPU  0 instructions:  354000000 cycles:  310907176 heartbeat IPC: 0.80409 cumulative IPC: 0.98752 (Simulation time: 0 hr 14 min 42 sec) 
Heartbeat CPU  0 instructions:  355000001 cycles:  312155066 heartbeat IPC: 0.80135 cumulative IPC: 0.98662 (Simulation time: 0 hr 14 min 45 sec) 
Heartbeat CPU  0 instructions:  356000000 cycles:  313725104 heartbeat IPC: 0.63693 cumulative IPC: 0.98451 (Simulation time: 0 hr 14 min 48 sec) 
Heartbeat CPU  0 instructions:  357000003 cycles:  315313779 heartbeat IPC: 0.62946 cumulative IPC: 0.98236 (Simulation time: 0 hr 14 min 51 sec) 
Heartbeat CPU  0 instructions:  358000000 cycles:  316889312 heartbeat IPC: 0.63470 cumulative IPC: 0.98028 (Simulation time: 0 hr 14 min 54 sec) 
Heartbeat CPU  0 instructions:  359000002 cycles:  318474194 heartbeat IPC: 0.63096 cumulative IPC: 0.97818 (Simulation time: 0 hr 14 min 57 sec) 
Heartbeat CPU  0 instructions:  360000000 cycles:  320065620 heartbeat IPC: 0.62837 cumulative IPC: 0.97609 (Simulation time: 0 hr 15 min 0 sec) 
Heartbeat CPU  0 instructions:  361000000 cycles:  321634547 heartbeat IPC: 0.63738 cumulative IPC: 0.97411 (Simulation time: 0 hr 15 min 3 sec) 
Heartbeat CPU  0 instructions:  362000000 cycles:  323243559 heartbeat IPC: 0.62150 cumulative IPC: 0.97201 (Simulation time: 0 hr 15 min 7 sec) 
Heartbeat CPU  0 instructions:  363000001 cycles:  324822145 heartbeat IPC: 0.63348 cumulative IPC: 0.97004 (Simulation time: 0 hr 15 min 10 sec) 
Heartbeat CPU  0 instructions:  364000000 cycles:  326409992 heartbeat IPC: 0.62978 cumulative IPC: 0.96805 (Simulation time: 0 hr 15 min 13 sec) 
Heartbeat CPU  0 instructions:  365000002 cycles:  328004382 heartbeat IPC: 0.62720 cumulative IPC: 0.96607 (Simulation time: 0 hr 15 min 16 sec) 
Heartbeat CPU  0 instructions:  366000001 cycles:  329590408 heartbeat IPC: 0.63051 cumulative IPC: 0.96414 (Simulation time: 0 hr 15 min 19 sec) 
Heartbeat CPU  0 instructions:  367000001 cycles:  331153258 heartbeat IPC: 0.63986 cumulative IPC: 0.96232 (Simulation time: 0 hr 15 min 23 sec) 
Heartbeat CPU  0 instructions:  368000000 cycles:  332753951 heartbeat IPC: 0.62473 cumulative IPC: 0.96038 (Simulation time: 0 hr 15 min 26 sec) 
Heartbeat CPU  0 instructions:  369000001 cycles:  334333919 heartbeat IPC: 0.63292 cumulative IPC: 0.95854 (Simulation time: 0 hr 15 min 29 sec) 
Heartbeat CPU  0 instructions:  370000002 cycles:  335926501 heartbeat IPC: 0.62791 cumulative IPC: 0.95667 (Simulation time: 0 hr 15 min 32 sec) 
Heartbeat CPU  0 instructions:  371000002 cycles:  337501871 heartbeat IPC: 0.63477 cumulative IPC: 0.95488 (Simulation time: 0 hr 15 min 35 sec) 
Heartbeat CPU  0 instructions:  372000000 cycles:  339078391 heartbeat IPC: 0.63431 cumulative IPC: 0.95311 (Simulation time: 0 hr 15 min 38 sec) 
Heartbeat CPU  0 instructions:  373000000 cycles:  340662792 heartbeat IPC: 0.63115 cumulative IPC: 0.95134 (Simulation time: 0 hr 15 min 42 sec) 
Heartbeat CPU  0 instructions:  374000003 cycles:  342239734 heartbeat IPC: 0.63414 cumulative IPC: 0.94960 (Simulation time: 0 hr 15 min 45 sec) 
Heartbeat CPU  0 instructions:  375000002 cycles:  343833058 heartbeat IPC: 0.62762 cumulative IPC: 0.94783 (Simulation time: 0 hr 15 min 48 sec) 
Heartbeat CPU  0 instructions:  376000000 cycles:  345407899 heartbeat IPC: 0.63498 cumulative IPC: 0.94615 (Simulation time: 0 hr 15 min 51 sec) 
Heartbeat CPU  0 instructions:  377000001 cycles:  346986735 heartbeat IPC: 0.63338 cumulative IPC: 0.94446 (Simulation time: 0 hr 15 min 54 sec) 
Heartbeat CPU  0 instructions:  378000000 cycles:  348556155 heartbeat IPC: 0.63718 cumulative IPC: 0.94283 (Simulation time: 0 hr 15 min 57 sec) 
Heartbeat CPU  0 instructions:  379000001 cycles:  350127404 heartbeat IPC: 0.63644 cumulative IPC: 0.94120 (Simulation time: 0 hr 16 min 1 sec) 
Heartbeat CPU  0 instructions:  380000000 cycles:  351714743 heartbeat IPC: 0.62998 cumulative IPC: 0.93954 (Simulation time: 0 hr 16 min 4 sec) 
Heartbeat CPU  0 instructions:  381000001 cycles:  353301626 heartbeat IPC: 0.63017 cumulative IPC: 0.93791 (Simulation time: 0 hr 16 min 7 sec) 
Heartbeat CPU  0 instructions:  382000000 cycles:  354872394 heartbeat IPC: 0.63663 cumulative IPC: 0.93633 (Simulation time: 0 hr 16 min 10 sec) 
Heartbeat CPU  0 instructions:  383000000 cycles:  356460617 heartbeat IPC: 0.62963 cumulative IPC: 0.93473 (Simulation time: 0 hr 16 min 13 sec) 
Heartbeat CPU  0 instructions:  384000000 cycles:  358042142 heartbeat IPC: 0.63230 cumulative IPC: 0.93315 (Simulation time: 0 hr 16 min 16 sec) 
Heartbeat CPU  0 instructions:  385000001 cycles:  359624027 heartbeat IPC: 0.63216 cumulative IPC: 0.93160 (Simulation time: 0 hr 16 min 20 sec) 
Heartbeat CPU  0 instructions:  386000001 cycles:  361205325 heartbeat IPC: 0.63239 cumulative IPC: 0.93006 (Simulation time: 0 hr 16 min 23 sec) 
Heartbeat CPU  0 instructions:  387000003 cycles:  362782152 heartbeat IPC: 0.63419 cumulative IPC: 0.92855 (Simulation time: 0 hr 16 min 26 sec) 
Heartbeat CPU  0 instructions:  388000000 cycles:  364370221 heartbeat IPC: 0.62969 cumulative IPC: 0.92702 (Simulation time: 0 hr 16 min 29 sec) 
Heartbeat CPU  0 instructions:  389000002 cycles:  365943373 heartbeat IPC: 0.63567 cumulative IPC: 0.92555 (Simulation time: 0 hr 16 min 32 sec) 
Heartbeat CPU  0 instructions:  390000002 cycles:  367528964 heartbeat IPC: 0.63068 cumulative IPC: 0.92406 (Simulation time: 0 hr 16 min 35 sec) 
Heartbeat CPU  0 instructions:  391000001 cycles:  369113616 heartbeat IPC: 0.63105 cumulative IPC: 0.92259 (Simulation time: 0 hr 16 min 39 sec) 
Heartbeat CPU  0 instructions:  392000000 cycles:  370692875 heartbeat IPC: 0.63321 cumulative IPC: 0.92115 (Simulation time: 0 hr 16 min 42 sec) 
Heartbeat CPU  0 instructions:  393000003 cycles:  372271528 heartbeat IPC: 0.63345 cumulative IPC: 0.91972 (Simulation time: 0 hr 16 min 45 sec) 
Heartbeat CPU  0 instructions:  394000002 cycles:  373423761 heartbeat IPC: 0.86788 cumulative IPC: 0.91954 (Simulation time: 0 hr 16 min 48 sec) 
Heartbeat CPU  0 instructions:  395000001 cycles:  374328765 heartbeat IPC: 1.10497 cumulative IPC: 0.92006 (Simulation time: 0 hr 16 min 51 sec) 
Heartbeat CPU  0 instructions:  396000000 cycles:  375228776 heartbeat IPC: 1.11110 cumulative IPC: 0.92060 (Simulation time: 0 hr 16 min 53 sec) 
Heartbeat CPU  0 instructions:  397000000 cycles:  376140038 heartbeat IPC: 1.09738 cumulative IPC: 0.92110 (Simulation time: 0 hr 16 min 56 sec) 
Heartbeat CPU  0 instructions:  398000001 cycles:  377033544 heartbeat IPC: 1.11919 cumulative IPC: 0.92164 (Simulation time: 0 hr 16 min 58 sec) 
Heartbeat CPU  0 instructions:  399000001 cycles:  377945691 heartbeat IPC: 1.09631 cumulative IPC: 0.92213 (Simulation time: 0 hr 17 min 1 sec) 
Heartbeat CPU  0 instructions:  400000000 cycles:  378838725 heartbeat IPC: 1.11978 cumulative IPC: 0.92268 (Simulation time: 0 hr 17 min 4 sec) 
Heartbeat CPU  0 instructions:  401000001 cycles:  379729568 heartbeat IPC: 1.12253 cumulative IPC: 0.92322 (Simulation time: 0 hr 17 min 6 sec) 
Heartbeat CPU  0 instructions:  402000000 cycles:  380632476 heartbeat IPC: 1.10753 cumulative IPC: 0.92373 (Simulation time: 0 hr 17 min 9 sec) 
Heartbeat CPU  0 instructions:  403000003 cycles:  381459171 heartbeat IPC: 1.20964 cumulative IPC: 0.92445 (Simulation time: 0 hr 17 min 12 sec) 
Heartbeat CPU  0 instructions:  404000000 cycles:  382352402 heartbeat IPC: 1.11953 cumulative IPC: 0.92498 (Simulation time: 0 hr 17 min 14 sec) 
Heartbeat CPU  0 instructions:  405000002 cycles:  383278676 heartbeat IPC: 1.07960 cumulative IPC: 0.92542 (Simulation time: 0 hr 17 min 17 sec) 
Heartbeat CPU  0 instructions:  406000002 cycles:  384249346 heartbeat IPC: 1.03022 cumulative IPC: 0.92573 (Simulation time: 0 hr 17 min 19 sec) 
Heartbeat CPU  0 instructions:  407000003 cycles:  385184635 heartbeat IPC: 1.06919 cumulative IPC: 0.92613 (Simulation time: 0 hr 17 min 22 sec) 
Heartbeat CPU  0 instructions:  408000000 cycles:  386140593 heartbeat IPC: 1.04607 cumulative IPC: 0.92648 (Simulation time: 0 hr 17 min 24 sec) 
Heartbeat CPU  0 instructions:  409000003 cycles:  387095767 heartbeat IPC: 1.04693 cumulative IPC: 0.92682 (Simulation time: 0 hr 17 min 27 sec) 
Heartbeat CPU  0 instructions:  410000002 cycles:  388055716 heartbeat IPC: 1.04172 cumulative IPC: 0.92715 (Simulation time: 0 hr 17 min 30 sec) 
Heartbeat CPU  0 instructions:  411000002 cycles:  388994312 heartbeat IPC: 1.06542 cumulative IPC: 0.92754 (Simulation time: 0 hr 17 min 32 sec) 
Heartbeat CPU  0 instructions:  412000000 cycles:  389912630 heartbeat IPC: 1.08895 cumulative IPC: 0.92798 (Simulation time: 0 hr 17 min 35 sec) 
Heartbeat CPU  0 instructions:  413000000 cycles:  390763504 heartbeat IPC: 1.17526 cumulative IPC: 0.92860 (Simulation time: 0 hr 17 min 37 sec) 
Heartbeat CPU  0 instructions:  414000002 cycles:  391586006 heartbeat IPC: 1.21580 cumulative IPC: 0.92930 (Simulation time: 0 hr 17 min 40 sec) 
Heartbeat CPU  0 instructions:  415000002 cycles:  392533582 heartbeat IPC: 1.05532 cumulative IPC: 0.92965 (Simulation time: 0 hr 17 min 42 sec) 
Heartbeat CPU  0 instructions:  416000000 cycles:  393501971 heartbeat IPC: 1.03264 cumulative IPC: 0.92995 (Simulation time: 0 hr 17 min 45 sec) 
Heartbeat CPU  0 instructions:  417000000 cycles:  394500228 heartbeat IPC: 1.00175 cumulative IPC: 0.93016 (Simulation time: 0 hr 17 min 48 sec) 
Heartbeat CPU  0 instructions:  418000002 cycles:  395463765 heartbeat IPC: 1.03784 cumulative IPC: 0.93046 (Simulation time: 0 hr 17 min 50 sec) 
Heartbeat CPU  0 instructions:  419000002 cycles:  396448511 heartbeat IPC: 1.01549 cumulative IPC: 0.93071 (Simulation time: 0 hr 17 min 53 sec) 
Heartbeat CPU  0 instructions:  420000000 cycles:  397396003 heartbeat IPC: 1.05542 cumulative IPC: 0.93105 (Simulation time: 0 hr 17 min 56 sec) 
Heartbeat CPU  0 instructions:  421000000 cycles:  398320543 heartbeat IPC: 1.08162 cumulative IPC: 0.93145 (Simulation time: 0 hr 17 min 58 sec) 
Heartbeat CPU  0 instructions:  422000001 cycles:  399284333 heartbeat IPC: 1.03757 cumulative IPC: 0.93175 (Simulation time: 0 hr 18 min 1 sec) 
Heartbeat CPU  0 instructions:  423000002 cycles:  400211072 heartbeat IPC: 1.07905 cumulative IPC: 0.93214 (Simulation time: 0 hr 18 min 4 sec) 
Heartbeat CPU  0 instructions:  424000000 cycles:  401024359 heartbeat IPC: 1.22958 cumulative IPC: 0.93284 (Simulation time: 0 hr 18 min 6 sec) 
Heartbeat CPU  0 instructions:  425000003 cycles:  401924334 heartbeat IPC: 1.11115 cumulative IPC: 0.93330 (Simulation time: 0 hr 18 min 8 sec) 
Heartbeat CPU  0 instructions:  426000003 cycles:  402897091 heartbeat IPC: 1.02801 cumulative IPC: 0.93356 (Simulation time: 0 hr 18 min 11 sec) 
Heartbeat CPU  0 instructions:  427000000 cycles:  403857665 heartbeat IPC: 1.04104 cumulative IPC: 0.93386 (Simulation time: 0 hr 18 min 14 sec) 
Heartbeat CPU  0 instructions:  428000000 cycles:  404856075 heartbeat IPC: 1.00159 cumulative IPC: 0.93405 (Simulation time: 0 hr 18 min 16 sec) 
Heartbeat CPU  0 instructions:  429000001 cycles:  405818855 heartbeat IPC: 1.03866 cumulative IPC: 0.93434 (Simulation time: 0 hr 18 min 19 sec) 
Heartbeat CPU  0 instructions:  430000003 cycles:  406784809 heartbeat IPC: 1.03525 cumulative IPC: 0.93461 (Simulation time: 0 hr 18 min 22 sec) 
Heartbeat CPU  0 instructions:  431000000 cycles:  407745795 heartbeat IPC: 1.04059 cumulative IPC: 0.93490 (Simulation time: 0 hr 18 min 24 sec) 
Heartbeat CPU  0 instructions:  432000000 cycles:  408693557 heartbeat IPC: 1.05512 cumulative IPC: 0.93522 (Simulation time: 0 hr 18 min 27 sec) 
Heartbeat CPU  0 instructions:  433000001 cycles:  409658479 heartbeat IPC: 1.03635 cumulative IPC: 0.93550 (Simulation time: 0 hr 18 min 29 sec) 
Heartbeat CPU  0 instructions:  434000001 cycles:  410488228 heartbeat IPC: 1.20518 cumulative IPC: 0.93612 (Simulation time: 0 hr 18 min 32 sec) 
Heartbeat CPU  0 instructions:  435000003 cycles:  411317823 heartbeat IPC: 1.20541 cumulative IPC: 0.93675 (Simulation time: 0 hr 18 min 34 sec) 
Heartbeat CPU  0 instructions:  436000000 cycles:  412280581 heartbeat IPC: 1.03868 cumulative IPC: 0.93702 (Simulation time: 0 hr 18 min 37 sec) 
Heartbeat CPU  0 instructions:  437000001 cycles:  413254997 heartbeat IPC: 1.02626 cumulative IPC: 0.93726 (Simulation time: 0 hr 18 min 40 sec) 
Heartbeat CPU  0 instructions:  438000000 cycles:  414228308 heartbeat IPC: 1.02742 cumulative IPC: 0.93751 (Simulation time: 0 hr 18 min 42 sec) 
Heartbeat CPU  0 instructions:  439000002 cycles:  415201602 heartbeat IPC: 1.02744 cumulative IPC: 0.93775 (Simulation time: 0 hr 18 min 45 sec) 
Heartbeat CPU  0 instructions:  440000000 cycles:  416204000 heartbeat IPC: 0.99761 cumulative IPC: 0.93792 (Simulation time: 0 hr 18 min 48 sec) 
Heartbeat CPU  0 instructions:  441000001 cycles:  417192231 heartbeat IPC: 1.01191 cumulative IPC: 0.93812 (Simulation time: 0 hr 18 min 50 sec) 
Heartbeat CPU  0 instructions:  442000000 cycles:  418183651 heartbeat IPC: 1.00865 cumulative IPC: 0.93831 (Simulation time: 0 hr 18 min 53 sec) 
Heartbeat CPU  0 instructions:  443000003 cycles:  419152580 heartbeat IPC: 1.03207 cumulative IPC: 0.93856 (Simulation time: 0 hr 18 min 56 sec) 
Heartbeat CPU  0 instructions:  444000000 cycles:  420055183 heartbeat IPC: 1.10790 cumulative IPC: 0.93897 (Simulation time: 0 hr 18 min 58 sec) 
Heartbeat CPU  0 instructions:  445000000 cycles:  420862459 heartbeat IPC: 1.23873 cumulative IPC: 0.93963 (Simulation time: 0 hr 19 min 1 sec) 
Heartbeat CPU  0 instructions:  446000000 cycles:  421793948 heartbeat IPC: 1.07355 cumulative IPC: 0.93997 (Simulation time: 0 hr 19 min 3 sec) 
Heartbeat CPU  0 instructions:  447000001 cycles:  422772042 heartbeat IPC: 1.02240 cumulative IPC: 0.94019 (Simulation time: 0 hr 19 min 6 sec) 
Heartbeat CPU  0 instructions:  448000000 cycles:  423750806 heartbeat IPC: 1.02170 cumulative IPC: 0.94041 (Simulation time: 0 hr 19 min 8 sec) 
Heartbeat CPU  0 instructions:  449000001 cycles:  424727183 heartbeat IPC: 1.02420 cumulative IPC: 0.94063 (Simulation time: 0 hr 19 min 11 sec) 
Heartbeat CPU  0 instructions:  450000000 cycles:  425711716 heartbeat IPC: 1.01571 cumulative IPC: 0.94083 (Simulation time: 0 hr 19 min 14 sec) 
Heartbeat CPU  0 instructions:  451000000 cycles:  426698812 heartbeat IPC: 1.01307 cumulative IPC: 0.94102 (Simulation time: 0 hr 19 min 16 sec) 
Heartbeat CPU  0 instructions:  452000000 cycles:  427665716 heartbeat IPC: 1.03423 cumulative IPC: 0.94126 (Simulation time: 0 hr 19 min 19 sec) 
Heartbeat CPU  0 instructions:  453000002 cycles:  428643943 heartbeat IPC: 1.02226 cumulative IPC: 0.94147 (Simulation time: 0 hr 19 min 21 sec) 
Heartbeat CPU  0 instructions:  454000000 cycles:  429606017 heartbeat IPC: 1.03942 cumulative IPC: 0.94172 (Simulation time: 0 hr 19 min 24 sec) 
Heartbeat CPU  0 instructions:  455000002 cycles:  430438130 heartbeat IPC: 1.20176 cumulative IPC: 0.94229 (Simulation time: 0 hr 19 min 27 sec) 
Heartbeat CPU  0 instructions:  456000000 cycles:  431294706 heartbeat IPC: 1.16744 cumulative IPC: 0.94280 (Simulation time: 0 hr 19 min 29 sec) 
Heartbeat CPU  0 instructions:  457000002 cycles:  432256804 heartbeat IPC: 1.03940 cumulative IPC: 0.94305 (Simulation time: 0 hr 19 min 32 sec) 
Heartbeat CPU  0 instructions:  458000000 cycles:  433213539 heartbeat IPC: 1.04522 cumulative IPC: 0.94331 (Simulation time: 0 hr 19 min 34 sec) 
Heartbeat CPU  0 instructions:  459000000 cycles:  434179861 heartbeat IPC: 1.03485 cumulative IPC: 0.94354 (Simulation time: 0 hr 19 min 37 sec) 
Heartbeat CPU  0 instructions:  460000000 cycles:  435162634 heartbeat IPC: 1.01753 cumulative IPC: 0.94373 (Simulation time: 0 hr 19 min 39 sec) 
Heartbeat CPU  0 instructions:  461000000 cycles:  436143017 heartbeat IPC: 1.02001 cumulative IPC: 0.94393 (Simulation time: 0 hr 19 min 42 sec) 
Heartbeat CPU  0 instructions:  462000000 cycles:  437117192 heartbeat IPC: 1.02651 cumulative IPC: 0.94414 (Simulation time: 0 hr 19 min 45 sec) 
Heartbeat CPU  0 instructions:  463000002 cycles:  438067101 heartbeat IPC: 1.05273 cumulative IPC: 0.94440 (Simulation time: 0 hr 19 min 47 sec) 
Heartbeat CPU  0 instructions:  464000000 cycles:  439053288 heartbeat IPC: 1.01400 cumulative IPC: 0.94458 (Simulation time: 0 hr 19 min 50 sec) 
Heartbeat CPU  0 instructions:  465000003 cycles:  439948531 heartbeat IPC: 1.11702 cumulative IPC: 0.94498 (Simulation time: 0 hr 19 min 53 sec) 
Heartbeat CPU  0 instructions:  466000001 cycles:  440761092 heartbeat IPC: 1.23067 cumulative IPC: 0.94558 (Simulation time: 0 hr 19 min 55 sec) 
Heartbeat CPU  0 instructions:  467000000 cycles:  441689911 heartbeat IPC: 1.07664 cumulative IPC: 0.94590 (Simulation time: 0 hr 19 min 57 sec) 
Heartbeat CPU  0 instructions:  468000000 cycles:  442657556 heartbeat IPC: 1.03344 cumulative IPC: 0.94611 (Simulation time: 0 hr 20 min 0 sec) 
Heartbeat CPU  0 instructions:  469000002 cycles:  443638004 heartbeat IPC: 1.01994 cumulative IPC: 0.94630 (Simulation time: 0 hr 20 min 3 sec) 
Heartbeat CPU  0 instructions:  470000003 cycles:  444613461 heartbeat IPC: 1.02516 cumulative IPC: 0.94650 (Simulation time: 0 hr 20 min 5 sec) 
Heartbeat CPU  0 instructions:  471000001 cycles:  445598541 heartbeat IPC: 1.01514 cumulative IPC: 0.94667 (Simulation time: 0 hr 20 min 8 sec) 
Heartbeat CPU  0 instructions:  472000000 cycles:  446570485 heartbeat IPC: 1.02886 cumulative IPC: 0.94687 (Simulation time: 0 hr 20 min 11 sec) 
Heartbeat CPU  0 instructions:  473000000 cycles:  447566768 heartbeat IPC: 1.00373 cumulative IPC: 0.94702 (Simulation time: 0 hr 20 min 13 sec) 
Heartbeat CPU  0 instructions:  474000002 cycles:  448523132 heartbeat IPC: 1.04563 cumulative IPC: 0.94725 (Simulation time: 0 hr 20 min 16 sec) 
Heartbeat CPU  0 instructions:  475000000 cycles:  449474299 heartbeat IPC: 1.05134 cumulative IPC: 0.94750 (Simulation time: 0 hr 20 min 19 sec) 
Heartbeat CPU  0 instructions:  476000000 cycles:  450294131 heartbeat IPC: 1.21976 cumulative IPC: 0.94807 (Simulation time: 0 hr 20 min 21 sec) 
Heartbeat CPU  0 instructions:  477000003 cycles:  451161908 heartbeat IPC: 1.15237 cumulative IPC: 0.94851 (Simulation time: 0 hr 20 min 23 sec) 
Heartbeat CPU  0 instructions:  478000001 cycles:  452126848 heartbeat IPC: 1.03633 cumulative IPC: 0.94873 (Simulation time: 0 hr 20 min 26 sec) 
Heartbeat CPU  0 instructions:  479000000 cycles:  453100749 heartbeat IPC: 1.02680 cumulative IPC: 0.94892 (Simulation time: 0 hr 20 min 29 sec) 
Heartbeat CPU  0 instructions:  480000000 cycles:  454080377 heartbeat IPC: 1.02080 cumulative IPC: 0.94909 (Simulation time: 0 hr 20 min 31 sec) 
Heartbeat CPU  0 instructions:  481000001 cycles:  455030570 heartbeat IPC: 1.05242 cumulative IPC: 0.94934 (Simulation time: 0 hr 20 min 34 sec) 
Heartbeat CPU  0 instructions:  482000003 cycles:  455981071 heartbeat IPC: 1.05208 cumulative IPC: 0.94958 (Simulation time: 0 hr 20 min 37 sec) 
Heartbeat CPU  0 instructions:  483000000 cycles:  456963441 heartbeat IPC: 1.01794 cumulative IPC: 0.94975 (Simulation time: 0 hr 20 min 39 sec) 
Heartbeat CPU  0 instructions:  484000000 cycles:  457934628 heartbeat IPC: 1.02967 cumulative IPC: 0.94994 (Simulation time: 0 hr 20 min 42 sec) 
Heartbeat CPU  0 instructions:  485000001 cycles:  458907132 heartbeat IPC: 1.02827 cumulative IPC: 0.95013 (Simulation time: 0 hr 20 min 44 sec) 
Heartbeat CPU  0 instructions:  486000000 cycles:  459761334 heartbeat IPC: 1.17068 cumulative IPC: 0.95059 (Simulation time: 0 hr 20 min 47 sec) 
Heartbeat CPU  0 instructions:  487000002 cycles:  460574750 heartbeat IPC: 1.22939 cumulative IPC: 0.95115 (Simulation time: 0 hr 20 min 49 sec) 
Heartbeat CPU  0 instructions:  488000000 cycles:  461535164 heartbeat IPC: 1.04122 cumulative IPC: 0.95136 (Simulation time: 0 hr 20 min 52 sec) 
Heartbeat CPU  0 instructions:  489000000 cycles:  462532935 heartbeat IPC: 1.00223 cumulative IPC: 0.95148 (Simulation time: 0 hr 20 min 55 sec) 
Heartbeat CPU  0 instructions:  490000000 cycles:  463493350 heartbeat IPC: 1.04122 cumulative IPC: 0.95169 (Simulation time: 0 hr 20 min 57 sec) 
Heartbeat CPU  0 instructions:  491000001 cycles:  464452067 heartbeat IPC: 1.04306 cumulative IPC: 0.95191 (Simulation time: 0 hr 21 min 0 sec) 
Heartbeat CPU  0 instructions:  492000000 cycles:  465438646 heartbeat IPC: 1.01360 cumulative IPC: 0.95206 (Simulation time: 0 hr 21 min 3 sec) 
Heartbeat CPU  0 instructions:  493000000 cycles:  466420101 heartbeat IPC: 1.01890 cumulative IPC: 0.95221 (Simulation time: 0 hr 21 min 6 sec) 
Heartbeat CPU  0 instructions:  494000003 cycles:  467416046 heartbeat IPC: 1.00407 cumulative IPC: 0.95234 (Simulation time: 0 hr 21 min 8 sec) 
Heartbeat CPU  0 instructions:  495000001 cycles:  468361229 heartbeat IPC: 1.05799 cumulative IPC: 0.95258 (Simulation time: 0 hr 21 min 11 sec) 
Heartbeat CPU  0 instructions:  496000000 cycles:  469276109 heartbeat IPC: 1.09304 cumulative IPC: 0.95289 (Simulation time: 0 hr 21 min 14 sec) 
Heartbeat CPU  0 instructions:  497000003 cycles:  470078342 heartbeat IPC: 1.24652 cumulative IPC: 0.95346 (Simulation time: 0 hr 21 min 16 sec) 
Heartbeat CPU  0 instructions:  498000001 cycles:  470953956 heartbeat IPC: 1.14205 cumulative IPC: 0.95385 (Simulation time: 0 hr 21 min 19 sec) 
Heartbeat CPU  0 instructions:  499000001 cycles:  471934396 heartbeat IPC: 1.01995 cumulative IPC: 0.95401 (Simulation time: 0 hr 21 min 21 sec) 
Heartbeat CPU  0 instructions:  500000000 cycles:  472929247 heartbeat IPC: 1.00517 cumulative IPC: 0.95413 (Simulation time: 0 hr 21 min 24 sec) 
Heartbeat CPU  0 instructions:  501000003 cycles:  473923292 heartbeat IPC: 1.00599 cumulative IPC: 0.95425 (Simulation time: 0 hr 21 min 26 sec) 
Heartbeat CPU  0 instructions:  502000003 cycles:  474914746 heartbeat IPC: 1.00862 cumulative IPC: 0.95438 (Simulation time: 0 hr 21 min 29 sec) 
Heartbeat CPU  0 instructions:  503000002 cycles:  475883067 heartbeat IPC: 1.03271 cumulative IPC: 0.95456 (Simulation time: 0 hr 21 min 32 sec) 
Heartbeat CPU  0 instructions:  504000000 cycles:  476870630 heartbeat IPC: 1.01259 cumulative IPC: 0.95469 (Simulation time: 0 hr 21 min 34 sec) 
Heartbeat CPU  0 instructions:  505000000 cycles:  477844517 heartbeat IPC: 1.02681 cumulative IPC: 0.95486 (Simulation time: 0 hr 21 min 37 sec) 
Heartbeat CPU  0 instructions:  506000002 cycles:  478787824 heartbeat IPC: 1.06010 cumulative IPC: 0.95509 (Simulation time: 0 hr 21 min 40 sec) 
Heartbeat CPU  0 instructions:  507000001 cycles:  479631552 heartbeat IPC: 1.18521 cumulative IPC: 0.95555 (Simulation time: 0 hr 21 min 42 sec) 
Heartbeat CPU  0 instructions:  508000000 cycles:  480441533 heartbeat IPC: 1.23460 cumulative IPC: 0.95608 (Simulation time: 0 hr 21 min 45 sec) 
Heartbeat CPU  0 instructions:  509000002 cycles:  481436659 heartbeat IPC: 1.00490 cumulative IPC: 0.95619 (Simulation time: 0 hr 21 min 47 sec) 
Heartbeat CPU  0 instructions:  510000002 cycles:  482397547 heartbeat IPC: 1.04070 cumulative IPC: 0.95638 (Simulation time: 0 hr 21 min 50 sec) 
Heartbeat CPU  0 instructions:  511000001 cycles:  483384982 heartbeat IPC: 1.01272 cumulative IPC: 0.95651 (Simulation time: 0 hr 21 min 52 sec) 
Heartbeat CPU  0 instructions:  512000000 cycles:  484342789 heartbeat IPC: 1.04405 cumulative IPC: 0.95670 (Simulation time: 0 hr 21 min 55 sec) 
Heartbeat CPU  0 instructions:  513000002 cycles:  485326395 heartbeat IPC: 1.01667 cumulative IPC: 0.95684 (Simulation time: 0 hr 21 min 58 sec) 
Heartbeat CPU  0 instructions:  514000000 cycles:  486300750 heartbeat IPC: 1.02632 cumulative IPC: 0.95700 (Simulation time: 0 hr 22 min 0 sec) 
Heartbeat CPU  0 instructions:  515000000 cycles:  487274315 heartbeat IPC: 1.02715 cumulative IPC: 0.95716 (Simulation time: 0 hr 22 min 3 sec) 
Heartbeat CPU  0 instructions:  516000000 cycles:  488220058 heartbeat IPC: 1.05737 cumulative IPC: 0.95737 (Simulation time: 0 hr 22 min 6 sec) 
Heartbeat CPU  0 instructions:  517000002 cycles:  489122627 heartbeat IPC: 1.10795 cumulative IPC: 0.95769 (Simulation time: 0 hr 22 min 8 sec) 
Heartbeat CPU  0 instructions:  518000000 cycles:  489931787 heartbeat IPC: 1.23585 cumulative IPC: 0.95820 (Simulation time: 0 hr 22 min 11 sec) 
Heartbeat CPU  0 instructions:  519000003 cycles:  490822774 heartbeat IPC: 1.12235 cumulative IPC: 0.95854 (Simulation time: 0 hr 22 min 13 sec) 
Heartbeat CPU  0 instructions:  520000000 cycles:  491801507 heartbeat IPC: 1.02173 cumulative IPC: 0.95868 (Simulation time: 0 hr 22 min 16 sec) 
Heartbeat CPU  0 instructions:  521000000 cycles:  492784191 heartbeat IPC: 1.01762 cumulative IPC: 0.95881 (Simulation time: 0 hr 22 min 18 sec) 
Heartbeat CPU  0 instructions:  522000003 cycles:  493788453 heartbeat IPC: 0.99576 cumulative IPC: 0.95889 (Simulation time: 0 hr 22 min 21 sec) 
Heartbeat CPU  0 instructions:  523000001 cycles:  494771409 heartbeat IPC: 1.01734 cumulative IPC: 0.95902 (Simulation time: 0 hr 22 min 24 sec) 
Heartbeat CPU  0 instructions:  524000000 cycles:  495768768 heartbeat IPC: 1.00265 cumulative IPC: 0.95912 (Simulation time: 0 hr 22 min 26 sec) 
Heartbeat CPU  0 instructions:  525000002 cycles:  496754431 heartbeat IPC: 1.01455 cumulative IPC: 0.95925 (Simulation time: 0 hr 22 min 29 sec) 
Heartbeat CPU  0 instructions:  526000002 cycles:  497758997 heartbeat IPC: 0.99545 cumulative IPC: 0.95933 (Simulation time: 0 hr 22 min 32 sec) 
Heartbeat CPU  0 instructions:  527000000 cycles:  498751017 heartbeat IPC: 1.00804 cumulative IPC: 0.95944 (Simulation time: 0 hr 22 min 34 sec) 
Heartbeat CPU  0 instructions:  528000000 cycles:  499587579 heartbeat IPC: 1.19537 cumulative IPC: 0.95988 (Simulation time: 0 hr 22 min 37 sec) 
[...]
AAAAAAAAAAAAAAAAAAAAAAAAAAAAAAAAAAAAAAAAAAAAAAAAAAAAA22222222222
AAAAAAAAAAAAAAAAAAAAAAAAAAAAAAAAAAAAAAAAAAAAAAAAAAAAAA2222222222
AAAAAAAAAAAAAAAAAAAAAAAAAAAAAAAAAAAAAAAAAAAAAAAAAAAAAAA222222222
AAAAAAAAAAAAAAAAAAAAAAAAAAAAAAAAAAAAAAAAAAAAAAAAAAAAAAAA22222222
AAAAAAAAAAAAAAAAAAAAAAAAAAAAAAAAAAAAAAAAAAAAAAAAAAAAAAAAA2222222
AAAAAAAAAAAAAAAAAAAAAAAAAAAAAAAAAAAAAAAAAAAAAAAAAAAAAAAAAA222222
AAAAAAAAAAAAAAAAAAAAAAAAAAAAAAAAAAAAAAAAAAAAAAAAAAAAAAAAAAA22222
AAAAAAAAAAAAAAAAAAAAAAAAAAAAAAAAAAAAAAAAAAAAAAAAAAAAAAAAAAAA2222
AAAAAAAAAAAAAAAAAAAAAAAAAAAAAAAAAAAAAAAAAAAAAAAAAAAAAAAAAAAAA222
AAAAAAAAAAAAAAAAAAAAAAAAAAAAAAAAAAAAAAAAAAAAAAAAAAAAAAAAAAAAAA22
AAAAAAAAAAAAAAAAAAAAAAAAAAAAAAAAAAAAAAAAAAAAAAAAAAAAAAAAAAAAAAA2
AAAAAAAAAAAAAAAAAAAAAAAAAAAAAAAAAAAAAAAAAAAAAAAAAAAAAAAAAAAAAAAA
AIAAAAAAAAAAAAAAAAAAAAAAAAAAAAAAAAAAAAAAAAAAAAAAAAAAAAAAAAAAAAAA
AIIAAAAAAAAAAAAAAAAAAAAAAAAAAAAAAAAAAAAAAAAAAAAAAAAAAAAAAAAAAAAA
AIIIAAAAAAAAAAAAAAAAAAAAAAAAAAAAAAAAAAAAAAAAAAAAAAAAAAAAAAAAAAAA
AIIIIAAAAAAAAAAAAAAAAAAAAAAAAAAAAAAAAAAAAAAAAAAAAAAAAAAAAAAAAAAA
AIIIIIAAAAAAAAAAAAAAAAAAAAAAAAAAAAAAAAAAAAAAAAAAAAAAAAAAAAAAAAAA
AIIIIIIAAAAAAAAAAAAAAAAAAAAAAAAAAAAAAAAAAAAAAAAAAAAAAAAAAAAAAAAA
AIIIIIIIAAAAAAAAAAAAAAAAAAAAAAAAAAAAAAAAAAAAAAAAAAAAAAAAAAAAAAAA
AIIIIIIIIAAAAAAAAAAAAAAAAAAAAAAAAAAAAAAAAAAAAAAAAAAAAAAAAAAAAAAA
AIIIIIIIIIAAAAAAAAAAAAAAAAAAAAAAAAAAAAAAAAAAAAAAAAAAAAAAAAAAAAAA
AIIIIIIIIIIAAAAAAAAAAAAAAAAAAAAAAAAAAAAAAAAAAAAAAAAAAAAAAAAAAAAA
AIIIIIIIIIIIAAAAAAAAAAAAAAAAAAAAAAAAAAAAAAAAAAAAAAAAAAAAAAAAAAAA
AIIIIIIIIIIIIAAAAAAAAAAAAAAAAAAAAAAAAAAAAAAAAAAAAAAAAAAAAAAAAAAA
AIIIIIIIIIIIIIAAAAAAAAAAAAAAAAAAAAAAAAAAAAAAAAAAAAAAAAAAAAAAAAAA
AIIIIIIIIIIIIIIAAAAAAAAAAAAAAAAAAAAAAAAAAAAAAAAAAAAAAAAAAAAAAAAA
AIIIIIIIIIIIIIIIAAAAAAAAAAAAAAAAAAAAAAAAAAAAAAAAAAAAAAAAAAAAAAAA
AIIIIIIIIIIIIIIIIAAAAAAAAAAAAAAAAAAAAAAAAAAAAAAAAAAAAAAAAAAAAAAA
AIIIIIIIIIIIIIIIIIAAAAAAAAAAAAAAAAAAAAAAAAAAAAAAAAAAAAAAAAAAAAAA
AIIIIIIIIIIIIIIIIIIAAAAAAAAAAAAAAAAAAAAAAAAAAAAAAAAAAAAAAAAAAAAA
AIIIIIIIIIIIIIIIIIIIAAAAAAAAAAAAAAAAAAAAAAAAAAAAAAAAAAAAAAAAAAAA
AIIIIIIIIIIIIIIIIIIIIAAAAAAAAAAAAAAAAAAAAAAAAAAAAAAAAAAAAAAAAAAA
AIIIIIIIIIIIIIIIIIIIIIAAAAAAAAAAAAAAAAAAAAAAAAAAAAAAAAAAAAAAAAAA
AIIIIIIIIIIIIIIIIIIIIIIAAAAAAAAAAAAAAAAAAAAAAAAAAAAAAAAAAAAAAAAA
AIIIIIIIIIIIIIIIIIIIIIIIAAAAAAAAAAAAAAAAAAAAAAAAAAAAAAAAAAAAAAAA
AIIIIIIIIIIIIIIIIIIIIIIIIAAAAAAAAAAAAAAAAAAAAAAAAAAAAAAAAAAAAAAA
AIIIIIIIIIIIIIIIIIIIIIIIIIAAAAAAAAAAAAAAAAAAAAAAAAAAAAAAAAAAAAAA
AIIIIIIIIIIIIIIIIIIIIIIIIIIAAAAAAAAAAAAAAAAAAAAAAAAAAAAAAAAAAAAA
AIIIIIIIIIIIIIIIIIIIIIIIIIIIAAAAAAAAAAAAAAAAAAAAAAAAAAAAAAAAAAAA
AIIIIIIIIIIIIIIIIIIIIIIIIIIIIAAAAAAAAAAAAAAAAAAAAAAAAAAAAAAAAAAA
AIIIIIIIIIIIIIIIIIIIIIIIIIIIIIAAAAAAAAAAAAAAAAAAAAAAAAAAAAAAAAAA
AIIIIIIIIIIIIIIIIIIIIIIIIIIIIIIAAAAAAAAAAAAAAAAAAAAAAAAAAAAAAAAA
AIIIIIIIIIIIIIIIIIIIIIIIIIIIIIIIAAAAAAAAAAAAAAAAAAAAAAAAAAAAAAAA
AIIIIIIIIIIIIIIIIIIIIIIIIIIIIIIIIAAAAAAAAAAAAAAAAAAAAAAAAAAAAAAA
AIIIIIIIIIIIIIIIIIIIIIIIIIIIIIIIIIAAAAAAAAAAAAAAAAAAAAAAAAAAAAAA
AIIIIIIIIIIIIIIIIIIIIIIIIIIIIIIIIIIAAAAAAAAAAAAAAAAAAAAAAAAAAAAA
AIIIIIIIIIIIIIIIIIIIIIIIIIIIIIIIIIIIAAAAAAAAAAAAAAAAAAAAAAAAAAAA
AIIIIIIIIIIIIIIIIIIIIIIIIIIIIIIIIIIIIAAAAAAAAAAAAAAAAAAAAAAAAAAA
AIIIIIIIIIIIIIIIIIIIIIIIIIIIIIIIIIIIIIAAAAAAAAAAAAAAAAAAAAAAAAAA
AIIIIIIIIIIIIIIIIIIIIIIIIIIIIIIIIIIIIIIAAAAAAAAAAAAAAAAAAAAAAAAA
AIIIIIIIIIIIIIIIIIIIIIIIIIIIIIIIIIIIIIIIAAAAAAAAAAAAAAAAAAAAAAAA
AIIIIIIIIIIIIIIIIIIIIIIIIIIIIIIIIIIIIIIIIAAAAAAAAAAAAAAAAAAAAAAA
AIIIIIIIIIIIIIIIIIIIIIIIIIIIIIIIIIIIIIIIIIAAAAAAAAAAAAAAAAAAAAAA
AIIIIIIIIIIIIIIIIIIIIIIIIIIIIIIIIIIIIIIIIIIAAAAAAAAAAAAAAAAAAAAA
AIIIIIIIIIIIIIIIIIIIIIIIIIIIIIIIIIIIIIIIIIIIAAAAAAAAAAAAAAAAAAAA
AIIIIIIIIIIIIIIIIIIIIIIIIIIIIIIIIIIIIIIIIIIIIAAAAAAAAAAAAAAAAAAA
AIIIIIIIIIIIIIIIIIIIIIIIIIIIIIIIIIIIIIIIIIIIIIAAAAAAAAAAAAAAAAAA
AIIIIIIIIIIIIIIIIIIIIIIIIIIIIIIIIIIIIIIIIIIIIIIAAAAAAAAAAAAAAAAA
AIIIIIIIIIIIIIIIIIIIIIIIIIIIIIIIIIIIIIIIIIIIIIIIAAAAAAAAAAAAAAAA
AIIIIIIIIIIIIIIIIIIIIIIIIIIIIIIIIIIIIIIIIIIIIIIIIAAAAAAAAAAAAAAA
AIIIIIIIIIIIIIIIIIIIIIIIIIIIIIIIIIIIIIIIIIIIIIIIIIAAAAAAAAAAAAAA
AIIIIIIIIIIIIIIIIIIIIIIIIIIIIIIIIIIIIIIIIIIIIIIIIIIAAAAAAAAAAAAA
AIIIIIIIIIIIIIIIIIIIIIIIIIIIIIIIIIIIIIIIIIIIIIIIIIIIAAAAAAAAAAAA
AIIIIIIIIIIIIIIIIIIIIIIIIIIIIIIIIIIIIIIIIIIIIIIIIIIIIAAAAAAAAAAA
AIIIIIIIIIIIIIIIIIIIIIIIIIIIIIIIIIIIIIIIIIIIIIIIIIIIIIAAAAAAAAAA
AIIIIIIIIIIIIIIIIIIIIIIIIIIIIIIIIIIIIIIIIIIIIIIIIIIIIIIAAAAAAAAA
AIIIIIIIIIIIIIIIIIIIIIIIIIIIIIIIIIIIIIIIIIIIIIIIIIIIIIIIAAAAAAAA
AIIIIIIIIIIIIIIIIIIIIIIIIIIIIIIIIIIIIIIIIIIIIIIIIIIIIIIIIAAAAAAA
AIIIIIIIIIIIIIIIIIIIIIIIIIIIIIIIIIIIIIIIIIIIIIIIIIIIIIIIIIAAAAAA
AIIIIIIIIIIIIIIIIIIIIIIIIIIIIIIIIIIIIIIIIIIIIIIIIIIIIIIIIIIAAAAA
AIIIIIIIIIIIIIIIIIIIIIIIIIIIIIIIIIIIIIIIIIIIIIIIIIIIIIIIIIIIAAAA
AIIIIIIIIIIIIIIIIIIIIIIIIIIIIIIIIIIIIIIIIIIIIIIIIIIIIIIIIIIIIAAA
AIIIIIIIIIIIIIIIIIIIIIIIIIIIIIIIIIIIIIIIIIIIIIIIIIIIIIIIIIIIIIAA
AIIIIIIIIIIIIIIIIIIIIIIIIIIIIIIIIIIIIIIIIIIIIIIIIIIIIIIIIIIIIIIA
AIIIIIIIIIIIIIIIIIIIIIIIIIIIIIIIIIIIIIIIIIIIIIIIIIIIIIIIIIIIIIII
A222222222222222IIIIIIIIIIIIIIIIIIIIIIIIIIIIIIIIIIIIIIIIIIIIIIII
AA2222222222222222IIIIIIIIIIIIIIIIIIIIIIIIIIIIIIIIIIIIIIIIIIIIII
AAA2222222222222222IIIIIIIIIIIIIIIIIIIIIIIIIIIIIIIIIIIIIIIIIIIII
AAAA2222222222222222IIIIIIIIIIIIIIIIIIIIIIIIIIIIIIIIIIIIIIIIIIII
AAAAA2222222222222222IIIIIIIIIIIIIIIIIIIIIIIIIIIIIIIIIIIIIIIIIII
AAAAAA2222222222222222IIIIIIIIIIIIIIIIIIIIIIIIIIIIIIIIIIIIIIIIII
AAAAAAA2222222222222222IIIIIIIIIIIIIIIIIIIIIIIIIIIIIIIIIIIIIIIII
AAAAAAAA2222222222222222IIIIIIIIIIIIIIIIIIIIIIIIIIIIIIIIIIIIIIII
AAAAAAAAA2222222222222222IIIIIIIIIIIIIIIIIIIIIIIIIIIIIIIIIIIIIII
AAAAAAAAAA2222222222222222IIIIIIIIIIIIIIIIIIIIIIIIIIIIIIIIIIIIII
AAAAAAAAAAA2222222222222222IIIIIIIIIIIIIIIIIIIIIIIIIIIIIIIIIIIII
AAAAAAAAAAAA2222222222222222IIIIIIIIIIIIIIIIIIIIIIIIIIIIIIIIIIII
AAAAAAAAAAAAA2222222222222222IIIIIIIIIIIIIIIIIIIIIIIIIIIIIIIIIII
AAAAAAAAAAAAAA2222222222222222IIIIIIIIIIIIIIIIIIIIIIIIIIIIIIIIII
AAAAAAAAAAAAAAA2222222222222222IIIIIIIIIIIIIIIIIIIIIIIIIIIIIIIII
AAAAAAAAAAAAAAAA2222222222222222IIIIIIIIIIIIIIIIIIIIIIIIIIIIIIII
AAAAAAAAAAAAAAAAA2222222222222222IIIIIIIIIIIIIIIIIIIIIIIIIIIIIII
AAAAAAAAAAAAAAAAAA2222222222222222IIIIIIIIIIIIIIIIIIIIIIIIIIIIII
AAAAAAAAAAAAAAAAAAA2222222222222222IIIIIIIIIIIIIIIIIIIIIIIIIIIII
AAAAAAAAAAAAAAAAAAAA2222222222222222IIIIIIIIIIIIIIIIIIIIIIIIIIII
AAAAAAAAAAAAAAAAAAAAA2222222222222222IIIIIIIIIIIIIIIIIIIIIIIIIII
AAAAAAAAAAAAAAAAAAAAAA2222222222222222IIIIIIIIIIIIIIIIIIIIIIIIII
AAAAAAAAAAAAAAAAAAAAAAA2222222222222222IIIIIIIIIIIIIIIIIIIIIIIII
AAAAAAAAAAAAAAAAAAAAAAAA2222222222222222IIIIIIIIIIIIIIIIIIIIIIII
AAAAAAAAAAAAAAAAAAAAAAAAA2222222222222222IIIIIIIIIIIIIIIIIIIIIII
AAAAAAAAAAAAAAAAAAAAAAAAAA2222222222222222IIIIIIIIIIIIIIIIIIIIII
AAAAAAAAAAAAAAAAAAAAAAAAAAA2222222222222222IIIIIIIIIIIIIIIIIIIII
AAAAAAAAAAAAAAAAAAAAAAAAAAAA2222222222222222IIIIIIIIIIIIIIIIIIII
AAAAAAAAAAAAAAAAAAAAAAAAAAAAA2222222222222222IIIIIIIIIIIIIIIIIII
AAAAAAAAAAAAAAAAAAAAAAAAAAAAAA2222222222222222IIIIIIIIIIIIIIIIII
AAAAAAAAAAAAAAAAAAAAAAAAAAAAAAA2222222222222222IIIIIIIIIIIIIIIII
AAAAAAAAAAAAAAAAAAAAAAAAAAAAAAAA2222222222222222IIIIIIIIIIIIIIII
AAAAAAAAAAAAAAAAAAAAAAAAAAAAAAAAA2222222222222222IIIIIIIIIIIIIII
AAAAAAAAAAAAAAAAAAAAAAAAAAAAAAAAAA2222222222222222IIIIIIIIIIIIII
AAAAAAAAAAAAAAAAAAAAAAAAAAAAAAAAAAA2222222222222222IIIIIIIIIIIII
AAAAAAAAAAAAAAAAAAAAAAAAAAAAAAAAAAAA2222222222222222IIIIIIIIIIII
AAAAAAAAAAAAAAAAAAAAAAAAAAAAAAAAAAAAA2222222222222222IIIIIIIIIII
AAAAAAAAAAAAAAAAAAAAAAAAAAAAAAAAAAAAAA2222222222222222IIIIIIIIII
AAAAAAAAAAAAAAAAAAAAAAAAAAAAAAAAAAAAAAA2222222222222222IIIIIIIII
AAAAAAAAAAAAAAAAAAAAAAAAAAAAAAAAAAAAAAAA2222222222222222IIIIIIII
AAAAAAAAAAAAAAAAAAAAAAAAAAAAAAAAAAAAAAAAA2222222222222222IIIIIII
AAAAAAAAAAAAAAAAAAAAAAAAAAAAAAAAAAAAAAAAAA2222222222222222IIIIII
AAAAAAAAAAAAAAAAAAAAAAAAAAAAAAAAAAAAAAAAAAA2222222222222222IIIII
AAAAAAAAAAAAAAAAAAAAAAAAAAAAAAAAAAAAAAAAAAAA2222222222222222IIII
AAAAAAAAAAAAAAAAAAAAAAAAAAAAAAAAAAAAAAAAAAAAA2222222222222222III
AAAAAAAAAAAAAAAAAAAAAAAAAAAAAAAAAAAAAAAAAAAAAA2222222222222222II
AAAAAAAAAAAAAAAAAAAAAAAAAAAAAAAAAAAAAAAAAAAAAAA2222222222222222I
AAAAAAAAAAAAAAAAAAAAAAAAAAAAAAAAAAAAAAAAAAAAAAAA2222222222222222
AAAAAAAAAAAAAAAAAAAAAAAAAAAAAAAAAAAAAAAAAAAAAAAAA222222222222222
AAAAAAAAAAAAAAAAAAAAAAAAAAAAAAAAAAAAAAAAAAAAAAAAAA22222222222222
AAAAAAAAAAAAAAAAAAAAAAAAAAAAAAAAAAAAAAAAAAAAAAAAAAA2222222222222
AAAAAAAAAAAAAAAAAAAAAAAAAAAAAAAAAAAAAAAAAAAAAAAAAAAA222222222222
AAAAAAAAAAAAAAAAAAAAAAAAAAAAAAAAAAAAAAAAAAAAAAAAAAAAA22222222222
AAAAAAAAAAAAAAAAAAAAAAAAAAAAAAAAAAAAAAAAAAAAAAAAAAAAAA2222222222
AAAAAAAAAAAAAAAAAAAAAAAAAAAAAAAAAAAAAAAAAAAAAAAAAAAAAAA222222222
AAAAAAAAAAAAAAAAAAAAAAAAAAAAAAAAAAAAAAAAAAAAAAAAAAAAAAAA22222222
AAAAAAAAAAAAAAAAAAAAAAAAAAAAAAAAAAAAAAAAAAAAAAAAAAAAAAAAA2222222
AAAAAAAAAAAAAAAAAAAAAAAAAAAAAAAAAAAAAAAAAAAAAAAAAAAAAAAAAA222222
AAAAAAAAAAAAAAAAAAAAAAAAAAAAAAAAAAAAAAAAAAAAAAAAAAAAAAAAAAA22222
AAAAAAAAAAAAAAAAAAAAAAAAAAAAAAAAAAAAAAAAAAAAAAAAAAAAAAAAAAAA2222
AAAAAAAAAAAAAAAAAAAAAAAAAAAAAAAAAAAAAAAAAAAAAAAAAAAAAAAAAAAAA222
AAAAAAAAAAAAAAAAAAAAAAAAAAAAAAAAAAAAAAAAAAAAAAAAAAAAAAAAAAAAAA22
AAAAAAAAAAAAAAAAAAAAAAAAAAAAAAAAAAAAAAAAAAAAAAAAAAAAAAAAAAAAAAA2
AAAAAAAAAAAAAAAAAAAAAAAAAAAAAAAAAAAAAAAAAAAAAAAAAAAAAAAAAAAAAAAA
AIAAAAAAAAAAAAAAAAAAAAAAAAAAAAAAAAAAAAAAAAAAAAAAAAAAAAAAAAAAAAAA
AIIAAAAAAAAAAAAAAAAAAAAAAAAAAAAAAAAAAAAAAAAAAAAAAAAAAAAAAAAAAAAA
AIIIAAAAAAAAAAAAAAAAAAAAAAAAAAAAAAAAAAAAAAAAAAAAAAAAAAAAAAAAAAAA
AIIIIAAAAAAAAAAAAAAAAAAAAAAAAAAAAAAAAAAAAAAAAAAAAAAAAAAAAAAAAAAA
AIIIIIAAAAAAAAAAAAAAAAAAAAAAAAAAAAAAAAAAAAAAAAAAAAAAAAAAAAAAAAAA
AIIIIIIAAAAAAAAAAAAAAAAAAAAAAAAAAAAAAAAAAAAAAAAAAAAAAAAAAAAAAAAA
AIIIIIIIAAAAAAAAAAAAAAAAAAAAAAAAAAAAAAAAAAAAAAAAAAAAAAAAAAAAAAAA
AIIIIIIIIAAAAAAAAAAAAAAAAAAAAAAAAAAAAAAAAAAAAAAAAAAAAAAAAAAAAAAA
AIIIIIIIIIAAAAAAAAAAAAAAAAAAAAAAAAAAAAAAAAAAAAAAAAAAAAAAAAAAAAAA
AIIIIIIIIIIAAAAAAAAAAAAAAAAAAAAAAAAAAAAAAAAAAAAAAAAAAAAAAAAAAAAA
AIIIIIIIIIIIAAAAAAAAAAAAAAAAAAAAAAAAAAAAAAAAAAAAAAAAAAAAAAAAAAAA
AIIIIIIIIIIIIAAAAAAAAAAAAAAAAAAAAAAAAAAAAAAAAAAAAAAAAAAAAAAAAAAA
AIIIIIIIIIIIIIAAAAAAAAAAAAAAAAAAAAAAAAAAAAAAAAAAAAAAAAAAAAAAAAAA
AIIIIIIIIIIIIIIAAAAAAAAAAAAAAAAAAAAAAAAAAAAAAAAAAAAAAAAAAAAAAAAA
AIIIIIIIIIIIIIIIAAAAAAAAAAAAAAAAAAAAAAAAAAAAAAAAAAAAAAAAAAAAAAAA
AIIIIIIIIIIIIIIIIAAAAAAAAAAAAAAAAAAAAAAAAAAAAAAAAAAAAAAAAAAAAAAA
AIIIIIIIIIIIIIIIIIAAAAAAAAAAAAAAAAAAAAAAAAAAAAAAAAAAAAAAAAAAAAAA
AIIIIIIIIIIIIIIIIIIAAAAAAAAAAAAAAAAAAAAAAAAAAAAAAAAAAAAAAAAAAAAA
AIIIIIIIIIIIIIIIIIIIAAAAAAAAAAAAAAAAAAAAAAAAAAAAAAAAAAAAAAAAAAAA
AIIIIIIIIIIIIIIIIIIIIAAAAAAAAAAAAAAAAAAAAAAAAAAAAAAAAAAAAAAAAAAA
AIIIIIIIIIIIIIIIIIIIIIAAAAAAAAAAAAAAAAAAAAAAAAAAAAAAAAAAAAAAAAAA
AIIIIIIIIIIIIIIIIIIIIIIAAAAAAAAAAAAAAAAAAAAAAAAAAAAAAAAAAAAAAAAA
AIIIIIIIIIIIIIIIIIIIIIIIAAAAAAAAAAAAAAAAAAAAAAAAAAAAAAAAAAAAAAAA
AIIIIIIIIIIIIIIIIIIIIIIIIAAAAAAAAAAAAAAAAAAAAAAAAAAAAAAAAAAAAAAA
AIIIIIIIIIIIIIIIIIIIIIIIIIAAAAAAAAAAAAAAAAAAAAAAAAAAAAAAAAAAAAAA
AIIIIIIIIIIIIIIIIIIIIIIIIIIAAAAAAAAAAAAAAAAAAAAAAAAAAAAAAAAAAAAA
AIIIIIIIIIIIIIIIIIIIIIIIIIIIAAAAAAAAAAAAAAAAAAAAAAAAAAAAAAAAAAAA
AIIIIIIIIIIIIIIIIIIIIIIIIIIIIAAAAAAAAAAAAAAAAAAAAAAAAAAAAAAAAAAA
AIIIIIIIIIIIIIIIIIIIIIIIIIIIIIAAAAAAAAAAAAAAAAAAAAAAAAAAAAAAAAAA
AIIIIIIIIIIIIIIIIIIIIIIIIIIIIIIAAAAAAAAAAAAAAAAAAAAAAAAAAAAAAAAA
AIIIIIIIIIIIIIIIIIIIIIIIIIIIIIIIAAAAAAAAAAAAAAAAAAAAAAAAAAAAAAAA
AIIIIIIIIIIIIIIIIIIIIIIIIIIIIIIIIAAAAAAAAAAAAAAAAAAAAAAAAAAAAAAA
AIIIIIIIIIIIIIIIIIIIIIIIIIIIIIIIIIAAAAAAAAAAAAAAAAAAAAAAAAAAAAAA
AIIIIIIIIIIIIIIIIIIIIIIIIIIIIIIIIIIAAAAAAAAAAAAAAAAAAAAAAAAAAAAA
AIIIIIIIIIIIIIIIIIIIIIIIIIIIIIIIIIIIAAAAAAAAAAAAAAAAAAAAAAAAAAAA
AIIIIIIIIIIIIIIIIIIIIIIIIIIIIIIIIIIIIAAAAAAAAAAAAAAAAAAAAAAAAAAA
AIIIIIIIIIIIIIIIIIIIIIIIIIIIIIIIIIIIIIAAAAAAAAAAAAAAAAAAAAAAAAAA
AIIIIIIIIIIIIIIIIIIIIIIIIIIIIIIIIIIIIIIAAAAAAAAAAAAAAAAAAAAAAAAA
AIIIIIIIIIIIIIIIIIIIIIIIIIIIIIIIIIIIIIIIAAAAAAAAAAAAAAAAAAAAAAAA
AIIIIIIIIIIIIIIIIIIIIIIIIIIIIIIIIIIIIIIIIAAAAAAAAAAAAAAAAAAAAAAA
AIIIIIIIIIIIIIIIIIIIIIIIIIIIIIIIIIIIIIIIIIAAAAAAAAAAAAAAAAAAAAAA
AIIIIIIIIIIIIIIIIIIIIIIIIIIIIIIIIIIIIIIIIIIAAAAAAAAAAAAAAAAAAAAA
AIIIIIIIIIIIIIIIIIIIIIIIIIIIIIIIIIIIIIIIIIIIAAAAAAAAAAAAAAAAAAAA
AIIIIIIIIIIIIIIIIIIIIIIIIIIIIIIIIIIIIIIIIIIIAAAAAAAAAAAAAAAAAIAA
AIIIIIIIIIIIIIIIIIIIIIIIIIIIIIIIIIIIIIIIIIIIAAAAAAAAAAAAAAAAAIIA
AIIIIIIIIIIIIIIIIIIIIIIIIIIIIIIIIIIIIIIIIIIIAAAAAAAAAAAAAAAAAIII
A2222222222222224IIIIIIIIIIIIIIIIIIIIIIIIIIIAAAAAAAAAAAAAAAAAIII
AA2222222222222224IIIIIIIIIIIIIIIIIIIIIIIIIIAAAAAAAAAAAAAAAAAIII
AAA2222222222222224IIIIIIIIIIIIIIIIIIIIIIIIIAAAAAAAAAAAAAAAAAIII
AAAA2222222222222224IIIIIIIIIIIIIIIIIIIIIIIIAAAAAAAAAAAAAAAAAIII
AAAAA2222222222222224IIIIIIIIIIIIIIIIIIIIIIIAAAAAAAAAAAAAAAAAIII
AAAAAA2222222222222224IIIIIIIIIIIIIIIIIIIIIIAAAAAAAAAAAAAAAAAIII
AAAAAAA2222222222222224IIIIIIIIIIIIIIIIIIIIIAAAAAAAAAAAAAAAAAIII
AAAAAAAA2222222222222224IIIIIIIIIIIIIIIIIIIIAAAAAAAAAAAAAAAAAIII
AAAAAAAAA2222222222222224IIIIIIIIIIIIIIIIIIIAAAAAAAAAAAAAAAAAIII
AAAAAAAAAA2222222222222224IIIIIIIIIIIIIIIIIIAAAAAAAAAAAAAAAAAIII
AAAAAAAAAAA2222222222222224IIIIIIIIIIIIIIIIIAAAAAAAAAAAAAAAAAIII
AAAAAAAAAAAA2222222222222224IIIIIIIIIIIIIIIIAAAAAAAAAAAAAAAAAIII
AAAAAAAAAAAAA2222222222222224IIIIIIIIIIIIIIIAAAAAAAAAAAAAAAAAIII
AAAAAAAAAAAAAA2222222222222224IIIIIIIIIIIIIIAAAAAAAAAAAAAAAAAIII
AAAAAAAAAAAAAAA2222222222222224IIIIIIIIIIIIIAAAAAAAAAAAAAAAAAIII
AAAAAAAAAAAAAAAA2222222222222224IIIIIIIIIIIIAAAAAAAAAAAAAAAAAIII
AAAAAAAAAAAAAAAAA2222222222222224IIIIIIIIIIIAAAAAAAAAAAAAAAAAIII
AAAAAAAAAAAAAAAAAA2222222222222224IIIIIIIIIIAAAAAAAAAAAAAAAAAIII
AAAAAAAAAAAAAAAAAAA2222222222222224IIIIIIIIIAAAAAAAAAAAAAAAAAIII
AAAAAAAAAAAAAAAAAAAA2222222222222224IIIIIIIIAAAAAAAAAAAAAAAAAIII
AAAAAAAAAAAAAAAAAAAAA2222222222222224IIIIIIIAAAAAAAAAAAAAAAAAIII
AAAAAAAAAAAAAAAAAAAAAA2222222222222224IIIIIIAAAAAAAAAAAAAAAAAIII
AAAAAAAAAAAAAAAAAAAAAAA2222222222222224IIIIIAAAAAAAAAAAAAAAAAIII
AAAAAAAAAAAAAAAAAAAAAAAA2222222222222224IIIIAAAAAAAAAAAAAAAAAIII
AAAAAAAAAAAAAAAAAAAAAAAAA2222222222222224IIIAAAAAAAAAAAAAAAAAIII
AAAAAAAAAAAAAAAAAAAAAAAAAA2222222222222224IIAAAAAAAAAAAAAAAAAIII
AAAAAAAAAAAAAAAAAAAAAAAAAAA2222222222222224IAAAAAAAAAAAAAAAAAIII
AAAAAAAAAAAAAAAAAAAAAAAAAAAA2222222222222224AAAAAAAAAAAAAAAAAIII
AAAAAAAAAAAAAAAAAAAAAAAAAAAAA222222222222222AAAAAAAAAAAAAAAAAIII
AAAAAAAAAAAAAAAAAAAAAAAAAAAAAA22222222222222AAAAAAAAAAAAAAAAAIII
AAAAAAAAAAAAAAAAAAAAAAAAAAAAAAA2222222222222AAAAAAAAAAAAAAAAAIII
AAAAAAAAAAAAAAAAAAAAAAAAAAAAAAAA222222222222AAAAAAAAAAAAAAAAAIII
AAAAAAAAAAAAAAAAAAAAAAAAAAAAAAAAA22222222222AAAAAAAAAAAAAAAAAIII
AAAAAAAAAAAAAAAAAAAAAAAAAAAAAAAAAA2222222222AAAAAAAAAAAAAAAAAIII
AAAAAAAAAAAAAAAAAAAAAAAAAAAAAAAAAAA222222222AAAAAAAAAAAAAAAAAIII
AAAAAAAAAAAAAAAAAAAAAAAAAAAAAAAAAAAA22222222AAAAAAAAAAAAAAAAAIII
AAAAAAAAAAAAAAAAAAAAAAAAAAAAAAAAAAAAA2222222AAAAAAAAAAAAAAAAAIII
AAAAAAAAAAAAAAAAAAAAAAAAAAAAAAAAAAAAAA222222AAAAAAAAAAAAAAAAAIII
AAAAAAAAAAAAAAAAAAAAAAAAAAAAAAAAAAAAAAA22222AAAAAAAAAAAAAAAAAIII
AAAAAAAAAAAAAAAAAAAAAAAAAAAAAAAAAAAAAAAA2222AAAAAAAAAAAAAAAAAIII
AAAAAAAAAAAAAAAAAAAAAAAAAAAAAAAAAAAAAAAAA222AAAAAAAAAAAAAAAAAIII
AAAAAAAAAAAAAAAAAAAAAAAAAAAAAAAAAAAAAAAAAA22AAAAAAAAAAAAAAAAAIII
AAAAAAAAAAAAAAAAAAAAAAAAAAAAAAAAAAAAAAAAAAA2AAAAAAAAAAAAAAAAAIII
AAAAAAAAAAAAAAAAAAAAAAAAAAAAAAAAAAAAAAAAAAAAAAAAAAAAAAAAAAAAAIII
AAAAAAAAAAAAAAAAAAAAAAAAAAAAAAAAAAAAAAAAAAAAAAAAAAAAAAAAAAAAA2II
AAAAAAAAAAAAAAAAAAAAAAAAAAAAAAAAAAAAAAAAAAAAAAAAAAAAAAAAAAAAA22I
AAAAAAAAAAAAAAAAAAAAAAAAAAAAAAAAAAAAAAAAAAAAAAAAAAAAAAAAAAAAA222
AAAAAAAAAAAAAAAAAAAAAAAAAAAAAAAAAAAAAAAAAAAAAAAAAAAAAAAAAAAAAA22
AAAAAAAAAAAAAAAAAAAAAAAAAAAAAAAAAAAAAAAAAAAAAAAAAAAAAAAAAAAAAAA2
AAAAAAAAAAAAAAAAAAAAAAAAAAAAAAAAAAAAAAAAAAAAAAAAAAAAAAAAAAAAAAAA
AIAAAAAAAAAAAAAAAAAAAAAAAAAAAAAAAAAAAAAAAAAAAAAAAAAAAAAAAAAAAAAA
AIIAAAAAAAAAAAAAAAAAAAAAAAAAAAAAAAAAAAAAAAAAAAAAAAAAAAAAAAAAAAAA
AIIIAAAAAAAAAAAAAAAAAAAAAAAAAAAAAAAAAAAAAAAAAAAAAAAAAAAAAAAAAAAA
AIIIIAAAAAAAAAAAAAAAAAAAAAAAAAAAAAAAAAAAAAAAAAAAAAAAAAAAAAAAAAAA
AIIIIIAAAAAAAAAAAAAAAAAAAAAAAAAAAAAAAAAAAAAAAAAAAAAAAAAAAAAAAAAA
AIIIIIIAAAAAAAAAAAAAAAAAAAAAAAAAAAAAAAAAAAAAAAAAAAAAAAAAAAAAAAAA
AIIIIIIIAAAAAAAAAAAAAAAAAAAAAAAAAAAAAAAAAAAAAAAAAAAAAAAAAAAAAAAA
AIIIIIIIIAAAAAAAAAAAAAAAAAAAAAAAAAAAAAAAAAAAAAAAAAAAAAAAAAAAAAAA
AIIIIIIIIIAAAAAAAAAAAAAAAAAAAAAAAAAAAAAAAAAAAAAAAAAAAAAAAAAAAAAA
AIIIIIIIIIIAAAAAAAAAAAAAAAAAAAAAAAAAAAAAAAAAAAAAAAAAAAAAAAAAAAAA
AIIIIIIIIIIIAAAAAAAAAAAAAAAAAAAAAAAAAAAAAAAAAAAAAAAAAAAAAAAAAAAA
AIIIIIIIIIIIIAAAAAAAAAAAAAAAAAAAAAAAAAAAAAAAAAAAAAAAAAAAAAAAAAAA
AIIIIIIIIIIIIIAAAAAAAAAAAAAAAAAAAAAAAAAAAAAAAAAAAAAAAAAAAAAAAAAA
AIIIIIIIIIIIIIIAAAAAAAAAAAAAAAAAAAAAAAAAAAAAAAAAAAAAAAAAAAAAAAAA
AIIIIIIIIIIIIIIIAAAAAAAAAAAAAAAAAAAAAAAAAAAAAAAAAAAAAAAAAAAAAAAA
AIIIIIIIIIIIIIIIIAAAAAAAAAAAAAAAAAAAAAAAAAAAAAAAAAAAAAAAAAAAAAAA
AIIIIIIIIIIIIIIIIIAAAAAAAAAAAAAAAAAAAAAAAAAAAAAAAAAAAAAAAAAAAAAA
AIIIIIIIIIIIIIIIIIIAAAAAAAAAAAAAAAAAAAAAAAAAAAAAAAAAAAAAAAAAAAAA
AIIIIIIIIIIIIIIIIIIIAAAAAAAAAAAAAAAAAAAAAAAAAAAAAAAAAAAAAAAAAAAA
AIIIIIIIIIIIIIIIIIIIIAAAAAAAAAAAAAAAAAAAAAAAAAAAAAAAAAAAAAAAAAAA
AIIIIIIIIIIIIIIIIIIIIIAAAAAAAAAAAAAAAAAAAAAAAAAAAAAAAAAAAAAAAAAA
AIIIIIIIIIIIIIIIIIIIIIIAAAAAAAAAAAAAAAAAAAAAAAAAAAAAAAAAAAAAAAAA
AIIIIIIIIIIIIIIIIIIIIIIIAAAAAAAAAAAAAAAAAAAAAAAAAAAAAAAAAAAAAAAA
AIIIIIIIIIIIIIIIIIIIIIIIIAAAAAAAAAAAAAAAAAAAAAAAAAAAAAAAAAAAAAAA
AIIIIIIIIIIIIIIIIIIIIIIIIIAAAAAAAAAAAAAAAAAAAAAAAAAAAAAAAAAAAAAA
AIIIIIIIIIIIIIIIIIIIIIIIIIIAAAAAAAAAAAAAAAAAAAAAAAAAAAAAAAAAAAAA
AIIIIIIIIIIIIIIIIIIIIIIIIIIIAAAAAAAAAAAAAAAAAAAAAAAAAAAAAAAAAAAA
AIIIIIIIIIIIIIIIIIIIIIIIIIIIIAAAAAAAAAAAAAAAAAAAAAAAAAAAAAAAAAAA
AIIIIIIIIIIIIIIIIIIIIIIIIIIIIIAAAAAAAAAAAAAAAAAAAAAAAAAAAAAAAAAA
AIIIIIIIIIIIIIIIIIIIIIIIIIIIIIIAAAAAAAAAAAAAAAAAAAAAAAAAAAAAAAAA
AIIIIIIIIIIIIIIIIIIIIIIIIIIIIIIIAAAAAAAAAAAAAAAAAAAAAAAAAAAAAAAA
AIIIIIIIIIIIIIIIIIIIIIIIIIIIIIIIIAAAAAAAAAAAAAAAAAAAAAAAAAAAAAAA
AIIIIIIIIIIIIIIIIIIIIIIIIIIIIIIIIIAAAAAAAAAAAAAAAAAAAAAAAAAAAAAA
AIIIIIIIIIIIIIIIIIIIIIIIIIIIIIIIIIIAAAAAAAAAAAAAAAAAAAAAAAAAAAAA
AIIIIIIIIIIIIIIIIIIIIIIIIIIIIIIIIIIIAAAAAAAAAAAAAAAAAAAAAAAAAAAA
AIIIIIIIIIIIIIIIIIIIIIIIIIIIIIIIIIIIIAAAAAAAAAAAAAAAAAAAAAAAAAAA
AIIIIIIIIIIIIIIIIIIIIIIIIIIIIIIIIIIIIIAAAAAAAAAAAAAAAAAAAAAAAAAA
AIIIIIIIIIIIIIIIIIIIIIIIIIIIIIIIIIIIIIIAAAAAAAAAAAAAAAAAAAAAAAAA
AIIIIIIIIIIIIIIIIIIIIIIIIIIIIIIIIIIIIIIIAAAAAAAAAAAAAAAAAAAAAAAA
AIIIIIIIIIIIIIIIIIIIIIIIIIIIIIIIIIIIIIIIIAAAAAAAAAAAAAAAAAAAAAAA
AIIIIIIIIIIIIIIIIIIIIIIIIIIIIIIIIIIIIIIIIIAAAAAAAAAAAAAAAAAAAAAA
AIIIIIIIIIIIIIIIIIIIIIIIIIIIIIIIIIIIIIIIIIIAAAAAAAAAAAAAAAAAAAAA
AIIIIIIIIIIIIIIIIIIIIIIIIIIIIIIIIIIIIIIIIIIIAAAAAAAAAAAAAAAAAAAA
AIIIIIIIIIIIIIIIIIIIIIIIIIIIIIIIIIIIIIIIIIIIIAAAAAAAAAAAAAAAAAAA
AIIIIIIIIIIIIIIIIIIIIIIIIIIIIIIIIIIIIIIIIIIIIIAAAAAAAAAAAAAAAAAA
AIIIIIIIIIIIIIIIIIIIIIIIIIIIIIIIIIIIIIIIIIIIIIIAAAAAAAAAAAAAAAAA
AIIIIIIIIIIIIIIIIIIIIIIIIIIIIIIIIIIIIIIIIIIIIIIIAAAAAAAAAAAAAAAA
AIIIIIIIIIIIIIIIIIIIIIIIIIIIIIIIIIIIIIIIIIIIIIIIIAAAAAAAAAAAAAAA
AIIIIIIIIIIIIIIIIIIIIIIIIIIIIIIIIIIIIIIIIIIIIIIIIIAAAAAAAAAAAAAA
AIIIIIIIIIIIIIIIIIIIIIIIIIIIIIIIIIIIIIIIIIIIIIIIIIIAAAAAAAAAAAAA
AIIIIIIIIIIIIIIIIIIIIIIIIIIIIIIIIIIIIIIIIIIIIIIIIIIIAAAAAAAAAAAA
AIIIIIIIIIIIIIIIIIIIIIIIIIIIIIIIIIIIIIIIIIIIIIIIIIIIIAAAAAAAAAAA
AIIIIIIIIIIIIIIIIIIIIIIIIIIIIIIIIIIIIIIIIIIIIIIIIIIIIIAAAAAAAAAA
AIIIIIIIIIIIIIIIIIIIIIIIIIIIIIIIIIIIIIIIIIIIIIIIIIIIIIIAAAAAAAAA
AIIIIIIIIIIIIIIIIIIIIIIIIIIIIIIIIIIIIIIIIIIIIIIIIIIIIIIIAAAAAAAA
AIIIIIIIIIIIIIIIIIIIIIIIIIIIIIIIIIIIIIIIIIIIIIIIIIIIIIIIIAAAAAAA
AIIIIIIIIIIIIIIIIIIIIIIIIIIIIIIIIIIIIIIIIIIIIIIIIIIIIIIIIIAAAAAA
AIIIIIIIIIIIIIIIIIIIIIIIIIIIIIIIIIIIIIIIIIIIIIIIIIIIIIIIIIIAAAAA
AIIIIIIIIIIIIIIIIIIIIIIIIIIIIIIIIIIIIIIIIIIIIIIIIIIIIIIIIIIIAAAA
AIIIIIIIIIIIIIIIIIIIIIIIIIIIIIIIIIIIIIIIIIIIIIIIIIIIIIIIIIIIIAAA
AIIIIIIIIIIIIIIIIIIIIIIIIIIIIIIIIIIIIIIIIIIIIIIIIIIIIIIIIIIIIIAA
AIIIIIIIIIIIIIIIIIIIIIIIIIIIIIIIIIIIIIIIIIIIIIIIIIIIIIIIIIIIIIIA
AIIIIIIIIIIIIIIIIIIIIIIIIIIIIIIIIIIIIIIIIIIIIIIIIIIIIIIIIIIIIIII
[MLOP] Prefetch Degree Mean: 16.01590
[MLOP] Prefetch Degree SD: 0.36887
[MLOP] Max Score Left Mean (%): 71.72585
[MLOP] Max Score Left SD (%): 11.50387
[MLOP] Max Score Right Mean (%): 99.95758
[MLOP] Max Score Right SD (%): 0.28328

Channel_0_RQ_row_buffer_hit 1076515
Channel_0_RQ_row_buffer_miss 2180789
Channel_0_WQ_row_buffer_hit 387092
Channel_0_WQ_row_buffer_miss 501463
Channel_0_WQ_full 0
Channel_0_dbus_congested 2702962

avg_congested_cycle 41

DRAM_bw_pochs 2232080
DRAM_bw_level_0 1076302
DRAM_bw_level_1 292599
DRAM_bw_level_2 306433
DRAM_bw_level_3 556746
