*************************************************
   ChampSim Multicore Out-of-Order Simulator
   Last compiled: Dec 11 2024 17:59:53
*************************************************
parsing config file: /home/functionmain/桌面/Pythia/config/mlop.ini

trace_0 /home/functionmain/桌面/Pythia/traces/437.leslie3d-265B.champsimtrace.xz
adding L2C_PREFETCHER: MLOP
Initialize SHIP state
warmup_instructions 100000000
simulation_instructions 500000000
champsim_seed 223
measure_ipc 0
measure_ipc_epoch 1000
measure_dram_bw 1
measure_dram_bw_epoch 256
measure_cache_acc 1
measure_cache_acc_epoch 1024
l1d_perfect 0
l2c_perfect 0
llc_perfect 0
l1d_semi_perfect 0
l2c_semi_perfect 0
llc_semi_perfect 0
semi_perfect_cache_page_buffer_size 64

num_cpus 1
cpu_freq 4000
dram_io_freq 300
page_size 4096
block_size 64
max_read_per_cycle 8
max_fill_per_cycle 1
dram_channels 1
log2_dram_channels 0
dram_ranks 1
dram_banks 8
dram_rows 65536
dram_columns 128
dram_row_size 8
dram_size 4096
dram_pages 1048576

fetch_width 6
decode_width 6
exec_width 4
lq_width 2
sq_width 2
retire_width 4
scheduler_size 128
branch_mispredict_penalty 20
rob_size 256
lq_size 72
sq_size 56
num_instr_destinations_sparc 4
num_instr_destinations 2
num_instr_sources 4

itlb_set 16
itlb_way 8
itlb_rq_size 16
itlb_wq_size 16
itlb_pq_size 0
itlb_mshr_size 8
itlb_latency 1

dtlb_set 16
dtlb_way 4
dtlb_rq_size 16
dtlb_wq_size 16
dtlb_pq_size 0
dtlb_mshr_size 8
dtlb_latency 1

stlb_set 128
stlb_way 12
stlb_rq_size 32
stlb_wq_size 32
stlb_pq_size 0
stlb_mshr_size 16
stlb_latency 8

l1i_size 32
l1i_set 64
l1i_way 8
l1i_rq_size 64
l1i_wq_size 64
l1i_pq_size 8
l1i_mshr_size 8
l1i_latency 1

l1d_size 32
l1d_set 64
l1d_way 8
l1d_rq_size 64
l1d_wq_size 64
l1d_pq_size 8
l1d_mshr_size 16
l1d_latency 4

l2c_size 256
l2c_set 512
l2c_way 8
l2c_rq_size 32
l2c_wq_size 32
l2c_pq_size 32
l2c_mshr_size 32
l2c_latency 10

llc_size 2048
llc_set 2048
llc_way 16
llc_rq_size 32
llc_wq_size 32
llc_pq_size 32
llc_mshr_size 64
llc_latency 20

dram_channel_width 8
dram_wq_size 64
dram_rq_size 64
tRP 15
tRCD 15
tCAS 12.5
dram_dbus_turn_around_time 30
dram_write_high_wm 56
dram_write_low_wm 48
min_dram_writes_per_switch 16
dram_mtps 300
dram_dbus_return_time 106

mlop_pref_degree 16
mlop_num_updates 500
mlop_l1d_thresh 2
mlop_l2c_thresh 0.75
mlop_llc_thresh 0.3
mlop_debug_level 0
mlop_blocks_in_cache 4096
mlop_blocks_in_zone 64
mlop_amt_size 2048
mlop_PF_DEGREE 16
mlop_NUM_UPDATES 500
mlop_L1D_THRESH 1000
mlop_L2C_THRESH 375
mlop_LLC_THRESH 150
mlop_ORIGIN 63
mlop_MAX_OFFSET 63
mlop_MIN_OFFSET -63
mlop_ORIGIN 63
mlop_NUM_OFFSETS 127


Heartbeat CPU  0 instructions:    1000003 cycles:     500903 heartbeat IPC: 1.99640 cumulative IPC: 1.99640 (Simulation time: 0 hr 0 min 2 sec) 
Heartbeat CPU  0 instructions:    2000001 cycles:    1000220 heartbeat IPC: 2.00273 cumulative IPC: 1.99956 (Simulation time: 0 hr 0 min 3 sec) 
Heartbeat CPU  0 instructions:    3000001 cycles:    1500018 heartbeat IPC: 2.00081 cumulative IPC: 1.99998 (Simulation time: 0 hr 0 min 5 sec) 
Heartbeat CPU  0 instructions:    4000000 cycles:    1999865 heartbeat IPC: 2.00061 cumulative IPC: 2.00013 (Simulation time: 0 hr 0 min 7 sec) 
Heartbeat CPU  0 instructions:    5000003 cycles:    2498818 heartbeat IPC: 2.00420 cumulative IPC: 2.00095 (Simulation time: 0 hr 0 min 9 sec) 
Heartbeat CPU  0 instructions:    6000001 cycles:    2998992 heartbeat IPC: 1.99930 cumulative IPC: 2.00067 (Simulation time: 0 hr 0 min 10 sec) 
Heartbeat CPU  0 instructions:    7000002 cycles:    3496934 heartbeat IPC: 2.00827 cumulative IPC: 2.00175 (Simulation time: 0 hr 0 min 12 sec) 
Heartbeat CPU  0 instructions:    8000000 cycles:    3997182 heartbeat IPC: 1.99900 cumulative IPC: 2.00141 (Simulation time: 0 hr 0 min 14 sec) 
Heartbeat CPU  0 instructions:    9000003 cycles:    4494972 heartbeat IPC: 2.00889 cumulative IPC: 2.00224 (Simulation time: 0 hr 0 min 16 sec) 
Heartbeat CPU  0 instructions:   10000001 cycles:    4995003 heartbeat IPC: 1.99987 cumulative IPC: 2.00200 (Simulation time: 0 hr 0 min 17 sec) 
Heartbeat CPU  0 instructions:   11000002 cycles:    5492310 heartbeat IPC: 2.01083 cumulative IPC: 2.00280 (Simulation time: 0 hr 0 min 19 sec) 
Heartbeat CPU  0 instructions:   12000000 cycles:    5993326 heartbeat IPC: 1.99594 cumulative IPC: 2.00223 (Simulation time: 0 hr 0 min 21 sec) 
Heartbeat CPU  0 instructions:   13000002 cycles:    6490702 heartbeat IPC: 2.01056 cumulative IPC: 2.00287 (Simulation time: 0 hr 0 min 23 sec) 
Heartbeat CPU  0 instructions:   14000002 cycles:    6991392 heartbeat IPC: 1.99724 cumulative IPC: 2.00246 (Simulation time: 0 hr 0 min 24 sec) 
Heartbeat CPU  0 instructions:   15000000 cycles:    7488990 heartbeat IPC: 2.00965 cumulative IPC: 2.00294 (Simulation time: 0 hr 0 min 26 sec) 
Heartbeat CPU  0 instructions:   16000000 cycles:    7988763 heartbeat IPC: 2.00091 cumulative IPC: 2.00281 (Simulation time: 0 hr 0 min 28 sec) 
Heartbeat CPU  0 instructions:   17000003 cycles:    8487425 heartbeat IPC: 2.00537 cumulative IPC: 2.00296 (Simulation time: 0 hr 0 min 29 sec) 
Heartbeat CPU  0 instructions:   18000003 cycles:    8987105 heartbeat IPC: 2.00128 cumulative IPC: 2.00287 (Simulation time: 0 hr 0 min 31 sec) 
Heartbeat CPU  0 instructions:   19000003 cycles:    9486713 heartbeat IPC: 2.00157 cumulative IPC: 2.00280 (Simulation time: 0 hr 0 min 33 sec) 
Heartbeat CPU  0 instructions:   20000000 cycles:    9985713 heartbeat IPC: 2.00400 cumulative IPC: 2.00286 (Simulation time: 0 hr 0 min 35 sec) 
Heartbeat CPU  0 instructions:   21000000 cycles:   10486177 heartbeat IPC: 1.99815 cumulative IPC: 2.00264 (Simulation time: 0 hr 0 min 36 sec) 
Heartbeat CPU  0 instructions:   22000003 cycles:   10984449 heartbeat IPC: 2.00694 cumulative IPC: 2.00283 (Simulation time: 0 hr 0 min 38 sec) 
Heartbeat CPU  0 instructions:   23000003 cycles:   11485297 heartbeat IPC: 1.99661 cumulative IPC: 2.00256 (Simulation time: 0 hr 0 min 40 sec) 
Heartbeat CPU  0 instructions:   24000000 cycles:   11983639 heartbeat IPC: 2.00665 cumulative IPC: 2.00273 (Simulation time: 0 hr 0 min 42 sec) 
Heartbeat CPU  0 instructions:   25000002 cycles:   12484763 heartbeat IPC: 1.99552 cumulative IPC: 2.00244 (Simulation time: 0 hr 0 min 44 sec) 
Heartbeat CPU  0 instructions:   26000000 cycles:   12983031 heartbeat IPC: 2.00695 cumulative IPC: 2.00261 (Simulation time: 0 hr 0 min 45 sec) 
Heartbeat CPU  0 instructions:   27000000 cycles:   13484766 heartbeat IPC: 1.99308 cumulative IPC: 2.00226 (Simulation time: 0 hr 0 min 47 sec) 
Heartbeat CPU  0 instructions:   28000000 cycles:   13982143 heartbeat IPC: 2.01055 cumulative IPC: 2.00255 (Simulation time: 0 hr 0 min 49 sec) 
Heartbeat CPU  0 instructions:   29000000 cycles:   14482967 heartbeat IPC: 1.99671 cumulative IPC: 2.00235 (Simulation time: 0 hr 0 min 51 sec) 
Heartbeat CPU  0 instructions:   30000000 cycles:   14980787 heartbeat IPC: 2.00876 cumulative IPC: 2.00256 (Simulation time: 0 hr 0 min 52 sec) 
Heartbeat CPU  0 instructions:   31000002 cycles:   15480595 heartbeat IPC: 2.00077 cumulative IPC: 2.00251 (Simulation time: 0 hr 0 min 54 sec) 
Heartbeat CPU  0 instructions:   32000000 cycles:   15979020 heartbeat IPC: 2.00632 cumulative IPC: 2.00263 (Simulation time: 0 hr 0 min 56 sec) 
Heartbeat CPU  0 instructions:   33000000 cycles:   16478088 heartbeat IPC: 2.00374 cumulative IPC: 2.00266 (Simulation time: 0 hr 0 min 58 sec) 
Heartbeat CPU  0 instructions:   34000002 cycles:   16977255 heartbeat IPC: 2.00334 cumulative IPC: 2.00268 (Simulation time: 0 hr 0 min 59 sec) 
Heartbeat CPU  0 instructions:   35000002 cycles:   17475709 heartbeat IPC: 2.00620 cumulative IPC: 2.00278 (Simulation time: 0 hr 1 min 1 sec) 
Heartbeat CPU  0 instructions:   36000000 cycles:   17975539 heartbeat IPC: 2.00068 cumulative IPC: 2.00272 (Simulation time: 0 hr 1 min 3 sec) 
Heartbeat CPU  0 instructions:   37000000 cycles:   18473209 heartbeat IPC: 2.00936 cumulative IPC: 2.00290 (Simulation time: 0 hr 1 min 5 sec) 
Heartbeat CPU  0 instructions:   38000000 cycles:   18973821 heartbeat IPC: 1.99756 cumulative IPC: 2.00276 (Simulation time: 0 hr 1 min 6 sec) 
Heartbeat CPU  0 instructions:   39000000 cycles:   19472112 heartbeat IPC: 2.00686 cumulative IPC: 2.00286 (Simulation time: 0 hr 1 min 8 sec) 
Heartbeat CPU  0 instructions:   40000000 cycles:   19973058 heartbeat IPC: 1.99622 cumulative IPC: 2.00270 (Simulation time: 0 hr 1 min 10 sec) 
Heartbeat CPU  0 instructions:   41000000 cycles:   20471116 heartbeat IPC: 2.00780 cumulative IPC: 2.00282 (Simulation time: 0 hr 1 min 12 sec) 
Heartbeat CPU  0 instructions:   42000000 cycles:   20972875 heartbeat IPC: 1.99299 cumulative IPC: 2.00259 (Simulation time: 0 hr 1 min 13 sec) 
Heartbeat CPU  0 instructions:   43000003 cycles:   21470572 heartbeat IPC: 2.00926 cumulative IPC: 2.00274 (Simulation time: 0 hr 1 min 15 sec) 
Heartbeat CPU  0 instructions:   44000000 cycles:   21971809 heartbeat IPC: 1.99506 cumulative IPC: 2.00257 (Simulation time: 0 hr 1 min 17 sec) 
Heartbeat CPU  0 instructions:   45000003 cycles:   22470074 heartbeat IPC: 2.00697 cumulative IPC: 2.00266 (Simulation time: 0 hr 1 min 18 sec) 
Heartbeat CPU  0 instructions:   46000003 cycles:   22970214 heartbeat IPC: 1.99944 cumulative IPC: 2.00259 (Simulation time: 0 hr 1 min 20 sec) 
Heartbeat CPU  0 instructions:   47000001 cycles:   23469282 heartbeat IPC: 2.00373 cumulative IPC: 2.00262 (Simulation time: 0 hr 1 min 22 sec) 
Heartbeat CPU  0 instructions:   48000000 cycles:   23969023 heartbeat IPC: 2.00103 cumulative IPC: 2.00258 (Simulation time: 0 hr 1 min 24 sec) 
Heartbeat CPU  0 instructions:   49000000 cycles:   24468360 heartbeat IPC: 2.00266 cumulative IPC: 2.00259 (Simulation time: 0 hr 1 min 25 sec) 
Heartbeat CPU  0 instructions:   50000000 cycles:   24966863 heartbeat IPC: 2.00601 cumulative IPC: 2.00265 (Simulation time: 0 hr 1 min 27 sec) 
Heartbeat CPU  0 instructions:   51000003 cycles:   25466680 heartbeat IPC: 2.00074 cumulative IPC: 2.00262 (Simulation time: 0 hr 1 min 29 sec) 
Heartbeat CPU  0 instructions:   52000000 cycles:   25964341 heartbeat IPC: 2.00939 cumulative IPC: 2.00275 (Simulation time: 0 hr 1 min 31 sec) 
Heartbeat CPU  0 instructions:   53000001 cycles:   26464775 heartbeat IPC: 1.99827 cumulative IPC: 2.00266 (Simulation time: 0 hr 1 min 33 sec) 
Heartbeat CPU  0 instructions:   54000002 cycles:   26962767 heartbeat IPC: 2.00807 cumulative IPC: 2.00276 (Simulation time: 0 hr 1 min 34 sec) 
Heartbeat CPU  0 instructions:   55000001 cycles:   27463483 heartbeat IPC: 1.99714 cumulative IPC: 2.00266 (Simulation time: 0 hr 1 min 36 sec) 
Heartbeat CPU  0 instructions:   56000000 cycles:   27961063 heartbeat IPC: 2.00973 cumulative IPC: 2.00279 (Simulation time: 0 hr 1 min 38 sec) 
Heartbeat CPU  0 instructions:   57000002 cycles:   28462133 heartbeat IPC: 1.99573 cumulative IPC: 2.00266 (Simulation time: 0 hr 1 min 39 sec) 
Heartbeat CPU  0 instructions:   58000001 cycles:   28959047 heartbeat IPC: 2.01242 cumulative IPC: 2.00283 (Simulation time: 0 hr 1 min 41 sec) 
Heartbeat CPU  0 instructions:   59000003 cycles:   29459977 heartbeat IPC: 1.99629 cumulative IPC: 2.00272 (Simulation time: 0 hr 1 min 43 sec) 
Heartbeat CPU  0 instructions:   60000000 cycles:   29958299 heartbeat IPC: 2.00673 cumulative IPC: 2.00278 (Simulation time: 0 hr 1 min 45 sec) 
Heartbeat CPU  0 instructions:   61000003 cycles:   30458673 heartbeat IPC: 1.99851 cumulative IPC: 2.00271 (Simulation time: 0 hr 1 min 47 sec) 
Heartbeat CPU  0 instructions:   62000001 cycles:   30957741 heartbeat IPC: 2.00373 cumulative IPC: 2.00273 (Simulation time: 0 hr 1 min 48 sec) 
Heartbeat CPU  0 instructions:   63000003 cycles:   31457456 heartbeat IPC: 2.00114 cumulative IPC: 2.00270 (Simulation time: 0 hr 1 min 50 sec) 
Heartbeat CPU  0 instructions:   64000000 cycles:   31957243 heartbeat IPC: 2.00085 cumulative IPC: 2.00268 (Simulation time: 0 hr 1 min 52 sec) 
Heartbeat CPU  0 instructions:   65000001 cycles:   32456203 heartbeat IPC: 2.00417 cumulative IPC: 2.00270 (Simulation time: 0 hr 1 min 54 sec) 
Heartbeat CPU  0 instructions:   66000000 cycles:   32956675 heartbeat IPC: 1.99811 cumulative IPC: 2.00263 (Simulation time: 0 hr 1 min 55 sec) 
Heartbeat CPU  0 instructions:   67000003 cycles:   33455086 heartbeat IPC: 2.00638 cumulative IPC: 2.00269 (Simulation time: 0 hr 1 min 57 sec) 
Heartbeat CPU  0 instructions:   68000000 cycles:   33956311 heartbeat IPC: 1.99511 cumulative IPC: 2.00257 (Simulation time: 0 hr 1 min 59 sec) 
Heartbeat CPU  0 instructions:   69000002 cycles:   34455105 heartbeat IPC: 2.00484 cumulative IPC: 2.00261 (Simulation time: 0 hr 2 min 1 sec) 
Heartbeat CPU  0 instructions:   70000003 cycles:   34955700 heartbeat IPC: 1.99762 cumulative IPC: 2.00253 (Simulation time: 0 hr 2 min 2 sec) 
Heartbeat CPU  0 instructions:   71000001 cycles:   35453449 heartbeat IPC: 2.00904 cumulative IPC: 2.00263 (Simulation time: 0 hr 2 min 4 sec) 
Heartbeat CPU  0 instructions:   72000000 cycles:   35954522 heartbeat IPC: 1.99572 cumulative IPC: 2.00253 (Simulation time: 0 hr 2 min 6 sec) 
Heartbeat CPU  0 instructions:   73000001 cycles:   36451685 heartbeat IPC: 2.01141 cumulative IPC: 2.00265 (Simulation time: 0 hr 2 min 8 sec) 
Heartbeat CPU  0 instructions:   74000002 cycles:   36952025 heartbeat IPC: 1.99864 cumulative IPC: 2.00260 (Simulation time: 0 hr 2 min 9 sec) 
Heartbeat CPU  0 instructions:   75000000 cycles:   37449739 heartbeat IPC: 2.00918 cumulative IPC: 2.00268 (Simulation time: 0 hr 2 min 11 sec) 
Heartbeat CPU  0 instructions:   76000000 cycles:   37949295 heartbeat IPC: 2.00178 cumulative IPC: 2.00267 (Simulation time: 0 hr 2 min 13 sec) 
Heartbeat CPU  0 instructions:   77000003 cycles:   38447843 heartbeat IPC: 2.00583 cumulative IPC: 2.00271 (Simulation time: 0 hr 2 min 15 sec) 
Heartbeat CPU  0 instructions:   78000000 cycles:   38946728 heartbeat IPC: 2.00446 cumulative IPC: 2.00274 (Simulation time: 0 hr 2 min 16 sec) 
Heartbeat CPU  0 instructions:   79000002 cycles:   39445880 heartbeat IPC: 2.00340 cumulative IPC: 2.00274 (Simulation time: 0 hr 2 min 18 sec) 
Heartbeat CPU  0 instructions:   80000000 cycles:   39944707 heartbeat IPC: 2.00470 cumulative IPC: 2.00277 (Simulation time: 0 hr 2 min 20 sec) 
Heartbeat CPU  0 instructions:   81000002 cycles:   40445091 heartbeat IPC: 1.99847 cumulative IPC: 2.00272 (Simulation time: 0 hr 2 min 22 sec) 
Heartbeat CPU  0 instructions:   82000002 cycles:   40943273 heartbeat IPC: 2.00730 cumulative IPC: 2.00277 (Simulation time: 0 hr 2 min 23 sec) 
Heartbeat CPU  0 instructions:   83000000 cycles:   41444425 heartbeat IPC: 1.99540 cumulative IPC: 2.00268 (Simulation time: 0 hr 2 min 25 sec) 
Heartbeat CPU  0 instructions:   84000000 cycles:   41943122 heartbeat IPC: 2.00523 cumulative IPC: 2.00271 (Simulation time: 0 hr 2 min 27 sec) 
Heartbeat CPU  0 instructions:   85000000 cycles:   42444458 heartbeat IPC: 1.99467 cumulative IPC: 2.00262 (Simulation time: 0 hr 2 min 29 sec) 
Heartbeat CPU  0 instructions:   86000003 cycles:   42942449 heartbeat IPC: 2.00807 cumulative IPC: 2.00268 (Simulation time: 0 hr 2 min 30 sec) 
Heartbeat CPU  0 instructions:   87000000 cycles:   43443968 heartbeat IPC: 1.99394 cumulative IPC: 2.00258 (Simulation time: 0 hr 2 min 32 sec) 
Heartbeat CPU  0 instructions:   88000000 cycles:   43941333 heartbeat IPC: 2.01060 cumulative IPC: 2.00267 (Simulation time: 0 hr 2 min 34 sec) 
Heartbeat CPU  0 instructions:   89000003 cycles:   44442288 heartbeat IPC: 1.99619 cumulative IPC: 2.00260 (Simulation time: 0 hr 2 min 36 sec) 
Heartbeat CPU  0 instructions:   90000000 cycles:   44940453 heartbeat IPC: 2.00736 cumulative IPC: 2.00265 (Simulation time: 0 hr 2 min 37 sec) 
Heartbeat CPU  0 instructions:   91000000 cycles:   45440114 heartbeat IPC: 2.00136 cumulative IPC: 2.00264 (Simulation time: 0 hr 2 min 39 sec) 
Heartbeat CPU  0 instructions:   92000000 cycles:   45938668 heartbeat IPC: 2.00580 cumulative IPC: 2.00267 (Simulation time: 0 hr 2 min 41 sec) 
Heartbeat CPU  0 instructions:   93000000 cycles:   46437875 heartbeat IPC: 2.00318 cumulative IPC: 2.00268 (Simulation time: 0 hr 2 min 43 sec) 
Heartbeat CPU  0 instructions:   94000000 cycles:   46937087 heartbeat IPC: 2.00316 cumulative IPC: 2.00268 (Simulation time: 0 hr 2 min 44 sec) 
Heartbeat CPU  0 instructions:   95000000 cycles:   47435394 heartbeat IPC: 2.00679 cumulative IPC: 2.00272 (Simulation time: 0 hr 2 min 46 sec) 
Heartbeat CPU  0 instructions:   96000000 cycles:   47935387 heartbeat IPC: 2.00003 cumulative IPC: 2.00270 (Simulation time: 0 hr 2 min 48 sec) 
Heartbeat CPU  0 instructions:   97000000 cycles:   48433354 heartbeat IPC: 2.00817 cumulative IPC: 2.00275 (Simulation time: 0 hr 2 min 50 sec) 
Heartbeat CPU  0 instructions:   98000001 cycles:   48934058 heartbeat IPC: 1.99719 cumulative IPC: 2.00270 (Simulation time: 0 hr 2 min 51 sec) 
Heartbeat CPU  0 instructions:   99000001 cycles:   49431945 heartbeat IPC: 2.00849 cumulative IPC: 2.00275 (Simulation time: 0 hr 2 min 53 sec) 
Heartbeat CPU  0 instructions:  100000000 cycles:   49932409 heartbeat IPC: 1.99814 cumulative IPC: 2.00271 (Simulation time: 0 hr 2 min 55 sec) 

Warmup complete CPU  0 instructions:  100000001 cycles:   49932410 (Simulation time: 0 hr 2 min 55 sec) 

Heartbeat CPU  0 instructions:  101000003 cycles:   50934064 heartbeat IPC: 0.99835 cumulative IPC: 0.99835 (Simulation time: 0 hr 2 min 57 sec) 
Heartbeat CPU  0 instructions:  102000001 cycles:   51936419 heartbeat IPC: 0.99765 cumulative IPC: 0.99800 (Simulation time: 0 hr 2 min 59 sec) 
Heartbeat CPU  0 instructions:  103000002 cycles:   52947577 heartbeat IPC: 0.98897 cumulative IPC: 0.99497 (Simulation time: 0 hr 3 min 1 sec) 
Heartbeat CPU  0 instructions:  104000000 cycles:   53936315 heartbeat IPC: 1.01139 cumulative IPC: 0.99902 (Simulation time: 0 hr 3 min 3 sec) 
Heartbeat CPU  0 instructions:  105000002 cycles:   54905261 heartbeat IPC: 1.03205 cumulative IPC: 1.00546 (Simulation time: 0 hr 3 min 6 sec) 
Heartbeat CPU  0 instructions:  106000003 cycles:   55897596 heartbeat IPC: 1.00773 cumulative IPC: 1.00584 (Simulation time: 0 hr 3 min 8 sec) 
Heartbeat CPU  0 instructions:  107000000 cycles:   56905195 heartbeat IPC: 0.99246 cumulative IPC: 1.00390 (Simulation time: 0 hr 3 min 10 sec) 
Heartbeat CPU  0 instructions:  108000000 cycles:   57897580 heartbeat IPC: 1.00767 cumulative IPC: 1.00437 (Simulation time: 0 hr 3 min 12 sec) 
Heartbeat CPU  0 instructions:  109000000 cycles:   58882568 heartbeat IPC: 1.01524 cumulative IPC: 1.00557 (Simulation time: 0 hr 3 min 14 sec) 
Heartbeat CPU  0 instructions:  110000001 cycles:   59868435 heartbeat IPC: 1.01434 cumulative IPC: 1.00644 (Simulation time: 0 hr 3 min 16 sec) 
Heartbeat CPU  0 instructions:  111000001 cycles:   60871014 heartbeat IPC: 0.99743 cumulative IPC: 1.00561 (Simulation time: 0 hr 3 min 19 sec) 
Heartbeat CPU  0 instructions:  112000000 cycles:   61854880 heartbeat IPC: 1.01640 cumulative IPC: 1.00650 (Simulation time: 0 hr 3 min 21 sec) 
Heartbeat CPU  0 instructions:  113000003 cycles:   62851579 heartbeat IPC: 1.00331 cumulative IPC: 1.00626 (Simulation time: 0 hr 3 min 23 sec) 
Heartbeat CPU  0 instructions:  114000001 cycles:   63839817 heartbeat IPC: 1.01190 cumulative IPC: 1.00666 (Simulation time: 0 hr 3 min 25 sec) 
Heartbeat CPU  0 instructions:  115000003 cycles:   64803102 heartbeat IPC: 1.03812 cumulative IPC: 1.00870 (Simulation time: 0 hr 3 min 27 sec) 
Heartbeat CPU  0 instructions:  116000000 cycles:   65783290 heartbeat IPC: 1.02021 cumulative IPC: 1.00941 (Simulation time: 0 hr 3 min 29 sec) 
Heartbeat CPU  0 instructions:  117000002 cycles:   66752722 heartbeat IPC: 1.03153 cumulative IPC: 1.01068 (Simulation time: 0 hr 3 min 32 sec) 
Heartbeat CPU  0 instructions:  118000003 cycles:   67752164 heartbeat IPC: 1.00056 cumulative IPC: 1.01012 (Simulation time: 0 hr 3 min 34 sec) 
Heartbeat CPU  0 instructions:  119000000 cycles:   68726829 heartbeat IPC: 1.02599 cumulative IPC: 1.01094 (Simulation time: 0 hr 3 min 36 sec) 
Heartbeat CPU  0 instructions:  120000000 cycles:   69714919 heartbeat IPC: 1.01205 cumulative IPC: 1.01099 (Simulation time: 0 hr 3 min 38 sec) 
Heartbeat CPU  0 instructions:  121000000 cycles:   70703426 heartbeat IPC: 1.01163 cumulative IPC: 1.01102 (Simulation time: 0 hr 3 min 40 sec) 
Heartbeat CPU  0 instructions:  122000000 cycles:   71716768 heartbeat IPC: 0.98683 cumulative IPC: 1.00990 (Simulation time: 0 hr 3 min 43 sec) 
Heartbeat CPU  0 instructions:  123000001 cycles:   72738777 heartbeat IPC: 0.97847 cumulative IPC: 1.00849 (Simulation time: 0 hr 3 min 45 sec) 
Heartbeat CPU  0 instructions:  124000000 cycles:   73722713 heartbeat IPC: 1.01633 cumulative IPC: 1.00881 (Simulation time: 0 hr 3 min 47 sec) 
Heartbeat CPU  0 instructions:  125000001 cycles:   74741851 heartbeat IPC: 0.98122 cumulative IPC: 1.00768 (Simulation time: 0 hr 3 min 49 sec) 
Heartbeat CPU  0 instructions:  126000002 cycles:   75721640 heartbeat IPC: 1.02063 cumulative IPC: 1.00817 (Simulation time: 0 hr 3 min 51 sec) 
Heartbeat CPU  0 instructions:  127000000 cycles:   76729247 heartbeat IPC: 0.99245 cumulative IPC: 1.00758 (Simulation time: 0 hr 3 min 53 sec) 
Heartbeat CPU  0 instructions:  128000000 cycles:   77690541 heartbeat IPC: 1.04026 cumulative IPC: 1.00871 (Simulation time: 0 hr 3 min 56 sec) 
Heartbeat CPU  0 instructions:  129000000 cycles:   78674689 heartbeat IPC: 1.01611 cumulative IPC: 1.00897 (Simulation time: 0 hr 3 min 58 sec) 
Heartbeat CPU  0 instructions:  130000000 cycles:   79668981 heartbeat IPC: 1.00574 cumulative IPC: 1.00886 (Simulation time: 0 hr 4 min 0 sec) 
Heartbeat CPU  0 instructions:  131000003 cycles:   80659821 heartbeat IPC: 1.00925 cumulative IPC: 1.00887 (Simulation time: 0 hr 4 min 2 sec) 
Heartbeat CPU  0 instructions:  132000000 cycles:   82256095 heartbeat IPC: 0.62646 cumulative IPC: 0.98999 (Simulation time: 0 hr 4 min 4 sec) 
Heartbeat CPU  0 instructions:  133000001 cycles:   84147274 heartbeat IPC: 0.52877 cumulative IPC: 0.96449 (Simulation time: 0 hr 4 min 7 sec) 
Heartbeat CPU  0 instructions:  134000003 cycles:   85099231 heartbeat IPC: 1.05047 cumulative IPC: 0.96682 (Simulation time: 0 hr 4 min 9 sec) 
Heartbeat CPU  0 instructions:  135000000 cycles:   86066674 heartbeat IPC: 1.03365 cumulative IPC: 0.96861 (Simulation time: 0 hr 4 min 11 sec) 
Heartbeat CPU  0 instructions:  136000000 cycles:   87037511 heartbeat IPC: 1.03004 cumulative IPC: 0.97022 (Simulation time: 0 hr 4 min 14 sec) 
Heartbeat CPU  0 instructions:  137000001 cycles:   88051476 heartbeat IPC: 0.98623 cumulative IPC: 0.97064 (Simulation time: 0 hr 4 min 16 sec) 
Heartbeat CPU  0 instructions:  138000003 cycles:   89028743 heartbeat IPC: 1.02326 cumulative IPC: 0.97196 (Simulation time: 0 hr 4 min 18 sec) 
Heartbeat CPU  0 instructions:  139000000 cycles:   90031470 heartbeat IPC: 0.99728 cumulative IPC: 0.97259 (Simulation time: 0 hr 4 min 20 sec) 
Heartbeat CPU  0 instructions:  140000000 cycles:   91003910 heartbeat IPC: 1.02834 cumulative IPC: 0.97391 (Simulation time: 0 hr 4 min 23 sec) 
Heartbeat CPU  0 instructions:  141000001 cycles:   91975882 heartbeat IPC: 1.02884 cumulative IPC: 0.97518 (Simulation time: 0 hr 4 min 25 sec) 
Heartbeat CPU  0 instructions:  142000003 cycles:   92957344 heartbeat IPC: 1.01889 cumulative IPC: 0.97618 (Simulation time: 0 hr 4 min 27 sec) 
Heartbeat CPU  0 instructions:  143000000 cycles:   93926506 heartbeat IPC: 1.03182 cumulative IPC: 0.97740 (Simulation time: 0 hr 4 min 29 sec) 
Heartbeat CPU  0 instructions:  144000000 cycles:   94905974 heartbeat IPC: 1.02096 cumulative IPC: 0.97835 (Simulation time: 0 hr 4 min 32 sec) 
Heartbeat CPU  0 instructions:  145000001 cycles:   95868968 heartbeat IPC: 1.03843 cumulative IPC: 0.97961 (Simulation time: 0 hr 4 min 34 sec) 
Heartbeat CPU  0 instructions:  146000002 cycles:   96824636 heartbeat IPC: 1.04639 cumulative IPC: 0.98097 (Simulation time: 0 hr 4 min 36 sec) 
Heartbeat CPU  0 instructions:  147000002 cycles:   97783741 heartbeat IPC: 1.04264 cumulative IPC: 0.98221 (Simulation time: 0 hr 4 min 38 sec) 
Heartbeat CPU  0 instructions:  148000000 cycles:   98777797 heartbeat IPC: 1.00598 cumulative IPC: 0.98269 (Simulation time: 0 hr 4 min 41 sec) 
Heartbeat CPU  0 instructions:  149000001 cycles:   99802875 heartbeat IPC: 0.97554 cumulative IPC: 0.98255 (Simulation time: 0 hr 4 min 43 sec) 
Heartbeat CPU  0 instructions:  150000002 cycles:  100824765 heartbeat IPC: 0.97858 cumulative IPC: 0.98247 (Simulation time: 0 hr 4 min 45 sec) 
Heartbeat CPU  0 instructions:  151000002 cycles:  101861352 heartbeat IPC: 0.96470 cumulative IPC: 0.98211 (Simulation time: 0 hr 4 min 48 sec) 
Heartbeat CPU  0 instructions:  152000000 cycles:  102895093 heartbeat IPC: 0.96736 cumulative IPC: 0.98182 (Simulation time: 0 hr 4 min 50 sec) 
Heartbeat CPU  0 instructions:  153000002 cycles:  103912935 heartbeat IPC: 0.98247 cumulative IPC: 0.98184 (Simulation time: 0 hr 4 min 52 sec) 
Heartbeat CPU  0 instructions:  154000002 cycles:  104974650 heartbeat IPC: 0.94187 cumulative IPC: 0.98106 (Simulation time: 0 hr 4 min 54 sec) 
Heartbeat CPU  0 instructions:  155000001 cycles:  106021981 heartbeat IPC: 0.95481 cumulative IPC: 0.98057 (Simulation time: 0 hr 4 min 57 sec) 
Heartbeat CPU  0 instructions:  156000000 cycles:  107060524 heartbeat IPC: 0.96289 cumulative IPC: 0.98025 (Simulation time: 0 hr 4 min 59 sec) 
Heartbeat CPU  0 instructions:  157000002 cycles:  108053843 heartbeat IPC: 1.00673 cumulative IPC: 0.98071 (Simulation time: 0 hr 5 min 1 sec) 
Heartbeat CPU  0 instructions:  158000000 cycles:  109069473 heartbeat IPC: 0.98461 cumulative IPC: 0.98077 (Simulation time: 0 hr 5 min 3 sec) 
Heartbeat CPU  0 instructions:  159000003 cycles:  110051111 heartbeat IPC: 1.01871 cumulative IPC: 0.98139 (Simulation time: 0 hr 5 min 6 sec) 
Heartbeat CPU  0 instructions:  160000000 cycles:  111109229 heartbeat IPC: 0.94507 cumulative IPC: 0.98076 (Simulation time: 0 hr 5 min 8 sec) 
Heartbeat CPU  0 instructions:  161000000 cycles:  112154007 heartbeat IPC: 0.95714 cumulative IPC: 0.98037 (Simulation time: 0 hr 5 min 10 sec) 
Heartbeat CPU  0 instructions:  162000001 cycles:  113153238 heartbeat IPC: 1.00077 cumulative IPC: 0.98069 (Simulation time: 0 hr 5 min 13 sec) 
Heartbeat CPU  0 instructions:  163000001 cycles:  114195429 heartbeat IPC: 0.95952 cumulative IPC: 0.98035 (Simulation time: 0 hr 5 min 15 sec) 
Heartbeat CPU  0 instructions:  164000000 cycles:  115212595 heartbeat IPC: 0.98312 cumulative IPC: 0.98039 (Simulation time: 0 hr 5 min 17 sec) 
Heartbeat CPU  0 instructions:  165000000 cycles:  116246910 heartbeat IPC: 0.96682 cumulative IPC: 0.98018 (Simulation time: 0 hr 5 min 19 sec) 
Heartbeat CPU  0 instructions:  166000001 cycles:  117267413 heartbeat IPC: 0.97991 cumulative IPC: 0.98017 (Simulation time: 0 hr 5 min 22 sec) 
Heartbeat CPU  0 instructions:  167000003 cycles:  118307511 heartbeat IPC: 0.96145 cumulative IPC: 0.97989 (Simulation time: 0 hr 5 min 24 sec) 
Heartbeat CPU  0 instructions:  168000000 cycles:  119324953 heartbeat IPC: 0.98285 cumulative IPC: 0.97993 (Simulation time: 0 hr 5 min 26 sec) 
Heartbeat CPU  0 instructions:  169000001 cycles:  120352313 heartbeat IPC: 0.97337 cumulative IPC: 0.97984 (Simulation time: 0 hr 5 min 28 sec) 
Heartbeat CPU  0 instructions:  170000001 cycles:  121329120 heartbeat IPC: 1.02374 cumulative IPC: 0.98044 (Simulation time: 0 hr 5 min 31 sec) 
Heartbeat CPU  0 instructions:  171000001 cycles:  122325780 heartbeat IPC: 1.00335 cumulative IPC: 0.98075 (Simulation time: 0 hr 5 min 33 sec) 
Heartbeat CPU  0 instructions:  172000000 cycles:  123294610 heartbeat IPC: 1.03217 cumulative IPC: 0.98143 (Simulation time: 0 hr 5 min 35 sec) 
Heartbeat CPU  0 instructions:  173000000 cycles:  124346620 heartbeat IPC: 0.95056 cumulative IPC: 0.98100 (Simulation time: 0 hr 5 min 37 sec) 
Heartbeat CPU  0 instructions:  174000001 cycles:  125390238 heartbeat IPC: 0.95821 cumulative IPC: 0.98068 (Simulation time: 0 hr 5 min 40 sec) 
Heartbeat CPU  0 instructions:  175000002 cycles:  126425715 heartbeat IPC: 0.96574 cumulative IPC: 0.98048 (Simulation time: 0 hr 5 min 42 sec) 
Heartbeat CPU  0 instructions:  176000000 cycles:  127456756 heartbeat IPC: 0.96989 cumulative IPC: 0.98034 (Simulation time: 0 hr 5 min 44 sec) 
Heartbeat CPU  0 instructions:  177000001 cycles:  128484378 heartbeat IPC: 0.97312 cumulative IPC: 0.98024 (Simulation time: 0 hr 5 min 47 sec) 
Heartbeat CPU  0 instructions:  178000001 cycles:  129519147 heartbeat IPC: 0.96640 cumulative IPC: 0.98006 (Simulation time: 0 hr 5 min 49 sec) 
Heartbeat CPU  0 instructions:  179000002 cycles:  130565381 heartbeat IPC: 0.95581 cumulative IPC: 0.97975 (Simulation time: 0 hr 5 min 51 sec) 
Heartbeat CPU  0 instructions:  180000000 cycles:  131628816 heartbeat IPC: 0.94035 cumulative IPC: 0.97924 (Simulation time: 0 hr 5 min 54 sec) 
Heartbeat CPU  0 instructions:  181000000 cycles:  132656984 heartbeat IPC: 0.97260 cumulative IPC: 0.97915 (Simulation time: 0 hr 5 min 56 sec) 
Heartbeat CPU  0 instructions:  182000002 cycles:  133675331 heartbeat IPC: 0.98199 cumulative IPC: 0.97919 (Simulation time: 0 hr 5 min 58 sec) 
Heartbeat CPU  0 instructions:  183000002 cycles:  134705834 heartbeat IPC: 0.97040 cumulative IPC: 0.97908 (Simulation time: 0 hr 6 min 0 sec) 
Heartbeat CPU  0 instructions:  184000000 cycles:  135730970 heartbeat IPC: 0.97548 cumulative IPC: 0.97904 (Simulation time: 0 hr 6 min 3 sec) 
Heartbeat CPU  0 instructions:  185000003 cycles:  136741447 heartbeat IPC: 0.98963 cumulative IPC: 0.97916 (Simulation time: 0 hr 6 min 5 sec) 
Heartbeat CPU  0 instructions:  186000000 cycles:  137780521 heartbeat IPC: 0.96239 cumulative IPC: 0.97896 (Simulation time: 0 hr 6 min 7 sec) 
Heartbeat CPU  0 instructions:  187000000 cycles:  138852801 heartbeat IPC: 0.93259 cumulative IPC: 0.97840 (Simulation time: 0 hr 6 min 9 sec) 
Heartbeat CPU  0 instructions:  188000000 cycles:  139916747 heartbeat IPC: 0.93990 cumulative IPC: 0.97795 (Simulation time: 0 hr 6 min 12 sec) 
Heartbeat CPU  0 instructions:  189000003 cycles:  140966389 heartbeat IPC: 0.95271 cumulative IPC: 0.97766 (Simulation time: 0 hr 6 min 14 sec) 
Heartbeat CPU  0 instructions:  190000000 cycles:  142018935 heartbeat IPC: 0.95007 cumulative IPC: 0.97734 (Simulation time: 0 hr 6 min 16 sec) 
Heartbeat CPU  0 instructions:  191000000 cycles:  143081195 heartbeat IPC: 0.94139 cumulative IPC: 0.97693 (Simulation time: 0 hr 6 min 19 sec) 
Heartbeat CPU  0 instructions:  192000000 cycles:  144138198 heartbeat IPC: 0.94607 cumulative IPC: 0.97659 (Simulation time: 0 hr 6 min 21 sec) 
Heartbeat CPU  0 instructions:  193000000 cycles:  145166279 heartbeat IPC: 0.97269 cumulative IPC: 0.97654 (Simulation time: 0 hr 6 min 23 sec) 
Heartbeat CPU  0 instructions:  194000000 cycles:  146208995 heartbeat IPC: 0.95903 cumulative IPC: 0.97635 (Simulation time: 0 hr 6 min 25 sec) 
Heartbeat CPU  0 instructions:  195000003 cycles:  147846828 heartbeat IPC: 0.61056 cumulative IPC: 0.97024 (Simulation time: 0 hr 6 min 28 sec) 
Heartbeat CPU  0 instructions:  196000000 cycles:  149668997 heartbeat IPC: 0.54879 cumulative IPC: 0.96254 (Simulation time: 0 hr 6 min 30 sec) 
Heartbeat CPU  0 instructions:  197000000 cycles:  151401794 heartbeat IPC: 0.57710 cumulative IPC: 0.95595 (Simulation time: 0 hr 6 min 33 sec) 
Heartbeat CPU  0 instructions:  198000000 cycles:  153054935 heartbeat IPC: 0.60491 cumulative IPC: 0.95033 (Simulation time: 0 hr 6 min 35 sec) 
Heartbeat CPU  0 instructions:  199000000 cycles:  154791655 heartbeat IPC: 0.57580 cumulative IPC: 0.94412 (Simulation time: 0 hr 6 min 38 sec) 
Heartbeat CPU  0 instructions:  200000000 cycles:  156574533 heartbeat IPC: 0.56089 cumulative IPC: 0.93772 (Simulation time: 0 hr 6 min 40 sec) 
Heartbeat CPU  0 instructions:  201000002 cycles:  158311884 heartbeat IPC: 0.57559 cumulative IPC: 0.93191 (Simulation time: 0 hr 6 min 43 sec) 
Heartbeat CPU  0 instructions:  202000002 cycles:  160001898 heartbeat IPC: 0.59171 cumulative IPC: 0.92669 (Simulation time: 0 hr 6 min 45 sec) 
Heartbeat CPU  0 instructions:  203000003 cycles:  161709300 heartbeat IPC: 0.58569 cumulative IPC: 0.92148 (Simulation time: 0 hr 6 min 48 sec) 
Heartbeat CPU  0 instructions:  204000000 cycles:  163762729 heartbeat IPC: 0.48699 cumulative IPC: 0.91364 (Simulation time: 0 hr 6 min 50 sec) 
Heartbeat CPU  0 instructions:  205000001 cycles:  165777301 heartbeat IPC: 0.49638 cumulative IPC: 0.90638 (Simulation time: 0 hr 6 min 53 sec) 
Heartbeat CPU  0 instructions:  206000003 cycles:  167657848 heartbeat IPC: 0.53176 cumulative IPC: 0.90040 (Simulation time: 0 hr 6 min 55 sec) 
Heartbeat CPU  0 instructions:  207000003 cycles:  169598408 heartbeat IPC: 0.51532 cumulative IPC: 0.89416 (Simulation time: 0 hr 6 min 58 sec) 
Heartbeat CPU  0 instructions:  208000000 cycles:  171505910 heartbeat IPC: 0.52424 cumulative IPC: 0.88835 (Simulation time: 0 hr 7 min 0 sec) 
Heartbeat CPU  0 instructions:  209000000 cycles:  173288879 heartbeat IPC: 0.56086 cumulative IPC: 0.88362 (Simulation time: 0 hr 7 min 2 sec) 
Heartbeat CPU  0 instructions:  210000003 cycles:  175045987 heartbeat IPC: 0.56912 cumulative IPC: 0.87920 (Simulation time: 0 hr 7 min 5 sec) 
Heartbeat CPU  0 instructions:  211000002 cycles:  176850041 heartbeat IPC: 0.55431 cumulative IPC: 0.87458 (Simulation time: 0 hr 7 min 7 sec) 
Heartbeat CPU  0 instructions:  212000000 cycles:  178724160 heartbeat IPC: 0.53358 cumulative IPC: 0.86962 (Simulation time: 0 hr 7 min 10 sec) 
Heartbeat CPU  0 instructions:  213000001 cycles:  180906701 heartbeat IPC: 0.45818 cumulative IPC: 0.86276 (Simulation time: 0 hr 7 min 12 sec) 
Heartbeat CPU  0 instructions:  214000001 cycles:  182903474 heartbeat IPC: 0.50081 cumulative IPC: 0.85733 (Simulation time: 0 hr 7 min 15 sec) 
Heartbeat CPU  0 instructions:  215000002 cycles:  184785687 heartbeat IPC: 0.53129 cumulative IPC: 0.85278 (Simulation time: 0 hr 7 min 17 sec) 
Heartbeat CPU  0 instructions:  216000000 cycles:  186659841 heartbeat IPC: 0.53357 cumulative IPC: 0.84840 (Simulation time: 0 hr 7 min 20 sec) 
Heartbeat CPU  0 instructions:  217000003 cycles:  188534986 heartbeat IPC: 0.53329 cumulative IPC: 0.84414 (Simulation time: 0 hr 7 min 22 sec) 
Heartbeat CPU  0 instructions:  218000003 cycles:  190445356 heartbeat IPC: 0.52346 cumulative IPC: 0.83978 (Simulation time: 0 hr 7 min 25 sec) 
Heartbeat CPU  0 instructions:  219000003 cycles:  192336093 heartbeat IPC: 0.52889 cumulative IPC: 0.83565 (Simulation time: 0 hr 7 min 27 sec) 
Heartbeat CPU  0 instructions:  220000000 cycles:  194310716 heartbeat IPC: 0.50642 cumulative IPC: 0.83115 (Simulation time: 0 hr 7 min 30 sec) 
Heartbeat CPU  0 instructions:  221000003 cycles:  196287644 heartbeat IPC: 0.50584 cumulative IPC: 0.82676 (Simulation time: 0 hr 7 min 32 sec) 
Heartbeat CPU  0 instructions:  222000002 cycles:  198179027 heartbeat IPC: 0.52871 cumulative IPC: 0.82295 (Simulation time: 0 hr 7 min 35 sec) 
Heartbeat CPU  0 instructions:  223000002 cycles:  200067439 heartbeat IPC: 0.52955 cumulative IPC: 0.81926 (Simulation time: 0 hr 7 min 38 sec) 
Heartbeat CPU  0 instructions:  224000000 cycles:  201953251 heartbeat IPC: 0.53027 cumulative IPC: 0.81568 (Simulation time: 0 hr 7 min 41 sec) 
Heartbeat CPU  0 instructions:  225000000 cycles:  203755760 heartbeat IPC: 0.55478 cumulative IPC: 0.81262 (Simulation time: 0 hr 7 min 43 sec) 
Heartbeat CPU  0 instructions:  226000003 cycles:  205538935 heartbeat IPC: 0.56080 cumulative IPC: 0.80973 (Simulation time: 0 hr 7 min 46 sec) 
Heartbeat CPU  0 instructions:  227000001 cycles:  207368017 heartbeat IPC: 0.54672 cumulative IPC: 0.80668 (Simulation time: 0 hr 7 min 49 sec) 
Heartbeat CPU  0 instructions:  228000000 cycles:  209163080 heartbeat IPC: 0.55708 cumulative IPC: 0.80387 (Simulation time: 0 hr 7 min 52 sec) 
Heartbeat CPU  0 instructions:  229000000 cycles:  210964097 heartbeat IPC: 0.55524 cumulative IPC: 0.80108 (Simulation time: 0 hr 7 min 54 sec) 
Heartbeat CPU  0 instructions:  230000000 cycles:  212781155 heartbeat IPC: 0.55034 cumulative IPC: 0.79829 (Simulation time: 0 hr 7 min 57 sec) 
Heartbeat CPU  0 instructions:  231000003 cycles:  214612166 heartbeat IPC: 0.54615 cumulative IPC: 0.79548 (Simulation time: 0 hr 8 min 0 sec) 
Heartbeat CPU  0 instructions:  232000000 cycles:  216440013 heartbeat IPC: 0.54709 cumulative IPC: 0.79276 (Simulation time: 0 hr 8 min 3 sec) 
Heartbeat CPU  0 instructions:  233000000 cycles:  218278832 heartbeat IPC: 0.54383 cumulative IPC: 0.79004 (Simulation time: 0 hr 8 min 5 sec) 
Heartbeat CPU  0 instructions:  234000000 cycles:  220133242 heartbeat IPC: 0.53926 cumulative IPC: 0.78731 (Simulation time: 0 hr 8 min 8 sec) 
Heartbeat CPU  0 instructions:  235000003 cycles:  221977180 heartbeat IPC: 0.54232 cumulative IPC: 0.78468 (Simulation time: 0 hr 8 min 11 sec) 
Heartbeat CPU  0 instructions:  236000000 cycles:  223828201 heartbeat IPC: 0.54024 cumulative IPC: 0.78208 (Simulation time: 0 hr 8 min 14 sec) 
Heartbeat CPU  0 instructions:  237000000 cycles:  225674471 heartbeat IPC: 0.54163 cumulative IPC: 0.77955 (Simulation time: 0 hr 8 min 16 sec) 
Heartbeat CPU  0 instructions:  238000002 cycles:  227511317 heartbeat IPC: 0.54441 cumulative IPC: 0.77712 (Simulation time: 0 hr 8 min 19 sec) 
Heartbeat CPU  0 instructions:  239000000 cycles:  229352218 heartbeat IPC: 0.54321 cumulative IPC: 0.77472 (Simulation time: 0 hr 8 min 22 sec) 
Heartbeat CPU  0 instructions:  240000000 cycles:  231202761 heartbeat IPC: 0.54038 cumulative IPC: 0.77233 (Simulation time: 0 hr 8 min 24 sec) 
Heartbeat CPU  0 instructions:  241000002 cycles:  233037092 heartbeat IPC: 0.54516 cumulative IPC: 0.77005 (Simulation time: 0 hr 8 min 27 sec) 
Heartbeat CPU  0 instructions:  242000002 cycles:  234882982 heartbeat IPC: 0.54174 cumulative IPC: 0.76777 (Simulation time: 0 hr 8 min 30 sec) 
Heartbeat CPU  0 instructions:  243000001 cycles:  236717057 heartbeat IPC: 0.54523 cumulative IPC: 0.76559 (Simulation time: 0 hr 8 min 33 sec) 
Heartbeat CPU  0 instructions:  244000000 cycles:  238559227 heartbeat IPC: 0.54284 cumulative IPC: 0.76341 (Simulation time: 0 hr 8 min 35 sec) 
Heartbeat CPU  0 instructions:  245000002 cycles:  240400013 heartbeat IPC: 0.54325 cumulative IPC: 0.76128 (Simulation time: 0 hr 8 min 38 sec) 
Heartbeat CPU  0 instructions:  246000003 cycles:  242248096 heartbeat IPC: 0.54110 cumulative IPC: 0.75917 (Simulation time: 0 hr 8 min 41 sec) 
Heartbeat CPU  0 instructions:  247000002 cycles:  244091436 heartbeat IPC: 0.54249 cumulative IPC: 0.75711 (Simulation time: 0 hr 8 min 44 sec) 
Heartbeat CPU  0 instructions:  248000000 cycles:  245936896 heartbeat IPC: 0.54187 cumulative IPC: 0.75508 (Simulation time: 0 hr 8 min 46 sec) 
Heartbeat CPU  0 instructions:  249000000 cycles:  247780679 heartbeat IPC: 0.54236 cumulative IPC: 0.75310 (Simulation time: 0 hr 8 min 49 sec) 
Heartbeat CPU  0 instructions:  250000000 cycles:  249622119 heartbeat IPC: 0.54305 cumulative IPC: 0.75117 (Simulation time: 0 hr 8 min 52 sec) 
Heartbeat CPU  0 instructions:  251000002 cycles:  251454348 heartbeat IPC: 0.54578 cumulative IPC: 0.74930 (Simulation time: 0 hr 8 min 55 sec) 
Heartbeat CPU  0 instructions:  252000000 cycles:  253309889 heartbeat IPC: 0.53893 cumulative IPC: 0.74738 (Simulation time: 0 hr 8 min 57 sec) 
Heartbeat CPU  0 instructions:  253000001 cycles:  255156915 heartbeat IPC: 0.54141 cumulative IPC: 0.74553 (Simulation time: 0 hr 9 min 0 sec) 
Heartbeat CPU  0 instructions:  254000000 cycles:  256992896 heartbeat IPC: 0.54467 cumulative IPC: 0.74374 (Simulation time: 0 hr 9 min 3 sec) 
Heartbeat CPU  0 instructions:  255000001 cycles:  258807866 heartbeat IPC: 0.55097 cumulative IPC: 0.74207 (Simulation time: 0 hr 9 min 6 sec) 
Heartbeat CPU  0 instructions:  256000000 cycles:  260596802 heartbeat IPC: 0.55899 cumulative IPC: 0.74051 (Simulation time: 0 hr 9 min 8 sec) 
Heartbeat CPU  0 instructions:  257000001 cycles:  262403883 heartbeat IPC: 0.55338 cumulative IPC: 0.73892 (Simulation time: 0 hr 9 min 11 sec) 
Heartbeat CPU  0 instructions:  258000001 cycles:  264205457 heartbeat IPC: 0.55507 cumulative IPC: 0.73738 (Simulation time: 0 hr 9 min 14 sec) 
Heartbeat CPU  0 instructions:  259000000 cycles:  265675525 heartbeat IPC: 0.68024 cumulative IPC: 0.73699 (Simulation time: 0 hr 9 min 16 sec) 
Heartbeat CPU  0 instructions:  260000000 cycles:  266821985 heartbeat IPC: 0.87225 cumulative IPC: 0.73770 (Simulation time: 0 hr 9 min 19 sec) 
Heartbeat CPU  0 instructions:  261000000 cycles:  268016495 heartbeat IPC: 0.83716 cumulative IPC: 0.73825 (Simulation time: 0 hr 9 min 21 sec) 
Heartbeat CPU  0 instructions:  262000001 cycles:  269177120 heartbeat IPC: 0.86161 cumulative IPC: 0.73890 (Simulation time: 0 hr 9 min 23 sec) 
Heartbeat CPU  0 instructions:  263000001 cycles:  270327705 heartbeat IPC: 0.86912 cumulative IPC: 0.73958 (Simulation time: 0 hr 9 min 26 sec) 
Heartbeat CPU  0 instructions:  264000000 cycles:  271449915 heartbeat IPC: 0.89110 cumulative IPC: 0.74035 (Simulation time: 0 hr 9 min 28 sec) 
Heartbeat CPU  0 instructions:  265000001 cycles:  272524875 heartbeat IPC: 0.93027 cumulative IPC: 0.74126 (Simulation time: 0 hr 9 min 30 sec) 
Heartbeat CPU  0 instructions:  266000001 cycles:  273595806 heartbeat IPC: 0.93377 cumulative IPC: 0.74219 (Simulation time: 0 hr 9 min 33 sec) 
Heartbeat CPU  0 instructions:  267000002 cycles:  274652318 heartbeat IPC: 0.94651 cumulative IPC: 0.74315 (Simulation time: 0 hr 9 min 35 sec) 
Heartbeat CPU  0 instructions:  268000000 cycles:  275674758 heartbeat IPC: 0.97805 cumulative IPC: 0.74421 (Simulation time: 0 hr 9 min 37 sec) 
Heartbeat CPU  0 instructions:  269000001 cycles:  276795593 heartbeat IPC: 0.89219 cumulative IPC: 0.74494 (Simulation time: 0 hr 9 min 39 sec) 
Heartbeat CPU  0 instructions:  270000000 cycles:  277916267 heartbeat IPC: 0.89232 cumulative IPC: 0.74567 (Simulation time: 0 hr 9 min 42 sec) 
Heartbeat CPU  0 instructions:  271000002 cycles:  279039624 heartbeat IPC: 0.89019 cumulative IPC: 0.74638 (Simulation time: 0 hr 9 min 44 sec) 
Heartbeat CPU  0 instructions:  272000000 cycles:  280130597 heartbeat IPC: 0.91661 cumulative IPC: 0.74718 (Simulation time: 0 hr 9 min 46 sec) 
Heartbeat CPU  0 instructions:  273000003 cycles:  281238776 heartbeat IPC: 0.90238 cumulative IPC: 0.74793 (Simulation time: 0 hr 9 min 49 sec) 
Heartbeat CPU  0 instructions:  274000002 cycles:  282320589 heartbeat IPC: 0.92437 cumulative IPC: 0.74875 (Simulation time: 0 hr 9 min 51 sec) 
Heartbeat CPU  0 instructions:  275000000 cycles:  283454923 heartbeat IPC: 0.88157 cumulative IPC: 0.74939 (Simulation time: 0 hr 9 min 53 sec) 
Heartbeat CPU  0 instructions:  276000000 cycles:  284532406 heartbeat IPC: 0.92809 cumulative IPC: 0.75021 (Simulation time: 0 hr 9 min 55 sec) 
Heartbeat CPU  0 instructions:  277000001 cycles:  285579996 heartbeat IPC: 0.95457 cumulative IPC: 0.75112 (Simulation time: 0 hr 9 min 58 sec) 
Heartbeat CPU  0 instructions:  278000001 cycles:  286597314 heartbeat IPC: 0.98298 cumulative IPC: 0.75212 (Simulation time: 0 hr 10 min 0 sec) 
Heartbeat CPU  0 instructions:  279000003 cycles:  287577785 heartbeat IPC: 1.01992 cumulative IPC: 0.75322 (Simulation time: 0 hr 10 min 2 sec) 
Heartbeat CPU  0 instructions:  280000000 cycles:  288708171 heartbeat IPC: 0.88465 cumulative IPC: 0.75385 (Simulation time: 0 hr 10 min 4 sec) 
Heartbeat CPU  0 instructions:  281000000 cycles:  289797250 heartbeat IPC: 0.91821 cumulative IPC: 0.75459 (Simulation time: 0 hr 10 min 7 sec) 
Heartbeat CPU  0 instructions:  282000002 cycles:  290911364 heartbeat IPC: 0.89758 cumulative IPC: 0.75525 (Simulation time: 0 hr 10 min 9 sec) 
Heartbeat CPU  0 instructions:  283000003 cycles:  292036528 heartbeat IPC: 0.88876 cumulative IPC: 0.75587 (Simulation time: 0 hr 10 min 11 sec) 
Heartbeat CPU  0 instructions:  284000000 cycles:  293140689 heartbeat IPC: 0.90566 cumulative IPC: 0.75655 (Simulation time: 0 hr 10 min 13 sec) 
Heartbeat CPU  0 instructions:  285000001 cycles:  294217878 heartbeat IPC: 0.92834 cumulative IPC: 0.75731 (Simulation time: 0 hr 10 min 16 sec) 
Heartbeat CPU  0 instructions:  286000001 cycles:  295302018 heartbeat IPC: 0.92239 cumulative IPC: 0.75804 (Simulation time: 0 hr 10 min 18 sec) 
Heartbeat CPU  0 instructions:  287000003 cycles:  296394532 heartbeat IPC: 0.91532 cumulative IPC: 0.75874 (Simulation time: 0 hr 10 min 20 sec) 
Heartbeat CPU  0 instructions:  288000000 cycles:  297467483 heartbeat IPC: 0.93201 cumulative IPC: 0.75949 (Simulation time: 0 hr 10 min 22 sec) 
Heartbeat CPU  0 instructions:  289000000 cycles:  298418777 heartbeat IPC: 1.05120 cumulative IPC: 0.76061 (Simulation time: 0 hr 10 min 25 sec) 
Heartbeat CPU  0 instructions:  290000003 cycles:  299486454 heartbeat IPC: 0.93662 cumulative IPC: 0.76136 (Simulation time: 0 hr 10 min 27 sec) 
Heartbeat CPU  0 instructions:  291000002 cycles:  300593671 heartbeat IPC: 0.90316 cumulative IPC: 0.76198 (Simulation time: 0 hr 10 min 29 sec) 
Heartbeat CPU  0 instructions:  292000000 cycles:  301698877 heartbeat IPC: 0.90481 cumulative IPC: 0.76261 (Simulation time: 0 hr 10 min 31 sec) 
Heartbeat CPU  0 instructions:  293000003 cycles:  302842303 heartbeat IPC: 0.87457 cumulative IPC: 0.76312 (Simulation time: 0 hr 10 min 34 sec) 
Heartbeat CPU  0 instructions:  294000000 cycles:  303925573 heartbeat IPC: 0.92313 cumulative IPC: 0.76380 (Simulation time: 0 hr 10 min 36 sec) 
Heartbeat CPU  0 instructions:  295000000 cycles:  305005935 heartbeat IPC: 0.92562 cumulative IPC: 0.76449 (Simulation time: 0 hr 10 min 38 sec) 
Heartbeat CPU  0 instructions:  296000000 cycles:  306133967 heartbeat IPC: 0.88650 cumulative IPC: 0.76502 (Simulation time: 0 hr 10 min 40 sec) 
Heartbeat CPU  0 instructions:  297000000 cycles:  307231305 heartbeat IPC: 0.91130 cumulative IPC: 0.76565 (Simulation time: 0 hr 10 min 43 sec) 
Heartbeat CPU  0 instructions:  298000000 cycles:  308300861 heartbeat IPC: 0.93497 cumulative IPC: 0.76635 (Simulation time: 0 hr 10 min 45 sec) 
Heartbeat CPU  0 instructions:  299000002 cycles:  309286219 heartbeat IPC: 1.01486 cumulative IPC: 0.76729 (Simulation time: 0 hr 10 min 47 sec) 
Heartbeat CPU  0 instructions:  300000000 cycles:  310289220 heartbeat IPC: 0.99701 cumulative IPC: 0.76818 (Simulation time: 0 hr 10 min 49 sec) 
Heartbeat CPU  0 instructions:  301000003 cycles:  311420510 heartbeat IPC: 0.88395 cumulative IPC: 0.76868 (Simulation time: 0 hr 10 min 52 sec) 
Heartbeat CPU  0 instructions:  302000002 cycles:  312577942 heartbeat IPC: 0.86398 cumulative IPC: 0.76910 (Simulation time: 0 hr 10 min 54 sec) 
Heartbeat CPU  0 instructions:  303000000 cycles:  313707988 heartbeat IPC: 0.88492 cumulative IPC: 0.76959 (Simulation time: 0 hr 10 min 56 sec) 
Heartbeat CPU  0 instructions:  304000000 cycles:  314811061 heartbeat IPC: 0.90656 cumulative IPC: 0.77016 (Simulation time: 0 hr 10 min 59 sec) 
Heartbeat CPU  0 instructions:  305000001 cycles:  315912496 heartbeat IPC: 0.90791 cumulative IPC: 0.77073 (Simulation time: 0 hr 11 min 1 sec) 
Heartbeat CPU  0 instructions:  306000000 cycles:  316999070 heartbeat IPC: 0.92032 cumulative IPC: 0.77134 (Simulation time: 0 hr 11 min 3 sec) 
Heartbeat CPU  0 instructions:  307000003 cycles:  318118486 heartbeat IPC: 0.89333 cumulative IPC: 0.77185 (Simulation time: 0 hr 11 min 5 sec) 
Heartbeat CPU  0 instructions:  308000000 cycles:  319198451 heartbeat IPC: 0.92595 cumulative IPC: 0.77247 (Simulation time: 0 hr 11 min 8 sec) 
Heartbeat CPU  0 instructions:  309000000 cycles:  320220599 heartbeat IPC: 0.97833 cumulative IPC: 0.77325 (Simulation time: 0 hr 11 min 10 sec) 
Heartbeat CPU  0 instructions:  310000001 cycles:  321178311 heartbeat IPC: 1.04416 cumulative IPC: 0.77421 (Simulation time: 0 hr 11 min 12 sec) 
Heartbeat CPU  0 instructions:  311000000 cycles:  322272206 heartbeat IPC: 0.91416 cumulative IPC: 0.77477 (Simulation time: 0 hr 11 min 14 sec) 
Heartbeat CPU  0 instructions:  312000000 cycles:  323380762 heartbeat IPC: 0.90207 cumulative IPC: 0.77528 (Simulation time: 0 hr 11 min 17 sec) 
Heartbeat CPU  0 instructions:  313000000 cycles:  324490503 heartbeat IPC: 0.90111 cumulative IPC: 0.77579 (Simulation time: 0 hr 11 min 19 sec) 
Heartbeat CPU  0 instructions:  314000003 cycles:  325629583 heartbeat IPC: 0.87790 cumulative IPC: 0.77621 (Simulation time: 0 hr 11 min 21 sec) 
Heartbeat CPU  0 instructions:  315000000 cycles:  326725044 heartbeat IPC: 0.91285 cumulative IPC: 0.77675 (Simulation time: 0 hr 11 min 23 sec) 
Heartbeat CPU  0 instructions:  316000000 cycles:  327810049 heartbeat IPC: 0.92165 cumulative IPC: 0.77732 (Simulation time: 0 hr 11 min 26 sec) 
Heartbeat CPU  0 instructions:  317000000 cycles:  328891352 heartbeat IPC: 0.92481 cumulative IPC: 0.77789 (Simulation time: 0 hr 11 min 28 sec) 
Heartbeat CPU  0 instructions:  318000003 cycles:  330001902 heartbeat IPC: 0.90046 cumulative IPC: 0.77838 (Simulation time: 0 hr 11 min 30 sec) 
Heartbeat CPU  0 instructions:  319000000 cycles:  331029201 heartbeat IPC: 0.97342 cumulative IPC: 0.77909 (Simulation time: 0 hr 11 min 32 sec) 
Heartbeat CPU  0 instructions:  320000000 cycles:  331970563 heartbeat IPC: 1.06229 cumulative IPC: 0.78004 (Simulation time: 0 hr 11 min 35 sec) 
Heartbeat CPU  0 instructions:  321000003 cycles:  332981880 heartbeat IPC: 0.98881 cumulative IPC: 0.78078 (Simulation time: 0 hr 11 min 37 sec) 
Heartbeat CPU  0 instructions:  322000002 cycles:  334094478 heartbeat IPC: 0.89880 cumulative IPC: 0.78124 (Simulation time: 0 hr 11 min 39 sec) 
Heartbeat CPU  0 instructions:  323000000 cycles:  335209854 heartbeat IPC: 0.89656 cumulative IPC: 0.78170 (Simulation time: 0 hr 11 min 41 sec) 
Heartbeat CPU  0 instructions:  324000000 cycles:  336331022 heartbeat IPC: 0.89193 cumulative IPC: 0.78213 (Simulation time: 0 hr 11 min 44 sec) 
Heartbeat CPU  0 instructions:  325000000 cycles:  337450162 heartbeat IPC: 0.89354 cumulative IPC: 0.78256 (Simulation time: 0 hr 11 min 46 sec) 
Heartbeat CPU  0 instructions:  326000002 cycles:  338544565 heartbeat IPC: 0.91374 cumulative IPC: 0.78306 (Simulation time: 0 hr 11 min 48 sec) 
Heartbeat CPU  0 instructions:  327000000 cycles:  339646229 heartbeat IPC: 0.90772 cumulative IPC: 0.78353 (Simulation time: 0 hr 11 min 50 sec) 
Heartbeat CPU  0 instructions:  328000000 cycles:  340730321 heartbeat IPC: 0.92243 cumulative IPC: 0.78405 (Simulation time: 0 hr 11 min 53 sec) 
Heartbeat CPU  0 instructions:  329000003 cycles:  341831074 heartbeat IPC: 0.90847 cumulative IPC: 0.78452 (Simulation time: 0 hr 11 min 55 sec) 
Heartbeat CPU  0 instructions:  330000000 cycles:  342833839 heartbeat IPC: 0.99724 cumulative IPC: 0.78525 (Simulation time: 0 hr 11 min 57 sec) 
Heartbeat CPU  0 instructions:  331000002 cycles:  343772158 heartbeat IPC: 1.06574 cumulative IPC: 0.78614 (Simulation time: 0 hr 11 min 59 sec) 
Heartbeat CPU  0 instructions:  332000000 cycles:  344901233 heartbeat IPC: 0.88568 cumulative IPC: 0.78652 (Simulation time: 0 hr 12 min 2 sec) 
Heartbeat CPU  0 instructions:  333000002 cycles:  346053036 heartbeat IPC: 0.86821 cumulative IPC: 0.78684 (Simulation time: 0 hr 12 min 4 sec) 
Heartbeat CPU  0 instructions:  334000001 cycles:  347195969 heartbeat IPC: 0.87494 cumulative IPC: 0.78718 (Simulation time: 0 hr 12 min 6 sec) 
Heartbeat CPU  0 instructions:  335000003 cycles:  348308118 heartbeat IPC: 0.89916 cumulative IPC: 0.78760 (Simulation time: 0 hr 12 min 8 sec) 
Heartbeat CPU  0 instructions:  336000000 cycles:  349430139 heartbeat IPC: 0.89125 cumulative IPC: 0.78799 (Simulation time: 0 hr 12 min 11 sec) 
Heartbeat CPU  0 instructions:  337000001 cycles:  350522179 heartbeat IPC: 0.91572 cumulative IPC: 0.78845 (Simulation time: 0 hr 12 min 13 sec) 
Heartbeat CPU  0 instructions:  338000000 cycles:  351641692 heartbeat IPC: 0.89324 cumulative IPC: 0.78884 (Simulation time: 0 hr 12 min 15 sec) 
Heartbeat CPU  0 instructions:  339000000 cycles:  352743742 heartbeat IPC: 0.90740 cumulative IPC: 0.78927 (Simulation time: 0 hr 12 min 17 sec) 
Heartbeat CPU  0 instructions:  340000000 cycles:  353803050 heartbeat IPC: 0.94401 cumulative IPC: 0.78981 (Simulation time: 0 hr 12 min 20 sec) 
Heartbeat CPU  0 instructions:  341000003 cycles:  354745615 heartbeat IPC: 1.06094 cumulative IPC: 0.79065 (Simulation time: 0 hr 12 min 22 sec) 
Heartbeat CPU  0 instructions:  342000001 cycles:  355761409 heartbeat IPC: 0.98445 cumulative IPC: 0.79129 (Simulation time: 0 hr 12 min 24 sec) 
Heartbeat CPU  0 instructions:  343000002 cycles:  356895691 heartbeat IPC: 0.88162 cumulative IPC: 0.79163 (Simulation time: 0 hr 12 min 26 sec) 
Heartbeat CPU  0 instructions:  344000000 cycles:  358005465 heartbeat IPC: 0.90108 cumulative IPC: 0.79202 (Simulation time: 0 hr 12 min 29 sec) 
Heartbeat CPU  0 instructions:  345000003 cycles:  359168093 heartbeat IPC: 0.86012 cumulative IPC: 0.79228 (Simulation time: 0 hr 12 min 31 sec) 
Heartbeat CPU  0 instructions:  346000000 cycles:  360274243 heartbeat IPC: 0.90403 cumulative IPC: 0.79267 (Simulation time: 0 hr 12 min 33 sec) 
Heartbeat CPU  0 instructions:  347000000 cycles:  361409710 heartbeat IPC: 0.88069 cumulative IPC: 0.79300 (Simulation time: 0 hr 12 min 35 sec) 
Heartbeat CPU  0 instructions:  348000000 cycles:  362489991 heartbeat IPC: 0.92569 cumulative IPC: 0.79345 (Simulation time: 0 hr 12 min 38 sec) 
Heartbeat CPU  0 instructions:  349000001 cycles:  363593214 heartbeat IPC: 0.90644 cumulative IPC: 0.79385 (Simulation time: 0 hr 12 min 40 sec) 
Heartbeat CPU  0 instructions:  350000002 cycles:  364697555 heartbeat IPC: 0.90552 cumulative IPC: 0.79424 (Simulation time: 0 hr 12 min 42 sec) 
Heartbeat CPU  0 instructions:  351000001 cycles:  365715529 heartbeat IPC: 0.98234 cumulative IPC: 0.79485 (Simulation time: 0 hr 12 min 44 sec) 
Heartbeat CPU  0 instructions:  352000000 cycles:  366664180 heartbeat IPC: 1.05413 cumulative IPC: 0.79563 (Simulation time: 0 hr 12 min 47 sec) 
Heartbeat CPU  0 instructions:  353000002 cycles:  367798997 heartbeat IPC: 0.88120 cumulative IPC: 0.79593 (Simulation time: 0 hr 12 min 49 sec) 
Heartbeat CPU  0 instructions:  354000002 cycles:  368906514 heartbeat IPC: 0.90292 cumulative IPC: 0.79630 (Simulation time: 0 hr 12 min 51 sec) 
Heartbeat CPU  0 instructions:  355000003 cycles:  370026549 heartbeat IPC: 0.89283 cumulative IPC: 0.79664 (Simulation time: 0 hr 12 min 54 sec) 
Heartbeat CPU  0 instructions:  356000000 cycles:  371171373 heartbeat IPC: 0.87349 cumulative IPC: 0.79691 (Simulation time: 0 hr 12 min 56 sec) 
Heartbeat CPU  0 instructions:  357000002 cycles:  372322644 heartbeat IPC: 0.86861 cumulative IPC: 0.79717 (Simulation time: 0 hr 12 min 58 sec) 
Heartbeat CPU  0 instructions:  358000003 cycles:  373451984 heartbeat IPC: 0.88547 cumulative IPC: 0.79748 (Simulation time: 0 hr 13 min 0 sec) 
Heartbeat CPU  0 instructions:  359000001 cycles:  374540144 heartbeat IPC: 0.91898 cumulative IPC: 0.79789 (Simulation time: 0 hr 13 min 3 sec) 
Heartbeat CPU  0 instructions:  360000000 cycles:  375682109 heartbeat IPC: 0.87568 cumulative IPC: 0.79816 (Simulation time: 0 hr 13 min 5 sec) 
Heartbeat CPU  0 instructions:  361000003 cycles:  376719695 heartbeat IPC: 0.96378 cumulative IPC: 0.79868 (Simulation time: 0 hr 13 min 7 sec) 
Heartbeat CPU  0 instructions:  362000000 cycles:  377668317 heartbeat IPC: 1.05416 cumulative IPC: 0.79942 (Simulation time: 0 hr 13 min 9 sec) 
Heartbeat CPU  0 instructions:  363000001 cycles:  378712527 heartbeat IPC: 0.95766 cumulative IPC: 0.79993 (Simulation time: 0 hr 13 min 12 sec) 
Heartbeat CPU  0 instructions:  364000000 cycles:  379814659 heartbeat IPC: 0.90733 cumulative IPC: 0.80029 (Simulation time: 0 hr 13 min 14 sec) 
Heartbeat CPU  0 instructions:  365000000 cycles:  380977270 heartbeat IPC: 0.86013 cumulative IPC: 0.80050 (Simulation time: 0 hr 13 min 16 sec) 
Heartbeat CPU  0 instructions:  366000001 cycles:  382090809 heartbeat IPC: 0.89804 cumulative IPC: 0.80082 (Simulation time: 0 hr 13 min 18 sec) 
Heartbeat CPU  0 instructions:  367000002 cycles:  383236977 heartbeat IPC: 0.87247 cumulative IPC: 0.80107 (Simulation time: 0 hr 13 min 21 sec) 
Heartbeat CPU  0 instructions:  368000000 cycles:  384355005 heartbeat IPC: 0.89443 cumulative IPC: 0.80138 (Simulation time: 0 hr 13 min 23 sec) 
Heartbeat CPU  0 instructions:  369000001 cycles:  385476084 heartbeat IPC: 0.89200 cumulative IPC: 0.80168 (Simulation time: 0 hr 13 min 25 sec) 
Heartbeat CPU  0 instructions:  370000002 cycles:  386566441 heartbeat IPC: 0.91713 cumulative IPC: 0.80206 (Simulation time: 0 hr 13 min 27 sec) 
Heartbeat CPU  0 instructions:  371000000 cycles:  387631701 heartbeat IPC: 0.93874 cumulative IPC: 0.80249 (Simulation time: 0 hr 13 min 30 sec) 
Heartbeat CPU  0 instructions:  372000000 cycles:  388631170 heartbeat IPC: 1.00053 cumulative IPC: 0.80307 (Simulation time: 0 hr 13 min 32 sec) 
Heartbeat CPU  0 instructions:  373000003 cycles:  389614647 heartbeat IPC: 1.01680 cumulative IPC: 0.80369 (Simulation time: 0 hr 13 min 34 sec) 
Heartbeat CPU  0 instructions:  374000003 cycles:  390717113 heartbeat IPC: 0.90706 cumulative IPC: 0.80403 (Simulation time: 0 hr 13 min 36 sec) 
Heartbeat CPU  0 instructions:  375000001 cycles:  391827216 heartbeat IPC: 0.90082 cumulative IPC: 0.80434 (Simulation time: 0 hr 13 min 39 sec) 
Heartbeat CPU  0 instructions:  376000000 cycles:  392952239 heartbeat IPC: 0.88887 cumulative IPC: 0.80462 (Simulation time: 0 hr 13 min 41 sec) 
Heartbeat CPU  0 instructions:  377000001 cycles:  394073894 heartbeat IPC: 0.89154 cumulative IPC: 0.80490 (Simulation time: 0 hr 13 min 43 sec) 
Heartbeat CPU  0 instructions:  378000002 cycles:  395211928 heartbeat IPC: 0.87871 cumulative IPC: 0.80514 (Simulation time: 0 hr 13 min 45 sec) 
Heartbeat CPU  0 instructions:  379000001 cycles:  396315298 heartbeat IPC: 0.90631 cumulative IPC: 0.80547 (Simulation time: 0 hr 13 min 48 sec) 
Heartbeat CPU  0 instructions:  380000000 cycles:  397423007 heartbeat IPC: 0.90276 cumulative IPC: 0.80578 (Simulation time: 0 hr 13 min 50 sec) 
Heartbeat CPU  0 instructions:  381000000 cycles:  398530894 heartbeat IPC: 0.90262 cumulative IPC: 0.80608 (Simulation time: 0 hr 13 min 52 sec) 
Heartbeat CPU  0 instructions:  382000003 cycles:  399586949 heartbeat IPC: 0.94692 cumulative IPC: 0.80651 (Simulation time: 0 hr 13 min 55 sec) 
Heartbeat CPU  0 instructions:  383000001 cycles:  400542513 heartbeat IPC: 1.04650 cumulative IPC: 0.80716 (Simulation time: 0 hr 13 min 57 sec) 
Heartbeat CPU  0 instructions:  384000000 cycles:  401585249 heartbeat IPC: 0.95901 cumulative IPC: 0.80761 (Simulation time: 0 hr 13 min 59 sec) 
Heartbeat CPU  0 instructions:  385000000 cycles:  402700088 heartbeat IPC: 0.89699 cumulative IPC: 0.80790 (Simulation time: 0 hr 14 min 1 sec) 
Heartbeat CPU  0 instructions:  386000001 cycles:  403797230 heartbeat IPC: 0.91146 cumulative IPC: 0.80822 (Simulation time: 0 hr 14 min 3 sec) 
Heartbeat CPU  0 instructions:  387000000 cycles:  404933655 heartbeat IPC: 0.87995 cumulative IPC: 0.80845 (Simulation time: 0 hr 14 min 6 sec) 
Heartbeat CPU  0 instructions:  388000000 cycles:  406047843 heartbeat IPC: 0.89751 cumulative IPC: 0.80873 (Simulation time: 0 hr 14 min 8 sec) 
Heartbeat CPU  0 instructions:  389000001 cycles:  407153880 heartbeat IPC: 0.90413 cumulative IPC: 0.80902 (Simulation time: 0 hr 14 min 10 sec) 
Heartbeat CPU  0 instructions:  390000000 cycles:  408270621 heartbeat IPC: 0.89546 cumulative IPC: 0.80929 (Simulation time: 0 hr 14 min 13 sec) 
Heartbeat CPU  0 instructions:  391000002 cycles:  409354753 heartbeat IPC: 0.92240 cumulative IPC: 0.80963 (Simulation time: 0 hr 14 min 15 sec) 
Heartbeat CPU  0 instructions:  392000000 cycles:  410425822 heartbeat IPC: 0.93364 cumulative IPC: 0.81000 (Simulation time: 0 hr 14 min 17 sec) 
Heartbeat CPU  0 instructions:  393000002 cycles:  411398963 heartbeat IPC: 1.02760 cumulative IPC: 0.81059 (Simulation time: 0 hr 14 min 19 sec) 
Heartbeat CPU  0 instructions:  394000000 cycles:  412373317 heartbeat IPC: 1.02632 cumulative IPC: 0.81117 (Simulation time: 0 hr 14 min 22 sec) 
Heartbeat CPU  0 instructions:  395000002 cycles:  413527183 heartbeat IPC: 0.86665 cumulative IPC: 0.81134 (Simulation time: 0 hr 14 min 24 sec) 
Heartbeat CPU  0 instructions:  396000000 cycles:  414665351 heartbeat IPC: 0.87860 cumulative IPC: 0.81155 (Simulation time: 0 hr 14 min 26 sec) 
Heartbeat CPU  0 instructions:  397000003 cycles:  415796016 heartbeat IPC: 0.88444 cumulative IPC: 0.81178 (Simulation time: 0 hr 14 min 28 sec) 
Heartbeat CPU  0 instructions:  398000001 cycles:  416935429 heartbeat IPC: 0.87764 cumulative IPC: 0.81198 (Simulation time: 0 hr 14 min 31 sec) 
Heartbeat CPU  0 instructions:  399000000 cycles:  418042050 heartbeat IPC: 0.90365 cumulative IPC: 0.81226 (Simulation time: 0 hr 14 min 33 sec) 
Heartbeat CPU  0 instructions:  400000000 cycles:  419149678 heartbeat IPC: 0.90283 cumulative IPC: 0.81253 (Simulation time: 0 hr 14 min 35 sec) 
Heartbeat CPU  0 instructions:  401000002 cycles:  420260523 heartbeat IPC: 0.90022 cumulative IPC: 0.81279 (Simulation time: 0 hr 14 min 38 sec) 
Heartbeat CPU  0 instructions:  402000000 cycles:  421349378 heartbeat IPC: 0.91839 cumulative IPC: 0.81310 (Simulation time: 0 hr 14 min 40 sec) 
Heartbeat CPU  0 instructions:  403000000 cycles:  422396377 heartbeat IPC: 0.95511 cumulative IPC: 0.81350 (Simulation time: 0 hr 14 min 42 sec) 
Heartbeat CPU  0 instructions:  404000000 cycles:  423346164 heartbeat IPC: 1.05287 cumulative IPC: 0.81411 (Simulation time: 0 hr 14 min 44 sec) 
Heartbeat CPU  0 instructions:  405000003 cycles:  424612193 heartbeat IPC: 0.78987 cumulative IPC: 0.81403 (Simulation time: 0 hr 14 min 46 sec) 
Heartbeat CPU  0 instructions:  406000003 cycles:  426172232 heartbeat IPC: 0.64101 cumulative IPC: 0.81331 (Simulation time: 0 hr 14 min 49 sec) 
Heartbeat CPU  0 instructions:  407000000 cycles:  427194929 heartbeat IPC: 0.97780 cumulative IPC: 0.81376 (Simulation time: 0 hr 14 min 51 sec) 
Heartbeat CPU  0 instructions:  408000000 cycles:  428243864 heartbeat IPC: 0.95335 cumulative IPC: 0.81414 (Simulation time: 0 hr 14 min 54 sec) 
Heartbeat CPU  0 instructions:  409000003 cycles:  429318622 heartbeat IPC: 0.93044 cumulative IPC: 0.81447 (Simulation time: 0 hr 14 min 56 sec) 
Heartbeat CPU  0 instructions:  410000000 cycles:  430463239 heartbeat IPC: 0.87365 cumulative IPC: 0.81465 (Simulation time: 0 hr 14 min 58 sec) 
Heartbeat CPU  0 instructions:  411000000 cycles:  431602311 heartbeat IPC: 0.87791 cumulative IPC: 0.81484 (Simulation time: 0 hr 15 min 1 sec) 
Heartbeat CPU  0 instructions:  412000000 cycles:  432778708 heartbeat IPC: 0.85005 cumulative IPC: 0.81495 (Simulation time: 0 hr 15 min 3 sec) 
Heartbeat CPU  0 instructions:  413000003 cycles:  433978564 heartbeat IPC: 0.83344 cumulative IPC: 0.81501 (Simulation time: 0 hr 15 min 5 sec) 
Heartbeat CPU  0 instructions:  414000000 cycles:  435191172 heartbeat IPC: 0.82467 cumulative IPC: 0.81504 (Simulation time: 0 hr 15 min 8 sec) 
Heartbeat CPU  0 instructions:  415000003 cycles:  436309950 heartbeat IPC: 0.89384 cumulative IPC: 0.81526 (Simulation time: 0 hr 15 min 10 sec) 
Heartbeat CPU  0 instructions:  416000000 cycles:  437875585 heartbeat IPC: 0.63872 cumulative IPC: 0.81455 (Simulation time: 0 hr 15 min 13 sec) 
Heartbeat CPU  0 instructions:  417000001 cycles:  438921016 heartbeat IPC: 0.95654 cumulative IPC: 0.81493 (Simulation time: 0 hr 15 min 15 sec) 
Heartbeat CPU  0 instructions:  418000003 cycles:  439955461 heartbeat IPC: 0.96670 cumulative IPC: 0.81534 (Simulation time: 0 hr 15 min 17 sec) 
Heartbeat CPU  0 instructions:  419000002 cycles:  440973185 heartbeat IPC: 0.98258 cumulative IPC: 0.81577 (Simulation time: 0 hr 15 min 20 sec) 
Heartbeat CPU  0 instructions:  420000000 cycles:  441995833 heartbeat IPC: 0.97785 cumulative IPC: 0.81619 (Simulation time: 0 hr 15 min 22 sec) 
Heartbeat CPU  0 instructions:  421000003 cycles:  443048834 heartbeat IPC: 0.94967 cumulative IPC: 0.81655 (Simulation time: 0 hr 15 min 24 sec) 
Heartbeat CPU  0 instructions:  422000003 cycles:  444114084 heartbeat IPC: 0.93875 cumulative IPC: 0.81688 (Simulation time: 0 hr 15 min 27 sec) 
Heartbeat CPU  0 instructions:  423000002 cycles:  445149735 heartbeat IPC: 0.96558 cumulative IPC: 0.81727 (Simulation time: 0 hr 15 min 29 sec) 
Heartbeat CPU  0 instructions:  424000000 cycles:  446186043 heartbeat IPC: 0.96496 cumulative IPC: 0.81766 (Simulation time: 0 hr 15 min 31 sec) 
Heartbeat CPU  0 instructions:  425000003 cycles:  447254650 heartbeat IPC: 0.93580 cumulative IPC: 0.81798 (Simulation time: 0 hr 15 min 34 sec) 
Heartbeat CPU  0 instructions:  426000001 cycles:  448662647 heartbeat IPC: 0.71023 cumulative IPC: 0.81760 (Simulation time: 0 hr 15 min 36 sec) 
Heartbeat CPU  0 instructions:  427000003 cycles:  449766310 heartbeat IPC: 0.90608 cumulative IPC: 0.81784 (Simulation time: 0 hr 15 min 38 sec) 
Heartbeat CPU  0 instructions:  428000000 cycles:  450808682 heartbeat IPC: 0.95935 cumulative IPC: 0.81821 (Simulation time: 0 hr 15 min 41 sec) 
Heartbeat CPU  0 instructions:  429000000 cycles:  451849323 heartbeat IPC: 0.96095 cumulative IPC: 0.81858 (Simulation time: 0 hr 15 min 43 sec) 
Heartbeat CPU  0 instructions:  430000003 cycles:  452892903 heartbeat IPC: 0.95824 cumulative IPC: 0.81894 (Simulation time: 0 hr 15 min 45 sec) 
Heartbeat CPU  0 instructions:  431000002 cycles:  453936455 heartbeat IPC: 0.95826 cumulative IPC: 0.81930 (Simulation time: 0 hr 15 min 48 sec) 
Heartbeat CPU  0 instructions:  432000000 cycles:  454985681 heartbeat IPC: 0.95308 cumulative IPC: 0.81965 (Simulation time: 0 hr 15 min 50 sec) 
Heartbeat CPU  0 instructions:  433000001 cycles:  456062046 heartbeat IPC: 0.92905 cumulative IPC: 0.81994 (Simulation time: 0 hr 15 min 52 sec) 
Heartbeat CPU  0 instructions:  434000001 cycles:  457129617 heartbeat IPC: 0.93671 cumulative IPC: 0.82024 (Simulation time: 0 hr 15 min 55 sec) 
Heartbeat CPU  0 instructions:  435000002 cycles:  458187775 heartbeat IPC: 0.94504 cumulative IPC: 0.82056 (Simulation time: 0 hr 15 min 57 sec) 
Heartbeat CPU  0 instructions:  436000000 cycles:  459325887 heartbeat IPC: 0.87865 cumulative IPC: 0.82073 (Simulation time: 0 hr 15 min 59 sec) 
Heartbeat CPU  0 instructions:  437000001 cycles:  460731830 heartbeat IPC: 0.71127 cumulative IPC: 0.82035 (Simulation time: 0 hr 16 min 2 sec) 
Heartbeat CPU  0 instructions:  438000002 cycles:  461754872 heartbeat IPC: 0.97748 cumulative IPC: 0.82074 (Simulation time: 0 hr 16 min 4 sec) 
Heartbeat CPU  0 instructions:  439000003 cycles:  462783482 heartbeat IPC: 0.97219 cumulative IPC: 0.82112 (Simulation time: 0 hr 16 min 6 sec) 
Heartbeat CPU  0 instructions:  440000000 cycles:  463813509 heartbeat IPC: 0.97085 cumulative IPC: 0.82149 (Simulation time: 0 hr 16 min 9 sec) 
Heartbeat CPU  0 instructions:  441000000 cycles:  464868239 heartbeat IPC: 0.94811 cumulative IPC: 0.82181 (Simulation time: 0 hr 16 min 11 sec) 
Heartbeat CPU  0 instructions:  442000003 cycles:  465941690 heartbeat IPC: 0.93158 cumulative IPC: 0.82210 (Simulation time: 0 hr 16 min 13 sec) 
Heartbeat CPU  0 instructions:  443000003 cycles:  467008240 heartbeat IPC: 0.93760 cumulative IPC: 0.82239 (Simulation time: 0 hr 16 min 16 sec) 
Heartbeat CPU  0 instructions:  444000000 cycles:  468074484 heartbeat IPC: 0.93787 cumulative IPC: 0.82269 (Simulation time: 0 hr 16 min 18 sec) 
Heartbeat CPU  0 instructions:  445000000 cycles:  469135083 heartbeat IPC: 0.94286 cumulative IPC: 0.82299 (Simulation time: 0 hr 16 min 20 sec) 
Heartbeat CPU  0 instructions:  446000001 cycles:  470194059 heartbeat IPC: 0.94431 cumulative IPC: 0.82330 (Simulation time: 0 hr 16 min 22 sec) 
Heartbeat CPU  0 instructions:  447000000 cycles:  471678634 heartbeat IPC: 0.67359 cumulative IPC: 0.82277 (Simulation time: 0 hr 16 min 25 sec) 
Heartbeat CPU  0 instructions:  448000000 cycles:  472763228 heartbeat IPC: 0.92200 cumulative IPC: 0.82302 (Simulation time: 0 hr 16 min 27 sec) 
Heartbeat CPU  0 instructions:  449000002 cycles:  473793531 heartbeat IPC: 0.97059 cumulative IPC: 0.82338 (Simulation time: 0 hr 16 min 30 sec) 
Heartbeat CPU  0 instructions:  450000000 cycles:  474825566 heartbeat IPC: 0.96896 cumulative IPC: 0.82374 (Simulation time: 0 hr 16 min 32 sec) 
Heartbeat CPU  0 instructions:  451000003 cycles:  475863727 heartbeat IPC: 0.96324 cumulative IPC: 0.82408 (Simulation time: 0 hr 16 min 34 sec) 
Heartbeat CPU  0 instructions:  452000000 cycles:  476902845 heartbeat IPC: 0.96235 cumulative IPC: 0.82441 (Simulation time: 0 hr 16 min 36 sec) 
Heartbeat CPU  0 instructions:  453000002 cycles:  477970538 heartbeat IPC: 0.93660 cumulative IPC: 0.82469 (Simulation time: 0 hr 16 min 39 sec) 
Heartbeat CPU  0 instructions:  454000003 cycles:  479035339 heartbeat IPC: 0.93914 cumulative IPC: 0.82498 (Simulation time: 0 hr 16 min 41 sec) 
Heartbeat CPU  0 instructions:  455000001 cycles:  480074748 heartbeat IPC: 0.96208 cumulative IPC: 0.82531 (Simulation time: 0 hr 16 min 43 sec) 
Heartbeat CPU  0 instructions:  456000000 cycles:  481125876 heartbeat IPC: 0.95136 cumulative IPC: 0.82562 (Simulation time: 0 hr 16 min 46 sec) 
Heartbeat CPU  0 instructions:  457000002 cycles:  482371001 heartbeat IPC: 0.80313 cumulative IPC: 0.82555 (Simulation time: 0 hr 16 min 48 sec) 
Heartbeat CPU  0 instructions:  458000002 cycles:  484259043 heartbeat IPC: 0.52965 cumulative IPC: 0.82426 (Simulation time: 0 hr 16 min 51 sec) 
Heartbeat CPU  0 instructions:  459000002 cycles:  485844600 heartbeat IPC: 0.63069 cumulative IPC: 0.82356 (Simulation time: 0 hr 16 min 53 sec) 
Heartbeat CPU  0 instructions:  460000000 cycles:  487198214 heartbeat IPC: 0.73876 cumulative IPC: 0.82330 (Simulation time: 0 hr 16 min 56 sec) 
Heartbeat CPU  0 instructions:  461000002 cycles:  488613754 heartbeat IPC: 0.70645 cumulative IPC: 0.82292 (Simulation time: 0 hr 16 min 58 sec) 
Heartbeat CPU  0 instructions:  462000002 cycles:  490021645 heartbeat IPC: 0.71028 cumulative IPC: 0.82256 (Simulation time: 0 hr 17 min 0 sec) 
Heartbeat CPU  0 instructions:  463000002 cycles:  491427913 heartbeat IPC: 0.71110 cumulative IPC: 0.82221 (Simulation time: 0 hr 17 min 3 sec) 
Heartbeat CPU  0 instructions:  464000000 cycles:  492895587 heartbeat IPC: 0.68135 cumulative IPC: 0.82174 (Simulation time: 0 hr 17 min 5 sec) 
Heartbeat CPU  0 instructions:  465000000 cycles:  494694177 heartbeat IPC: 0.55599 cumulative IPC: 0.82066 (Simulation time: 0 hr 17 min 8 sec) 
Heartbeat CPU  0 instructions:  466000001 cycles:  496489057 heartbeat IPC: 0.55714 cumulative IPC: 0.81960 (Simulation time: 0 hr 17 min 10 sec) 
Heartbeat CPU  0 instructions:  467000000 cycles:  498237773 heartbeat IPC: 0.57185 cumulative IPC: 0.81864 (Simulation time: 0 hr 17 min 12 sec) 
Heartbeat CPU  0 instructions:  468000000 cycles:  500052697 heartbeat IPC: 0.55099 cumulative IPC: 0.81756 (Simulation time: 0 hr 17 min 15 sec) 
Heartbeat CPU  0 instructions:  469000003 cycles:  501862315 heartbeat IPC: 0.55260 cumulative IPC: 0.81650 (Simulation time: 0 hr 17 min 17 sec) 
Heartbeat CPU  0 instructions:  470000001 cycles:  503647170 heartbeat IPC: 0.56027 cumulative IPC: 0.81549 (Simulation time: 0 hr 17 min 20 sec) 
Heartbeat CPU  0 instructions:  471000003 cycles:  505422701 heartbeat IPC: 0.56321 cumulative IPC: 0.81451 (Simulation time: 0 hr 17 min 22 sec) 
Heartbeat CPU  0 instructions:  472000000 cycles:  507369256 heartbeat IPC: 0.51373 cumulative IPC: 0.81323 (Simulation time: 0 hr 17 min 24 sec) 
Heartbeat CPU  0 instructions:  473000000 cycles:  509356206 heartbeat IPC: 0.50328 cumulative IPC: 0.81189 (Simulation time: 0 hr 17 min 27 sec) 
Heartbeat CPU  0 instructions:  474000000 cycles:  511239505 heartbeat IPC: 0.53098 cumulative IPC: 0.81074 (Simulation time: 0 hr 17 min 29 sec) 
Heartbeat CPU  0 instructions:  475000002 cycles:  513248006 heartbeat IPC: 0.49788 cumulative IPC: 0.80938 (Simulation time: 0 hr 17 min 32 sec) 
Heartbeat CPU  0 instructions:  476000000 cycles:  515150758 heartbeat IPC: 0.52555 cumulative IPC: 0.80822 (Simulation time: 0 hr 17 min 34 sec) 
Heartbeat CPU  0 instructions:  477000002 cycles:  517076740 heartbeat IPC: 0.51922 cumulative IPC: 0.80703 (Simulation time: 0 hr 17 min 37 sec) 
Heartbeat CPU  0 instructions:  478000002 cycles:  518916944 heartbeat IPC: 0.54342 cumulative IPC: 0.80600 (Simulation time: 0 hr 17 min 39 sec) 
Heartbeat CPU  0 instructions:  479000002 cycles:  520839844 heartbeat IPC: 0.52005 cumulative IPC: 0.80483 (Simulation time: 0 hr 17 min 42 sec) 
Heartbeat CPU  0 instructions:  480000000 cycles:  522722183 heartbeat IPC: 0.53125 cumulative IPC: 0.80374 (Simulation time: 0 hr 17 min 45 sec) 
Heartbeat CPU  0 instructions:  481000002 cycles:  524500469 heartbeat IPC: 0.56234 cumulative IPC: 0.80284 (Simulation time: 0 hr 17 min 47 sec) 
Heartbeat CPU  0 instructions:  482000003 cycles:  526299017 heartbeat IPC: 0.55600 cumulative IPC: 0.80190 (Simulation time: 0 hr 17 min 50 sec) 
Heartbeat CPU  0 instructions:  483000000 cycles:  528096597 heartbeat IPC: 0.55630 cumulative IPC: 0.80098 (Simulation time: 0 hr 17 min 53 sec) 
Heartbeat CPU  0 instructions:  484000000 cycles:  529911302 heartbeat IPC: 0.55105 cumulative IPC: 0.80004 (Simulation time: 0 hr 17 min 56 sec) 
Heartbeat CPU  0 instructions:  485000003 cycles:  531708679 heartbeat IPC: 0.55637 cumulative IPC: 0.79913 (Simulation time: 0 hr 17 min 58 sec) 
Heartbeat CPU  0 instructions:  486000003 cycles:  533479829 heartbeat IPC: 0.56460 cumulative IPC: 0.79827 (Simulation time: 0 hr 18 min 1 sec) 
Heartbeat CPU  0 instructions:  487000000 cycles:  535295220 heartbeat IPC: 0.55084 cumulative IPC: 0.79734 (Simulation time: 0 hr 18 min 4 sec) 
Heartbeat CPU  0 instructions:  488000000 cycles:  537125126 heartbeat IPC: 0.54648 cumulative IPC: 0.79640 (Simulation time: 0 hr 18 min 7 sec) 
Heartbeat CPU  0 instructions:  489000000 cycles:  538948916 heartbeat IPC: 0.54831 cumulative IPC: 0.79547 (Simulation time: 0 hr 18 min 9 sec) 
Heartbeat CPU  0 instructions:  490000000 cycles:  540807435 heartbeat IPC: 0.53806 cumulative IPC: 0.79450 (Simulation time: 0 hr 18 min 12 sec) 
Heartbeat CPU  0 instructions:  491000001 cycles:  542650038 heartbeat IPC: 0.54271 cumulative IPC: 0.79356 (Simulation time: 0 hr 18 min 15 sec) 
Heartbeat CPU  0 instructions:  492000000 cycles:  544499840 heartbeat IPC: 0.54060 cumulative IPC: 0.79261 (Simulation time: 0 hr 18 min 18 sec) 
Heartbeat CPU  0 instructions:  493000001 cycles:  546348162 heartbeat IPC: 0.54103 cumulative IPC: 0.79168 (Simulation time: 0 hr 18 min 20 sec) 
Heartbeat CPU  0 instructions:  494000000 cycles:  548187934 heartbeat IPC: 0.54355 cumulative IPC: 0.79076 (Simulation time: 0 hr 18 min 23 sec) 
Heartbeat CPU  0 instructions:  495000001 cycles:  550023184 heartbeat IPC: 0.54489 cumulative IPC: 0.78986 (Simulation time: 0 hr 18 min 26 sec) 
Heartbeat CPU  0 instructions:  496000000 cycles:  551869317 heartbeat IPC: 0.54167 cumulative IPC: 0.78894 (Simulation time: 0 hr 18 min 29 sec) 
Heartbeat CPU  0 instructions:  497000001 cycles:  553701274 heartbeat IPC: 0.54586 cumulative IPC: 0.78806 (Simulation time: 0 hr 18 min 31 sec) 
Heartbeat CPU  0 instructions:  498000001 cycles:  555552900 heartbeat IPC: 0.54007 cumulative IPC: 0.78715 (Simulation time: 0 hr 18 min 34 sec) 
Heartbeat CPU  0 instructions:  499000001 cycles:  557385947 heartbeat IPC: 0.54554 cumulative IPC: 0.78628 (Simulation time: 0 hr 18 min 37 sec) 
Heartbeat CPU  0 instructions:  500000000 cycles:  559222374 heartbeat IPC: 0.54454 cumulative IPC: 0.78541 (Simulation time: 0 hr 18 min 40 sec) 
Heartbeat CPU  0 instructions:  501000002 cycles:  561062591 heartbeat IPC: 0.54342 cumulative IPC: 0.78454 (Simulation time: 0 hr 18 min 42 sec) 
Heartbeat CPU  0 instructions:  502000003 cycles:  562893693 heartbeat IPC: 0.54612 cumulative IPC: 0.78368 (Simulation time: 0 hr 18 min 45 sec) 
Heartbeat CPU  0 instructions:  503000000 cycles:  564754915 heartbeat IPC: 0.53728 cumulative IPC: 0.78279 (Simulation time: 0 hr 18 min 48 sec) 
Heartbeat CPU  0 instructions:  504000000 cycles:  566588787 heartbeat IPC: 0.54529 cumulative IPC: 0.78195 (Simulation time: 0 hr 18 min 51 sec) 
Heartbeat CPU  0 instructions:  505000001 cycles:  568437766 heartbeat IPC: 0.54084 cumulative IPC: 0.78109 (Simulation time: 0 hr 18 min 53 sec) 
Heartbeat CPU  0 instructions:  506000000 cycles:  570274765 heartbeat IPC: 0.54437 cumulative IPC: 0.78026 (Simulation time: 0 hr 18 min 56 sec) 
Heartbeat CPU  0 instructions:  507000003 cycles:  572110236 heartbeat IPC: 0.54482 cumulative IPC: 0.77943 (Simulation time: 0 hr 18 min 59 sec) 
Heartbeat CPU  0 instructions:  508000000 cycles:  573953917 heartbeat IPC: 0.54239 cumulative IPC: 0.77859 (Simulation time: 0 hr 19 min 1 sec) 
Heartbeat CPU  0 instructions:  509000003 cycles:  575808849 heartbeat IPC: 0.53910 cumulative IPC: 0.77775 (Simulation time: 0 hr 19 min 4 sec) 
Heartbeat CPU  0 instructions:  510000000 cycles:  577644829 heartbeat IPC: 0.54467 cumulative IPC: 0.77694 (Simulation time: 0 hr 19 min 7 sec) 
Heartbeat CPU  0 instructions:  511000002 cycles:  579308529 heartbeat IPC: 0.60107 cumulative IPC: 0.77639 (Simulation time: 0 hr 19 min 10 sec) 
Heartbeat CPU  0 instructions:  512000000 cycles:  580710925 heartbeat IPC: 0.71306 cumulative IPC: 0.77622 (Simulation time: 0 hr 19 min 12 sec) 
Heartbeat CPU  0 instructions:  513000000 cycles:  581782824 heartbeat IPC: 0.93292 cumulative IPC: 0.77653 (Simulation time: 0 hr 19 min 14 sec) 
Heartbeat CPU  0 instructions:  514000003 cycles:  582702561 heartbeat IPC: 1.08727 cumulative IPC: 0.77707 (Simulation time: 0 hr 19 min 16 sec) 
Heartbeat CPU  0 instructions:  515000002 cycles:  583659382 heartbeat IPC: 1.04513 cumulative IPC: 0.77755 (Simulation time: 0 hr 19 min 19 sec) 
Heartbeat CPU  0 instructions:  516000000 cycles:  584621788 heartbeat IPC: 1.03906 cumulative IPC: 0.77802 (Simulation time: 0 hr 19 min 21 sec) 
Heartbeat CPU  0 instructions:  517000001 cycles:  585632263 heartbeat IPC: 0.98963 cumulative IPC: 0.77842 (Simulation time: 0 hr 19 min 23 sec) 
Heartbeat CPU  0 instructions:  518000003 cycles:  586513046 heartbeat IPC: 1.13536 cumulative IPC: 0.77901 (Simulation time: 0 hr 19 min 25 sec) 
Heartbeat CPU  0 instructions:  519000001 cycles:  587463916 heartbeat IPC: 1.05167 cumulative IPC: 0.77949 (Simulation time: 0 hr 19 min 27 sec) 
Heartbeat CPU  0 instructions:  520000000 cycles:  588435123 heartbeat IPC: 1.02965 cumulative IPC: 0.77994 (Simulation time: 0 hr 19 min 29 sec) 
Heartbeat CPU  0 instructions:  521000002 cycles:  589364572 heartbeat IPC: 1.07591 cumulative IPC: 0.78045 (Simulation time: 0 hr 19 min 31 sec) 
Heartbeat CPU  0 instructions:  522000002 cycles:  590365648 heartbeat IPC: 0.99893 cumulative IPC: 0.78086 (Simulation time: 0 hr 19 min 34 sec) 
Heartbeat CPU  0 instructions:  523000000 cycles:  591254499 heartbeat IPC: 1.12505 cumulative IPC: 0.78142 (Simulation time: 0 hr 19 min 36 sec) 
Heartbeat CPU  0 instructions:  524000000 cycles:  592179735 heartbeat IPC: 1.08081 cumulative IPC: 0.78193 (Simulation time: 0 hr 19 min 38 sec) 
Heartbeat CPU  0 instructions:  525000003 cycles:  593121399 heartbeat IPC: 1.06195 cumulative IPC: 0.78242 (Simulation time: 0 hr 19 min 40 sec) 
Heartbeat CPU  0 instructions:  526000001 cycles:  594012221 heartbeat IPC: 1.12256 cumulative IPC: 0.78297 (Simulation time: 0 hr 19 min 42 sec) 
Heartbeat CPU  0 instructions:  527000003 cycles:  594949092 heartbeat IPC: 1.06738 cumulative IPC: 0.78346 (Simulation time: 0 hr 19 min 44 sec) 
Heartbeat CPU  0 instructions:  528000000 cycles:  595870690 heartbeat IPC: 1.08507 cumulative IPC: 0.78397 (Simulation time: 0 hr 19 min 46 sec) 
[...]
AIAAAA2A224444A4444AAAAAAAAAAAAAAAAAAAAAAAAA4444444AA22224444444
AIAAAA2A224444A4444AAAAAAAAAAAAAAAAAAAAAAAAA4444444AAA2222444444
AIAAAAAA222444A4444AAAAAAAAAAAAAAAAAAAAAAAAA4444444AAA2222444444
AIAAAAAA222444A4444AAAAAAAAAAAAAAAAAAAAAAAAA4444444AAAA222244444
AIAAAAAA222244A4444AAAAAAAAAAAAAAAAAAAAAAAAA4444444AAAA222244444
AIAAAAAA222244A4444AAAAAAAAAAAAAAAAAAAAAAAAA4444444AAAAA22224444
AIAAAAAAA22224A4444AAAAAAAAAAAAAAAAAAAAAAAAA4444444AAAAA22224444
AIAAAAAAA22224A4444AAAAAAAAAAAAAAAAAAAAAAAAA2444444AAAAA22224444
AIAAAAAAA22224A4444AAAAAAAAAAAAAAAAAAAAAAAAA2444444AAAAAA2222444
AIAAAAAAAA2222A4444AAAAAAAAAAAAAAAAAAAAAAAAA2444444AAAAAA2222444
AIAAAAAAAA2222A4444AAAAAAAAAAAAAAAAAAAAAAAAA2244444AAAAAA2222444
AIAAAAAAAA2222A4444AAAAAAAAAAAAAAAAAAAAAAAAA2244444AAAAAAA222244
AIAAAAAAAAA222A4444AAAAAAAAAAAAAAAAAAAAAAAAA2244444AAAAAAA222244
AIAAAAAAAAA222A4444AAAAAAAAAAAAAAAAAAAAAAAAA2224444AAAAAAA222244
AIAAAAAAAAA222A4444AAAAAAAAAAAAAAAAAAAAAAAAA2224444AAAAAAAA22224
AIAAAAAAAAAA22A2444AAAAAAAAAAAAAAAAAAAAAAAAA2224444AAAAAAAA22224
AIAAAAAAAAAA22A2444AAAAAAAAAAAAAAAAAAAAAAAAA2222444AAAAAAAA22224
AIAAAAAAAAAA22A2444AAAAAAAAAAAAAAAAAAAAAAAAA2222444AAAAAAAAA2222
AIAAAAAAAAAAA2A2244AAAAAAAAAAAAAAAAAAAAAAAAA2222444AAAAAAAAA2222
AIAAAAAAAAAAA2A2244AAAAAAAAAAAAAAAAAAAAAAAAAA222244AAAAAAAAA2222
AIAAAAAAAAAAA2A2244AAAAAAAAAAAAAAAAAAAAAAAAAA222244AAAAAAAAAA222
AIAAAAAAAAAAAAA2224AAAAAAAAAAAAAAAAAAAAAAAAAA222244AAAAAAAAAA222
AIAAAAAAAAAAAAA2224AAAAAAAAAAAAAAAAAAAAAAAAAAA22224AAAAAAAAAA222
AIAAAAAAAAAAAAA2224AAAAAAAAAAAAAAAAAAAAAAAAAAA22224AAAAAAAAAAA22
AIAAAAAAAAAAAAA2222AAAAAAAAAAAAAAAAAAAAAAAAAAA22224AAAAAAAAAAA22
AIAAAAAAAAAAAAA2222AAAAAAAAAAAAAAAAAAAAAAAAAAAA2222AAAAAAAAAAA22
AIAAAAAAAAAAAAA2222AAAAAAAAAAAAAAAAAAAAAAAAAAAA2222AAAAAAAAAAAA2
AIAAAAAAAAAAAAAA222AAAAAAAAAAAAAAAAAAAAAAAAAAAA2222AAAAAAAAAAAA2
AIAAAAAAAAAAAAAA222AAAAAAAAAAAAAAAAAAAAAAAAAAAAA222AAAAAAAAAAAA2
A2AAAAAAAAAAAAAA222AAAAAAAAAAAAAAAAAAAAAAAAAAAAA222AAAAAAAAAAAA2
A2AAAAAAAAAAAAAA222AAAAAAAAAAAAAAAAAAAAAAAAAAAAA222AAAAAAAAAAAAA
A2AAAAAAAAAAAAAAA22AAAAAAAAAAAAAAAAAAAAAAAAAAAAA222AAAAAAAAAAAAA
A2AAAAAAAAAAAAAAA22AAAAAAAAAAAAAAAAAAAAAAAAAAAAAA22AAAAAAAAAAAAA
AAAAAAAAAAAAAAAAA22AAAAAAAAAAAAAAAAAAAAAAAAAAAAAA22AAAAAAAAAAAAA
AAAAAAAAAAAAAAAAAA2AAAAAAAAAAAAAAAAAAAAAAAAAAAAAA22AAAAAAAAAAAAA
AAAAAAAAAAAAAAAAAA2AAAAAAAAAAAAAAAAAAAAAAAAAAAAAAA2AAAAAAAAAAAAA
AAAAAAAAAAAAAAAAAAAAAAAAAAAAAAAAAAAAAAAAAAAAAAAAAA2AAAAAAAAAAAAA
AAAAAAAAAAAAAAAAAAAAAAAAAAAAAAAAAAAAAAAAAAAAAAAAAAAAAAAAAAAAAAAA
AAAAAAAAAAAAAAAAAAAAAAAAAAAAAAAAIAAAAAAAAAAAAAAAAAAAAAAAAAAAAAAA
AAAAAAAAAAAAAAAAAAAAAAAAAAAAAAAAIIAAAAAAAAAAAAAAAAAAAAAAAAAAAAAA
AAAAAAAAAAAAAAAAAAAAAAAAAAAAAAAAIIIAAAAAAAAAAAAAAAAAAAAAAAAAAAAA
AAAAAAAAAAAAAAAAAAAAAAAAAAAAAAAAIIIIAAAAAAAAAAAAAAAAAAAAAAAAAAAA
AAAAAAAAAAAAAAAAAAAAAAAIAAAAAAAAIIIIAAAAAAAAAAAAAAAAAAAAAAAAAAAA
AAAAAAAAAAAAAAAAAAAAAAAIIAAAAAAAIIIIAAAAAAAAAAAAAAAAAAAAAAAAAAAA
AAAAAAAAAAAAAAAAAAAAAAAIIIAAAAAAIIIIAAAAAAAAAAAAAAAAAAAAAAAAAAAA
AAAAAAAAAAAAAAAAAAAAAAAIIIIAAAAAIIIIAAAAAAAAAAAAAAAAAAAAAAAAAAAA
AAAAAAAAAAAAAAAAAAAAAAAIIIIIAAAAIIIIAAAAAAAAAAAAAAAAAAAAAAAAAAAA
AAAAAAAAAAAAAAAAAAAAAAAIIIIIAAAAIIIIAAIAAAAAAAAAAAAAAAAAAAAAAAAA
AAAAAAAAAAAAAAAAAAAAAAAIIIIIAAAAIIIIAAIIAAAAAAAAAAAAAAAAAAAAAAAA
AAAAAAAAAAAAAAAAAAAAAAAIIIIIAAAAIIIIAAIIAAAAAAAAAAAAAAAAAAAAAIAA
AAAAAAAAAAAAAAAAAAAAAAAIIIIIAAAAIIIIAAIIAAAAAAAAAAAAAAAAAAAAAIIA
AAAAAAAAAAAAAAAAAAAAAAAIIIIIAAAAIIIIAAIIAAAAAAAAAAAAAAAAAAAAAIII
AIAAAAAAAAAAAAAAAAAAAAAIIIIIAAAAIIIIAAIIAAAAAAAAAAAAAAAAAAAAAIII
AIIAAAAAAAAAAAAAAAAAAAAIIIIIAAAAIIIIAAIIAAAAAAAAAAAAAAAAAAAAAIII
AIIAAIAAAAAAAAAAAAAAAAAIIIIIAAAAIIIIAAIIAAAAAAAAAAAAAAAAAAAAAIII
AIIAAIAAAAAAAAAAAAAAAAAIIIIIAAAAIIIIAAIIAAIAAAAAAAAAAAAAAAAAAIII
AIIAAIAAAAAAAAAAAAAAAAAIIIIIAAAAIIIIAAIIAAIIAAAAAAAAAAAAAAAAAIII
AIIAAIAAAAAAAAAAAAAAAAAIIIIIAAAAIIIIAAIIAAIIIAAAAAAAAAAAAAAAAIII
AIIAAIAAAAAAAAAAAAAAAAAIIIIIAAAAIIIIAAIIAAIIIIAAAAAAAAAAAAAAAIII
AIIAAIAAAAAAAAAAAAAAAAAIIIIIAAAAIIIIAAIIAAIIIIIAAAAAAAAAAAAAAIII
AIIAAIAAAAAAAAAAAAAAAAAIIIIIAAAAIIIIAAIIAAIIIIIIAAAAAAAAAAAAAIII
AIIAAIAAAAAAAAAAAAAAAAAIIIIIAAAAIIIIAAIIAAIIIIIIIAAAAAAAAAAAAIII
AIIAAIAAAAAAAAAAAAAAAAAIIIIIAAAAIIIIAAIIAAIIIIIIIIAAAAAAAAAAAIII
AIIAAIAAAAAAAAAAAAAAAAAIIIIIAAAAIIIIAAIIAAIIIIIIIIIAAAAAAAAAAIII
AIIAAIAAAAAAAAAAAAAAAIAIIIIIAAAAIIIIAAIIAAIIIIIIIIIAAAAAAAAAAIII
AIIAAIAAAAAAAAAAAAAAAIAIIIIIAAAAIIIIAAIIAAIIIIIIIIIAAAIAAAAAAIII
AIIAAIAAAAAAAAAAAAAAAIAIIIIIAAAAIIIIAAIIAIIIIIIIIIIAAAIAAAAAAIII
AIIAAIAAAAAAAAAAAAAAAIAIIIIIAAAAIIIIAAIIAIIIIIIIIIIIAAIAAAAAAIII
AIIAAIAAAAAAAAAAAAAAIIAIIIIIAAAAIIIIAAIIAIIIIIIIIIIIAAIAAAAAAIII
AIIAAIAAAAAAAAAAAAAAIIAIIIIIAAAAIIIIAAIIAIIIIIIIIIIIIAIAAAAAAIII
AIIAAIAAAAAAAAAAAAAAIIAIIIIIAAAAIIIIAAIIAIIIIIIIIIIIIIIAAAAAAIII
AIIAAIAAIAAAAAAAAAAAIIAIIIIIAAAAIIIIAAIIAIIIIIIIIIIIIIIAAAAAAIII
AIIAAIAAIAIAAAAAAAAAIIAIIIIIAAAAIIIIAAIIAIIIIIIIIIIIIIIAAAAAAIII
AIIAAIAAIAIIAAAAAAAAIIAIIIIIAAAAIIIIAAIIAIIIIIIIIIIIIIIAAAAAAIII
AIIAAIAAIAIIIAAAAAAAIIAIIIIIAAAAIIIIAAIIAIIIIIIIIIIIIIIAAAAAAIII
AIIAAIAAIAIIIIAAAAAAIIAIIIIIAAAAIIIIAAIIAIIIIIIIIIIIIIIAAAAAAIII
AIIAAIAAIAIIIIIAAAAAIIAIIIIIAAAAIIIIAAIIAIIIIIIIIIIIIIIAAAAAAIII
AIIAAIAAIAIIIIIIAAAAIIAIIIIIAAAAIIIIAAIIAIIIIIIIIIIIIIIAAAAAAIII
AIIAAIAAIAIIIIIIIAAAIIAIIIIIAAAAIIIIAAIIAIIIIIIIIIIIIIIAAAAAAIII
AIIAAIAAIAIIIIIIIIAAIIAIIIIIAAAAIIIIAAIIAIIIIIIIIIIIIIIAAAAAAIII
AIIAAIAAIAIIIIIIIIIAIIAIIIIIAAAAIIIIAAIIAIIIIIIIIIIIIIIAAAAAAIII
AIIAAIAAIAIIIIIIIIIAIIAIIIIIAAAAIIIAAA22A4444444444IIIIAAAAAAIII
AIIAAIAAIAIIIIIIIIIAIIAIIIIIAAAAIIIAAA22A24444444444IIIAAAAAAIII
AIIAAIAAIAIIIIIIIIIAIIAIIIIIAAAAIIIAAA22A224444444444IIAAAAAAIII
AIIAAIAAIAIIIIIIIIIAIIAIIIIIAAAAIIIAAAA2A2224444444444IAAAAAAIII
AIIAAIAAIAIIIIIIIIIAIIAIIIIIAAAAIIIAAAAAA22224444444444AAAAAAIII
AIIAAIAAIAIIIIIIIIIAIIAIIIIIAAAAIIIAAAAAA22222444444444AAAAAAIII
AIIAAIAAIAIIIIIIIIIAIIAIIIIIAAAAIIIAAAAAAA2222244444444AAAAAAIII
AIIAAIAAIAIIIIIIIIIAIIAIIIIIAAAAIIIAAAAAAAA222224444444AAAAAAIII
AIIAAIAAIAIIIIIIIIIAIIAIIIIIAAAAIIIAAAAAAAAA22222444444AAAAAAIII
AIIAAIAAIAIIIIIIIIIAIIAIIIIIAAAAIIIAAAAAAAAAA2222244444AAAAAAIII
AIIAAIAAIAIIIIIIIIIAIIAIIIIIAAAAIIIAAAAAAAAAAA222224444AAAAAAIII
AIIAAIAAIAIIIIIIIIIAIIAIIIIIAAAAIIIAAAAAAAAAAAA22222444AAAAAA4II
AIIAAIAAIAIIIIIIIIIAIIAIIIIIAAAAIIIAAAAAAAAAAAAA2222244AAAAAA44I
AIIAAIAAIAIIIIIIIIIAIIAIIIIIAAAAIIIAAAAAAAAAAAAAA222224AAAAAA444
AIIAAIAAIAIIIIIIIIIAIIAIIIIIAAAAIIIAAAAAAAAAAAAAAA22222AAAAAA444
AIIAAIAAIAIIIIIIIIIAIIAIIIIIAAAAIIIAAAAAAAAAAAAAAAA2222AAAAAA444
AIIAA2AA2A444444444AIIAIIIIIAAAAIIIAAAAAAAAAAAAAAAA2222AAAAAA444
AIIAA2AA2A444444444AIIAIIIIIAAAAIIIAAAAAAAAAAAAAAAAA222AAAAAA444
AIIAA2AA2A444444444A22A22444AAAA444AAAAAAAAAAAAAAAAA222AAAAAA444
AIIAA2AA2A444444444AA2A22244AAAA444AAAAAAAAAAAAAAAAA222AAAAAA444
AIIAA2AA2A444444444AA2A22244AAAA444AAAAAAAAAAAAAAAAAA22AAAAAA444
AIIAAAAA2A244444444AA2A22244AAAA444AAAAAAAAAAAAAAAAAA22AAAAAA444
AIIAAAAA2A244444444AAAA22224AAAA444AAAAAAAAAAAAAAAAAA22AAAAAA444
AIIAAAAA2A244444444AAAA22224AAAA444AAAAAAAAAAAAAAAAAAA2AAAAAA444
AIIAAAAA2A224444444AAAA22224AAAA444AAAAAAAAAAAAAAAAAAA2AAAAAA444
AIIAAAAA2A224444444AAAA22222AAAA444AAAAAAAAAAAAAAAAAAA2AAAAAA444
AIIAAAAA2A224444444AAAA22222AAAA444AAAAAAAAAAAAAAAAAAAAAAAAAA444
AIIAAAAA2A222444444AAAA22222AAAA444AAAAAAAAAAAAAAAAAAAAAAAAAA444
AIIAAAAA2A222444444AAAAA2222AAAA444AAAAAAAAAAAAAAAAAAAAAAAAAA444
AIIAAAAAAA222244444AAAAA2222AAAA444AAAAAAAAAAAAAAAAAAAAAAAAAA444
AIIAAAAAAA222244444AAAAAA222AAAA444AAAAAAAAAAAAAAAAAAAAAAAAAA444
AIIAAAAAAA222244444AAAAAA222AAAA444AAAAAAAAAAAAAAAAAAAAAAAAAA244
AIIAAAAAAA222224444AAAAAA222AAAA444AAAAAAAAAAAAAAAAAAAAAAAAAA244
AIIAAAAAAA222224444AAAAAAA22AAAA444AAAAAAAAAAAAAAAAAAAAAAAAAA244
AIIAAAAAAA222224444AAAAAAA22AAAA444AAAAAAAAAAAAAAAAAAAAAAAAAA224
AIIAAAAAAAA22222444AAAAAAA22AAAA444AAAAAAAAAAAAAAAAAAAAAAAAAA224
AIIAAAAAAAA22222444AAAAAAAA2AAAA444AAAAAAAAAAAAAAAAAAAAAAAAAA224
AIIAAAAAAAA22222444AAAAAAAA2AAAA444AAAAAAAAAAAAAAAAAAAAAAAAAA222
AIIAAAAAAAAA2222244AAAAAAAA2AAAA444AAAAAAAAAAAAAAAAAAAAAAAAAA222
AIIAAAAAAAAA2222244AAAAAAAAAAAAA244AAAAAAAAAAAAAAAAAAAAAAAAAA222
AIIAAAAAAAAAA222224AAAAAAAAAAAAA244AAAAAAAAAAAAAAAAAAAAAAAAAA222
AIIAAAAAAAAAA222224AAAAAAAAAAAAA224AAAAAAAAAAAAAAAAAAAAAAAAAA222
AIIAAAAAAAAAAA22222AAAAAAAAAAAAA224AAAAAAAAAAAAAAAAAAAAAAAAAA222
AIIAAAAAAAAAAA22222AAAAAAAAAAAAA222AAAAAAAAAAAAAAAAAAAAAAAAAA222
AIIAAAAAAAAAAA22222AAAAAAAAAAAAA222AAAAAAAAAAAAAAAAAAAAAAAAAAA22
AIIAAAAAAAAAAAA2222AAAAAAAAAAAAA222AAAAAAAAAAAAAAAAAAAAAAAAAAA22
AIIAAAAAAAAAAAA2222AAAAAAAAAAAAA222AAAAAAAAAAAAAAAAAAAAAAAAAAAA2
AIIAAAAAAAAAAAAA222AAAAAAAAAAAAA222AAAAAAAAAAAAAAAAAAAAAAAAAAAA2
AIIAAAAAAAAAAAAA222AAAAAAAAAAAAA222AAAAAAAAAAAAAAAAAAAAAAAAAAAAA
AIIAAAAAAAAAAAAAA22AAAAAAAAAAAAA222AAAAAAAAAAAAAAAAAAAAAAAAAAAAA
AIIAAAAAAAAAAAAAA22AAAAAAAAAAAAAA22AAAAAAAAAAAAAAAAAAAAAAAAAAAAA
AIIAAAAAAAAAAAAAAA2AAAAAAAAAAAAAA22AAAAAAAAAAAAAAAAAAAAAAAAAAAAA
AIIAAAAAAAAAAAAAAA2AAAAAAAAAAAAAAA2AAAAAAAAAAAAAAAAAAAAAAAAAAAAA
AIIAAAAAAAAAAAAAAAAAAAAAAAAAAAAAAA2AAAAAAAAAAAAAAAAAAAAAAAAAAAAA
AIIAAAAAAAAAAAAAAAAAAAAAAAAAAAAAAAAAAAAAAAAAAAAAAAAAAAAAAAAAAAAA
AIIAAAAAAAAAAAAAAAAAAAAAAAAAAAAAAAAAAAAAAAAAAAAAIAAAAAAAAAAAAAAA
AIIAAAAAAAAAAAAAAAAAAAAAAAAAAAAAAAAAAAAAAAAAAAAAIIAAAAAAAAAAAAAA
AIIAAAAAAAAAAAAAAAAAAAAAAAAAAAAAAAAAAAAAAAAAAAAAIIIAAAAAAAAAAAAA
AIIAAAAAAAAAAAAAAAAAAAAAAAAAAAAAAAAAAAAAAAAAAAIAIIIAAAAAAAAAAAAA
AIIAAAAAAAAAAAAAAAAAAAAAAAAAAAAAAAAAAAAAAAIAAAIAIIIAAAAAAAAAAAAA
AIIAAAAAAAAAAAAAAAAAAAAAAAAAAAAAAAAAAAAAAAIIAAIAIIIAAAAAAAAAAAAA
AIIAAAAAAAAAAAAAAAAAAAAAAAAAAAAAAAAAAAAAAAIIIAIAIIIAAAAAAAAAAAAA
AIIAAAAAAAAAAAAAAAAAAAAAAAAAAAAAAAAAAAAAAAIIIIIAIIIAAAAAAAAAAAAA
AIIAAAAAAAAAAAAAAAAAAAAAAAAAAAAAAAAAAAAAAAIIIIIAIIIAIAAAAAAAAAAA
AIIAAAAAAAAAAAAAAAAAAAAAAAAAAAAAAAAAAAAAAAIIIIIAIIIAIIAAAAAAAAAA
AIIAAAAAAAAAAAAAAAAAAAAAAAAAAAAAAAAAAAAAAAIIIIIAIIIAIIIAAAAAAAAA
AIIAAAAAAAAAAAAAAAAAAAAAAAAAAAAAAAAAAAAAAAIIIIIAIIIAIIIIAAAAAAAA
AIIAAAAAIAAAAAAAAAAAAAAAAAAAAAAAAAAAAAAAAAIIIIIAIIIAIIIIAAAAAAAA
AIIAAAAAIIAAAAAAAAAAAAAAAAAAAAAAAAAAAAAAAAIIIIIAIIIAIIIIAAAAAAAA
AIIAAAAAIIIAAAAAAAAAAAAAAAAAAAAAAAAAAAAAAAIIIIIAIIIAIIIIAAAAAAAA
AIIAAAAAIIIIAAAAAAAAAAAAAAAAAAAAAAAAAAAAAAIIIIIAIIIAIIIIAAAAAAAA
AIIAAAAAIIIIIAAAAAAAAAAAAAAAAAAAAAAAAAAAAAIIIIIAIIIAIIIIAAAAAAAA
AIIAAAAAIIIIIIAAAAAAAAAAAAAAAAAAAAAAAAAAAAIIIIIAIIIAIIIIAAAAAAAA
AIIAIAAAIIIIIIAAAAAAAAAAAAAAAAAAAAAAAAAAAAIIIIIAIIIAIIIIAAAAAAAA
AIIAIIAAIIIIIIAAAAAAAAAAAAAAAAAAAAAAAAAAAAIIIIIAIIIAIIIIAAAAAAAA
AIIAIIAAIIIIIIAAAAAAAAAAAAAAAAAAAAAAAAAAIAIIIIIAIIIAIIIIAAAAAAAA
AIIAIIAAIIIIIIAAAAAAAAAAAAAAAAAAAAAAAAAAIIIIIIIAIIIAIIIIAAAAAAAA
AIIAIIAAIIIIIIAAAAAAAAAAAAAAAAAAAAAAAAAAIIIIIIIAIIIAIIIIIAAAAAAA
AIIAIIAAIIIIIIIAAAAAAAAAAAAAAAAAAAAAAAAAIIIIIIIAIIIAIIIIIAAAAAAA
AIIAIIAAIIIIIIIIAAAAAAAAAAAAAAAAAAAAAAAAIIIIIIIAIIIAIIIIIAAAAAAA
AIIAIIAAIIIIIIIIIAAAAAAAAAAAAAAAAAAAAAAAIIIIIIIAIIIAIIIIIAAAAAAA
AIIAIIAAIIIIIIIIIIAAAAAAAAAAAAAAAAAAAAAAIIIIIIIAIIIAIIIIIAAAAAAA
AIIAIIAAIIIIIIIIIIIAAAAAAAAAAAAAAAAAAAAAIIIIIIIAIIIAIIIIIAAAAAAA
AIIAIIAAIIIIIIIIIIIIAAAAAAAAAAAAAAAAAAAAIIIIIIIAIIIAIIIIIAAAAAAA
AIIAIIAAIIIIIIIIIIIIIAAAAAAAAAAAAAAAAAAAIIIIIIIAIIIAIIIIIAAAAAAA
AIIAIIAAIIIIIIIIIIIIIIAAAAAAAAAAAAAAAAAAIIIIIIIAIIIAIIIIIAAAAAAA
AIIAIIAAIIIIIIIIIIIIIIIAAAAAAAAAAAAAAAAAIIIIIIIAIIIAIIIIIAAAAAAA
AIIIIIAAIIIIIIIIIIIIIIIAAAAAAAAAAAAAAAAAIIIIIIIAIIIAIIIIIAAAAAAA
AIIIIIAAIIIIIIIIIIIIIIIAAAAAAAAAAAAAAAAAIIIIIIIAIIIAIIIIIAAIAAAA
AIIIIIAAIIIIIIIIIIIIIIIAAAAAAAAAAAAAAAAAIIIIIIIAIIIAIIIIIAAIIAAA
AIIIIIAAIIIIIIIIIIIIIIIAAAAAAAAAAAAAAAAAIIIIIIIAIIIAIIIIIAAIIIAA
AIIIIIAAIIIIIIIIIIIIIIIAAAAAAAAAAAAAIAAAIIIIIIIAIIIAIIIIIAAIIIAA
AIIIIIAAIIIIIIIIIIIIIIIAAAAAAAAAAAAAIIAAIIIIIIIAIIIAIIIIIAAIIIAA
AIIIIIAAIIIIIIIIIIIIIIIIAAAAAAAAAAAAIIAAIIIIIIIAIIIAIIIIIAAIIIAA
AIIIIIAAIIIIIIIIIIIIIIIIAAAAAAAAAAAAIIAAIIIIIIIAIIIAIIIIIAAIIIIA
AIIIIIAAIIIIIIIIIIIIIIIIAAAAAAAAAAAAIIAAIIIIIIIAIIIAIIIIIAAIIIII
AIIIIIAAIIIIIIIIIIIIIIIIAAAAAAAAAAAIIIAAIIIIIIIAIIIAIIIIIAAIIIII
AIIIIIAAIIIIIIIIIIIIIIIIAAAAAIAAAAAIIIAAIIIIIIIAIIIAIIIIIAAIIIII
AIIIIIAAIIIIIIIIIIIIIIIIAAAAAIIAAAAIIIAAIIIIIIIAIIIAIIIIIAAIIIII
AIIIIIAAIIIIIIIIIIIIIIIIAAAAAIIAIAAIIIAAIIIIIIIAIIIAIIIIIAAIIIII
AIIIIIAAIIIIIIIIIIIIIIIIAAAAAIIAIIAIIIAAIIIIIIIAIIIAIIIIIAAIIIII
AIIIIIAAIIIIIIIIIIIIIIIIAAAAAIIAIIAIIIAAIIIIIIIAIIAA22244AA44III
AIIIIIAAIIIIIIIIIIIIIIIIAAAAAIIAIIAIIIAAIIIIIIIAIIAA22224AA444II
AIIIIIAAIIIIIIIIIIIIIIIIAAAAAIIAIIAIIIAAIIIIIIIAIIAAA2222AA4444I
AIIIIIAAIIIIIIIIIIIIIIIIAAAAAIIAIIAIIIAAIIIIIIIAIIAAAA222AA44444
AIIIIIAAIIIIIIIIIIIIIIIIAAAAAIIAIIAIIIAAIIIIIIIAIIAAAAA22AA44444
AIIIIIAAIIIIIIIIIIIIIIIIAAAAAIIAIIAIIIAAIIIIIIIAIIAAAAAA2AA24444
AIIIIIAAIIIIIIIIIIIIIIIIAAAAAIIAIIAIIIAAIIIIIIIAIIAAAAAAAAA22444
AIIIIIAAIIIIIIIIIIIIIIIIAAAAAIIAIIAIIIAAIIIIIIIAIIAAAAAAAAA22244
AIIIIIAAIIIIIIIIIIIIIIIIAAAAAIIAIIAIIIAAIIIIIIIAIIAAAAAAAAA22224
AIIIIIAAIIIIIIIIIIIIIIIIAAAAAIIAIIAIIIAAIIIIIIIAIIAAAAAAAAAA2222
AIIIIIAAIIIIIIIIIIIIIIIIAAAAAIIAIIAIIIAAIIIIIIIAIIAAAAAAAAAAA222
AIIIIIAAIIIIIIIIIIIIIIIIAAAAAIIAIIAIIIAAIIIIIIIAIIAAAAAAAAAAAA22
AIIIIIAAIIIIIIIIIIIIIIIIAAAAAIIAIIAIIIAAIIIIIIIAIIAAAAAAAAAAAAA2
AIIIIIAAIIIIIIIIIIIIIIIIAAAAAIIAIIAIIIAAIIIIIIIAIIAAAAAAAAAAAAAA
AIIIIIAAIIIIIIIIIIIA2222AAAAA4IAIIAIIIAAIIIIIIIAIIAAAAAAAAAAAAAA
AIIIIIAAIIIIIIIIIIIA2222AAAAA4IAIIAA22AA444444IAIIAAAAAAAAAAAAAA
AIIIIIAAIIIIIIIIIIIAA222AAAAA44AIIAA22AA444444IAIIAAAAAAAAAAAAAA
AIIIIIAAIIIIIIIIIIIAA222AAAAA44AIIAAA2AA2444444AIIAAAAAAAAAAAAAA
AIIIIIAAIIIIIIIIIIIAAA22AAAAA44AIIAAA2AA2444444AIIAAAAAAAAAAAAAA
AIIIIIAAIIIIIIIIIIIAAA22AAAAA44AIIAAAAAA2244444AIIAAAAAAAAAAAAAA
AIIIIIAAIIIIIIIIIIIAAAA2AAAAA44A4IAAAAAA2244444AIIAAAAAAAAAAAAAA
AIIIIIAAIIIIIIIIIIIAAAA2AAAAA44A4IAAAAAA2224444A4IAAAAAAAAAAAAAA
AIIIIIAAIIIIIIIIIIIAAAAAAAAAA44A44AAAAAA2224444A4IAAAAAAAAAAAAAA
AIIIIIAAIIIIIIIIIIIAAAAAAAAAA44A44AAAAAA2222444A44AAAAAAAAAAAAAA
AIIIIIAAIIIIIIIIIIIAAAAAAAAAA44A44AAAAAAA222244A44AAAAAAAAAAAAAA
AIIIIIAAIIIIIIIIIIIAAAAAAAAAA24A44AAAAAAA222244A44AAAAAAAAAAAAAA
AIIIIIAAIIIIIIIIIIIAAAAAAAAAA24A44AAAAAAAA22224A44AAAAAAAAAAAAAA
AIIIIIAAIIIIIIIIIIIAAAAAAAAAA22A44AAAAAAAA22224A44AAAAAAAAAAAAAA
AIIIIIAAIIIIIIIIIIIAAAAAAAAAA22A44AAAAAAAAA2222A44AAAAAAAAAAAAAA
AIIIIIAAIIIIIIIIIIIAAAAAAAAAA22A44AAAAAAAAAA222A44AAAAAAAAAAAAAA
AIIIIIAAIIIIIIIIIIIAAAAAAAAAA22A24AAAAAAAAAA222A44AAAAAAAAAAAAAA
AIIIIIAAIIIIIIIIIIIAAAAAAAAAA22A24AAAAAAAAAAA22A24AAAAAAAAAAAAAA
AIIIIIAAIIIIIIIIIIIAAAAAAAAAAA2A22AAAAAAAAAAA22A24AAAAAAAAAAAAAA
AIIIIIAAIIIIIIIIIIIAAAAAAAAAAA2A22AAAAAAAAAAAA2A22AAAAAAAAAAAAAA
AIIIIIAAIIIIIIIIIIIAAAAAAAAAAAAA22AAAAAAAAAAAA2A22AAAAAAAAAAAAAA
AIIIIIAAIIIIIIIIIIIAAAAAAAAAAAAA22AAAAAAAAAAAAAA22AAAAAAAAAAAAAA
AIIIIIAAIIIIIIIIIIIAAAAAAAAAAAAAA2AAAAAAAAAAAAAA22AAAAAAAAAAAAAA
AIIIIIAAIIIIIIIIIIIAAAAAAAAAAAAAA2AAAAAAAAAAAAAAA2AAAAAAAAAAAAAA
AIIIIIAAIIIIIIIIIIIAAAAAAAAAAAAAAAAAAAAAAAAAAAAAA2AAAAAAAAAAAAAA
AIIIIIAAIIIIIIIIIIIAAAAAAAAAAAAAAAAAAAAAAAAAAAAAAAAAAAAAAAAAAAAA
AIIIIIAAIIIIIIIIIIIAAAAAAAAAAAAAAAAAAAAAAAAAAAAAAAAAAAAAAAAAAAIA
AIIIIIAAIIIIIIIIIIIAAAAAAAAAAAAAAAAAAAAAAAAAAAAAAAAAAAAAAIAAAAIA
AIIIIIAAIIIIIIIIIIIAAAAAAAAAAAAAAAAAAAAAAAAAAAAAAAAAAAAAAIIAAAIA
AIIIIIAAIIIIIIIIIIIAAAAAAAAAAAAAAAAAAAAAAAAAAAAAAAAAAAAAAIIIAAIA
AIIIIIAAIIIIIIIIIIIAAAAAAAAAAAAAAAAAAAAAAAAAAAAAAAAAAAAAAIIIIAIA
AIIIIIAAIIIIIIIIIIIAAAIAAAAAAAAAAAAAAAAAAAAAAAAAAAAAAAAAAIIIIAIA
AIIIIIAAIIIIIIIIIIIAAAIIAAAAAAAAAAAAAAAAAAAAAAAAAAAAAAAAAIIIIAIA
AIIIIIAAIIIIIIIIIIIAAAIIIAAAAAAAAAAAAAAAAAAAAAAAAAAAAAAAAIIIIAIA
AIIIIIAAIIIIIIIIIIIAAAIIIIAAAAAAAAAAAAAAAAAAAAAAAAAAAAAAAIIIIAIA
AIIIIIAAIIIIIIIIIIIAAAIIIIIAAAAAAAAAAAAAAAAAAAAAAAAAAAAAAIIIIAIA
AIIIIIAAIIIIIIIIIIIAAAIIIIIIAAAAAAAAAAAAAAAAAAAAAAAAAAAAAIIIIAIA
AIIIIIAAIIIIIIIIIIIAAAIIIIIIIAAAAAAAAAAAAAAAAAAAAAAAAAAAAIIIIAIA
AIIIIIAAIIIIIIIIIIIAAAIIIIIIIIAAAAAAAAAAAAAAAAAAAAAAAAAAAIIIIAIA
AIIIIIAAIIIIIIIIIIIAAAIIIIIIIIAAIAAAAAAAAAAAAAAAAAAAAAAAAIIIIAIA
AIIIIIAAIIIIIIIIIIIAAAIIIIIIIIAAIIAAAAAAAAAAAAAAAAAAAAAAAIIIIAIA
AIIIIIAAIIIIIIIIIIIAAAIIIIIIIIAAIIIAAAAAAAAAAAAAAAAAAAAAAIIIIAIA
AIIIIIAAIIIIIIIIIIIAAAIIIIIIIIAAIIIIAAAAAAAAAAAAAAAAAAAAAIIIIAIA
AIIIIIAAIIIIIIIIIIIAAAIIIIIIIIAAIIIIAAAAAAAAAAAAAAAAIAAAAIIIIAIA
AIIIIIAAIIIIIIIIIIIAAAIIIIIIIIAAIIIIAAAAAAAAAAAAAAAAIIAAAIIIIAIA
AIIIIIAAIIIIIIIIIIIAAAIIIIIIIIAAIIIIAAAAAAAAAAAAAAAIIIAAAIIIIAIA
AIIIIIAAIIIIIIIIIIIAAAIIIIIIIIAAIIIIAAAAAAAIAAAAAAAIIIAAAIIIIAIA
AIIIIIAAIIIIIIIIIIIAAAIIIIIIIIAAIIIIAAAAAAAIAAAAAAIIIIAAAIIIIAIA
AIIIIIAAIIIIIIIIIIIAAAIIIIIIIIAAIIIAAAAAAAA4AAAAAA4IIIAAAIIIIAIA
AIIIIIAAIIIIIIIIIIIAAAIIIIIIIIAAIIIAAAAAAAA4AAAAAA4AIIAAAIIIIAIA
AIIIIIAAIIIIIIIIIIIAAAIIIIIIIIAAIIIAAAAAAAA4AAAAAA4AA2AAA2444A4A
AIIIIIAAIIIIIIIIIIIAAAIIIIIIIIAAIIIAAAAAAAA4AAAAAA4AAAAAA2244A4A
AIIIIIAAIIIIIIIIIIIAAAIIIIIIIIAAIIIAAAAAAAA2AAAAAA4AAAAAA2244A4A
AIIIIIAAIIIIIIIIIIIAAAIIIIIIIIAAIIIAAAAAAAA2AAAAAA4AAAAAA2224A4A
AIIIIIAAIIIIIIIIIIIAAAIIIIIIIIAAIIIAAAAAAAA2AAAAAA4AAAAAA2222A4A
AIIIIIAAIIIIIIIIIIIAAAIIIIIIIIAAIIIAAAAAAAA2AAAAAA4AAAAAAA222A2A
AIIIIIAAIIIIIIIIIIIAAAIIIIIIIIAAIIIAAAAAAAA2AAAAAA4AAAAAAAA22A2A
AIIIIIAAIIIIIIIIIIIAAAIIIIIIIIAAIIIAAAAAAAAAAAAAAA4AAAAAAAA22A2A
AIIIIIAAIIIIIIIIIIIAAAIIIIIIIIAAIIIAAAAAAAAAAAAAAA4AAAAAAAAA2A2A
AIIIIIAAIIIIIIIIIIIAAAIIIIIIIIAAIIIAAAAAAAAAAAAAAA4AAAAAAAAAAA2A
AIIIIIAAIIIIIIIIIIIAAAIIIIIIIIAAIIIAAAAAAAAAAAAAAA2AAAAAAAAAAA2A
AIIIIIAAIIIIIIIIIIIAAAIIIIIIIIAAIIIAAAAAAAAAAAAAAA2AAAAAAAAAAAAA
AIIIIIAAIIIIIIIIIIIAAAIIIIIIIIAAIIIAAAAAAAAAAAAAAAAAAAAAAAAAAAAA
AIIIIIAAIIIIIIIIIIIAAAIIIIIIIIAAIIIIAAAAAAAAAAAAAAAAAAAAAAAAAAAA
AIIIIIAAIIIIIIIIIIIAAAIIIIIIIIAAIIIIAAAAAAIAAAAAAAAAAAAAAAAAAAAA
AIIIIIAAIIIIIIIIIIIAAAIIIIIIIIAAIIIIAAAAAAIIAAAAAAAAAAAAAAAAAAAA
AIIIIIAAIIIIIIIIIIIAAAIIIIIIIIAAIIIIAAAAAAIIIAAAAAAAAAAAAAAAAAAA
AIIIIIAAIIIIIIIIIIIAAAIIIIIIIIAAIIIIAAAIAAIIIAAAAAAAAAAAAAAAAAAA
AIIIIIAAIIIIIIIIIIIAAAIIIIIIIIAAIIIIAAAIIAIIIAAAAAAAAAAAAAAAAAAA
AIIIIIAAIIIIIIIIIIIAAAIIIIIIIIAAIIIIAAAIIIIIIAAAAAAAAAAAAAAAAAAA
AIIIIIAAIIIIIIIIIIIAAAIIIIIIIIAAIIIIAAAIIIIIIIAAAAAAAAAAAAAAAAAA
AIIIIIAAIIIIIIIIIIIAAAIIIIIIIIAAIIIIAAAIIIIIIIIAAAAAAAAAAAAAAAAA
AIIIIIAAIIIIIIIIIIIAAAIIIIIIIIAAIIIIAAAIIIIIIIIIAAAAAAAAAAAAAAAA
AIIIIIAAIIIIIIIIIIIAAAIIIIIIIIAAIIIIAAAIIIIIIIIIIAAAAAAAAAAAAAAA
AIIIIIAAIIIIIIIIIIIAAAIIIIIIIIAAIIIIAAAIIIIIIIIIIIAAAAAAAAAAAAAA
AIIIIIAAIIIIIIIIIIIAAAIIIIIIIIAAIIIIAAAIIIIIIIIIIIAAAIAAAAAAAAAA
AIIIIIAAIIIIIIIIIIIAAAIIIIIIIIAAIIIIIAAIIIIIIIIIIIAAAIAAAAAAAAAA
AIIIIIAAIIIIIIIIIIIAAAIIIIIIIIAAIIIIIAAIIIIIIIIIIIAAAIAAAIAAAAAA
AIIIIIAAIIIIIIIIIIIAAAIIIIIIIIAAIIIIIAAIIIIIIIIIIIAAAIAAAIIAAAAA
AIIIIIAAIIIIIIIIIIIAAAIIIIIIIIAAIIIIIAAIIIIIIIIIIIAAAIAAAIIIAAAA
AIIIIIAAIIIIIIIIIIIAAAIIIIIIIIAAIIIIIAAIIIIIIIIIIIAAAIAAAIIIIAAA
AIIIIIAAIIIIIIIIIIIAAAIIIIIIIIAAIIIIIAAIIIIIIIIIIIAAAIAAAIIIIIAA
AIIIIIAAIIIIIIIIIIIAAAIIIIIIIIAAIIIIIAAIIIIIIIIIIIAAA2AAA44444AA
AIIIIIAAIIIIIIIIIIIAAAIIIIIIIIAAIIIIIAAIIIIIIIIIIIAAA2AAA24444AA
AIIIIIAAIIIIIIIIIIIAAAIIIIIIIIAAIIIIIAAIIIIIIIIIIIAAAAAAA22444AA
AIIIIIAAIIIIIIIIIIIAAAIIIIIIIIAAIIIIIAAIIIIIIIIIIIAAAAAAA22244AA
AIIIIIAAIIIIIIIIIIIAAAIIIIIIIIAAIIIIIAAIIIIIIIIIIIAAAAAAA22224AA
AIIIIIAAIIIIIIIIIIIAAAIIIIIIIIAAIIIIIAAIIIIIIIIIIIAAAAAAA22222AA
AIIIIIAAIIIIIIIIIIIAAAIIIIIIIIAAIIIIIAAIIIIIIIIIIIAAAAAAAA2222AA
AIIIIIAAIIIIIIIIIIIAAAIIIIIIIIAAIIIIIAAIIIIIIIIIIIAAAAAAAAA222AA
AIIIIIAAIIIIIIIIIIIAAAIIIIIIIIAAIIIIIAAIIIIIIIIIIIAAAAAAAAAA22AA
AIIIIIAAIIIIIIIIIIIAAAIIIIIIIIAAIIIIIAAIIIIIIIIIIIAAAAAAAAAAA2AA
AIIIIIAAIIIIIIIIIIIAAAIIIIIIIIAAIIIIIAAIIIIIIIIIIIAAAAAAAAAAAAAA
AIIIIIAAIIIIIIIIIIIAAAIIIIIIIIAAIIIIIAAIIIIIIIIIIIAAAAAIAAAAAAAA
AIIIIIAAIIIIIIIIIIIAAAIIIIIIIIAAIIIIIAAIIIIIIIIIIIAAAAAIIAAAAAAA
AIIIIIAAIIIIIIIIIIIAAAIIIIIIIIAAIIIIIAAIIIIIIIIIIIAAAAAIIIAAAAAA
AIIIIIAAIIIIIIIIIIIAAAIIIIIIIIAAIIIIIAAIIIIIIIIIIIAAAAAIIIIAAAAA
AIIIIIAAIIIIIIIIIIIAAAIIIIIIIIAAIIIIIAAIIIIIIIIIIIAAAAAIIIIIAAAA
AIIIIIAAIIIIIIIIIIIAAAIIIIIIIIAAIIIIIAAIIIIIIIIIIIAAAAAIIIIIIAAA
AIIIIIAAIIIIIIIIIIIAAAIIIIIIIIAAIIIIIAAIIIIIIIIIIIAAAAAIIIIIIIAA
AIIIIIAAIIIIIIIIIIIAAAIIIIIIIIAAIIIIIAAIIIIIIIIIIIAAAAAIIIIIIIIA
AIIIIIAAIIIIIIIIIIIAAAIIIIIIIIAAIIIIIAAIIIIIIIIIIIAAAAAIIIIIIIII
[MLOP] Prefetch Degree Mean: 15.68847
[MLOP] Prefetch Degree SD: 1.06769
[MLOP] Max Score Left Mean (%): 64.72507
[MLOP] Max Score Left SD (%): 18.99384
[MLOP] Max Score Right Mean (%): 99.29181
[MLOP] Max Score Right SD (%): 1.61017

Channel_0_RQ_row_buffer_hit 1447546
Channel_0_RQ_row_buffer_miss 1879219
Channel_0_WQ_row_buffer_hit 273072
Channel_0_WQ_row_buffer_miss 675679
Channel_0_WQ_full 5041
Channel_0_dbus_congested 3605700

avg_congested_cycle 96

DRAM_bw_pochs 2585924
DRAM_bw_level_0 944085
DRAM_bw_level_1 418952
DRAM_bw_level_2 0
DRAM_bw_level_3 1222887
