*************************************************
   ChampSim Multicore Out-of-Order Simulator
   Last compiled: Dec 11 2024 17:59:53
*************************************************
parsing config file: /home/functionmain/桌面/Pythia/config/bingo.ini

trace_0 /home/functionmain/桌面/Pythia/traces/437.leslie3d-149B.champsimtrace.xz
adding L2C_PREFETCHER: Bingo
Initialize SHIP state
warmup_instructions 100000000
simulation_instructions 500000000
champsim_seed 224
measure_ipc 0
measure_ipc_epoch 1000
measure_dram_bw 1
measure_dram_bw_epoch 256
measure_cache_acc 1
measure_cache_acc_epoch 1024
l1d_perfect 0
l2c_perfect 0
llc_perfect 0
l1d_semi_perfect 0
l2c_semi_perfect 0
llc_semi_perfect 0
semi_perfect_cache_page_buffer_size 64

num_cpus 1
cpu_freq 4000
dram_io_freq 150
page_size 4096
block_size 64
max_read_per_cycle 8
max_fill_per_cycle 1
dram_channels 1
log2_dram_channels 0
dram_ranks 1
dram_banks 8
dram_rows 65536
dram_columns 128
dram_row_size 8
dram_size 4096
dram_pages 1048576

fetch_width 6
decode_width 6
exec_width 4
lq_width 2
sq_width 2
retire_width 4
scheduler_size 128
branch_mispredict_penalty 20
rob_size 256
lq_size 72
sq_size 56
num_instr_destinations_sparc 4
num_instr_destinations 2
num_instr_sources 4

itlb_set 16
itlb_way 8
itlb_rq_size 16
itlb_wq_size 16
itlb_pq_size 0
itlb_mshr_size 8
itlb_latency 1

dtlb_set 16
dtlb_way 4
dtlb_rq_size 16
dtlb_wq_size 16
dtlb_pq_size 0
dtlb_mshr_size 8
dtlb_latency 1

stlb_set 128
stlb_way 12
stlb_rq_size 32
stlb_wq_size 32
stlb_pq_size 0
stlb_mshr_size 16
stlb_latency 8

l1i_size 32
l1i_set 64
l1i_way 8
l1i_rq_size 64
l1i_wq_size 64
l1i_pq_size 8
l1i_mshr_size 8
l1i_latency 1

l1d_size 32
l1d_set 64
l1d_way 8
l1d_rq_size 64
l1d_wq_size 64
l1d_pq_size 8
l1d_mshr_size 16
l1d_latency 4

l2c_size 256
l2c_set 512
l2c_way 8
l2c_rq_size 32
l2c_wq_size 32
l2c_pq_size 32
l2c_mshr_size 32
l2c_latency 10

llc_size 2048
llc_set 2048
llc_way 16
llc_rq_size 32
llc_wq_size 32
llc_pq_size 32
llc_mshr_size 64
llc_latency 20

dram_channel_width 8
dram_wq_size 64
dram_rq_size 64
tRP 15
tRCD 15
tCAS 12.5
dram_dbus_turn_around_time 30
dram_write_high_wm 56
dram_write_low_wm 48
min_dram_writes_per_switch 16
dram_mtps 150
dram_dbus_return_time 213

bingo_region_size 2048
bingo_pattern_len 32
bingo_pc_width 16
bingo_min_addr_width 5
bingo_max_addr_width 16
bingo_ft_size 64
bingo_at_size 128
bingo_pht_size 4096
bingo_pht_ways 16
bingo_pf_streamer_size 128
bingo_debug_level 0
bingo_l1d_thresh 1.01
bingo_l2c_thresh 0.8
bingo_llc_thresh 0.05
bingo_pc_address_fill_level L2


Heartbeat CPU  0 instructions:    1000002 cycles:     502443 heartbeat IPC: 1.99028 cumulative IPC: 1.99028 (Simulation time: 0 hr 0 min 1 sec) 
Heartbeat CPU  0 instructions:    2000001 cycles:     990594 heartbeat IPC: 2.04854 cumulative IPC: 2.01899 (Simulation time: 0 hr 0 min 3 sec) 
Heartbeat CPU  0 instructions:    3000003 cycles:    1492711 heartbeat IPC: 1.99157 cumulative IPC: 2.00977 (Simulation time: 0 hr 0 min 5 sec) 
Heartbeat CPU  0 instructions:    4000000 cycles:    1994642 heartbeat IPC: 1.99230 cumulative IPC: 2.00537 (Simulation time: 0 hr 0 min 7 sec) 
Heartbeat CPU  0 instructions:    5000000 cycles:    2496909 heartbeat IPC: 1.99097 cumulative IPC: 2.00248 (Simulation time: 0 hr 0 min 9 sec) 
Heartbeat CPU  0 instructions:    6000001 cycles:    2996822 heartbeat IPC: 2.00035 cumulative IPC: 2.00212 (Simulation time: 0 hr 0 min 11 sec) 
Heartbeat CPU  0 instructions:    7000000 cycles:    3487003 heartbeat IPC: 2.04006 cumulative IPC: 2.00745 (Simulation time: 0 hr 0 min 12 sec) 
Heartbeat CPU  0 instructions:    8000000 cycles:    3990157 heartbeat IPC: 1.98746 cumulative IPC: 2.00493 (Simulation time: 0 hr 0 min 14 sec) 
Heartbeat CPU  0 instructions:    9000002 cycles:    4492126 heartbeat IPC: 1.99216 cumulative IPC: 2.00351 (Simulation time: 0 hr 0 min 16 sec) 
Heartbeat CPU  0 instructions:   10000000 cycles:    4994191 heartbeat IPC: 1.99177 cumulative IPC: 2.00233 (Simulation time: 0 hr 0 min 18 sec) 
Heartbeat CPU  0 instructions:   11000002 cycles:    5485315 heartbeat IPC: 2.03615 cumulative IPC: 2.00535 (Simulation time: 0 hr 0 min 20 sec) 
Heartbeat CPU  0 instructions:   12000000 cycles:    5984380 heartbeat IPC: 2.00374 cumulative IPC: 2.00522 (Simulation time: 0 hr 0 min 21 sec) 
Heartbeat CPU  0 instructions:   13000002 cycles:    6486916 heartbeat IPC: 1.98991 cumulative IPC: 2.00403 (Simulation time: 0 hr 0 min 23 sec) 
Heartbeat CPU  0 instructions:   14000003 cycles:    6989389 heartbeat IPC: 1.99016 cumulative IPC: 2.00304 (Simulation time: 0 hr 0 min 25 sec) 
Heartbeat CPU  0 instructions:   15000002 cycles:    7491568 heartbeat IPC: 1.99132 cumulative IPC: 2.00225 (Simulation time: 0 hr 0 min 27 sec) 
Heartbeat CPU  0 instructions:   16000000 cycles:    7979131 heartbeat IPC: 2.05101 cumulative IPC: 2.00523 (Simulation time: 0 hr 0 min 29 sec) 
Heartbeat CPU  0 instructions:   17000001 cycles:    8482016 heartbeat IPC: 1.98853 cumulative IPC: 2.00424 (Simulation time: 0 hr 0 min 30 sec) 
Heartbeat CPU  0 instructions:   18000003 cycles:    8985180 heartbeat IPC: 1.98743 cumulative IPC: 2.00330 (Simulation time: 0 hr 0 min 32 sec) 
Heartbeat CPU  0 instructions:   19000003 cycles:    9487508 heartbeat IPC: 1.99073 cumulative IPC: 2.00263 (Simulation time: 0 hr 0 min 34 sec) 
Heartbeat CPU  0 instructions:   20000000 cycles:    9979600 heartbeat IPC: 2.03213 cumulative IPC: 2.00409 (Simulation time: 0 hr 0 min 36 sec) 
Heartbeat CPU  0 instructions:   21000003 cycles:   10477067 heartbeat IPC: 2.01019 cumulative IPC: 2.00438 (Simulation time: 0 hr 0 min 38 sec) 
Heartbeat CPU  0 instructions:   22000001 cycles:   10979879 heartbeat IPC: 1.98881 cumulative IPC: 2.00367 (Simulation time: 0 hr 0 min 40 sec) 
Heartbeat CPU  0 instructions:   23000002 cycles:   11482526 heartbeat IPC: 1.98947 cumulative IPC: 2.00304 (Simulation time: 0 hr 0 min 41 sec) 
Heartbeat CPU  0 instructions:   24000000 cycles:   11984661 heartbeat IPC: 1.99149 cumulative IPC: 2.00256 (Simulation time: 0 hr 0 min 43 sec) 
Heartbeat CPU  0 instructions:   25000002 cycles:   12472233 heartbeat IPC: 2.05098 cumulative IPC: 2.00445 (Simulation time: 0 hr 0 min 45 sec) 
Heartbeat CPU  0 instructions:   26000002 cycles:   12974128 heartbeat IPC: 1.99245 cumulative IPC: 2.00399 (Simulation time: 0 hr 0 min 47 sec) 
Heartbeat CPU  0 instructions:   27000001 cycles:   13476518 heartbeat IPC: 1.99048 cumulative IPC: 2.00348 (Simulation time: 0 hr 0 min 49 sec) 
Heartbeat CPU  0 instructions:   28000000 cycles:   13979215 heartbeat IPC: 1.98927 cumulative IPC: 2.00297 (Simulation time: 0 hr 0 min 51 sec) 
Heartbeat CPU  0 instructions:   29000003 cycles:   14474260 heartbeat IPC: 2.02002 cumulative IPC: 2.00356 (Simulation time: 0 hr 0 min 52 sec) 
Heartbeat CPU  0 instructions:   30000003 cycles:   14969007 heartbeat IPC: 2.02123 cumulative IPC: 2.00414 (Simulation time: 0 hr 0 min 54 sec) 
Heartbeat CPU  0 instructions:   31000001 cycles:   15471225 heartbeat IPC: 1.99116 cumulative IPC: 2.00372 (Simulation time: 0 hr 0 min 56 sec) 
Heartbeat CPU  0 instructions:   32000000 cycles:   15973569 heartbeat IPC: 1.99067 cumulative IPC: 2.00331 (Simulation time: 0 hr 0 min 58 sec) 
Heartbeat CPU  0 instructions:   33000000 cycles:   16476057 heartbeat IPC: 1.99010 cumulative IPC: 2.00291 (Simulation time: 0 hr 1 min 0 sec) 
Heartbeat CPU  0 instructions:   34000003 cycles:   16963971 heartbeat IPC: 2.04955 cumulative IPC: 2.00425 (Simulation time: 0 hr 1 min 1 sec) 
Heartbeat CPU  0 instructions:   35000003 cycles:   17466020 heartbeat IPC: 1.99184 cumulative IPC: 2.00389 (Simulation time: 0 hr 1 min 3 sec) 
Heartbeat CPU  0 instructions:   36000000 cycles:   17968096 heartbeat IPC: 1.99172 cumulative IPC: 2.00355 (Simulation time: 0 hr 1 min 5 sec) 
Heartbeat CPU  0 instructions:   37000001 cycles:   18471198 heartbeat IPC: 1.98767 cumulative IPC: 2.00312 (Simulation time: 0 hr 1 min 7 sec) 
Heartbeat CPU  0 instructions:   38000003 cycles:   18968875 heartbeat IPC: 2.00934 cumulative IPC: 2.00328 (Simulation time: 0 hr 1 min 9 sec) 
Heartbeat CPU  0 instructions:   39000001 cycles:   19461606 heartbeat IPC: 2.02950 cumulative IPC: 2.00395 (Simulation time: 0 hr 1 min 10 sec) 
Heartbeat CPU  0 instructions:   40000000 cycles:   19963829 heartbeat IPC: 1.99115 cumulative IPC: 2.00362 (Simulation time: 0 hr 1 min 12 sec) 
Heartbeat CPU  0 instructions:   41000002 cycles:   20466244 heartbeat IPC: 1.99039 cumulative IPC: 2.00330 (Simulation time: 0 hr 1 min 14 sec) 
Heartbeat CPU  0 instructions:   42000000 cycles:   20968930 heartbeat IPC: 1.98931 cumulative IPC: 2.00296 (Simulation time: 0 hr 1 min 16 sec) 
Heartbeat CPU  0 instructions:   43000000 cycles:   21457034 heartbeat IPC: 2.04874 cumulative IPC: 2.00400 (Simulation time: 0 hr 1 min 18 sec) 
Heartbeat CPU  0 instructions:   44000000 cycles:   21959394 heartbeat IPC: 1.99060 cumulative IPC: 2.00370 (Simulation time: 0 hr 1 min 19 sec) 
Heartbeat CPU  0 instructions:   45000002 cycles:   22462147 heartbeat IPC: 1.98905 cumulative IPC: 2.00337 (Simulation time: 0 hr 1 min 21 sec) 
Heartbeat CPU  0 instructions:   46000003 cycles:   22964044 heartbeat IPC: 1.99244 cumulative IPC: 2.00313 (Simulation time: 0 hr 1 min 23 sec) 
Heartbeat CPU  0 instructions:   47000000 cycles:   23463122 heartbeat IPC: 2.00369 cumulative IPC: 2.00314 (Simulation time: 0 hr 1 min 25 sec) 
Heartbeat CPU  0 instructions:   48000000 cycles:   23954223 heartbeat IPC: 2.03624 cumulative IPC: 2.00382 (Simulation time: 0 hr 1 min 27 sec) 
Heartbeat CPU  0 instructions:   49000002 cycles:   24457072 heartbeat IPC: 1.98867 cumulative IPC: 2.00351 (Simulation time: 0 hr 1 min 28 sec) 
Heartbeat CPU  0 instructions:   50000003 cycles:   24959524 heartbeat IPC: 1.99024 cumulative IPC: 2.00324 (Simulation time: 0 hr 1 min 30 sec) 
Heartbeat CPU  0 instructions:   51000001 cycles:   25461498 heartbeat IPC: 1.99213 cumulative IPC: 2.00302 (Simulation time: 0 hr 1 min 32 sec) 
Heartbeat CPU  0 instructions:   52000000 cycles:   25951670 heartbeat IPC: 2.04010 cumulative IPC: 2.00372 (Simulation time: 0 hr 1 min 34 sec) 
Heartbeat CPU  0 instructions:   53000003 cycles:   26451556 heartbeat IPC: 2.00046 cumulative IPC: 2.00366 (Simulation time: 0 hr 1 min 36 sec) 
Heartbeat CPU  0 instructions:   54000003 cycles:   26963057 heartbeat IPC: 1.95503 cumulative IPC: 2.00274 (Simulation time: 0 hr 1 min 37 sec) 
Heartbeat CPU  0 instructions:   55000001 cycles:   27482957 heartbeat IPC: 1.92344 cumulative IPC: 2.00124 (Simulation time: 0 hr 1 min 39 sec) 
Heartbeat CPU  0 instructions:   56000000 cycles:   27995649 heartbeat IPC: 1.95049 cumulative IPC: 2.00031 (Simulation time: 0 hr 1 min 41 sec) 
Heartbeat CPU  0 instructions:   57000000 cycles:   28507548 heartbeat IPC: 1.95351 cumulative IPC: 1.99947 (Simulation time: 0 hr 1 min 42 sec) 
Heartbeat CPU  0 instructions:   58000002 cycles:   29021449 heartbeat IPC: 1.94590 cumulative IPC: 1.99852 (Simulation time: 0 hr 1 min 44 sec) 
Heartbeat CPU  0 instructions:   59000003 cycles:   29532874 heartbeat IPC: 1.95532 cumulative IPC: 1.99777 (Simulation time: 0 hr 1 min 46 sec) 
Heartbeat CPU  0 instructions:   60000000 cycles:   30043389 heartbeat IPC: 1.95880 cumulative IPC: 1.99711 (Simulation time: 0 hr 1 min 47 sec) 
Heartbeat CPU  0 instructions:   61000001 cycles:   30555891 heartbeat IPC: 1.95121 cumulative IPC: 1.99634 (Simulation time: 0 hr 1 min 49 sec) 
Heartbeat CPU  0 instructions:   62000003 cycles:   31068504 heartbeat IPC: 1.95079 cumulative IPC: 1.99559 (Simulation time: 0 hr 1 min 51 sec) 
Heartbeat CPU  0 instructions:   63000001 cycles:   31580381 heartbeat IPC: 1.95359 cumulative IPC: 1.99491 (Simulation time: 0 hr 1 min 52 sec) 
Heartbeat CPU  0 instructions:   64000000 cycles:   32093727 heartbeat IPC: 1.94800 cumulative IPC: 1.99416 (Simulation time: 0 hr 1 min 54 sec) 
Heartbeat CPU  0 instructions:   65000000 cycles:   32607091 heartbeat IPC: 1.94794 cumulative IPC: 1.99343 (Simulation time: 0 hr 1 min 56 sec) 
Heartbeat CPU  0 instructions:   66000002 cycles:   33118979 heartbeat IPC: 1.95356 cumulative IPC: 1.99282 (Simulation time: 0 hr 1 min 57 sec) 
Heartbeat CPU  0 instructions:   67000002 cycles:   33632298 heartbeat IPC: 1.94811 cumulative IPC: 1.99213 (Simulation time: 0 hr 1 min 59 sec) 
Heartbeat CPU  0 instructions:   68000000 cycles:   34145466 heartbeat IPC: 1.94868 cumulative IPC: 1.99148 (Simulation time: 0 hr 2 min 1 sec) 
Heartbeat CPU  0 instructions:   69000001 cycles:   34657052 heartbeat IPC: 1.95471 cumulative IPC: 1.99094 (Simulation time: 0 hr 2 min 2 sec) 
Heartbeat CPU  0 instructions:   70000003 cycles:   35169934 heartbeat IPC: 1.94977 cumulative IPC: 1.99034 (Simulation time: 0 hr 2 min 4 sec) 
Heartbeat CPU  0 instructions:   71000002 cycles:   35682738 heartbeat IPC: 1.95006 cumulative IPC: 1.98976 (Simulation time: 0 hr 2 min 6 sec) 
Heartbeat CPU  0 instructions:   72000000 cycles:   36194191 heartbeat IPC: 1.95521 cumulative IPC: 1.98927 (Simulation time: 0 hr 2 min 7 sec) 
Heartbeat CPU  0 instructions:   73000003 cycles:   36706579 heartbeat IPC: 1.95165 cumulative IPC: 1.98874 (Simulation time: 0 hr 2 min 9 sec) 
Heartbeat CPU  0 instructions:   74000001 cycles:   37219201 heartbeat IPC: 1.95075 cumulative IPC: 1.98822 (Simulation time: 0 hr 2 min 10 sec) 
Heartbeat CPU  0 instructions:   75000001 cycles:   37731120 heartbeat IPC: 1.95343 cumulative IPC: 1.98775 (Simulation time: 0 hr 2 min 12 sec) 
Heartbeat CPU  0 instructions:   76000000 cycles:   38243821 heartbeat IPC: 1.95045 cumulative IPC: 1.98725 (Simulation time: 0 hr 2 min 14 sec) 
Heartbeat CPU  0 instructions:   77000001 cycles:   38757333 heartbeat IPC: 1.94738 cumulative IPC: 1.98672 (Simulation time: 0 hr 2 min 15 sec) 
Heartbeat CPU  0 instructions:   78000003 cycles:   39269390 heartbeat IPC: 1.95291 cumulative IPC: 1.98628 (Simulation time: 0 hr 2 min 17 sec) 
Heartbeat CPU  0 instructions:   79000000 cycles:   39781991 heartbeat IPC: 1.95083 cumulative IPC: 1.98582 (Simulation time: 0 hr 2 min 19 sec) 
Heartbeat CPU  0 instructions:   80000000 cycles:   40295403 heartbeat IPC: 1.94775 cumulative IPC: 1.98534 (Simulation time: 0 hr 2 min 20 sec) 
Heartbeat CPU  0 instructions:   81000000 cycles:   40807441 heartbeat IPC: 1.95298 cumulative IPC: 1.98493 (Simulation time: 0 hr 2 min 22 sec) 
Heartbeat CPU  0 instructions:   82000001 cycles:   41319742 heartbeat IPC: 1.95198 cumulative IPC: 1.98452 (Simulation time: 0 hr 2 min 24 sec) 
Heartbeat CPU  0 instructions:   83000001 cycles:   41833346 heartbeat IPC: 1.94703 cumulative IPC: 1.98406 (Simulation time: 0 hr 2 min 25 sec) 
Heartbeat CPU  0 instructions:   84000000 cycles:   42345240 heartbeat IPC: 1.95353 cumulative IPC: 1.98369 (Simulation time: 0 hr 2 min 27 sec) 
Heartbeat CPU  0 instructions:   85000001 cycles:   42857320 heartbeat IPC: 1.95282 cumulative IPC: 1.98333 (Simulation time: 0 hr 2 min 29 sec) 
Heartbeat CPU  0 instructions:   86000002 cycles:   43370778 heartbeat IPC: 1.94758 cumulative IPC: 1.98290 (Simulation time: 0 hr 2 min 30 sec) 
Heartbeat CPU  0 instructions:   87000003 cycles:   43882542 heartbeat IPC: 1.95403 cumulative IPC: 1.98257 (Simulation time: 0 hr 2 min 32 sec) 
Heartbeat CPU  0 instructions:   88000000 cycles:   44394665 heartbeat IPC: 1.95265 cumulative IPC: 1.98222 (Simulation time: 0 hr 2 min 34 sec) 
Heartbeat CPU  0 instructions:   89000002 cycles:   44908393 heartbeat IPC: 1.94656 cumulative IPC: 1.98181 (Simulation time: 0 hr 2 min 35 sec) 
Heartbeat CPU  0 instructions:   90000003 cycles:   45420495 heartbeat IPC: 1.95274 cumulative IPC: 1.98148 (Simulation time: 0 hr 2 min 37 sec) 
Heartbeat CPU  0 instructions:   91000002 cycles:   45931260 heartbeat IPC: 1.95785 cumulative IPC: 1.98122 (Simulation time: 0 hr 2 min 39 sec) 
Heartbeat CPU  0 instructions:   92000000 cycles:   46443838 heartbeat IPC: 1.95092 cumulative IPC: 1.98089 (Simulation time: 0 hr 2 min 40 sec) 
Heartbeat CPU  0 instructions:   93000001 cycles:   46955052 heartbeat IPC: 1.95613 cumulative IPC: 1.98062 (Simulation time: 0 hr 2 min 42 sec) 
Heartbeat CPU  0 instructions:   94000003 cycles:   47466612 heartbeat IPC: 1.95481 cumulative IPC: 1.98034 (Simulation time: 0 hr 2 min 44 sec) 
Heartbeat CPU  0 instructions:   95000003 cycles:   47980395 heartbeat IPC: 1.94635 cumulative IPC: 1.97998 (Simulation time: 0 hr 2 min 45 sec) 
Heartbeat CPU  0 instructions:   96000000 cycles:   48492774 heartbeat IPC: 1.95167 cumulative IPC: 1.97968 (Simulation time: 0 hr 2 min 47 sec) 
Heartbeat CPU  0 instructions:   97000002 cycles:   49004273 heartbeat IPC: 1.95504 cumulative IPC: 1.97942 (Simulation time: 0 hr 2 min 49 sec) 
Heartbeat CPU  0 instructions:   98000000 cycles:   49517396 heartbeat IPC: 1.94885 cumulative IPC: 1.97910 (Simulation time: 0 hr 2 min 50 sec) 
Heartbeat CPU  0 instructions:   99000000 cycles:   50029385 heartbeat IPC: 1.95317 cumulative IPC: 1.97884 (Simulation time: 0 hr 2 min 52 sec) 
Heartbeat CPU  0 instructions:  100000000 cycles:   50566236 heartbeat IPC: 1.86271 cumulative IPC: 1.97760 (Simulation time: 0 hr 2 min 54 sec) 

Warmup complete CPU  0 instructions:  100000001 cycles:   50566257 (Simulation time: 0 hr 2 min 54 sec) 

Heartbeat CPU  0 instructions:  101000003 cycles:   57865702 heartbeat IPC: 0.13700 cumulative IPC: 0.13700 (Simulation time: 0 hr 2 min 59 sec) 
Heartbeat CPU  0 instructions:  102000000 cycles:   74892959 heartbeat IPC: 0.05873 cumulative IPC: 0.08221 (Simulation time: 0 hr 3 min 10 sec) 
Heartbeat CPU  0 instructions:  103000002 cycles:   84020548 heartbeat IPC: 0.10956 cumulative IPC: 0.08967 (Simulation time: 0 hr 3 min 17 sec) 
Heartbeat CPU  0 instructions:  104000000 cycles:   87775104 heartbeat IPC: 0.26634 cumulative IPC: 0.10750 (Simulation time: 0 hr 3 min 20 sec) 
Heartbeat CPU  0 instructions:  105000002 cycles:   91139261 heartbeat IPC: 0.29725 cumulative IPC: 0.12323 (Simulation time: 0 hr 3 min 24 sec) 
Heartbeat CPU  0 instructions:  106000003 cycles:   94239545 heartbeat IPC: 0.32255 cumulative IPC: 0.13738 (Simulation time: 0 hr 3 min 27 sec) 
Heartbeat CPU  0 instructions:  107000000 cycles:   97454663 heartbeat IPC: 0.31103 cumulative IPC: 0.14929 (Simulation time: 0 hr 3 min 31 sec) 
Heartbeat CPU  0 instructions:  108000000 cycles:  100681704 heartbeat IPC: 0.30988 cumulative IPC: 0.15963 (Simulation time: 0 hr 3 min 35 sec) 
Heartbeat CPU  0 instructions:  109000001 cycles:  103978470 heartbeat IPC: 0.30333 cumulative IPC: 0.16850 (Simulation time: 0 hr 3 min 38 sec) 
Heartbeat CPU  0 instructions:  110000001 cycles:  108206901 heartbeat IPC: 0.23649 cumulative IPC: 0.17349 (Simulation time: 0 hr 3 min 42 sec) 
Heartbeat CPU  0 instructions:  111000001 cycles:  112432143 heartbeat IPC: 0.23667 cumulative IPC: 0.17780 (Simulation time: 0 hr 3 min 46 sec) 
Heartbeat CPU  0 instructions:  112000000 cycles:  116380785 heartbeat IPC: 0.25325 cumulative IPC: 0.18233 (Simulation time: 0 hr 3 min 50 sec) 
Heartbeat CPU  0 instructions:  113000003 cycles:  119808128 heartbeat IPC: 0.29177 cumulative IPC: 0.18775 (Simulation time: 0 hr 3 min 54 sec) 
Heartbeat CPU  0 instructions:  114000001 cycles:  123394560 heartbeat IPC: 0.27883 cumulative IPC: 0.19223 (Simulation time: 0 hr 3 min 57 sec) 
Heartbeat CPU  0 instructions:  115000003 cycles:  126933112 heartbeat IPC: 0.28260 cumulative IPC: 0.19642 (Simulation time: 0 hr 4 min 1 sec) 
Heartbeat CPU  0 instructions:  116000000 cycles:  130472185 heartbeat IPC: 0.28256 cumulative IPC: 0.20024 (Simulation time: 0 hr 4 min 5 sec) 
Heartbeat CPU  0 instructions:  117000000 cycles:  132101127 heartbeat IPC: 0.61390 cumulative IPC: 0.20850 (Simulation time: 0 hr 4 min 7 sec) 
Heartbeat CPU  0 instructions:  118000003 cycles:  133601961 heartbeat IPC: 0.66630 cumulative IPC: 0.21677 (Simulation time: 0 hr 4 min 10 sec) 
Heartbeat CPU  0 instructions:  119000000 cycles:  135283230 heartbeat IPC: 0.59479 cumulative IPC: 0.22428 (Simulation time: 0 hr 4 min 12 sec) 
Heartbeat CPU  0 instructions:  120000000 cycles:  136860667 heartbeat IPC: 0.63394 cumulative IPC: 0.23176 (Simulation time: 0 hr 4 min 15 sec) 
Heartbeat CPU  0 instructions:  121000001 cycles:  138418165 heartbeat IPC: 0.64206 cumulative IPC: 0.23904 (Simulation time: 0 hr 4 min 17 sec) 
Heartbeat CPU  0 instructions:  122000002 cycles:  139805397 heartbeat IPC: 0.72086 cumulative IPC: 0.24653 (Simulation time: 0 hr 4 min 20 sec) 
Heartbeat CPU  0 instructions:  123000000 cycles:  141259568 heartbeat IPC: 0.68768 cumulative IPC: 0.25360 (Simulation time: 0 hr 4 min 22 sec) 
Heartbeat CPU  0 instructions:  124000000 cycles:  142842792 heartbeat IPC: 0.63162 cumulative IPC: 0.26009 (Simulation time: 0 hr 4 min 25 sec) 
Heartbeat CPU  0 instructions:  125000002 cycles:  144459728 heartbeat IPC: 0.61845 cumulative IPC: 0.26626 (Simulation time: 0 hr 4 min 27 sec) 
Heartbeat CPU  0 instructions:  126000001 cycles:  145964691 heartbeat IPC: 0.66447 cumulative IPC: 0.27254 (Simulation time: 0 hr 4 min 30 sec) 
Heartbeat CPU  0 instructions:  127000003 cycles:  147512326 heartbeat IPC: 0.64615 cumulative IPC: 0.27851 (Simulation time: 0 hr 4 min 32 sec) 
Heartbeat CPU  0 instructions:  128000000 cycles:  149020069 heartbeat IPC: 0.66324 cumulative IPC: 0.28440 (Simulation time: 0 hr 4 min 35 sec) 
Heartbeat CPU  0 instructions:  129000001 cycles:  150607884 heartbeat IPC: 0.62980 cumulative IPC: 0.28988 (Simulation time: 0 hr 4 min 37 sec) 
Heartbeat CPU  0 instructions:  130000003 cycles:  152070578 heartbeat IPC: 0.68367 cumulative IPC: 0.29555 (Simulation time: 0 hr 4 min 40 sec) 
Heartbeat CPU  0 instructions:  131000000 cycles:  153617314 heartbeat IPC: 0.64652 cumulative IPC: 0.30082 (Simulation time: 0 hr 4 min 42 sec) 
Heartbeat CPU  0 instructions:  132000000 cycles:  155208355 heartbeat IPC: 0.62852 cumulative IPC: 0.30580 (Simulation time: 0 hr 4 min 45 sec) 
Heartbeat CPU  0 instructions:  133000000 cycles:  156808883 heartbeat IPC: 0.62479 cumulative IPC: 0.31061 (Simulation time: 0 hr 4 min 47 sec) 
Heartbeat CPU  0 instructions:  134000003 cycles:  158390775 heartbeat IPC: 0.63216 cumulative IPC: 0.31533 (Simulation time: 0 hr 4 min 50 sec) 
Heartbeat CPU  0 instructions:  135000003 cycles:  159955659 heartbeat IPC: 0.63902 cumulative IPC: 0.31996 (Simulation time: 0 hr 4 min 52 sec) 
Heartbeat CPU  0 instructions:  136000000 cycles:  161517641 heartbeat IPC: 0.64021 cumulative IPC: 0.32447 (Simulation time: 0 hr 4 min 55 sec) 
Heartbeat CPU  0 instructions:  137000003 cycles:  163072581 heartbeat IPC: 0.64311 cumulative IPC: 0.32887 (Simulation time: 0 hr 4 min 57 sec) 
Heartbeat CPU  0 instructions:  138000002 cycles:  164706768 heartbeat IPC: 0.61192 cumulative IPC: 0.33292 (Simulation time: 0 hr 5 min 0 sec) 
Heartbeat CPU  0 instructions:  139000002 cycles:  166293010 heartbeat IPC: 0.63042 cumulative IPC: 0.33700 (Simulation time: 0 hr 5 min 3 sec) 
Heartbeat CPU  0 instructions:  140000000 cycles:  167899624 heartbeat IPC: 0.62243 cumulative IPC: 0.34091 (Simulation time: 0 hr 5 min 5 sec) 
Heartbeat CPU  0 instructions:  141000000 cycles:  169490432 heartbeat IPC: 0.62861 cumulative IPC: 0.34476 (Simulation time: 0 hr 5 min 8 sec) 
Heartbeat CPU  0 instructions:  142000000 cycles:  171026269 heartbeat IPC: 0.65111 cumulative IPC: 0.34866 (Simulation time: 0 hr 5 min 10 sec) 
Heartbeat CPU  0 instructions:  143000003 cycles:  172708407 heartbeat IPC: 0.59448 cumulative IPC: 0.35205 (Simulation time: 0 hr 5 min 13 sec) 
Heartbeat CPU  0 instructions:  144000000 cycles:  174185110 heartbeat IPC: 0.67718 cumulative IPC: 0.35593 (Simulation time: 0 hr 5 min 15 sec) 
Heartbeat CPU  0 instructions:  145000001 cycles:  175803844 heartbeat IPC: 0.61777 cumulative IPC: 0.35932 (Simulation time: 0 hr 5 min 18 sec) 
Heartbeat CPU  0 instructions:  146000003 cycles:  177419903 heartbeat IPC: 0.61879 cumulative IPC: 0.36262 (Simulation time: 0 hr 5 min 20 sec) 
Heartbeat CPU  0 instructions:  147000000 cycles:  179102301 heartbeat IPC: 0.59439 cumulative IPC: 0.36566 (Simulation time: 0 hr 5 min 23 sec) 
Heartbeat CPU  0 instructions:  148000000 cycles:  180667708 heartbeat IPC: 0.63881 cumulative IPC: 0.36894 (Simulation time: 0 hr 5 min 25 sec) 
Heartbeat CPU  0 instructions:  149000003 cycles:  182216729 heartbeat IPC: 0.64557 cumulative IPC: 0.37220 (Simulation time: 0 hr 5 min 28 sec) 
Heartbeat CPU  0 instructions:  150000003 cycles:  183810267 heartbeat IPC: 0.62753 cumulative IPC: 0.37525 (Simulation time: 0 hr 5 min 30 sec) 
Heartbeat CPU  0 instructions:  151000000 cycles:  185473725 heartbeat IPC: 0.60116 cumulative IPC: 0.37804 (Simulation time: 0 hr 5 min 33 sec) 
Heartbeat CPU  0 instructions:  152000000 cycles:  187038414 heartbeat IPC: 0.63910 cumulative IPC: 0.38103 (Simulation time: 0 hr 5 min 35 sec) 
Heartbeat CPU  0 instructions:  153000002 cycles:  188588557 heartbeat IPC: 0.64510 cumulative IPC: 0.38400 (Simulation time: 0 hr 5 min 38 sec) 
Heartbeat CPU  0 instructions:  154000002 cycles:  190183944 heartbeat IPC: 0.62681 cumulative IPC: 0.38677 (Simulation time: 0 hr 5 min 40 sec) 
Heartbeat CPU  0 instructions:  155000001 cycles:  191835885 heartbeat IPC: 0.60535 cumulative IPC: 0.38933 (Simulation time: 0 hr 5 min 43 sec) 
Heartbeat CPU  0 instructions:  156000000 cycles:  193391784 heartbeat IPC: 0.64271 cumulative IPC: 0.39209 (Simulation time: 0 hr 5 min 45 sec) 
Heartbeat CPU  0 instructions:  157000000 cycles:  194965726 heartbeat IPC: 0.63535 cumulative IPC: 0.39474 (Simulation time: 0 hr 5 min 47 sec) 
Heartbeat CPU  0 instructions:  158000001 cycles:  196518756 heartbeat IPC: 0.64390 cumulative IPC: 0.39739 (Simulation time: 0 hr 5 min 50 sec) 
Heartbeat CPU  0 instructions:  159000003 cycles:  198130704 heartbeat IPC: 0.62037 cumulative IPC: 0.39983 (Simulation time: 0 hr 5 min 52 sec) 
Heartbeat CPU  0 instructions:  160000000 cycles:  199728189 heartbeat IPC: 0.62598 cumulative IPC: 0.40225 (Simulation time: 0 hr 5 min 55 sec) 
Heartbeat CPU  0 instructions:  161000001 cycles:  201395270 heartbeat IPC: 0.59985 cumulative IPC: 0.40443 (Simulation time: 0 hr 5 min 57 sec) 
Heartbeat CPU  0 instructions:  162000000 cycles:  202940663 heartbeat IPC: 0.64708 cumulative IPC: 0.40689 (Simulation time: 0 hr 6 min 0 sec) 
Heartbeat CPU  0 instructions:  163000003 cycles:  204533757 heartbeat IPC: 0.62771 cumulative IPC: 0.40918 (Simulation time: 0 hr 6 min 2 sec) 
Heartbeat CPU  0 instructions:  164000000 cycles:  206113808 heartbeat IPC: 0.63289 cumulative IPC: 0.41145 (Simulation time: 0 hr 6 min 5 sec) 
Heartbeat CPU  0 instructions:  165000000 cycles:  207698275 heartbeat IPC: 0.63113 cumulative IPC: 0.41366 (Simulation time: 0 hr 6 min 7 sec) 
Heartbeat CPU  0 instructions:  166000000 cycles:  209317836 heartbeat IPC: 0.61745 cumulative IPC: 0.41574 (Simulation time: 0 hr 6 min 10 sec) 
Heartbeat CPU  0 instructions:  167000003 cycles:  210890460 heartbeat IPC: 0.63588 cumulative IPC: 0.41790 (Simulation time: 0 hr 6 min 12 sec) 
Heartbeat CPU  0 instructions:  168000000 cycles:  212459430 heartbeat IPC: 0.63736 cumulative IPC: 0.42003 (Simulation time: 0 hr 6 min 15 sec) 
Heartbeat CPU  0 instructions:  169000003 cycles:  214100874 heartbeat IPC: 0.60922 cumulative IPC: 0.42193 (Simulation time: 0 hr 6 min 17 sec) 
Heartbeat CPU  0 instructions:  170000001 cycles:  215720425 heartbeat IPC: 0.61745 cumulative IPC: 0.42385 (Simulation time: 0 hr 6 min 20 sec) 
Heartbeat CPU  0 instructions:  171000002 cycles:  217257139 heartbeat IPC: 0.65074 cumulative IPC: 0.42594 (Simulation time: 0 hr 6 min 22 sec) 
Heartbeat CPU  0 instructions:  172000000 cycles:  218813202 heartbeat IPC: 0.64265 cumulative IPC: 0.42794 (Simulation time: 0 hr 6 min 25 sec) 
Heartbeat CPU  0 instructions:  173000002 cycles:  220385653 heartbeat IPC: 0.63595 cumulative IPC: 0.42987 (Simulation time: 0 hr 6 min 27 sec) 
Heartbeat CPU  0 instructions:  174000000 cycles:  221936927 heartbeat IPC: 0.64463 cumulative IPC: 0.43181 (Simulation time: 0 hr 6 min 30 sec) 
Heartbeat CPU  0 instructions:  175000001 cycles:  223588378 heartbeat IPC: 0.60553 cumulative IPC: 0.43347 (Simulation time: 0 hr 6 min 32 sec) 
Heartbeat CPU  0 instructions:  176000000 cycles:  225187270 heartbeat IPC: 0.62543 cumulative IPC: 0.43523 (Simulation time: 0 hr 6 min 35 sec) 
Heartbeat CPU  0 instructions:  177000000 cycles:  226751392 heartbeat IPC: 0.63934 cumulative IPC: 0.43704 (Simulation time: 0 hr 6 min 37 sec) 
Heartbeat CPU  0 instructions:  178000003 cycles:  228353334 heartbeat IPC: 0.62424 cumulative IPC: 0.43873 (Simulation time: 0 hr 6 min 40 sec) 
Heartbeat CPU  0 instructions:  179000000 cycles:  229936154 heartbeat IPC: 0.63178 cumulative IPC: 0.44043 (Simulation time: 0 hr 6 min 42 sec) 
Heartbeat CPU  0 instructions:  180000000 cycles:  231526193 heartbeat IPC: 0.62892 cumulative IPC: 0.44209 (Simulation time: 0 hr 6 min 45 sec) 
Heartbeat CPU  0 instructions:  181000003 cycles:  233160759 heartbeat IPC: 0.61178 cumulative IPC: 0.44361 (Simulation time: 0 hr 6 min 47 sec) 
Heartbeat CPU  0 instructions:  182000003 cycles:  234719532 heartbeat IPC: 0.64153 cumulative IPC: 0.44528 (Simulation time: 0 hr 6 min 50 sec) 
Heartbeat CPU  0 instructions:  183000003 cycles:  236289921 heartbeat IPC: 0.63678 cumulative IPC: 0.44690 (Simulation time: 0 hr 6 min 52 sec) 
Heartbeat CPU  0 instructions:  184000000 cycles:  237898809 heartbeat IPC: 0.62155 cumulative IPC: 0.44840 (Simulation time: 0 hr 6 min 55 sec) 
Heartbeat CPU  0 instructions:  185000002 cycles:  239512584 heartbeat IPC: 0.61967 cumulative IPC: 0.44986 (Simulation time: 0 hr 6 min 57 sec) 
Heartbeat CPU  0 instructions:  186000002 cycles:  241105382 heartbeat IPC: 0.62783 cumulative IPC: 0.45135 (Simulation time: 0 hr 7 min 0 sec) 
Heartbeat CPU  0 instructions:  187000001 cycles:  245250640 heartbeat IPC: 0.24124 cumulative IPC: 0.44688 (Simulation time: 0 hr 7 min 3 sec) 
Heartbeat CPU  0 instructions:  188000000 cycles:  248933835 heartbeat IPC: 0.27150 cumulative IPC: 0.44362 (Simulation time: 0 hr 7 min 7 sec) 
Heartbeat CPU  0 instructions:  189000000 cycles:  252226780 heartbeat IPC: 0.30368 cumulative IPC: 0.44134 (Simulation time: 0 hr 7 min 10 sec) 
Heartbeat CPU  0 instructions:  190000000 cycles:  255655458 heartbeat IPC: 0.29166 cumulative IPC: 0.43883 (Simulation time: 0 hr 7 min 13 sec) 
Heartbeat CPU  0 instructions:  191000003 cycles:  259147063 heartbeat IPC: 0.28640 cumulative IPC: 0.43628 (Simulation time: 0 hr 7 min 16 sec) 
Heartbeat CPU  0 instructions:  192000000 cycles:  262634445 heartbeat IPC: 0.28675 cumulative IPC: 0.43382 (Simulation time: 0 hr 7 min 20 sec) 
Heartbeat CPU  0 instructions:  193000003 cycles:  265999764 heartbeat IPC: 0.29715 cumulative IPC: 0.43169 (Simulation time: 0 hr 7 min 23 sec) 
Heartbeat CPU  0 instructions:  194000001 cycles:  269264525 heartbeat IPC: 0.30630 cumulative IPC: 0.42982 (Simulation time: 0 hr 7 min 26 sec) 
Heartbeat CPU  0 instructions:  195000000 cycles:  272575318 heartbeat IPC: 0.30204 cumulative IPC: 0.42791 (Simulation time: 0 hr 7 min 29 sec) 
Heartbeat CPU  0 instructions:  196000000 cycles:  277048425 heartbeat IPC: 0.22356 cumulative IPC: 0.42387 (Simulation time: 0 hr 7 min 33 sec) 
Heartbeat CPU  0 instructions:  197000000 cycles:  280512824 heartbeat IPC: 0.28865 cumulative IPC: 0.42184 (Simulation time: 0 hr 7 min 36 sec) 
Heartbeat CPU  0 instructions:  198000002 cycles:  283559975 heartbeat IPC: 0.32818 cumulative IPC: 0.42061 (Simulation time: 0 hr 7 min 39 sec) 
Heartbeat CPU  0 instructions:  199000001 cycles:  286970362 heartbeat IPC: 0.29322 cumulative IPC: 0.41877 (Simulation time: 0 hr 7 min 42 sec) 
Heartbeat CPU  0 instructions:  200000000 cycles:  290289642 heartbeat IPC: 0.30127 cumulative IPC: 0.41715 (Simulation time: 0 hr 7 min 45 sec) 
Heartbeat CPU  0 instructions:  201000001 cycles:  293622533 heartbeat IPC: 0.30004 cumulative IPC: 0.41554 (Simulation time: 0 hr 7 min 48 sec) 
Heartbeat CPU  0 instructions:  202000002 cycles:  296863867 heartbeat IPC: 0.30852 cumulative IPC: 0.41413 (Simulation time: 0 hr 7 min 52 sec) 
Heartbeat CPU  0 instructions:  203000000 cycles:  300039638 heartbeat IPC: 0.31488 cumulative IPC: 0.41287 (Simulation time: 0 hr 7 min 55 sec) 
Heartbeat CPU  0 instructions:  204000000 cycles:  303583818 heartbeat IPC: 0.28215 cumulative IPC: 0.41104 (Simulation time: 0 hr 7 min 58 sec) 
Heartbeat CPU  0 instructions:  205000003 cycles:  307693725 heartbeat IPC: 0.24332 cumulative IPC: 0.40836 (Simulation time: 0 hr 8 min 1 sec) 
Heartbeat CPU  0 instructions:  206000000 cycles:  311146622 heartbeat IPC: 0.28961 cumulative IPC: 0.40678 (Simulation time: 0 hr 8 min 5 sec) 
Heartbeat CPU  0 instructions:  207000001 cycles:  314224568 heartbeat IPC: 0.32489 cumulative IPC: 0.40583 (Simulation time: 0 hr 8 min 8 sec) 
Heartbeat CPU  0 instructions:  208000000 cycles:  317618175 heartbeat IPC: 0.29467 cumulative IPC: 0.40442 (Simulation time: 0 hr 8 min 11 sec) 
Heartbeat CPU  0 instructions:  209000001 cycles:  321028796 heartbeat IPC: 0.29320 cumulative IPC: 0.40301 (Simulation time: 0 hr 8 min 14 sec) 
Heartbeat CPU  0 instructions:  210000003 cycles:  324352305 heartbeat IPC: 0.30089 cumulative IPC: 0.40177 (Simulation time: 0 hr 8 min 17 sec) 
Heartbeat CPU  0 instructions:  211000001 cycles:  327634287 heartbeat IPC: 0.30469 cumulative IPC: 0.40062 (Simulation time: 0 hr 8 min 20 sec) 
Heartbeat CPU  0 instructions:  212000000 cycles:  330895691 heartbeat IPC: 0.30662 cumulative IPC: 0.39953 (Simulation time: 0 hr 8 min 23 sec) 
Heartbeat CPU  0 instructions:  213000001 cycles:  334359556 heartbeat IPC: 0.28870 cumulative IPC: 0.39818 (Simulation time: 0 hr 8 min 27 sec) 
Heartbeat CPU  0 instructions:  214000002 cycles:  337052545 heartbeat IPC: 0.37133 cumulative IPC: 0.39792 (Simulation time: 0 hr 8 min 31 sec) 
Heartbeat CPU  0 instructions:  215000002 cycles:  339645740 heartbeat IPC: 0.38562 cumulative IPC: 0.39781 (Simulation time: 0 hr 8 min 34 sec) 
Heartbeat CPU  0 instructions:  216000000 cycles:  342217378 heartbeat IPC: 0.38886 cumulative IPC: 0.39774 (Simulation time: 0 hr 8 min 37 sec) 
Heartbeat CPU  0 instructions:  217000002 cycles:  344866178 heartbeat IPC: 0.37753 cumulative IPC: 0.39755 (Simulation time: 0 hr 8 min 41 sec) 
Heartbeat CPU  0 instructions:  218000003 cycles:  347400783 heartbeat IPC: 0.39454 cumulative IPC: 0.39753 (Simulation time: 0 hr 8 min 45 sec) 
Heartbeat CPU  0 instructions:  219000000 cycles:  350042384 heartbeat IPC: 0.37856 cumulative IPC: 0.39736 (Simulation time: 0 hr 8 min 48 sec) 
Heartbeat CPU  0 instructions:  220000000 cycles:  352661031 heartbeat IPC: 0.38188 cumulative IPC: 0.39723 (Simulation time: 0 hr 8 min 51 sec) 
Heartbeat CPU  0 instructions:  221000000 cycles:  355308737 heartbeat IPC: 0.37769 cumulative IPC: 0.39706 (Simulation time: 0 hr 8 min 55 sec) 
Heartbeat CPU  0 instructions:  222000001 cycles:  357909572 heartbeat IPC: 0.38449 cumulative IPC: 0.39695 (Simulation time: 0 hr 8 min 58 sec) 
Heartbeat CPU  0 instructions:  223000000 cycles:  360493896 heartbeat IPC: 0.38695 cumulative IPC: 0.39687 (Simulation time: 0 hr 9 min 2 sec) 
Heartbeat CPU  0 instructions:  224000000 cycles:  363155085 heartbeat IPC: 0.37577 cumulative IPC: 0.39669 (Simulation time: 0 hr 9 min 5 sec) 
Heartbeat CPU  0 instructions:  225000002 cycles:  365722342 heartbeat IPC: 0.38952 cumulative IPC: 0.39663 (Simulation time: 0 hr 9 min 9 sec) 
Heartbeat CPU  0 instructions:  226000003 cycles:  368335678 heartbeat IPC: 0.38265 cumulative IPC: 0.39651 (Simulation time: 0 hr 9 min 12 sec) 
Heartbeat CPU  0 instructions:  227000002 cycles:  370902311 heartbeat IPC: 0.38962 cumulative IPC: 0.39646 (Simulation time: 0 hr 9 min 16 sec) 
Heartbeat CPU  0 instructions:  228000000 cycles:  373505542 heartbeat IPC: 0.38414 cumulative IPC: 0.39636 (Simulation time: 0 hr 9 min 19 sec) 
Heartbeat CPU  0 instructions:  229000002 cycles:  376087619 heartbeat IPC: 0.38729 cumulative IPC: 0.39629 (Simulation time: 0 hr 9 min 23 sec) 
Heartbeat CPU  0 instructions:  230000000 cycles:  378690997 heartbeat IPC: 0.38412 cumulative IPC: 0.39619 (Simulation time: 0 hr 9 min 26 sec) 
Heartbeat CPU  0 instructions:  231000001 cycles:  381251139 heartbeat IPC: 0.39060 cumulative IPC: 0.39615 (Simulation time: 0 hr 9 min 30 sec) 
Heartbeat CPU  0 instructions:  232000000 cycles:  383895755 heartbeat IPC: 0.37813 cumulative IPC: 0.39600 (Simulation time: 0 hr 9 min 33 sec) 
Heartbeat CPU  0 instructions:  233000001 cycles:  386437856 heartbeat IPC: 0.39338 cumulative IPC: 0.39598 (Simulation time: 0 hr 9 min 37 sec) 
Heartbeat CPU  0 instructions:  234000002 cycles:  389062433 heartbeat IPC: 0.38101 cumulative IPC: 0.39587 (Simulation time: 0 hr 9 min 40 sec) 
Heartbeat CPU  0 instructions:  235000002 cycles:  391604706 heartbeat IPC: 0.39335 cumulative IPC: 0.39585 (Simulation time: 0 hr 9 min 43 sec) 
Heartbeat CPU  0 instructions:  236000000 cycles:  394253094 heartbeat IPC: 0.37759 cumulative IPC: 0.39571 (Simulation time: 0 hr 9 min 47 sec) 
Heartbeat CPU  0 instructions:  237000003 cycles:  396836221 heartbeat IPC: 0.38713 cumulative IPC: 0.39565 (Simulation time: 0 hr 9 min 50 sec) 
Heartbeat CPU  0 instructions:  238000003 cycles:  399461645 heartbeat IPC: 0.38089 cumulative IPC: 0.39553 (Simulation time: 0 hr 9 min 54 sec) 
Heartbeat CPU  0 instructions:  239000000 cycles:  402082336 heartbeat IPC: 0.38158 cumulative IPC: 0.39543 (Simulation time: 0 hr 9 min 57 sec) 
Heartbeat CPU  0 instructions:  240000000 cycles:  404712691 heartbeat IPC: 0.38018 cumulative IPC: 0.39532 (Simulation time: 0 hr 10 min 1 sec) 
Heartbeat CPU  0 instructions:  241000000 cycles:  407353089 heartbeat IPC: 0.37873 cumulative IPC: 0.39519 (Simulation time: 0 hr 10 min 4 sec) 
Heartbeat CPU  0 instructions:  242000001 cycles:  409944331 heartbeat IPC: 0.38592 cumulative IPC: 0.39513 (Simulation time: 0 hr 10 min 7 sec) 
Heartbeat CPU  0 instructions:  243000000 cycles:  412548366 heartbeat IPC: 0.38402 cumulative IPC: 0.39505 (Simulation time: 0 hr 10 min 11 sec) 
Heartbeat CPU  0 instructions:  244000000 cycles:  415175689 heartbeat IPC: 0.38062 cumulative IPC: 0.39494 (Simulation time: 0 hr 10 min 14 sec) 
Heartbeat CPU  0 instructions:  245000002 cycles:  417766457 heartbeat IPC: 0.38599 cumulative IPC: 0.39488 (Simulation time: 0 hr 10 min 18 sec) 
Heartbeat CPU  0 instructions:  246000003 cycles:  420449789 heartbeat IPC: 0.37267 cumulative IPC: 0.39472 (Simulation time: 0 hr 10 min 22 sec) 
Heartbeat CPU  0 instructions:  247000003 cycles:  423047898 heartbeat IPC: 0.38490 cumulative IPC: 0.39465 (Simulation time: 0 hr 10 min 25 sec) 
Heartbeat CPU  0 instructions:  248000000 cycles:  425653773 heartbeat IPC: 0.38375 cumulative IPC: 0.39457 (Simulation time: 0 hr 10 min 29 sec) 
Heartbeat CPU  0 instructions:  249000003 cycles:  428296870 heartbeat IPC: 0.37835 cumulative IPC: 0.39446 (Simulation time: 0 hr 10 min 32 sec) 
Heartbeat CPU  0 instructions:  250000000 cycles:  430883789 heartbeat IPC: 0.38656 cumulative IPC: 0.39441 (Simulation time: 0 hr 10 min 36 sec) 
Heartbeat CPU  0 instructions:  251000000 cycles:  433505776 heartbeat IPC: 0.38139 cumulative IPC: 0.39432 (Simulation time: 0 hr 10 min 39 sec) 
Heartbeat CPU  0 instructions:  252000000 cycles:  435783017 heartbeat IPC: 0.43913 cumulative IPC: 0.39458 (Simulation time: 0 hr 10 min 43 sec) 
Heartbeat CPU  0 instructions:  253000002 cycles:  437545485 heartbeat IPC: 0.56739 cumulative IPC: 0.39537 (Simulation time: 0 hr 10 min 45 sec) 
Heartbeat CPU  0 instructions:  254000003 cycles:  439279087 heartbeat IPC: 0.57683 cumulative IPC: 0.39618 (Simulation time: 0 hr 10 min 49 sec) 
Heartbeat CPU  0 instructions:  255000000 cycles:  440890239 heartbeat IPC: 0.62067 cumulative IPC: 0.39711 (Simulation time: 0 hr 10 min 51 sec) 
Heartbeat CPU  0 instructions:  256000000 cycles:  442500355 heartbeat IPC: 0.62107 cumulative IPC: 0.39803 (Simulation time: 0 hr 10 min 54 sec) 
Heartbeat CPU  0 instructions:  257000000 cycles:  444041611 heartbeat IPC: 0.64882 cumulative IPC: 0.39901 (Simulation time: 0 hr 10 min 57 sec) 
Heartbeat CPU  0 instructions:  258000000 cycles:  445703854 heartbeat IPC: 0.60160 cumulative IPC: 0.39986 (Simulation time: 0 hr 11 min 0 sec) 
Heartbeat CPU  0 instructions:  259000000 cycles:  447390121 heartbeat IPC: 0.59303 cumulative IPC: 0.40068 (Simulation time: 0 hr 11 min 3 sec) 
Heartbeat CPU  0 instructions:  260000000 cycles:  449044687 heartbeat IPC: 0.60439 cumulative IPC: 0.40153 (Simulation time: 0 hr 11 min 6 sec) 
Heartbeat CPU  0 instructions:  261000001 cycles:  450612746 heartbeat IPC: 0.63773 cumulative IPC: 0.40245 (Simulation time: 0 hr 11 min 9 sec) 
Heartbeat CPU  0 instructions:  262000000 cycles:  451977372 heartbeat IPC: 0.73280 cumulative IPC: 0.40358 (Simulation time: 0 hr 11 min 11 sec) 
Heartbeat CPU  0 instructions:  263000002 cycles:  453542949 heartbeat IPC: 0.63874 cumulative IPC: 0.40449 (Simulation time: 0 hr 11 min 14 sec) 
Heartbeat CPU  0 instructions:  264000000 cycles:  455166329 heartbeat IPC: 0.61600 cumulative IPC: 0.40534 (Simulation time: 0 hr 11 min 17 sec) 
Heartbeat CPU  0 instructions:  265000002 cycles:  456838764 heartbeat IPC: 0.59793 cumulative IPC: 0.40613 (Simulation time: 0 hr 11 min 21 sec) 
Heartbeat CPU  0 instructions:  266000000 cycles:  458357395 heartbeat IPC: 0.65849 cumulative IPC: 0.40707 (Simulation time: 0 hr 11 min 23 sec) 
Heartbeat CPU  0 instructions:  267000000 cycles:  459865026 heartbeat IPC: 0.66329 cumulative IPC: 0.40801 (Simulation time: 0 hr 11 min 26 sec) 
Heartbeat CPU  0 instructions:  268000000 cycles:  461628890 heartbeat IPC: 0.56694 cumulative IPC: 0.40870 (Simulation time: 0 hr 11 min 29 sec) 
Heartbeat CPU  0 instructions:  269000000 cycles:  463165341 heartbeat IPC: 0.65085 cumulative IPC: 0.40960 (Simulation time: 0 hr 11 min 32 sec) 
Heartbeat CPU  0 instructions:  270000003 cycles:  464821083 heartbeat IPC: 0.60396 cumulative IPC: 0.41038 (Simulation time: 0 hr 11 min 35 sec) 
Heartbeat CPU  0 instructions:  271000001 cycles:  466486904 heartbeat IPC: 0.60030 cumulative IPC: 0.41114 (Simulation time: 0 hr 11 min 38 sec) 
Heartbeat CPU  0 instructions:  272000000 cycles:  467928449 heartbeat IPC: 0.69370 cumulative IPC: 0.41211 (Simulation time: 0 hr 11 min 40 sec) 
Heartbeat CPU  0 instructions:  273000000 cycles:  469473146 heartbeat IPC: 0.64738 cumulative IPC: 0.41298 (Simulation time: 0 hr 11 min 43 sec) 
Heartbeat CPU  0 instructions:  274000002 cycles:  471040419 heartbeat IPC: 0.63805 cumulative IPC: 0.41382 (Simulation time: 0 hr 11 min 46 sec) 
Heartbeat CPU  0 instructions:  275000000 cycles:  472643856 heartbeat IPC: 0.62366 cumulative IPC: 0.41462 (Simulation time: 0 hr 11 min 49 sec) 
Heartbeat CPU  0 instructions:  276000000 cycles:  474292887 heartbeat IPC: 0.60642 cumulative IPC: 0.41536 (Simulation time: 0 hr 11 min 52 sec) 
Heartbeat CPU  0 instructions:  277000002 cycles:  475839119 heartbeat IPC: 0.64673 cumulative IPC: 0.41620 (Simulation time: 0 hr 11 min 54 sec) 
Heartbeat CPU  0 instructions:  278000002 cycles:  477358324 heartbeat IPC: 0.65824 cumulative IPC: 0.41706 (Simulation time: 0 hr 11 min 57 sec) 
Heartbeat CPU  0 instructions:  279000000 cycles:  478974189 heartbeat IPC: 0.61886 cumulative IPC: 0.41783 (Simulation time: 0 hr 12 min 0 sec) 
Heartbeat CPU  0 instructions:  280000000 cycles:  480459431 heartbeat IPC: 0.67329 cumulative IPC: 0.41871 (Simulation time: 0 hr 12 min 2 sec) 
Heartbeat CPU  0 instructions:  281000002 cycles:  482086223 heartbeat IPC: 0.61471 cumulative IPC: 0.41945 (Simulation time: 0 hr 12 min 5 sec) 
Heartbeat CPU  0 instructions:  282000002 cycles:  483789262 heartbeat IPC: 0.58719 cumulative IPC: 0.42011 (Simulation time: 0 hr 12 min 8 sec) 
Heartbeat CPU  0 instructions:  283000001 cycles:  485194581 heartbeat IPC: 0.71158 cumulative IPC: 0.42105 (Simulation time: 0 hr 12 min 11 sec) 
Heartbeat CPU  0 instructions:  284000000 cycles:  486832299 heartbeat IPC: 0.61061 cumulative IPC: 0.42176 (Simulation time: 0 hr 12 min 14 sec) 
Heartbeat CPU  0 instructions:  285000003 cycles:  488357525 heartbeat IPC: 0.65564 cumulative IPC: 0.42258 (Simulation time: 0 hr 12 min 17 sec) 
Heartbeat CPU  0 instructions:  286000003 cycles:  490014273 heartbeat IPC: 0.60359 cumulative IPC: 0.42326 (Simulation time: 0 hr 12 min 20 sec) 
Heartbeat CPU  0 instructions:  287000001 cycles:  491643676 heartbeat IPC: 0.61372 cumulative IPC: 0.42396 (Simulation time: 0 hr 12 min 23 sec) 
Heartbeat CPU  0 instructions:  288000000 cycles:  493222774 heartbeat IPC: 0.63327 cumulative IPC: 0.42471 (Simulation time: 0 hr 12 min 25 sec) 
Heartbeat CPU  0 instructions:  289000001 cycles:  494796364 heartbeat IPC: 0.63549 cumulative IPC: 0.42546 (Simulation time: 0 hr 12 min 28 sec) 
Heartbeat CPU  0 instructions:  290000003 cycles:  496408510 heartbeat IPC: 0.62029 cumulative IPC: 0.42616 (Simulation time: 0 hr 12 min 30 sec) 
Heartbeat CPU  0 instructions:  291000003 cycles:  497913508 heartbeat IPC: 0.66445 cumulative IPC: 0.42696 (Simulation time: 0 hr 12 min 33 sec) 
Heartbeat CPU  0 instructions:  292000000 cycles:  499580570 heartbeat IPC: 0.59986 cumulative IPC: 0.42760 (Simulation time: 0 hr 12 min 35 sec) 
Heartbeat CPU  0 instructions:  293000002 cycles:  501237861 heartbeat IPC: 0.60340 cumulative IPC: 0.42825 (Simulation time: 0 hr 12 min 38 sec) 
Heartbeat CPU  0 instructions:  294000002 cycles:  502783142 heartbeat IPC: 0.64713 cumulative IPC: 0.42900 (Simulation time: 0 hr 12 min 40 sec) 
Heartbeat CPU  0 instructions:  295000001 cycles:  504440652 heartbeat IPC: 0.60331 cumulative IPC: 0.42963 (Simulation time: 0 hr 12 min 43 sec) 
Heartbeat CPU  0 instructions:  296000000 cycles:  506061264 heartbeat IPC: 0.61705 cumulative IPC: 0.43030 (Simulation time: 0 hr 12 min 46 sec) 
Heartbeat CPU  0 instructions:  297000003 cycles:  507626539 heartbeat IPC: 0.63887 cumulative IPC: 0.43102 (Simulation time: 0 hr 12 min 48 sec) 
Heartbeat CPU  0 instructions:  298000000 cycles:  509219926 heartbeat IPC: 0.62759 cumulative IPC: 0.43170 (Simulation time: 0 hr 12 min 51 sec) 
Heartbeat CPU  0 instructions:  299000003 cycles:  510783166 heartbeat IPC: 0.63970 cumulative IPC: 0.43240 (Simulation time: 0 hr 12 min 53 sec) 
Heartbeat CPU  0 instructions:  300000000 cycles:  512492714 heartbeat IPC: 0.58495 cumulative IPC: 0.43297 (Simulation time: 0 hr 12 min 56 sec) 
Heartbeat CPU  0 instructions:  301000002 cycles:  514148546 heartbeat IPC: 0.60393 cumulative IPC: 0.43358 (Simulation time: 0 hr 12 min 58 sec) 
Heartbeat CPU  0 instructions:  302000003 cycles:  515844915 heartbeat IPC: 0.58950 cumulative IPC: 0.43415 (Simulation time: 0 hr 13 min 1 sec) 
Heartbeat CPU  0 instructions:  303000001 cycles:  517618846 heartbeat IPC: 0.56372 cumulative IPC: 0.43464 (Simulation time: 0 hr 13 min 4 sec) 
Heartbeat CPU  0 instructions:  304000000 cycles:  519204619 heartbeat IPC: 0.63061 cumulative IPC: 0.43530 (Simulation time: 0 hr 13 min 6 sec) 
Heartbeat CPU  0 instructions:  305000003 cycles:  520803297 heartbeat IPC: 0.62552 cumulative IPC: 0.43595 (Simulation time: 0 hr 13 min 9 sec) 
Heartbeat CPU  0 instructions:  306000001 cycles:  522495573 heartbeat IPC: 0.59092 cumulative IPC: 0.43651 (Simulation time: 0 hr 13 min 11 sec) 
Heartbeat CPU  0 instructions:  307000001 cycles:  524163022 heartbeat IPC: 0.59972 cumulative IPC: 0.43708 (Simulation time: 0 hr 13 min 14 sec) 
Heartbeat CPU  0 instructions:  308000000 cycles:  525690311 heartbeat IPC: 0.65475 cumulative IPC: 0.43778 (Simulation time: 0 hr 13 min 17 sec) 
Heartbeat CPU  0 instructions:  309000001 cycles:  527278096 heartbeat IPC: 0.62981 cumulative IPC: 0.43842 (Simulation time: 0 hr 13 min 19 sec) 
Heartbeat CPU  0 instructions:  310000000 cycles:  528767675 heartbeat IPC: 0.67133 cumulative IPC: 0.43915 (Simulation time: 0 hr 13 min 22 sec) 
Heartbeat CPU  0 instructions:  311000000 cycles:  530421634 heartbeat IPC: 0.60461 cumulative IPC: 0.43972 (Simulation time: 0 hr 13 min 24 sec) 
Heartbeat CPU  0 instructions:  312000000 cycles:  532050892 heartbeat IPC: 0.61378 cumulative IPC: 0.44030 (Simulation time: 0 hr 13 min 27 sec) 
Heartbeat CPU  0 instructions:  313000003 cycles:  533641151 heartbeat IPC: 0.62883 cumulative IPC: 0.44093 (Simulation time: 0 hr 13 min 29 sec) 
Heartbeat CPU  0 instructions:  314000001 cycles:  535323582 heartbeat IPC: 0.59438 cumulative IPC: 0.44146 (Simulation time: 0 hr 13 min 32 sec) 
Heartbeat CPU  0 instructions:  315000000 cycles:  536906494 heartbeat IPC: 0.63175 cumulative IPC: 0.44208 (Simulation time: 0 hr 13 min 34 sec) 
Heartbeat CPU  0 instructions:  316000000 cycles:  538482202 heartbeat IPC: 0.63464 cumulative IPC: 0.44270 (Simulation time: 0 hr 13 min 37 sec) 
Heartbeat CPU  0 instructions:  317000003 cycles:  540136066 heartbeat IPC: 0.60465 cumulative IPC: 0.44325 (Simulation time: 0 hr 13 min 40 sec) 
Heartbeat CPU  0 instructions:  318000002 cycles:  541825082 heartbeat IPC: 0.59206 cumulative IPC: 0.44376 (Simulation time: 0 hr 13 min 43 sec) 
Heartbeat CPU  0 instructions:  319000002 cycles:  543428355 heartbeat IPC: 0.62372 cumulative IPC: 0.44434 (Simulation time: 0 hr 13 min 45 sec) 
Heartbeat CPU  0 instructions:  320000000 cycles:  544984414 heartbeat IPC: 0.64265 cumulative IPC: 0.44497 (Simulation time: 0 hr 13 min 48 sec) 
Heartbeat CPU  0 instructions:  321000002 cycles:  546505210 heartbeat IPC: 0.65755 cumulative IPC: 0.44562 (Simulation time: 0 hr 13 min 51 sec) 
Heartbeat CPU  0 instructions:  322000002 cycles:  548128147 heartbeat IPC: 0.61617 cumulative IPC: 0.44618 (Simulation time: 0 hr 13 min 53 sec) 
Heartbeat CPU  0 instructions:  323000002 cycles:  549758759 heartbeat IPC: 0.61327 cumulative IPC: 0.44672 (Simulation time: 0 hr 13 min 56 sec) 
Heartbeat CPU  0 instructions:  324000000 cycles:  551562379 heartbeat IPC: 0.55444 cumulative IPC: 0.44711 (Simulation time: 0 hr 13 min 59 sec) 
Heartbeat CPU  0 instructions:  325000002 cycles:  553048528 heartbeat IPC: 0.67288 cumulative IPC: 0.44778 (Simulation time: 0 hr 14 min 2 sec) 
Heartbeat CPU  0 instructions:  326000000 cycles:  554698281 heartbeat IPC: 0.60615 cumulative IPC: 0.44830 (Simulation time: 0 hr 14 min 4 sec) 
Heartbeat CPU  0 instructions:  327000002 cycles:  556272468 heartbeat IPC: 0.63525 cumulative IPC: 0.44888 (Simulation time: 0 hr 14 min 7 sec) 
Heartbeat CPU  0 instructions:  328000000 cycles:  557903098 heartbeat IPC: 0.61326 cumulative IPC: 0.44941 (Simulation time: 0 hr 14 min 10 sec) 
Heartbeat CPU  0 instructions:  329000001 cycles:  559608084 heartbeat IPC: 0.58652 cumulative IPC: 0.44986 (Simulation time: 0 hr 14 min 13 sec) 
Heartbeat CPU  0 instructions:  330000001 cycles:  561200166 heartbeat IPC: 0.62811 cumulative IPC: 0.45042 (Simulation time: 0 hr 14 min 15 sec) 
Heartbeat CPU  0 instructions:  331000003 cycles:  562758551 heartbeat IPC: 0.64169 cumulative IPC: 0.45100 (Simulation time: 0 hr 14 min 18 sec) 
Heartbeat CPU  0 instructions:  332000000 cycles:  564331396 heartbeat IPC: 0.63579 cumulative IPC: 0.45157 (Simulation time: 0 hr 14 min 21 sec) 
Heartbeat CPU  0 instructions:  333000003 cycles:  565926274 heartbeat IPC: 0.62701 cumulative IPC: 0.45211 (Simulation time: 0 hr 14 min 23 sec) 
Heartbeat CPU  0 instructions:  334000003 cycles:  567597799 heartbeat IPC: 0.59826 cumulative IPC: 0.45258 (Simulation time: 0 hr 14 min 26 sec) 
Heartbeat CPU  0 instructions:  335000002 cycles:  569366239 heartbeat IPC: 0.56547 cumulative IPC: 0.45297 (Simulation time: 0 hr 14 min 29 sec) 
Heartbeat CPU  0 instructions:  336000000 cycles:  570860745 heartbeat IPC: 0.66912 cumulative IPC: 0.45359 (Simulation time: 0 hr 14 min 32 sec) 
Heartbeat CPU  0 instructions:  337000002 cycles:  572524901 heartbeat IPC: 0.60091 cumulative IPC: 0.45406 (Simulation time: 0 hr 14 min 34 sec) 
Heartbeat CPU  0 instructions:  338000002 cycles:  574070630 heartbeat IPC: 0.64694 cumulative IPC: 0.45463 (Simulation time: 0 hr 14 min 37 sec) 
Heartbeat CPU  0 instructions:  339000002 cycles:  575691233 heartbeat IPC: 0.61705 cumulative IPC: 0.45513 (Simulation time: 0 hr 14 min 39 sec) 
Heartbeat CPU  0 instructions:  340000000 cycles:  577269984 heartbeat IPC: 0.63341 cumulative IPC: 0.45566 (Simulation time: 0 hr 14 min 42 sec) 
Heartbeat CPU  0 instructions:  341000001 cycles:  578802385 heartbeat IPC: 0.65257 cumulative IPC: 0.45624 (Simulation time: 0 hr 14 min 44 sec) 
Heartbeat CPU  0 instructions:  342000003 cycles:  580375802 heartbeat IPC: 0.63556 cumulative IPC: 0.45677 (Simulation time: 0 hr 14 min 47 sec) 
Heartbeat CPU  0 instructions:  343000003 cycles:  582005370 heartbeat IPC: 0.61366 cumulative IPC: 0.45725 (Simulation time: 0 hr 14 min 50 sec) 
Heartbeat CPU  0 instructions:  344000000 cycles:  583551658 heartbeat IPC: 0.64671 cumulative IPC: 0.45780 (Simulation time: 0 hr 14 min 52 sec) 
Heartbeat CPU  0 instructions:  345000001 cycles:  585312232 heartbeat IPC: 0.56800 cumulative IPC: 0.45816 (Simulation time: 0 hr 14 min 55 sec) 
Heartbeat CPU  0 instructions:  346000003 cycles:  586908451 heartbeat IPC: 0.62648 cumulative IPC: 0.45866 (Simulation time: 0 hr 14 min 58 sec) 
Heartbeat CPU  0 instructions:  347000003 cycles:  588505806 heartbeat IPC: 0.62603 cumulative IPC: 0.45916 (Simulation time: 0 hr 15 min 1 sec) 
Heartbeat CPU  0 instructions:  348000000 cycles:  590226937 heartbeat IPC: 0.58101 cumulative IPC: 0.45955 (Simulation time: 0 hr 15 min 3 sec) 
Heartbeat CPU  0 instructions:  349000000 cycles:  591769469 heartbeat IPC: 0.64828 cumulative IPC: 0.46009 (Simulation time: 0 hr 15 min 6 sec) 
Heartbeat CPU  0 instructions:  350000003 cycles:  593415649 heartbeat IPC: 0.60747 cumulative IPC: 0.46053 (Simulation time: 0 hr 15 min 9 sec) 
Heartbeat CPU  0 instructions:  351000002 cycles:  595087061 heartbeat IPC: 0.59830 cumulative IPC: 0.46096 (Simulation time: 0 hr 15 min 12 sec) 
Heartbeat CPU  0 instructions:  352000000 cycles:  596617954 heartbeat IPC: 0.65321 cumulative IPC: 0.46149 (Simulation time: 0 hr 15 min 16 sec) 
Heartbeat CPU  0 instructions:  353000003 cycles:  598274374 heartbeat IPC: 0.60371 cumulative IPC: 0.46192 (Simulation time: 0 hr 15 min 19 sec) 
Heartbeat CPU  0 instructions:  354000003 cycles:  599904015 heartbeat IPC: 0.61363 cumulative IPC: 0.46237 (Simulation time: 0 hr 15 min 22 sec) 
Heartbeat CPU  0 instructions:  355000000 cycles:  601458185 heartbeat IPC: 0.64343 cumulative IPC: 0.46289 (Simulation time: 0 hr 15 min 25 sec) 
Heartbeat CPU  0 instructions:  356000000 cycles:  603202431 heartbeat IPC: 0.57331 cumulative IPC: 0.46323 (Simulation time: 0 hr 15 min 28 sec) 
Heartbeat CPU  0 instructions:  357000001 cycles:  604731798 heartbeat IPC: 0.65387 cumulative IPC: 0.46376 (Simulation time: 0 hr 15 min 30 sec) 
Heartbeat CPU  0 instructions:  358000003 cycles:  606346888 heartbeat IPC: 0.61916 cumulative IPC: 0.46421 (Simulation time: 0 hr 15 min 33 sec) 
Heartbeat CPU  0 instructions:  359000000 cycles:  608010149 heartbeat IPC: 0.60123 cumulative IPC: 0.46462 (Simulation time: 0 hr 15 min 37 sec) 
Heartbeat CPU  0 instructions:  360000000 cycles:  609668529 heartbeat IPC: 0.60300 cumulative IPC: 0.46503 (Simulation time: 0 hr 15 min 40 sec) 
Heartbeat CPU  0 instructions:  361000002 cycles:  611430361 heartbeat IPC: 0.56759 cumulative IPC: 0.46535 (Simulation time: 0 hr 15 min 43 sec) 
Heartbeat CPU  0 instructions:  362000002 cycles:  613095442 heartbeat IPC: 0.60057 cumulative IPC: 0.46575 (Simulation time: 0 hr 15 min 45 sec) 
Heartbeat CPU  0 instructions:  363000002 cycles:  614606934 heartbeat IPC: 0.66160 cumulative IPC: 0.46628 (Simulation time: 0 hr 15 min 48 sec) 
Heartbeat CPU  0 instructions:  364000000 cycles:  616265608 heartbeat IPC: 0.60289 cumulative IPC: 0.46668 (Simulation time: 0 hr 15 min 51 sec) 
Heartbeat CPU  0 instructions:  365000001 cycles:  617910033 heartbeat IPC: 0.60812 cumulative IPC: 0.46709 (Simulation time: 0 hr 15 min 54 sec) 
Heartbeat CPU  0 instructions:  366000001 cycles:  619556907 heartbeat IPC: 0.60721 cumulative IPC: 0.46749 (Simulation time: 0 hr 15 min 57 sec) 
Heartbeat CPU  0 instructions:  367000003 cycles:  621177484 heartbeat IPC: 0.61707 cumulative IPC: 0.46792 (Simulation time: 0 hr 16 min 0 sec) 
Heartbeat CPU  0 instructions:  368000000 cycles:  622728977 heartbeat IPC: 0.64454 cumulative IPC: 0.46840 (Simulation time: 0 hr 16 min 3 sec) 
Heartbeat CPU  0 instructions:  369000001 cycles:  624339467 heartbeat IPC: 0.62093 cumulative IPC: 0.46883 (Simulation time: 0 hr 16 min 5 sec) 
Heartbeat CPU  0 instructions:  370000002 cycles:  625985145 heartbeat IPC: 0.60765 cumulative IPC: 0.46922 (Simulation time: 0 hr 16 min 8 sec) 
Heartbeat CPU  0 instructions:  371000002 cycles:  627580434 heartbeat IPC: 0.62685 cumulative IPC: 0.46966 (Simulation time: 0 hr 16 min 11 sec) 
Heartbeat CPU  0 instructions:  372000000 cycles:  629072295 heartbeat IPC: 0.67030 cumulative IPC: 0.47018 (Simulation time: 0 hr 16 min 14 sec) 
Heartbeat CPU  0 instructions:  373000001 cycles:  630596834 heartbeat IPC: 0.65594 cumulative IPC: 0.47066 (Simulation time: 0 hr 16 min 16 sec) 
Heartbeat CPU  0 instructions:  374000001 cycles:  632039871 heartbeat IPC: 0.69298 cumulative IPC: 0.47122 (Simulation time: 0 hr 16 min 19 sec) 
Heartbeat CPU  0 instructions:  375000000 cycles:  633720985 heartbeat IPC: 0.59484 cumulative IPC: 0.47157 (Simulation time: 0 hr 16 min 22 sec) 
Heartbeat CPU  0 instructions:  376000000 cycles:  635352417 heartbeat IPC: 0.61296 cumulative IPC: 0.47197 (Simulation time: 0 hr 16 min 25 sec) 
Heartbeat CPU  0 instructions:  377000002 cycles:  637074238 heartbeat IPC: 0.58078 cumulative IPC: 0.47229 (Simulation time: 0 hr 16 min 28 sec) 
Heartbeat CPU  0 instructions:  378000000 cycles:  638650416 heartbeat IPC: 0.63444 cumulative IPC: 0.47272 (Simulation time: 0 hr 16 min 31 sec) 
Heartbeat CPU  0 instructions:  379000000 cycles:  640166317 heartbeat IPC: 0.65967 cumulative IPC: 0.47320 (Simulation time: 0 hr 16 min 33 sec) 
Heartbeat CPU  0 instructions:  380000000 cycles:  641787805 heartbeat IPC: 0.61672 cumulative IPC: 0.47360 (Simulation time: 0 hr 16 min 36 sec) 
Heartbeat CPU  0 instructions:  381000002 cycles:  643372303 heartbeat IPC: 0.63112 cumulative IPC: 0.47402 (Simulation time: 0 hr 16 min 39 sec) 
Heartbeat CPU  0 instructions:  382000000 cycles:  644977514 heartbeat IPC: 0.62297 cumulative IPC: 0.47442 (Simulation time: 0 hr 16 min 42 sec) 
Heartbeat CPU  0 instructions:  383000000 cycles:  646458721 heartbeat IPC: 0.67513 cumulative IPC: 0.47492 (Simulation time: 0 hr 16 min 44 sec) 
Heartbeat CPU  0 instructions:  384000000 cycles:  647997128 heartbeat IPC: 0.65002 cumulative IPC: 0.47537 (Simulation time: 0 hr 16 min 47 sec) 
Heartbeat CPU  0 instructions:  385000001 cycles:  649511333 heartbeat IPC: 0.66041 cumulative IPC: 0.47584 (Simulation time: 0 hr 16 min 49 sec) 
Heartbeat CPU  0 instructions:  386000002 cycles:  651204911 heartbeat IPC: 0.59047 cumulative IPC: 0.47616 (Simulation time: 0 hr 16 min 52 sec) 
Heartbeat CPU  0 instructions:  387000000 cycles:  653067113 heartbeat IPC: 0.53700 cumulative IPC: 0.47635 (Simulation time: 0 hr 16 min 55 sec) 
Heartbeat CPU  0 instructions:  388000000 cycles:  654715916 heartbeat IPC: 0.60650 cumulative IPC: 0.47670 (Simulation time: 0 hr 16 min 58 sec) 
Heartbeat CPU  0 instructions:  389000003 cycles:  656258514 heartbeat IPC: 0.64826 cumulative IPC: 0.47714 (Simulation time: 0 hr 17 min 1 sec) 
Heartbeat CPU  0 instructions:  390000001 cycles:  657896898 heartbeat IPC: 0.61036 cumulative IPC: 0.47750 (Simulation time: 0 hr 17 min 3 sec) 
Heartbeat CPU  0 instructions:  391000002 cycles:  659467228 heartbeat IPC: 0.63681 cumulative IPC: 0.47791 (Simulation time: 0 hr 17 min 6 sec) 
Heartbeat CPU  0 instructions:  392000000 cycles:  661170768 heartbeat IPC: 0.58701 cumulative IPC: 0.47821 (Simulation time: 0 hr 17 min 9 sec) 
Heartbeat CPU  0 instructions:  393000003 cycles:  662823047 heartbeat IPC: 0.60523 cumulative IPC: 0.47856 (Simulation time: 0 hr 17 min 12 sec) 
Heartbeat CPU  0 instructions:  394000003 cycles:  664357398 heartbeat IPC: 0.65174 cumulative IPC: 0.47899 (Simulation time: 0 hr 17 min 15 sec) 
Heartbeat CPU  0 instructions:  395000003 cycles:  665958491 heartbeat IPC: 0.62457 cumulative IPC: 0.47937 (Simulation time: 0 hr 17 min 18 sec) 
Heartbeat CPU  0 instructions:  396000000 cycles:  667493246 heartbeat IPC: 0.65157 cumulative IPC: 0.47980 (Simulation time: 0 hr 17 min 20 sec) 
Heartbeat CPU  0 instructions:  397000001 cycles:  669069442 heartbeat IPC: 0.63444 cumulative IPC: 0.48019 (Simulation time: 0 hr 17 min 23 sec) 
Heartbeat CPU  0 instructions:  398000001 cycles:  675701140 heartbeat IPC: 0.15079 cumulative IPC: 0.47670 (Simulation time: 0 hr 17 min 28 sec) 
Heartbeat CPU  0 instructions:  399000000 cycles:  678018374 heartbeat IPC: 0.43155 cumulative IPC: 0.47653 (Simulation time: 0 hr 17 min 31 sec) 
Heartbeat CPU  0 instructions:  400000000 cycles:  679852063 heartbeat IPC: 0.54535 cumulative IPC: 0.47673 (Simulation time: 0 hr 17 min 34 sec) 
Heartbeat CPU  0 instructions:  401000001 cycles:  681603227 heartbeat IPC: 0.57105 cumulative IPC: 0.47699 (Simulation time: 0 hr 17 min 37 sec) 
Heartbeat CPU  0 instructions:  402000003 cycles:  683402522 heartbeat IPC: 0.55577 cumulative IPC: 0.47722 (Simulation time: 0 hr 17 min 40 sec) 
Heartbeat CPU  0 instructions:  403000000 cycles:  684979610 heartbeat IPC: 0.63408 cumulative IPC: 0.47761 (Simulation time: 0 hr 17 min 43 sec) 
Heartbeat CPU  0 instructions:  404000000 cycles:  686616860 heartbeat IPC: 0.61078 cumulative IPC: 0.47795 (Simulation time: 0 hr 17 min 46 sec) 
Heartbeat CPU  0 instructions:  405000003 cycles:  688407342 heartbeat IPC: 0.55851 cumulative IPC: 0.47818 (Simulation time: 0 hr 17 min 49 sec) 
Heartbeat CPU  0 instructions:  406000003 cycles:  690178100 heartbeat IPC: 0.56473 cumulative IPC: 0.47842 (Simulation time: 0 hr 17 min 52 sec) 
Heartbeat CPU  0 instructions:  407000000 cycles:  691853858 heartbeat IPC: 0.59674 cumulative IPC: 0.47872 (Simulation time: 0 hr 17 min 55 sec) 
Heartbeat CPU  0 instructions:  408000000 cycles:  693487035 heartbeat IPC: 0.61230 cumulative IPC: 0.47906 (Simulation time: 0 hr 17 min 58 sec) 
Heartbeat CPU  0 instructions:  409000002 cycles:  695159129 heartbeat IPC: 0.59805 cumulative IPC: 0.47937 (Simulation time: 0 hr 18 min 0 sec) 
Heartbeat CPU  0 instructions:  410000002 cycles:  696747884 heartbeat IPC: 0.62942 cumulative IPC: 0.47974 (Simulation time: 0 hr 18 min 3 sec) 
Heartbeat CPU  0 instructions:  411000000 cycles:  698406350 heartbeat IPC: 0.60297 cumulative IPC: 0.48006 (Simulation time: 0 hr 18 min 6 sec) 
Heartbeat CPU  0 instructions:  412000000 cycles:  700165214 heartbeat IPC: 0.56855 cumulative IPC: 0.48030 (Simulation time: 0 hr 18 min 9 sec) 
Heartbeat CPU  0 instructions:  413000001 cycles:  701895195 heartbeat IPC: 0.57804 cumulative IPC: 0.48056 (Simulation time: 0 hr 18 min 12 sec) 
Heartbeat CPU  0 instructions:  414000000 cycles:  703636892 heartbeat IPC: 0.57415 cumulative IPC: 0.48081 (Simulation time: 0 hr 18 min 15 sec) 
Heartbeat CPU  0 instructions:  415000002 cycles:  705291157 heartbeat IPC: 0.60450 cumulative IPC: 0.48112 (Simulation time: 0 hr 18 min 18 sec) 
Heartbeat CPU  0 instructions:  416000000 cycles:  707119886 heartbeat IPC: 0.54683 cumulative IPC: 0.48130 (Simulation time: 0 hr 18 min 20 sec) 
Heartbeat CPU  0 instructions:  417000001 cycles:  708838617 heartbeat IPC: 0.58183 cumulative IPC: 0.48156 (Simulation time: 0 hr 18 min 23 sec) 
Heartbeat CPU  0 instructions:  418000002 cycles:  710611850 heartbeat IPC: 0.56394 cumulative IPC: 0.48178 (Simulation time: 0 hr 18 min 26 sec) 
Heartbeat CPU  0 instructions:  419000003 cycles:  712329707 heartbeat IPC: 0.58212 cumulative IPC: 0.48205 (Simulation time: 0 hr 18 min 29 sec) 
Heartbeat CPU  0 instructions:  420000000 cycles:  714128797 heartbeat IPC: 0.55583 cumulative IPC: 0.48225 (Simulation time: 0 hr 18 min 32 sec) 
Heartbeat CPU  0 instructions:  421000002 cycles:  715910778 heartbeat IPC: 0.56117 cumulative IPC: 0.48246 (Simulation time: 0 hr 18 min 35 sec) 
Heartbeat CPU  0 instructions:  422000000 cycles:  717705342 heartbeat IPC: 0.55724 cumulative IPC: 0.48266 (Simulation time: 0 hr 18 min 37 sec) 
Heartbeat CPU  0 instructions:  423000003 cycles:  719425980 heartbeat IPC: 0.58118 cumulative IPC: 0.48291 (Simulation time: 0 hr 18 min 40 sec) 
Heartbeat CPU  0 instructions:  424000000 cycles:  721194892 heartbeat IPC: 0.56532 cumulative IPC: 0.48313 (Simulation time: 0 hr 18 min 43 sec) 
Heartbeat CPU  0 instructions:  425000000 cycles:  723055790 heartbeat IPC: 0.53737 cumulative IPC: 0.48328 (Simulation time: 0 hr 18 min 46 sec) 
Heartbeat CPU  0 instructions:  426000000 cycles:  724818729 heartbeat IPC: 0.56723 cumulative IPC: 0.48350 (Simulation time: 0 hr 18 min 49 sec) 
Heartbeat CPU  0 instructions:  427000003 cycles:  726586388 heartbeat IPC: 0.56572 cumulative IPC: 0.48371 (Simulation time: 0 hr 18 min 52 sec) 
Heartbeat CPU  0 instructions:  428000000 cycles:  728411548 heartbeat IPC: 0.54790 cumulative IPC: 0.48389 (Simulation time: 0 hr 18 min 55 sec) 
Heartbeat CPU  0 instructions:  429000000 cycles:  730170645 heartbeat IPC: 0.56847 cumulative IPC: 0.48411 (Simulation time: 0 hr 18 min 58 sec) 
Heartbeat CPU  0 instructions:  430000003 cycles:  732017770 heartbeat IPC: 0.54138 cumulative IPC: 0.48426 (Simulation time: 0 hr 19 min 1 sec) 
Heartbeat CPU  0 instructions:  431000003 cycles:  733786871 heartbeat IPC: 0.56526 cumulative IPC: 0.48447 (Simulation time: 0 hr 19 min 4 sec) 
Heartbeat CPU  0 instructions:  432000000 cycles:  735610304 heartbeat IPC: 0.54841 cumulative IPC: 0.48464 (Simulation time: 0 hr 19 min 7 sec) 
Heartbeat CPU  0 instructions:  433000001 cycles:  737393141 heartbeat IPC: 0.56090 cumulative IPC: 0.48484 (Simulation time: 0 hr 19 min 10 sec) 
Heartbeat CPU  0 instructions:  434000003 cycles:  739166566 heartbeat IPC: 0.56388 cumulative IPC: 0.48504 (Simulation time: 0 hr 19 min 12 sec) 
Heartbeat CPU  0 instructions:  435000001 cycles:  740898773 heartbeat IPC: 0.57730 cumulative IPC: 0.48527 (Simulation time: 0 hr 19 min 15 sec) 
Heartbeat CPU  0 instructions:  436000000 cycles:  742701897 heartbeat IPC: 0.55459 cumulative IPC: 0.48545 (Simulation time: 0 hr 19 min 18 sec) 
Heartbeat CPU  0 instructions:  437000000 cycles:  744537467 heartbeat IPC: 0.54479 cumulative IPC: 0.48561 (Simulation time: 0 hr 19 min 21 sec) 
Heartbeat CPU  0 instructions:  438000001 cycles:  746417822 heartbeat IPC: 0.53181 cumulative IPC: 0.48574 (Simulation time: 0 hr 19 min 24 sec) 
Heartbeat CPU  0 instructions:  439000002 cycles:  748209253 heartbeat IPC: 0.55821 cumulative IPC: 0.48592 (Simulation time: 0 hr 19 min 27 sec) 
Heartbeat CPU  0 instructions:  440000000 cycles:  749997896 heartbeat IPC: 0.55908 cumulative IPC: 0.48611 (Simulation time: 0 hr 19 min 30 sec) 
Heartbeat CPU  0 instructions:  441000001 cycles:  751783109 heartbeat IPC: 0.56016 cumulative IPC: 0.48630 (Simulation time: 0 hr 19 min 33 sec) 
Heartbeat CPU  0 instructions:  442000001 cycles:  753617708 heartbeat IPC: 0.54508 cumulative IPC: 0.48645 (Simulation time: 0 hr 19 min 36 sec) 
Heartbeat CPU  0 instructions:  443000003 cycles:  755437102 heartbeat IPC: 0.54963 cumulative IPC: 0.48661 (Simulation time: 0 hr 19 min 39 sec) 
Heartbeat CPU  0 instructions:  444000000 cycles:  757281811 heartbeat IPC: 0.54209 cumulative IPC: 0.48676 (Simulation time: 0 hr 19 min 42 sec) 
Heartbeat CPU  0 instructions:  445000001 cycles:  759105637 heartbeat IPC: 0.54830 cumulative IPC: 0.48692 (Simulation time: 0 hr 19 min 45 sec) 
Heartbeat CPU  0 instructions:  446000001 cycles:  760894506 heartbeat IPC: 0.55901 cumulative IPC: 0.48710 (Simulation time: 0 hr 19 min 47 sec) 
Heartbeat CPU  0 instructions:  447000002 cycles:  762648329 heartbeat IPC: 0.57018 cumulative IPC: 0.48730 (Simulation time: 0 hr 19 min 50 sec) 
Heartbeat CPU  0 instructions:  448000000 cycles:  764436219 heartbeat IPC: 0.55932 cumulative IPC: 0.48748 (Simulation time: 0 hr 19 min 53 sec) 
Heartbeat CPU  0 instructions:  449000003 cycles:  766219554 heartbeat IPC: 0.56075 cumulative IPC: 0.48767 (Simulation time: 0 hr 19 min 56 sec) 
Heartbeat CPU  0 instructions:  450000002 cycles:  768119820 heartbeat IPC: 0.52624 cumulative IPC: 0.48777 (Simulation time: 0 hr 19 min 59 sec) 
Heartbeat CPU  0 instructions:  451000000 cycles:  769883806 heartbeat IPC: 0.56690 cumulative IPC: 0.48796 (Simulation time: 0 hr 20 min 2 sec) 
Heartbeat CPU  0 instructions:  452000000 cycles:  771700431 heartbeat IPC: 0.55047 cumulative IPC: 0.48812 (Simulation time: 0 hr 20 min 5 sec) 
Heartbeat CPU  0 instructions:  453000003 cycles:  773429510 heartbeat IPC: 0.57834 cumulative IPC: 0.48834 (Simulation time: 0 hr 20 min 7 sec) 
Heartbeat CPU  0 instructions:  454000000 cycles:  775274068 heartbeat IPC: 0.54213 cumulative IPC: 0.48847 (Simulation time: 0 hr 20 min 10 sec) 
Heartbeat CPU  0 instructions:  455000002 cycles:  777133594 heartbeat IPC: 0.53777 cumulative IPC: 0.48860 (Simulation time: 0 hr 20 min 13 sec) 
Heartbeat CPU  0 instructions:  456000000 cycles:  778883803 heartbeat IPC: 0.57136 cumulative IPC: 0.48880 (Simulation time: 0 hr 20 min 16 sec) 
Heartbeat CPU  0 instructions:  457000000 cycles:  780699528 heartbeat IPC: 0.55074 cumulative IPC: 0.48895 (Simulation time: 0 hr 20 min 19 sec) 
Heartbeat CPU  0 instructions:  458000002 cycles:  782508280 heartbeat IPC: 0.55287 cumulative IPC: 0.48911 (Simulation time: 0 hr 20 min 23 sec) 
Heartbeat CPU  0 instructions:  459000003 cycles:  784309126 heartbeat IPC: 0.55530 cumulative IPC: 0.48927 (Simulation time: 0 hr 20 min 26 sec) 
Heartbeat CPU  0 instructions:  460000000 cycles:  786964315 heartbeat IPC: 0.37662 cumulative IPC: 0.48887 (Simulation time: 0 hr 20 min 29 sec) 
Heartbeat CPU  0 instructions:  461000000 cycles:  790642073 heartbeat IPC: 0.27190 cumulative IPC: 0.48779 (Simulation time: 0 hr 20 min 32 sec) 
Heartbeat CPU  0 instructions:  462000000 cycles:  794001677 heartbeat IPC: 0.29765 cumulative IPC: 0.48693 (Simulation time: 0 hr 20 min 36 sec) 
Heartbeat CPU  0 instructions:  463000001 cycles:  797202526 heartbeat IPC: 0.31242 cumulative IPC: 0.48618 (Simulation time: 0 hr 20 min 39 sec) 
Heartbeat CPU  0 instructions:  464000000 cycles:  800573018 heartbeat IPC: 0.29669 cumulative IPC: 0.48533 (Simulation time: 0 hr 20 min 42 sec) 
Heartbeat CPU  0 instructions:  465000002 cycles:  803987375 heartbeat IPC: 0.29288 cumulative IPC: 0.48446 (Simulation time: 0 hr 20 min 46 sec) 
Heartbeat CPU  0 instructions:  466000000 cycles:  807388377 heartbeat IPC: 0.29403 cumulative IPC: 0.48360 (Simulation time: 0 hr 20 min 49 sec) 
Heartbeat CPU  0 instructions:  467000001 cycles:  810803070 heartbeat IPC: 0.29285 cumulative IPC: 0.48274 (Simulation time: 0 hr 20 min 53 sec) 
Heartbeat CPU  0 instructions:  468000000 cycles:  814252816 heartbeat IPC: 0.28988 cumulative IPC: 0.48187 (Simulation time: 0 hr 20 min 56 sec) 
Heartbeat CPU  0 instructions:  469000003 cycles:  818845367 heartbeat IPC: 0.21774 cumulative IPC: 0.48029 (Simulation time: 0 hr 21 min 0 sec) 
Heartbeat CPU  0 instructions:  470000001 cycles:  822411825 heartbeat IPC: 0.28039 cumulative IPC: 0.47937 (Simulation time: 0 hr 21 min 3 sec) 
Heartbeat CPU  0 instructions:  471000001 cycles:  825644454 heartbeat IPC: 0.30935 cumulative IPC: 0.47866 (Simulation time: 0 hr 21 min 6 sec) 
Heartbeat CPU  0 instructions:  472000000 cycles:  828752877 heartbeat IPC: 0.32171 cumulative IPC: 0.47803 (Simulation time: 0 hr 21 min 10 sec) 
Heartbeat CPU  0 instructions:  473000002 cycles:  832056934 heartbeat IPC: 0.30266 cumulative IPC: 0.47729 (Simulation time: 0 hr 21 min 13 sec) 
Heartbeat CPU  0 instructions:  474000001 cycles:  835257196 heartbeat IPC: 0.31247 cumulative IPC: 0.47662 (Simulation time: 0 hr 21 min 16 sec) 
Heartbeat CPU  0 instructions:  475000001 cycles:  838490927 heartbeat IPC: 0.30924 cumulative IPC: 0.47593 (Simulation time: 0 hr 21 min 19 sec) 
Heartbeat CPU  0 instructions:  476000000 cycles:  841602598 heartbeat IPC: 0.32137 cumulative IPC: 0.47533 (Simulation time: 0 hr 21 min 23 sec) 
Heartbeat CPU  0 instructions:  477000002 cycles:  844725974 heartbeat IPC: 0.32017 cumulative IPC: 0.47472 (Simulation time: 0 hr 21 min 26 sec) 
Heartbeat CPU  0 instructions:  478000000 cycles:  848959212 heartbeat IPC: 0.23623 cumulative IPC: 0.47345 (Simulation time: 0 hr 21 min 29 sec) 
Heartbeat CPU  0 instructions:  479000002 cycles:  852556159 heartbeat IPC: 0.27801 cumulative IPC: 0.47257 (Simulation time: 0 hr 21 min 33 sec) 
Heartbeat CPU  0 instructions:  480000000 cycles:  855661208 heartbeat IPC: 0.32206 cumulative IPC: 0.47199 (Simulation time: 0 hr 21 min 36 sec) 
Heartbeat CPU  0 instructions:  481000003 cycles:  859055130 heartbeat IPC: 0.29465 cumulative IPC: 0.47125 (Simulation time: 0 hr 21 min 40 sec) 
Heartbeat CPU  0 instructions:  482000003 cycles:  862479114 heartbeat IPC: 0.29206 cumulative IPC: 0.47049 (Simulation time: 0 hr 21 min 43 sec) 
Heartbeat CPU  0 instructions:  483000003 cycles:  865791594 heartbeat IPC: 0.30189 cumulative IPC: 0.46981 (Simulation time: 0 hr 21 min 47 sec) 
Heartbeat CPU  0 instructions:  484000000 cycles:  869119427 heartbeat IPC: 0.30049 cumulative IPC: 0.46912 (Simulation time: 0 hr 21 min 51 sec) 
Heartbeat CPU  0 instructions:  485000002 cycles:  872418132 heartbeat IPC: 0.30315 cumulative IPC: 0.46845 (Simulation time: 0 hr 21 min 55 sec) 
Heartbeat CPU  0 instructions:  486000000 cycles:  875642779 heartbeat IPC: 0.31011 cumulative IPC: 0.46784 (Simulation time: 0 hr 21 min 58 sec) 
Heartbeat CPU  0 instructions:  487000000 cycles:  878992331 heartbeat IPC: 0.29855 cumulative IPC: 0.46715 (Simulation time: 0 hr 22 min 2 sec) 
Heartbeat CPU  0 instructions:  488000000 cycles:  881478385 heartbeat IPC: 0.40224 cumulative IPC: 0.46696 (Simulation time: 0 hr 22 min 5 sec) 
Heartbeat CPU  0 instructions:  489000000 cycles:  884115235 heartbeat IPC: 0.37924 cumulative IPC: 0.46668 (Simulation time: 0 hr 22 min 8 sec) 
Heartbeat CPU  0 instructions:  490000003 cycles:  886668529 heartbeat IPC: 0.39165 cumulative IPC: 0.46645 (Simulation time: 0 hr 22 min 12 sec) 
Heartbeat CPU  0 instructions:  491000003 cycles:  889309093 heartbeat IPC: 0.37871 cumulative IPC: 0.46617 (Simulation time: 0 hr 22 min 15 sec) 
Heartbeat CPU  0 instructions:  492000000 cycles:  891927178 heartbeat IPC: 0.38196 cumulative IPC: 0.46591 (Simulation time: 0 hr 22 min 19 sec) 
Heartbeat CPU  0 instructions:  493000001 cycles:  894591204 heartbeat IPC: 0.37537 cumulative IPC: 0.46563 (Simulation time: 0 hr 22 min 22 sec) 
Heartbeat CPU  0 instructions:  494000000 cycles:  897200229 heartbeat IPC: 0.38328 cumulative IPC: 0.46537 (Simulation time: 0 hr 22 min 25 sec) 
Heartbeat CPU  0 instructions:  495000000 cycles:  899821859 heartbeat IPC: 0.38144 cumulative IPC: 0.46511 (Simulation time: 0 hr 22 min 28 sec) 
Heartbeat CPU  0 instructions:  496000000 cycles:  902434679 heartbeat IPC: 0.38273 cumulative IPC: 0.46486 (Simulation time: 0 hr 22 min 32 sec) 
Heartbeat CPU  0 instructions:  497000002 cycles:  905057045 heartbeat IPC: 0.38134 cumulative IPC: 0.46460 (Simulation time: 0 hr 22 min 35 sec) 
Heartbeat CPU  0 instructions:  498000001 cycles:  907653119 heartbeat IPC: 0.38520 cumulative IPC: 0.46436 (Simulation time: 0 hr 22 min 38 sec) 
Heartbeat CPU  0 instructions:  499000000 cycles:  910290962 heartbeat IPC: 0.37910 cumulative IPC: 0.46410 (Simulation time: 0 hr 22 min 42 sec) 
Heartbeat CPU  0 instructions:  500000000 cycles:  912839179 heartbeat IPC: 0.39243 cumulative IPC: 0.46389 (Simulation time: 0 hr 22 min 45 sec) 
Heartbeat CPU  0 instructions:  501000003 cycles:  915448531 heartbeat IPC: 0.38324 cumulative IPC: 0.46365 (Simulation time: 0 hr 22 min 49 sec) 
Heartbeat CPU  0 instructions:  502000002 cycles:  918044368 heartbeat IPC: 0.38523 cumulative IPC: 0.46341 (Simulation time: 0 hr 22 min 52 sec) 
Heartbeat CPU  0 instructions:  503000000 cycles:  920654302 heartbeat IPC: 0.38315 cumulative IPC: 0.46317 (Simulation time: 0 hr 22 min 55 sec) 
Heartbeat CPU  0 instructions:  504000000 cycles:  923206301 heartbeat IPC: 0.39185 cumulative IPC: 0.46296 (Simulation time: 0 hr 22 min 58 sec) 
Heartbeat CPU  0 instructions:  505000000 cycles:  925808686 heartbeat IPC: 0.38426 cumulative IPC: 0.46273 (Simulation time: 0 hr 23 min 1 sec) 
Heartbeat CPU  0 instructions:  506000003 cycles:  928404758 heartbeat IPC: 0.38520 cumulative IPC: 0.46250 (Simulation time: 0 hr 23 min 5 sec) 
Heartbeat CPU  0 instructions:  507000002 cycles:  931020967 heartbeat IPC: 0.38223 cumulative IPC: 0.46226 (Simulation time: 0 hr 23 min 8 sec) 
Heartbeat CPU  0 instructions:  508000000 cycles:  933587020 heartbeat IPC: 0.38970 cumulative IPC: 0.46205 (Simulation time: 0 hr 23 min 11 sec) 
Heartbeat CPU  0 instructions:  509000001 cycles:  936212703 heartbeat IPC: 0.38085 cumulative IPC: 0.46181 (Simulation time: 0 hr 23 min 14 sec) 
Heartbeat CPU  0 instructions:  510000000 cycles:  938841771 heartbeat IPC: 0.38036 cumulative IPC: 0.46157 (Simulation time: 0 hr 23 min 18 sec) 
Heartbeat CPU  0 instructions:  511000001 cycles:  941440131 heartbeat IPC: 0.38486 cumulative IPC: 0.46134 (Simulation time: 0 hr 23 min 21 sec) 
Heartbeat CPU  0 instructions:  512000000 cycles:  944063315 heartbeat IPC: 0.38122 cumulative IPC: 0.46111 (Simulation time: 0 hr 23 min 25 sec) 
Heartbeat CPU  0 instructions:  513000000 cycles:  946697094 heartbeat IPC: 0.37968 cumulative IPC: 0.46087 (Simulation time: 0 hr 23 min 28 sec) 
Heartbeat CPU  0 instructions:  514000000 cycles:  949366304 heartbeat IPC: 0.37464 cumulative IPC: 0.46061 (Simulation time: 0 hr 23 min 31 sec) 
Heartbeat CPU  0 instructions:  515000003 cycles:  951959816 heartbeat IPC: 0.38558 cumulative IPC: 0.46040 (Simulation time: 0 hr 23 min 35 sec) 
Heartbeat CPU  0 instructions:  516000000 cycles:  954571758 heartbeat IPC: 0.38286 cumulative IPC: 0.46017 (Simulation time: 0 hr 23 min 38 sec) 
Heartbeat CPU  0 instructions:  517000001 cycles:  957204155 heartbeat IPC: 0.37988 cumulative IPC: 0.45994 (Simulation time: 0 hr 23 min 42 sec) 
Heartbeat CPU  0 instructions:  518000001 cycles:  959810557 heartbeat IPC: 0.38367 cumulative IPC: 0.45972 (Simulation time: 0 hr 23 min 45 sec) 
Heartbeat CPU  0 instructions:  519000000 cycles:  962500115 heartbeat IPC: 0.37181 cumulative IPC: 0.45946 (Simulation time: 0 hr 23 min 48 sec) 
Heartbeat CPU  0 instructions:  520000000 cycles:  965134320 heartbeat IPC: 0.37962 cumulative IPC: 0.45923 (Simulation time: 0 hr 23 min 52 sec) 
Heartbeat CPU  0 instructions:  521000002 cycles:  967711374 heartbeat IPC: 0.38804 cumulative IPC: 0.45903 (Simulation time: 0 hr 23 min 55 sec) 
Heartbeat CPU  0 instructions:  522000002 cycles:  970358201 heartbeat IPC: 0.37781 cumulative IPC: 0.45880 (Simulation time: 0 hr 23 min 59 sec) 
Heartbeat CPU  0 instructions:  523000001 cycles:  973000408 heartbeat IPC: 0.37847 cumulative IPC: 0.45857 (Simulation time: 0 hr 24 min 2 sec) 
Heartbeat CPU  0 instructions:  524000000 cycles:  975780215 heartbeat IPC: 0.35974 cumulative IPC: 0.45827 (Simulation time: 0 hr 24 min 5 sec) 
Heartbeat CPU  0 instructions:  525000000 cycles:  978262511 heartbeat IPC: 0.40285 cumulative IPC: 0.45812 (Simulation time: 0 hr 24 min 9 sec) 
Heartbeat CPU  0 instructions:  526000001 cycles:  980063600 heartbeat IPC: 0.55522 cumulative IPC: 0.45831 (Simulation time: 0 hr 24 min 12 sec) 
Heartbeat CPU  0 instructions:  527000001 cycles:  981939299 heartbeat IPC: 0.53313 cumulative IPC: 0.45846 (Simulation time: 0 hr 24 min 14 sec) 
Heartbeat CPU  0 instructions:  528000000 cycles:  983849576 heartbeat IPC: 0.52348 cumulative IPC: 0.45860 (Simulation time: 0 hr 24 min 17 sec) 
Heartbeat CPU  0 instructions:  529000003 cycles:  985661696 heartbeat IPC: 0.55184 cumulative IPC: 0.45878 (Simulation time: 0 hr 24 min 20 sec) 
Heartbeat CPU  0 instructions:  530000002 cycles:  987537030 heartbeat IPC: 0.53324 cumulative IPC: 0.45893 (Simulation time: 0 hr 24 min 23 sec) 
Heartbeat CPU  0 instructions:  531000001 cycles:  989399648 heartbeat IPC: 0.53688 cumulative IPC: 0.45908 (Simulation time: 0 hr 24 min 26 sec) 
Heartbeat CPU  0 instructions:  532000000 cycles:  991266717 heartbeat IPC: 0.53560 cumulative IPC: 0.45923 (Simulation time: 0 hr 24 min 28 sec) 
Heartbeat CPU  0 instructions:  533000003 cycles:  993311077 heartbeat IPC: 0.48915 cumulative IPC: 0.45930 (Simulation time: 0 hr 24 min 31 sec) 
Heartbeat CPU  0 instructions:  534000001 cycles:  995690340 heartbeat IPC: 0.42030 cumulative IPC: 0.45920 (Simulation time: 0 hr 24 min 34 sec) 
Heartbeat CPU  0 instructions:  535000000 cycles:  997335904 heartbeat IPC: 0.60769 cumulative IPC: 0.45946 (Simulation time: 0 hr 24 min 37 sec) 
Heartbeat CPU  0 instructions:  536000000 cycles:  999073517 heartbeat IPC: 0.57550 cumulative IPC: 0.45967 (Simulation time: 0 hr 24 min 40 sec) 
Heartbeat CPU  0 instructions:  537000003 cycles: 1000743629 heartbeat IPC: 0.59876 cumulative IPC: 0.45991 (Simulation time: 0 hr 24 min 43 sec) 
Heartbeat CPU  0 instructions:  538000003 cycles: 1002409284 heartbeat IPC: 0.60036 cumulative IPC: 0.46016 (Simulation time: 0 hr 24 min 46 sec) 
Heartbeat CPU  0 instructions:  539000001 cycles: 1004008314 heartbeat IPC: 0.62538 cumulative IPC: 0.46044 (Simulation time: 0 hr 24 min 49 sec) 
Heartbeat CPU  0 instructions:  540000000 cycles: 1005701054 heartbeat IPC: 0.59076 cumulative IPC: 0.46067 (Simulation time: 0 hr 24 min 52 sec) 
Heartbeat CPU  0 instructions:  541000003 cycles: 1007343814 heartbeat IPC: 0.60873 cumulative IPC: 0.46092 (Simulation time: 0 hr 24 min 54 sec) 
Heartbeat CPU  0 instructions:  542000000 cycles: 1009035608 heartbeat IPC: 0.59109 cumulative IPC: 0.46115 (Simulation time: 0 hr 24 min 57 sec) 
Heartbeat CPU  0 instructions:  543000000 cycles: 1010530086 heartbeat IPC: 0.66913 cumulative IPC: 0.46148 (Simulation time: 0 hr 25 min 0 sec) 
Heartbeat CPU  0 instructions:  544000000 cycles: 1012454640 heartbeat IPC: 0.51960 cumulative IPC: 0.46159 (Simulation time: 0 hr 25 min 2 sec) 
Heartbeat CPU  0 instructions:  545000003 cycles: 1014378322 heartbeat IPC: 0.51984 cumulative IPC: 0.46171 (Simulation time: 0 hr 25 min 5 sec) 
Heartbeat CPU  0 instructions:  546000002 cycles: 1016051161 heartbeat IPC: 0.59779 cumulative IPC: 0.46194 (Simulation time: 0 hr 25 min 8 sec) 
Heartbeat CPU  0 instructions:  547000002 cycles: 1017646394 heartbeat IPC: 0.62687 cumulative IPC: 0.46222 (Simulation time: 0 hr 25 min 10 sec) 
Heartbeat CPU  0 instructions:  548000000 cycles: 1019263892 heartbeat IPC: 0.61824 cumulative IPC: 0.46248 (Simulation time: 0 hr 25 min 13 sec) 
Heartbeat CPU  0 instructions:  549000003 cycles: 1020910149 heartbeat IPC: 0.60744 cumulative IPC: 0.46272 (Simulation time: 0 hr 25 min 16 sec) 
Heartbeat CPU  0 instructions:  550000000 cycles: 1022551447 heartbeat IPC: 0.60927 cumulative IPC: 0.46297 (Simulation time: 0 hr 25 min 18 sec) 
Heartbeat CPU  0 instructions:  551000000 cycles: 1024174153 heartbeat IPC: 0.61625 cumulative IPC: 0.46323 (Simulation time: 0 hr 25 min 21 sec) 
Heartbeat CPU  0 instructions:  552000000 cycles: 1025778519 heartbeat IPC: 0.62330 cumulative IPC: 0.46349 (Simulation time: 0 hr 25 min 23 sec) 
Heartbeat CPU  0 instructions:  553000000 cycles: 1027455766 heartbeat IPC: 0.59622 cumulative IPC: 0.46372 (Simulation time: 0 hr 25 min 26 sec) 
Heartbeat CPU  0 instructions:  554000000 cycles: 1029011449 heartbeat IPC: 0.64280 cumulative IPC: 0.46400 (Simulation time: 0 hr 25 min 29 sec) 
Heartbeat CPU  0 instructions:  555000002 cycles: 1031154262 heartbeat IPC: 0.46668 cumulative IPC: 0.46401 (Simulation time: 0 hr 25 min 32 sec) 
Heartbeat CPU  0 instructions:  556000000 cycles: 1032770375 heartbeat IPC: 0.61877 cumulative IPC: 0.46426 (Simulation time: 0 hr 25 min 34 sec) 
Heartbeat CPU  0 instructions:  557000000 cycles: 1034318590 heartbeat IPC: 0.64591 cumulative IPC: 0.46455 (Simulation time: 0 hr 25 min 37 sec) 
Heartbeat CPU  0 instructions:  558000000 cycles: 1035905072 heartbeat IPC: 0.63033 cumulative IPC: 0.46481 (Simulation time: 0 hr 25 min 40 sec) 
Heartbeat CPU  0 instructions:  559000000 cycles: 1037564841 heartbeat IPC: 0.60249 cumulative IPC: 0.46505 (Simulation time: 0 hr 25 min 42 sec) 
Heartbeat CPU  0 instructions:  560000000 cycles: 1039221325 heartbeat IPC: 0.60369 cumulative IPC: 0.46528 (Simulation time: 0 hr 25 min 45 sec) 
Heartbeat CPU  0 instructions:  561000001 cycles: 1040809040 heartbeat IPC: 0.62984 cumulative IPC: 0.46554 (Simulation time: 0 hr 25 min 47 sec) 
Heartbeat CPU  0 instructions:  562000003 cycles: 1042447711 heartbeat IPC: 0.61025 cumulative IPC: 0.46578 (Simulation time: 0 hr 25 min 50 sec) 
Heartbeat CPU  0 instructions:  563000000 cycles: 1044108042 heartbeat IPC: 0.60229 cumulative IPC: 0.46601 (Simulation time: 0 hr 25 min 53 sec) 
Heartbeat CPU  0 instructions:  564000000 cycles: 1045587723 heartbeat IPC: 0.67582 cumulative IPC: 0.46632 (Simulation time: 0 hr 25 min 56 sec) 
Heartbeat CPU  0 instructions:  565000003 cycles: 1047551878 heartbeat IPC: 0.50913 cumulative IPC: 0.46641 (Simulation time: 0 hr 25 min 58 sec) 
Heartbeat CPU  0 instructions:  566000003 cycles: 1049530976 heartbeat IPC: 0.50528 cumulative IPC: 0.46648 (Simulation time: 0 hr 26 min 1 sec) 
Heartbeat CPU  0 instructions:  567000001 cycles: 1051143207 heartbeat IPC: 0.62026 cumulative IPC: 0.46673 (Simulation time: 0 hr 26 min 4 sec) 
Heartbeat CPU  0 instructions:  568000000 cycles: 1052737962 heartbeat IPC: 0.62705 cumulative IPC: 0.46699 (Simulation time: 0 hr 26 min 7 sec) 
Heartbeat CPU  0 instructions:  569000002 cycles: 1054370823 heartbeat IPC: 0.61242 cumulative IPC: 0.46722 (Simulation time: 0 hr 26 min 9 sec) 
Heartbeat CPU  0 instructions:  570000000 cycles: 1056062816 heartbeat IPC: 0.59102 cumulative IPC: 0.46743 (Simulation time: 0 hr 26 min 12 sec) 
Heartbeat CPU  0 instructions:  571000002 cycles: 1057687923 heartbeat IPC: 0.61535 cumulative IPC: 0.46767 (Simulation time: 0 hr 26 min 14 sec) 
Heartbeat CPU  0 instructions:  572000000 cycles: 1059309285 heartbeat IPC: 0.61676 cumulative IPC: 0.46791 (Simulation time: 0 hr 26 min 17 sec) 
Heartbeat CPU  0 instructions:  573000001 cycles: 1060940181 heartbeat IPC: 0.61316 cumulative IPC: 0.46814 (Simulation time: 0 hr 26 min 20 sec) 
Heartbeat CPU  0 instructions:  574000003 cycles: 1062616608 heartbeat IPC: 0.59651 cumulative IPC: 0.46836 (Simulation time: 0 hr 26 min 23 sec) 
Heartbeat CPU  0 instructions:  575000000 cycles: 1064151459 heartbeat IPC: 0.65153 cumulative IPC: 0.46863 (Simulation time: 0 hr 26 min 25 sec) 
Heartbeat CPU  0 instructions:  576000000 cycles: 1066383292 heartbeat IPC: 0.44806 cumulative IPC: 0.46859 (Simulation time: 0 hr 26 min 29 sec) 
Heartbeat CPU  0 instructions:  577000000 cycles: 1068006339 heartbeat IPC: 0.61613 cumulative IPC: 0.46882 (Simulation time: 0 hr 26 min 32 sec) 
Heartbeat CPU  0 instructions:  578000002 cycles: 1069673770 heartbeat IPC: 0.59973 cumulative IPC: 0.46904 (Simulation time: 0 hr 26 min 34 sec) 
Heartbeat CPU  0 instructions:  579000001 cycles: 1071260745 heartbeat IPC: 0.63013 cumulative IPC: 0.46929 (Simulation time: 0 hr 26 min 37 sec) 
Heartbeat CPU  0 instructions:  580000000 cycles: 1072929317 heartbeat IPC: 0.59931 cumulative IPC: 0.46950 (Simulation time: 0 hr 26 min 40 sec) 
Heartbeat CPU  0 instructions:  581000002 cycles: 1074604288 heartbeat IPC: 0.59703 cumulative IPC: 0.46971 (Simulation time: 0 hr 26 min 42 sec) 
Heartbeat CPU  0 instructions:  582000000 cycles: 1076192147 heartbeat IPC: 0.62978 cumulative IPC: 0.46996 (Simulation time: 0 hr 26 min 45 sec) 
Heartbeat CPU  0 instructions:  583000003 cycles: 1077826899 heartbeat IPC: 0.61172 cumulative IPC: 0.47018 (Simulation time: 0 hr 26 min 48 sec) 
Heartbeat CPU  0 instructions:  584000000 cycles: 1079466479 heartbeat IPC: 0.60991 cumulative IPC: 0.47041 (Simulation time: 0 hr 26 min 50 sec) 
Heartbeat CPU  0 instructions:  585000002 cycles: 1080944256 heartbeat IPC: 0.67669 cumulative IPC: 0.47070 (Simulation time: 0 hr 26 min 53 sec) 
Heartbeat CPU  0 instructions:  586000003 cycles: 1082915816 heartbeat IPC: 0.50721 cumulative IPC: 0.47077 (Simulation time: 0 hr 26 min 55 sec) 
Heartbeat CPU  0 instructions:  587000001 cycles: 1084938389 heartbeat IPC: 0.49442 cumulative IPC: 0.47082 (Simulation time: 0 hr 26 min 58 sec) 
Heartbeat CPU  0 instructions:  588000000 cycles: 1086499046 heartbeat IPC: 0.64076 cumulative IPC: 0.47107 (Simulation time: 0 hr 27 min 1 sec) 
Heartbeat CPU  0 instructions:  589000002 cycles: 1088114536 heartbeat IPC: 0.61901 cumulative IPC: 0.47130 (Simulation time: 0 hr 27 min 3 sec) 
Heartbeat CPU  0 instructions:  590000001 cycles: 1089774540 heartbeat IPC: 0.60241 cumulative IPC: 0.47151 (Simulation time: 0 hr 27 min 6 sec) 
Heartbeat CPU  0 instructions:  591000002 cycles: 1091455261 heartbeat IPC: 0.59498 cumulative IPC: 0.47171 (Simulation time: 0 hr 27 min 9 sec) 
Heartbeat CPU  0 instructions:  592000000 cycles: 1093045316 heartbeat IPC: 0.62891 cumulative IPC: 0.47195 (Simulation time: 0 hr 27 min 11 sec) 
Heartbeat CPU  0 instructions:  593000003 cycles: 1094693645 heartbeat IPC: 0.60668 cumulative IPC: 0.47216 (Simulation time: 0 hr 27 min 14 sec) 
Heartbeat CPU  0 instructions:  594000000 cycles: 1096348420 heartbeat IPC: 0.60431 cumulative IPC: 0.47237 (Simulation time: 0 hr 27 min 17 sec) 
Heartbeat CPU  0 instructions:  595000003 cycles: 1097929706 heartbeat IPC: 0.63240 cumulative IPC: 0.47262 (Simulation time: 0 hr 27 min 19 sec) 
Heartbeat CPU  0 instructions:  596000000 cycles: 1099610299 heartbeat IPC: 0.59503 cumulative IPC: 0.47281 (Simulation time: 0 hr 27 min 22 sec) 
Heartbeat CPU  0 instructions:  597000001 cycles: 1101695081 heartbeat IPC: 0.47967 cumulative IPC: 0.47283 (Simulation time: 0 hr 27 min 25 sec) 
Heartbeat CPU  0 instructions:  598000002 cycles: 1103339142 heartbeat IPC: 0.60825 cumulative IPC: 0.47304 (Simulation time: 0 hr 27 min 28 sec) 
Heartbeat CPU  0 instructions:  599000000 cycles: 1104947053 heartbeat IPC: 0.62192 cumulative IPC: 0.47326 (Simulation time: 0 hr 27 min 31 sec) 
Heartbeat CPU  0 instructions:  600000000 cycles: 1106571363 heartbeat IPC: 0.61565 cumulative IPC: 0.47348 (Simulation time: 0 hr 27 min 34 sec) 
Finished CPU 0 instructions: 500000001 cycles: 1056005122 cumulative IPC: 0.47348 (Simulation time: 0 hr 27 min 34 sec) 

ChampSim completed all CPUs

[ROI Statistics]
Core_0_instructions 500000001
Core_0_cycles 1056005122
Core_0_IPC 0.47348

Core_0_branch_prediction_accuracy 99.14585
Core_0_branch_MPKI 0.18961
Core_0_average_ROB_occupancy_at_mispredict 244.01675

Core_0_L1D_total_access 145220780
Core_0_L1D_total_hit 140372369
Core_0_L1D_total_miss 4848411
Core_0_L1D_loads 135266722
Core_0_L1D_load_hit 131807471
Core_0_L1D_load_miss 3459251
Core_0_L1D_RFOs 9954058
Core_0_L1D_RFO_hit 8564898
Core_0_L1D_RFO_miss 1389160
Core_0_L1D_prefetches 0
Core_0_L1D_prefetch_hit 0
Core_0_L1D_prefetch_miss 0
Core_0_L1D_writebacks 0
Core_0_L1D_writeback_hit 0
Core_0_L1D_writeback_miss 0
Core_0_L1D_prefetch_requested 0
Core_0_L1D_prefetch_dropped 0
Core_0_L1D_prefetch_issued 0
Core_0_L1D_prefetch_filled 0
Core_0_L1D_prefetch_useful 0
Core_0_L1D_prefetch_useless 0
Core_0_L1D_prefetch_late 0
Core_0_L1D_average_miss_latency 967.09841

Core_0_L1D_rq_access 196254818
Core_0_L1D_rq_forward 0
Core_0_L1D_rq_merged 59926161
Core_0_L1D_rq_to_cache 136328657
Core_0_L1D_rq_full 0

Core_0_L1D_wq_access 15647860
Core_0_L1D_wq_forward 0
Core_0_L1D_wq_merged 1
Core_0_L1D_wq_to_cache 15647859
Core_0_L1D_wq_full 11069107

Core_0_L1D_pq_access 0
Core_0_L1D_pq_forward 0
Core_0_L1D_pq_merged 0
Core_0_L1D_pq_to_cache 0
Core_0_L1D_pq_full 0

Core_0_L1D_acc_epochs 1074961
Core_0_L1D_acc_level_0 1074961
Core_0_L1D_acc_level_1 0
Core_0_L1D_acc_level_2 0
Core_0_L1D_acc_level_3 0
Core_0_L1D_acc_level_4 0
Core_0_L1D_acc_level_5 0
Core_0_L1D_acc_level_6 0
Core_0_L1D_acc_level_7 0
Core_0_L1D_acc_level_8 0
Core_0_L1D_acc_level_9 0

Core_0_L1I_total_access 116326983
Core_0_L1I_total_hit 116326607
Core_0_L1I_total_miss 376
Core_0_L1I_loads 116326983
Core_0_L1I_load_hit 116326607
Core_0_L1I_load_miss 376
Core_0_L1I_RFOs 0
Core_0_L1I_RFO_hit 0
Core_0_L1I_RFO_miss 0
Core_0_L1I_prefetches 0
Core_0_L1I_prefetch_hit 0
Core_0_L1I_prefetch_miss 0
Core_0_L1I_writebacks 0
Core_0_L1I_writeback_hit 0
Core_0_L1I_writeback_miss 0
Core_0_L1I_prefetch_requested 0
Core_0_L1I_prefetch_dropped 0
Core_0_L1I_prefetch_issued 0
Core_0_L1I_prefetch_filled 0
Core_0_L1I_prefetch_useful 0
Core_0_L1I_prefetch_useless 0
Core_0_L1I_prefetch_late 0
Core_0_L1I_average_miss_latency 2247.53191

Core_0_L1I_rq_access 500000000
Core_0_L1I_rq_forward 0
Core_0_L1I_rq_merged 383671931
Core_0_L1I_rq_to_cache 116328069
Core_0_L1I_rq_full 0

Core_0_L1I_wq_access 0
Core_0_L1I_wq_forward 0
Core_0_L1I_wq_merged 0
Core_0_L1I_wq_to_cache 0
Core_0_L1I_wq_full 0

Core_0_L1I_pq_access 0
Core_0_L1I_pq_forward 0
Core_0_L1I_pq_merged 0
Core_0_L1I_pq_to_cache 0
Core_0_L1I_pq_full 0

Core_0_L1I_acc_epochs 1074961
Core_0_L1I_acc_level_0 1074961
Core_0_L1I_acc_level_1 0
Core_0_L1I_acc_level_2 0
Core_0_L1I_acc_level_3 0
Core_0_L1I_acc_level_4 0
Core_0_L1I_acc_level_5 0
Core_0_L1I_acc_level_6 0
Core_0_L1I_acc_level_7 0
Core_0_L1I_acc_level_8 0
Core_0_L1I_acc_level_9 0

Core_0_L2C_total_access 8787086
Core_0_L2C_total_hit 5111022
Core_0_L2C_total_miss 3676064
Core_0_L2C_loads 3459594
Core_0_L2C_load_hit 3059618
Core_0_L2C_load_miss 399976
Core_0_L2C_RFOs 1389133
Core_0_L2C_RFO_hit 377705
Core_0_L2C_RFO_miss 1011428
Core_0_L2C_prefetches 2282188
Core_0_L2C_prefetch_hit 18130
Core_0_L2C_prefetch_miss 2264058
Core_0_L2C_writebacks 1656171
Core_0_L2C_writeback_hit 1655569
Core_0_L2C_writeback_miss 602
Core_0_L2C_prefetch_requested 3321849
Core_0_L2C_prefetch_dropped 0
Core_0_L2C_prefetch_issued 3321849
Core_0_L2C_prefetch_filled 3011881
Core_0_L2C_prefetch_useful 2978500
Core_0_L2C_prefetch_useless 32851
Core_0_L2C_prefetch_late 162911
Core_0_L2C_average_miss_latency 3974.69359

Core_0_L2C_rq_access 4848787
Core_0_L2C_rq_forward 0
Core_0_L2C_rq_merged 0
Core_0_L2C_rq_to_cache 4848727
Core_0_L2C_rq_full 0

Core_0_L2C_wq_access 1656171
Core_0_L2C_wq_forward 61
Core_0_L2C_wq_merged 0
Core_0_L2C_wq_to_cache 1656171
Core_0_L2C_wq_full 0

Core_0_L2C_pq_access 3321849
Core_0_L2C_pq_forward 0
Core_0_L2C_pq_merged 0
Core_0_L2C_pq_to_cache 3321848
Core_0_L2C_pq_full 0

Core_0_L2C_acc_epochs 1074961
Core_0_L2C_acc_level_0 571004
Core_0_L2C_acc_level_1 100916
Core_0_L2C_acc_level_2 68704
Core_0_L2C_acc_level_3 41954
Core_0_L2C_acc_level_4 28728
Core_0_L2C_acc_level_5 48419
Core_0_L2C_acc_level_6 23538
Core_0_L2C_acc_level_7 19330
Core_0_L2C_acc_level_8 19078
Core_0_L2C_acc_level_9 153290

Core_0_LLC_total_access 4822802
Core_0_LLC_total_hit 541944
Core_0_LLC_total_miss 4280858
Core_0_LLC_loads 237187
Core_0_LLC_load_hit 28587
Core_0_LLC_load_miss 208600
Core_0_LLC_RFOs 1011421
Core_0_LLC_RFO_hit 61806
Core_0_LLC_RFO_miss 949615
Core_0_LLC_prefetches 2464382
Core_0_LLC_prefetch_hit 115201
Core_0_LLC_prefetch_miss 2349181
Core_0_LLC_writebacks 1109812
Core_0_LLC_writeback_hit 336350
Core_0_LLC_writeback_miss 773462
Core_0_LLC_prefetch_requested 0
Core_0_LLC_prefetch_dropped 0
Core_0_LLC_prefetch_issued 0
Core_0_LLC_prefetch_filled 2988821
Core_0_LLC_prefetch_useful 51690
Core_0_LLC_prefetch_useless 2925016
Core_0_LLC_prefetch_late 549
Core_0_LLC_average_miss_latency 3579.96321

Core_0_LLC_rq_access 1248608
Core_0_LLC_rq_forward 0
Core_0_LLC_rq_merged 0
Core_0_LLC_rq_to_cache 1248608
Core_0_LLC_rq_full 0

Core_0_LLC_wq_access 1109812
Core_0_LLC_wq_forward 0
Core_0_LLC_wq_merged 0
Core_0_LLC_wq_to_cache 1109812
Core_0_LLC_wq_full 2679

Core_0_LLC_pq_access 3264519
Core_0_LLC_pq_forward 0
Core_0_LLC_pq_merged 0
Core_0_LLC_pq_to_cache 3264519
Core_0_LLC_pq_full 0

Core_0_LLC_acc_epochs 1080637
Core_0_LLC_acc_level_0 1063497
Core_0_LLC_acc_level_1 5694
Core_0_LLC_acc_level_2 3161
Core_0_LLC_acc_level_3 1711
Core_0_LLC_acc_level_4 896
Core_0_LLC_acc_level_5 1515
Core_0_LLC_acc_level_6 611
Core_0_LLC_acc_level_7 531
Core_0_LLC_acc_level_8 401
Core_0_LLC_acc_level_9 2620

Core_0_major_page_fault 0
Core_0_minor_page_fault 19121

[Bingo] PHT Access: 147600
[Bingo] PHT Hit PC+Addr: 3698
[Bingo] PHT Hit PC+Offs: 134564
[Bingo] PHT Miss: 9338
[Bingo] Prefetch PC+Addr: 0
[Bingo] Prefetch PC+Offs: 0
[Bingo] Useful PC+Addr: 0
[Bingo] Useful PC+Offs: 0
[Bingo] Useless PC+Addr: 0
[Bingo] Useless PC+Offs: 0
[Bingo] L1 Prefetch per Region: 0.00000
[Bingo] L2 Prefetch per Region: 24.66374
[Bingo] L3 Prefetch per Region: 0.69250
[Bingo] No Prefetch per Region: 6.64376
[Bingo] Number of Voters Mean: 13.81112
[Bingo] Number of Voters SD: 4.07886

Channel_0_RQ_row_buffer_hit 1899846
Channel_0_RQ_row_buffer_miss 1607514
Channel_0_WQ_row_buffer_hit 235890
Channel_0_WQ_row_buffer_miss 815169
Channel_0_WQ_full 199601
Channel_0_dbus_congested 4623212

avg_congested_cycle 200

DRAM_bw_pochs 4322545
DRAM_bw_level_0 2884405
DRAM_bw_level_1 0
DRAM_bw_level_2 0
DRAM_bw_level_3 1438140
