*************************************************
   ChampSim Multicore Out-of-Order Simulator
   Last compiled: Dec 11 2024 17:59:53
*************************************************
parsing config file: /home/functionmain/桌面/Pythia/config/nopref.ini

trace_0 /home/functionmain/桌面/Pythia/traces/437.leslie3d-265B.champsimtrace.xz
adding L2C_PREFETCHER: NONE
Initialize SHIP state
warmup_instructions 100000000
simulation_instructions 500000000
champsim_seed 223
measure_ipc 0
measure_ipc_epoch 1000
measure_dram_bw 1
measure_dram_bw_epoch 256
measure_cache_acc 1
measure_cache_acc_epoch 1024
l1d_perfect 0
l2c_perfect 0
llc_perfect 0
l1d_semi_perfect 0
l2c_semi_perfect 0
llc_semi_perfect 0
semi_perfect_cache_page_buffer_size 64

num_cpus 1
cpu_freq 4000
dram_io_freq 4800
page_size 4096
block_size 64
max_read_per_cycle 8
max_fill_per_cycle 1
dram_channels 1
log2_dram_channels 0
dram_ranks 1
dram_banks 8
dram_rows 65536
dram_columns 128
dram_row_size 8
dram_size 4096
dram_pages 1048576

fetch_width 6
decode_width 6
exec_width 4
lq_width 2
sq_width 2
retire_width 4
scheduler_size 128
branch_mispredict_penalty 20
rob_size 256
lq_size 72
sq_size 56
num_instr_destinations_sparc 4
num_instr_destinations 2
num_instr_sources 4

itlb_set 16
itlb_way 8
itlb_rq_size 16
itlb_wq_size 16
itlb_pq_size 0
itlb_mshr_size 8
itlb_latency 1

dtlb_set 16
dtlb_way 4
dtlb_rq_size 16
dtlb_wq_size 16
dtlb_pq_size 0
dtlb_mshr_size 8
dtlb_latency 1

stlb_set 128
stlb_way 12
stlb_rq_size 32
stlb_wq_size 32
stlb_pq_size 0
stlb_mshr_size 16
stlb_latency 8

l1i_size 32
l1i_set 64
l1i_way 8
l1i_rq_size 64
l1i_wq_size 64
l1i_pq_size 8
l1i_mshr_size 8
l1i_latency 1

l1d_size 32
l1d_set 64
l1d_way 8
l1d_rq_size 64
l1d_wq_size 64
l1d_pq_size 8
l1d_mshr_size 16
l1d_latency 4

l2c_size 256
l2c_set 512
l2c_way 8
l2c_rq_size 32
l2c_wq_size 32
l2c_pq_size 32
l2c_mshr_size 32
l2c_latency 10

llc_size 2048
llc_set 2048
llc_way 16
llc_rq_size 32
llc_wq_size 32
llc_pq_size 32
llc_mshr_size 64
llc_latency 20

dram_channel_width 8
dram_wq_size 64
dram_rq_size 64
tRP 15
tRCD 15
tCAS 12.5
dram_dbus_turn_around_time 30
dram_write_high_wm 56
dram_write_low_wm 48
min_dram_writes_per_switch 16
dram_mtps 4800
dram_dbus_return_time 6


Heartbeat CPU  0 instructions:    1000003 cycles:     501010 heartbeat IPC: 1.99597 cumulative IPC: 1.99597 (Simulation time: 0 hr 0 min 2 sec) 
Heartbeat CPU  0 instructions:    2000001 cycles:    1000547 heartbeat IPC: 2.00185 cumulative IPC: 1.99891 (Simulation time: 0 hr 0 min 4 sec) 
Heartbeat CPU  0 instructions:    3000001 cycles:    1500594 heartbeat IPC: 1.99981 cumulative IPC: 1.99921 (Simulation time: 0 hr 0 min 6 sec) 
Heartbeat CPU  0 instructions:    4000000 cycles:    2000536 heartbeat IPC: 2.00023 cumulative IPC: 1.99946 (Simulation time: 0 hr 0 min 7 sec) 
Heartbeat CPU  0 instructions:    5000003 cycles:    2499749 heartbeat IPC: 2.00316 cumulative IPC: 2.00020 (Simulation time: 0 hr 0 min 9 sec) 
Heartbeat CPU  0 instructions:    6000001 cycles:    3000056 heartbeat IPC: 1.99877 cumulative IPC: 1.99996 (Simulation time: 0 hr 0 min 11 sec) 
Heartbeat CPU  0 instructions:    7000002 cycles:    3498241 heartbeat IPC: 2.00729 cumulative IPC: 2.00101 (Simulation time: 0 hr 0 min 12 sec) 
Heartbeat CPU  0 instructions:    8000000 cycles:    3998689 heartbeat IPC: 1.99821 cumulative IPC: 2.00066 (Simulation time: 0 hr 0 min 14 sec) 
Heartbeat CPU  0 instructions:    9000003 cycles:    4496737 heartbeat IPC: 2.00784 cumulative IPC: 2.00145 (Simulation time: 0 hr 0 min 16 sec) 
Heartbeat CPU  0 instructions:   10000001 cycles:    4996816 heartbeat IPC: 1.99968 cumulative IPC: 2.00127 (Simulation time: 0 hr 0 min 18 sec) 
Heartbeat CPU  0 instructions:   11000002 cycles:    5494284 heartbeat IPC: 2.01018 cumulative IPC: 2.00208 (Simulation time: 0 hr 0 min 19 sec) 
Heartbeat CPU  0 instructions:   12000000 cycles:    5995365 heartbeat IPC: 1.99568 cumulative IPC: 2.00155 (Simulation time: 0 hr 0 min 21 sec) 
Heartbeat CPU  0 instructions:   13000002 cycles:    6492684 heartbeat IPC: 2.01079 cumulative IPC: 2.00225 (Simulation time: 0 hr 0 min 23 sec) 
Heartbeat CPU  0 instructions:   14000002 cycles:    6993388 heartbeat IPC: 1.99719 cumulative IPC: 2.00189 (Simulation time: 0 hr 0 min 24 sec) 
Heartbeat CPU  0 instructions:   15000000 cycles:    7490914 heartbeat IPC: 2.00994 cumulative IPC: 2.00243 (Simulation time: 0 hr 0 min 26 sec) 
Heartbeat CPU  0 instructions:   16000000 cycles:    7990652 heartbeat IPC: 2.00105 cumulative IPC: 2.00234 (Simulation time: 0 hr 0 min 28 sec) 
Heartbeat CPU  0 instructions:   17000003 cycles:    8489266 heartbeat IPC: 2.00557 cumulative IPC: 2.00253 (Simulation time: 0 hr 0 min 30 sec) 
Heartbeat CPU  0 instructions:   18000003 cycles:    8989090 heartbeat IPC: 2.00070 cumulative IPC: 2.00243 (Simulation time: 0 hr 0 min 31 sec) 
Heartbeat CPU  0 instructions:   19000003 cycles:    9488762 heartbeat IPC: 2.00131 cumulative IPC: 2.00237 (Simulation time: 0 hr 0 min 33 sec) 
Heartbeat CPU  0 instructions:   20000000 cycles:    9987872 heartbeat IPC: 2.00356 cumulative IPC: 2.00243 (Simulation time: 0 hr 0 min 35 sec) 
Heartbeat CPU  0 instructions:   21000000 cycles:   10488371 heartbeat IPC: 1.99801 cumulative IPC: 2.00222 (Simulation time: 0 hr 0 min 37 sec) 
Heartbeat CPU  0 instructions:   22000003 cycles:   10986749 heartbeat IPC: 2.00652 cumulative IPC: 2.00241 (Simulation time: 0 hr 0 min 38 sec) 
Heartbeat CPU  0 instructions:   23000003 cycles:   11487658 heartbeat IPC: 1.99637 cumulative IPC: 2.00215 (Simulation time: 0 hr 0 min 40 sec) 
Heartbeat CPU  0 instructions:   24000000 cycles:   11985961 heartbeat IPC: 2.00681 cumulative IPC: 2.00234 (Simulation time: 0 hr 0 min 42 sec) 
Heartbeat CPU  0 instructions:   25000002 cycles:   12487078 heartbeat IPC: 1.99555 cumulative IPC: 2.00207 (Simulation time: 0 hr 0 min 44 sec) 
Heartbeat CPU  0 instructions:   26000000 cycles:   12985269 heartbeat IPC: 2.00726 cumulative IPC: 2.00227 (Simulation time: 0 hr 0 min 45 sec) 
Heartbeat CPU  0 instructions:   27000000 cycles:   13487116 heartbeat IPC: 1.99264 cumulative IPC: 2.00191 (Simulation time: 0 hr 0 min 47 sec) 
Heartbeat CPU  0 instructions:   28000000 cycles:   13984601 heartbeat IPC: 2.01011 cumulative IPC: 2.00220 (Simulation time: 0 hr 0 min 49 sec) 
Heartbeat CPU  0 instructions:   29000000 cycles:   14485433 heartbeat IPC: 1.99668 cumulative IPC: 2.00201 (Simulation time: 0 hr 0 min 50 sec) 
Heartbeat CPU  0 instructions:   30000000 cycles:   14983357 heartbeat IPC: 2.00834 cumulative IPC: 2.00222 (Simulation time: 0 hr 0 min 52 sec) 
Heartbeat CPU  0 instructions:   31000002 cycles:   15483175 heartbeat IPC: 2.00073 cumulative IPC: 2.00217 (Simulation time: 0 hr 0 min 54 sec) 
Heartbeat CPU  0 instructions:   32000000 cycles:   15981735 heartbeat IPC: 2.00577 cumulative IPC: 2.00229 (Simulation time: 0 hr 0 min 56 sec) 
Heartbeat CPU  0 instructions:   33000000 cycles:   16480878 heartbeat IPC: 2.00343 cumulative IPC: 2.00232 (Simulation time: 0 hr 0 min 57 sec) 
Heartbeat CPU  0 instructions:   34000002 cycles:   16980066 heartbeat IPC: 2.00326 cumulative IPC: 2.00235 (Simulation time: 0 hr 0 min 59 sec) 
Heartbeat CPU  0 instructions:   35000002 cycles:   17478497 heartbeat IPC: 2.00630 cumulative IPC: 2.00246 (Simulation time: 0 hr 1 min 1 sec) 
Heartbeat CPU  0 instructions:   36000000 cycles:   17978233 heartbeat IPC: 2.00105 cumulative IPC: 2.00242 (Simulation time: 0 hr 1 min 2 sec) 
Heartbeat CPU  0 instructions:   37000000 cycles:   18475994 heartbeat IPC: 2.00900 cumulative IPC: 2.00260 (Simulation time: 0 hr 1 min 4 sec) 
Heartbeat CPU  0 instructions:   38000000 cycles:   18976716 heartbeat IPC: 1.99712 cumulative IPC: 2.00245 (Simulation time: 0 hr 1 min 6 sec) 
Heartbeat CPU  0 instructions:   39000000 cycles:   19475098 heartbeat IPC: 2.00649 cumulative IPC: 2.00256 (Simulation time: 0 hr 1 min 8 sec) 
Heartbeat CPU  0 instructions:   40000000 cycles:   19976112 heartbeat IPC: 1.99595 cumulative IPC: 2.00239 (Simulation time: 0 hr 1 min 9 sec) 
Heartbeat CPU  0 instructions:   41000000 cycles:   20474285 heartbeat IPC: 2.00733 cumulative IPC: 2.00251 (Simulation time: 0 hr 1 min 11 sec) 
Heartbeat CPU  0 instructions:   42000000 cycles:   20976098 heartbeat IPC: 1.99277 cumulative IPC: 2.00228 (Simulation time: 0 hr 1 min 13 sec) 
Heartbeat CPU  0 instructions:   43000003 cycles:   21473923 heartbeat IPC: 2.00874 cumulative IPC: 2.00243 (Simulation time: 0 hr 1 min 14 sec) 
Heartbeat CPU  0 instructions:   44000000 cycles:   21975258 heartbeat IPC: 1.99467 cumulative IPC: 2.00225 (Simulation time: 0 hr 1 min 16 sec) 
Heartbeat CPU  0 instructions:   45000003 cycles:   22473574 heartbeat IPC: 2.00676 cumulative IPC: 2.00235 (Simulation time: 0 hr 1 min 18 sec) 
Heartbeat CPU  0 instructions:   46000003 cycles:   22973767 heartbeat IPC: 1.99923 cumulative IPC: 2.00228 (Simulation time: 0 hr 1 min 20 sec) 
Heartbeat CPU  0 instructions:   47000001 cycles:   23472943 heartbeat IPC: 2.00330 cumulative IPC: 2.00231 (Simulation time: 0 hr 1 min 21 sec) 
Heartbeat CPU  0 instructions:   48000000 cycles:   23972794 heartbeat IPC: 2.00059 cumulative IPC: 2.00227 (Simulation time: 0 hr 1 min 23 sec) 
Heartbeat CPU  0 instructions:   49000000 cycles:   24472281 heartbeat IPC: 2.00205 cumulative IPC: 2.00227 (Simulation time: 0 hr 1 min 25 sec) 
Heartbeat CPU  0 instructions:   50000000 cycles:   24970838 heartbeat IPC: 2.00579 cumulative IPC: 2.00234 (Simulation time: 0 hr 1 min 26 sec) 
Heartbeat CPU  0 instructions:   51000003 cycles:   25470669 heartbeat IPC: 2.00068 cumulative IPC: 2.00230 (Simulation time: 0 hr 1 min 28 sec) 
Heartbeat CPU  0 instructions:   52000000 cycles:   25968444 heartbeat IPC: 2.00893 cumulative IPC: 2.00243 (Simulation time: 0 hr 1 min 30 sec) 
Heartbeat CPU  0 instructions:   53000001 cycles:   26468942 heartbeat IPC: 1.99801 cumulative IPC: 2.00235 (Simulation time: 0 hr 1 min 32 sec) 
Heartbeat CPU  0 instructions:   54000002 cycles:   26966903 heartbeat IPC: 2.00819 cumulative IPC: 2.00245 (Simulation time: 0 hr 1 min 33 sec) 
Heartbeat CPU  0 instructions:   55000001 cycles:   27467739 heartbeat IPC: 1.99666 cumulative IPC: 2.00235 (Simulation time: 0 hr 1 min 35 sec) 
Heartbeat CPU  0 instructions:   56000000 cycles:   27965352 heartbeat IPC: 2.00959 cumulative IPC: 2.00248 (Simulation time: 0 hr 1 min 37 sec) 
Heartbeat CPU  0 instructions:   57000002 cycles:   28466520 heartbeat IPC: 1.99534 cumulative IPC: 2.00235 (Simulation time: 0 hr 1 min 38 sec) 
Heartbeat CPU  0 instructions:   58000001 cycles:   28963529 heartbeat IPC: 2.01203 cumulative IPC: 2.00252 (Simulation time: 0 hr 1 min 40 sec) 
Heartbeat CPU  0 instructions:   59000003 cycles:   29464461 heartbeat IPC: 1.99628 cumulative IPC: 2.00241 (Simulation time: 0 hr 1 min 42 sec) 
Heartbeat CPU  0 instructions:   60000000 cycles:   29962844 heartbeat IPC: 2.00648 cumulative IPC: 2.00248 (Simulation time: 0 hr 1 min 44 sec) 
Heartbeat CPU  0 instructions:   61000003 cycles:   30463370 heartbeat IPC: 1.99790 cumulative IPC: 2.00240 (Simulation time: 0 hr 1 min 45 sec) 
Heartbeat CPU  0 instructions:   62000001 cycles:   30962630 heartbeat IPC: 2.00296 cumulative IPC: 2.00241 (Simulation time: 0 hr 1 min 47 sec) 
Heartbeat CPU  0 instructions:   63000003 cycles:   31462396 heartbeat IPC: 2.00094 cumulative IPC: 2.00239 (Simulation time: 0 hr 1 min 49 sec) 
Heartbeat CPU  0 instructions:   64000000 cycles:   31962286 heartbeat IPC: 2.00043 cumulative IPC: 2.00236 (Simulation time: 0 hr 1 min 51 sec) 
Heartbeat CPU  0 instructions:   65000001 cycles:   32461246 heartbeat IPC: 2.00417 cumulative IPC: 2.00239 (Simulation time: 0 hr 1 min 52 sec) 
Heartbeat CPU  0 instructions:   66000000 cycles:   32961888 heartbeat IPC: 1.99743 cumulative IPC: 2.00231 (Simulation time: 0 hr 1 min 54 sec) 
Heartbeat CPU  0 instructions:   67000003 cycles:   33460361 heartbeat IPC: 2.00613 cumulative IPC: 2.00237 (Simulation time: 0 hr 1 min 56 sec) 
Heartbeat CPU  0 instructions:   68000000 cycles:   33961653 heartbeat IPC: 1.99484 cumulative IPC: 2.00226 (Simulation time: 0 hr 1 min 57 sec) 
Heartbeat CPU  0 instructions:   69000002 cycles:   34460575 heartbeat IPC: 2.00433 cumulative IPC: 2.00229 (Simulation time: 0 hr 1 min 59 sec) 
Heartbeat CPU  0 instructions:   70000003 cycles:   34961281 heartbeat IPC: 1.99718 cumulative IPC: 2.00222 (Simulation time: 0 hr 2 min 1 sec) 
Heartbeat CPU  0 instructions:   71000001 cycles:   35459093 heartbeat IPC: 2.00879 cumulative IPC: 2.00231 (Simulation time: 0 hr 2 min 3 sec) 
Heartbeat CPU  0 instructions:   72000000 cycles:   35960271 heartbeat IPC: 1.99530 cumulative IPC: 2.00221 (Simulation time: 0 hr 2 min 4 sec) 
Heartbeat CPU  0 instructions:   73000001 cycles:   36457441 heartbeat IPC: 2.01139 cumulative IPC: 2.00233 (Simulation time: 0 hr 2 min 6 sec) 
Heartbeat CPU  0 instructions:   74000002 cycles:   36957898 heartbeat IPC: 1.99818 cumulative IPC: 2.00228 (Simulation time: 0 hr 2 min 8 sec) 
Heartbeat CPU  0 instructions:   75000000 cycles:   37455759 heartbeat IPC: 2.00859 cumulative IPC: 2.00236 (Simulation time: 0 hr 2 min 9 sec) 
Heartbeat CPU  0 instructions:   76000000 cycles:   37955503 heartbeat IPC: 2.00102 cumulative IPC: 2.00234 (Simulation time: 0 hr 2 min 11 sec) 
Heartbeat CPU  0 instructions:   77000003 cycles:   38454118 heartbeat IPC: 2.00556 cumulative IPC: 2.00239 (Simulation time: 0 hr 2 min 13 sec) 
Heartbeat CPU  0 instructions:   78000000 cycles:   38953193 heartbeat IPC: 2.00370 cumulative IPC: 2.00240 (Simulation time: 0 hr 2 min 15 sec) 
Heartbeat CPU  0 instructions:   79000002 cycles:   39452465 heartbeat IPC: 2.00292 cumulative IPC: 2.00241 (Simulation time: 0 hr 2 min 16 sec) 
Heartbeat CPU  0 instructions:   80000000 cycles:   39951355 heartbeat IPC: 2.00445 cumulative IPC: 2.00244 (Simulation time: 0 hr 2 min 18 sec) 
Heartbeat CPU  0 instructions:   81000002 cycles:   40451812 heartbeat IPC: 1.99818 cumulative IPC: 2.00238 (Simulation time: 0 hr 2 min 20 sec) 
Heartbeat CPU  0 instructions:   82000002 cycles:   40950081 heartbeat IPC: 2.00695 cumulative IPC: 2.00244 (Simulation time: 0 hr 2 min 21 sec) 
Heartbeat CPU  0 instructions:   83000000 cycles:   41451329 heartbeat IPC: 1.99502 cumulative IPC: 2.00235 (Simulation time: 0 hr 2 min 23 sec) 
Heartbeat CPU  0 instructions:   84000000 cycles:   41950113 heartbeat IPC: 2.00488 cumulative IPC: 2.00238 (Simulation time: 0 hr 2 min 25 sec) 
Heartbeat CPU  0 instructions:   85000000 cycles:   42451550 heartbeat IPC: 1.99427 cumulative IPC: 2.00228 (Simulation time: 0 hr 2 min 27 sec) 
Heartbeat CPU  0 instructions:   86000003 cycles:   42949594 heartbeat IPC: 2.00786 cumulative IPC: 2.00235 (Simulation time: 0 hr 2 min 28 sec) 
Heartbeat CPU  0 instructions:   87000000 cycles:   43451231 heartbeat IPC: 1.99347 cumulative IPC: 2.00224 (Simulation time: 0 hr 2 min 30 sec) 
Heartbeat CPU  0 instructions:   88000000 cycles:   43948735 heartbeat IPC: 2.01003 cumulative IPC: 2.00233 (Simulation time: 0 hr 2 min 32 sec) 
Heartbeat CPU  0 instructions:   89000003 cycles:   44449833 heartbeat IPC: 1.99562 cumulative IPC: 2.00226 (Simulation time: 0 hr 2 min 34 sec) 
Heartbeat CPU  0 instructions:   90000000 cycles:   44948129 heartbeat IPC: 2.00683 cumulative IPC: 2.00231 (Simulation time: 0 hr 2 min 35 sec) 
Heartbeat CPU  0 instructions:   91000000 cycles:   45447921 heartbeat IPC: 2.00083 cumulative IPC: 2.00229 (Simulation time: 0 hr 2 min 37 sec) 
Heartbeat CPU  0 instructions:   92000000 cycles:   45946590 heartbeat IPC: 2.00534 cumulative IPC: 2.00232 (Simulation time: 0 hr 2 min 39 sec) 
Heartbeat CPU  0 instructions:   93000000 cycles:   46445872 heartbeat IPC: 2.00288 cumulative IPC: 2.00233 (Simulation time: 0 hr 2 min 41 sec) 
Heartbeat CPU  0 instructions:   94000000 cycles:   46945184 heartbeat IPC: 2.00276 cumulative IPC: 2.00234 (Simulation time: 0 hr 2 min 42 sec) 
Heartbeat CPU  0 instructions:   95000000 cycles:   47443451 heartbeat IPC: 2.00696 cumulative IPC: 2.00238 (Simulation time: 0 hr 2 min 44 sec) 
Heartbeat CPU  0 instructions:   96000000 cycles:   47943466 heartbeat IPC: 1.99994 cumulative IPC: 2.00236 (Simulation time: 0 hr 2 min 46 sec) 
Heartbeat CPU  0 instructions:   97000000 cycles:   48441573 heartbeat IPC: 2.00760 cumulative IPC: 2.00241 (Simulation time: 0 hr 2 min 47 sec) 
Heartbeat CPU  0 instructions:   98000001 cycles:   48942460 heartbeat IPC: 1.99646 cumulative IPC: 2.00235 (Simulation time: 0 hr 2 min 49 sec) 
Heartbeat CPU  0 instructions:   99000002 cycles:   49440336 heartbeat IPC: 2.00853 cumulative IPC: 2.00241 (Simulation time: 0 hr 2 min 51 sec) 
Heartbeat CPU  0 instructions:  100000000 cycles:   49940891 heartbeat IPC: 1.99778 cumulative IPC: 2.00237 (Simulation time: 0 hr 2 min 53 sec) 

Warmup complete CPU  0 instructions:  100000001 cycles:   49940892 (Simulation time: 0 hr 2 min 53 sec) 

Heartbeat CPU  0 instructions:  101000003 cycles:   51228576 heartbeat IPC: 0.77659 cumulative IPC: 0.77659 (Simulation time: 0 hr 2 min 55 sec) 
Heartbeat CPU  0 instructions:  102000001 cycles:   52509912 heartbeat IPC: 0.78043 cumulative IPC: 0.77851 (Simulation time: 0 hr 2 min 57 sec) 
Heartbeat CPU  0 instructions:  103000002 cycles:   53787605 heartbeat IPC: 0.78266 cumulative IPC: 0.77989 (Simulation time: 0 hr 2 min 59 sec) 
Heartbeat CPU  0 instructions:  104000000 cycles:   55075335 heartbeat IPC: 0.77656 cumulative IPC: 0.77905 (Simulation time: 0 hr 3 min 1 sec) 
Heartbeat CPU  0 instructions:  105000000 cycles:   56370873 heartbeat IPC: 0.77188 cumulative IPC: 0.77761 (Simulation time: 0 hr 3 min 4 sec) 
Heartbeat CPU  0 instructions:  106000003 cycles:   57663613 heartbeat IPC: 0.77355 cumulative IPC: 0.77693 (Simulation time: 0 hr 3 min 6 sec) 
Heartbeat CPU  0 instructions:  107000000 cycles:   58946112 heartbeat IPC: 0.77973 cumulative IPC: 0.77733 (Simulation time: 0 hr 3 min 8 sec) 
Heartbeat CPU  0 instructions:  108000000 cycles:   60245691 heartbeat IPC: 0.76948 cumulative IPC: 0.77634 (Simulation time: 0 hr 3 min 10 sec) 
Heartbeat CPU  0 instructions:  109000000 cycles:   61525376 heartbeat IPC: 0.78144 cumulative IPC: 0.77690 (Simulation time: 0 hr 3 min 12 sec) 
Heartbeat CPU  0 instructions:  110000001 cycles:   62807878 heartbeat IPC: 0.77973 cumulative IPC: 0.77718 (Simulation time: 0 hr 3 min 15 sec) 
Heartbeat CPU  0 instructions:  111000001 cycles:   64096044 heartbeat IPC: 0.77630 cumulative IPC: 0.77710 (Simulation time: 0 hr 3 min 17 sec) 
Heartbeat CPU  0 instructions:  112000000 cycles:   65367078 heartbeat IPC: 0.78676 cumulative IPC: 0.77790 (Simulation time: 0 hr 3 min 19 sec) 
Heartbeat CPU  0 instructions:  113000003 cycles:   66626653 heartbeat IPC: 0.79392 cumulative IPC: 0.77911 (Simulation time: 0 hr 3 min 21 sec) 
Heartbeat CPU  0 instructions:  114000001 cycles:   67926361 heartbeat IPC: 0.76940 cumulative IPC: 0.77841 (Simulation time: 0 hr 3 min 23 sec) 
Heartbeat CPU  0 instructions:  115000003 cycles:   69212408 heartbeat IPC: 0.77758 cumulative IPC: 0.77835 (Simulation time: 0 hr 3 min 26 sec) 
Heartbeat CPU  0 instructions:  116000000 cycles:   70502819 heartbeat IPC: 0.77494 cumulative IPC: 0.77814 (Simulation time: 0 hr 3 min 28 sec) 
Heartbeat CPU  0 instructions:  117000000 cycles:   71783032 heartbeat IPC: 0.78112 cumulative IPC: 0.77831 (Simulation time: 0 hr 3 min 30 sec) 
Heartbeat CPU  0 instructions:  118000000 cycles:   73057986 heartbeat IPC: 0.78434 cumulative IPC: 0.77864 (Simulation time: 0 hr 3 min 32 sec) 
Heartbeat CPU  0 instructions:  119000000 cycles:   74343379 heartbeat IPC: 0.77797 cumulative IPC: 0.77861 (Simulation time: 0 hr 3 min 35 sec) 
Heartbeat CPU  0 instructions:  120000000 cycles:   75613821 heartbeat IPC: 0.78713 cumulative IPC: 0.77903 (Simulation time: 0 hr 3 min 37 sec) 
Heartbeat CPU  0 instructions:  121000000 cycles:   76907875 heartbeat IPC: 0.77277 cumulative IPC: 0.77873 (Simulation time: 0 hr 3 min 39 sec) 
Heartbeat CPU  0 instructions:  122000000 cycles:   78207733 heartbeat IPC: 0.76931 cumulative IPC: 0.77830 (Simulation time: 0 hr 3 min 41 sec) 
Heartbeat CPU  0 instructions:  123000001 cycles:   79519601 heartbeat IPC: 0.76227 cumulative IPC: 0.77759 (Simulation time: 0 hr 3 min 43 sec) 
Heartbeat CPU  0 instructions:  124000000 cycles:   80780201 heartbeat IPC: 0.79327 cumulative IPC: 0.77823 (Simulation time: 0 hr 3 min 46 sec) 
Heartbeat CPU  0 instructions:  125000001 cycles:   82077805 heartbeat IPC: 0.77065 cumulative IPC: 0.77792 (Simulation time: 0 hr 3 min 48 sec) 
Heartbeat CPU  0 instructions:  126000002 cycles:   83365090 heartbeat IPC: 0.77683 cumulative IPC: 0.77788 (Simulation time: 0 hr 3 min 50 sec) 
Heartbeat CPU  0 instructions:  127000000 cycles:   84661557 heartbeat IPC: 0.77133 cumulative IPC: 0.77763 (Simulation time: 0 hr 3 min 52 sec) 
Heartbeat CPU  0 instructions:  128000000 cycles:   85943851 heartbeat IPC: 0.77985 cumulative IPC: 0.77771 (Simulation time: 0 hr 3 min 54 sec) 
Heartbeat CPU  0 instructions:  129000003 cycles:   87224299 heartbeat IPC: 0.78098 cumulative IPC: 0.77783 (Simulation time: 0 hr 3 min 57 sec) 
Heartbeat CPU  0 instructions:  130000000 cycles:   88504082 heartbeat IPC: 0.78138 cumulative IPC: 0.77794 (Simulation time: 0 hr 3 min 59 sec) 
Heartbeat CPU  0 instructions:  131000001 cycles:   89820596 heartbeat IPC: 0.75958 cumulative IPC: 0.77734 (Simulation time: 0 hr 4 min 1 sec) 
Heartbeat CPU  0 instructions:  132000000 cycles:   91002850 heartbeat IPC: 0.84584 cumulative IPC: 0.77931 (Simulation time: 0 hr 4 min 3 sec) 
Heartbeat CPU  0 instructions:  133000001 cycles:   92208717 heartbeat IPC: 0.82928 cumulative IPC: 0.78074 (Simulation time: 0 hr 4 min 5 sec) 
Heartbeat CPU  0 instructions:  134000003 cycles:   93520110 heartbeat IPC: 0.76255 cumulative IPC: 0.78019 (Simulation time: 0 hr 4 min 7 sec) 
Heartbeat CPU  0 instructions:  135000000 cycles:   94922201 heartbeat IPC: 0.71322 cumulative IPC: 0.77810 (Simulation time: 0 hr 4 min 10 sec) 
Heartbeat CPU  0 instructions:  136000000 cycles:   96498460 heartbeat IPC: 0.63441 cumulative IPC: 0.77324 (Simulation time: 0 hr 4 min 12 sec) 
Heartbeat CPU  0 instructions:  137000001 cycles:   98070287 heartbeat IPC: 0.63620 cumulative IPC: 0.76876 (Simulation time: 0 hr 4 min 15 sec) 
Heartbeat CPU  0 instructions:  138000003 cycles:   99644017 heartbeat IPC: 0.63543 cumulative IPC: 0.76454 (Simulation time: 0 hr 4 min 17 sec) 
Heartbeat CPU  0 instructions:  139000000 cycles:  101214136 heartbeat IPC: 0.63689 cumulative IPC: 0.76063 (Simulation time: 0 hr 4 min 19 sec) 
Heartbeat CPU  0 instructions:  140000000 cycles:  102789764 heartbeat IPC: 0.63467 cumulative IPC: 0.75688 (Simulation time: 0 hr 4 min 21 sec) 
Heartbeat CPU  0 instructions:  141000001 cycles:  104358819 heartbeat IPC: 0.63733 cumulative IPC: 0.75343 (Simulation time: 0 hr 4 min 24 sec) 
Heartbeat CPU  0 instructions:  142000003 cycles:  105929252 heartbeat IPC: 0.63677 cumulative IPC: 0.75016 (Simulation time: 0 hr 4 min 26 sec) 
Heartbeat CPU  0 instructions:  143000000 cycles:  107501192 heartbeat IPC: 0.63615 cumulative IPC: 0.74704 (Simulation time: 0 hr 4 min 28 sec) 
Heartbeat CPU  0 instructions:  144000000 cycles:  108879073 heartbeat IPC: 0.72575 cumulative IPC: 0.74654 (Simulation time: 0 hr 4 min 31 sec) 
Heartbeat CPU  0 instructions:  145000001 cycles:  110110012 heartbeat IPC: 0.81239 cumulative IPC: 0.74789 (Simulation time: 0 hr 4 min 33 sec) 
Heartbeat CPU  0 instructions:  146000002 cycles:  111359688 heartbeat IPC: 0.80021 cumulative IPC: 0.74896 (Simulation time: 0 hr 4 min 35 sec) 
Heartbeat CPU  0 instructions:  147000002 cycles:  112613972 heartbeat IPC: 0.79727 cumulative IPC: 0.74992 (Simulation time: 0 hr 4 min 37 sec) 
Heartbeat CPU  0 instructions:  148000000 cycles:  114150282 heartbeat IPC: 0.65091 cumulative IPC: 0.74755 (Simulation time: 0 hr 4 min 40 sec) 
Heartbeat CPU  0 instructions:  149000001 cycles:  115723446 heartbeat IPC: 0.63566 cumulative IPC: 0.74488 (Simulation time: 0 hr 4 min 42 sec) 
Heartbeat CPU  0 instructions:  150000002 cycles:  117292868 heartbeat IPC: 0.63718 cumulative IPC: 0.74237 (Simulation time: 0 hr 4 min 44 sec) 
Heartbeat CPU  0 instructions:  151000002 cycles:  118867448 heartbeat IPC: 0.63509 cumulative IPC: 0.73992 (Simulation time: 0 hr 4 min 47 sec) 
Heartbeat CPU  0 instructions:  152000000 cycles:  120438984 heartbeat IPC: 0.63632 cumulative IPC: 0.73761 (Simulation time: 0 hr 4 min 49 sec) 
Heartbeat CPU  0 instructions:  153000000 cycles:  122006848 heartbeat IPC: 0.63781 cumulative IPC: 0.73544 (Simulation time: 0 hr 4 min 51 sec) 
Heartbeat CPU  0 instructions:  154000002 cycles:  123579856 heartbeat IPC: 0.63573 cumulative IPC: 0.73331 (Simulation time: 0 hr 4 min 54 sec) 
Heartbeat CPU  0 instructions:  155000001 cycles:  125148660 heartbeat IPC: 0.63743 cumulative IPC: 0.73131 (Simulation time: 0 hr 4 min 56 sec) 
Heartbeat CPU  0 instructions:  156000000 cycles:  126664766 heartbeat IPC: 0.65958 cumulative IPC: 0.72989 (Simulation time: 0 hr 4 min 58 sec) 
Heartbeat CPU  0 instructions:  157000002 cycles:  127918138 heartbeat IPC: 0.79785 cumulative IPC: 0.73098 (Simulation time: 0 hr 5 min 0 sec) 
Heartbeat CPU  0 instructions:  158000000 cycles:  129220081 heartbeat IPC: 0.76808 cumulative IPC: 0.73159 (Simulation time: 0 hr 5 min 3 sec) 
Heartbeat CPU  0 instructions:  159000003 cycles:  130510886 heartbeat IPC: 0.77471 cumulative IPC: 0.73228 (Simulation time: 0 hr 5 min 5 sec) 
Heartbeat CPU  0 instructions:  160000000 cycles:  131940858 heartbeat IPC: 0.69931 cumulative IPC: 0.73171 (Simulation time: 0 hr 5 min 7 sec) 
Heartbeat CPU  0 instructions:  161000000 cycles:  133512693 heartbeat IPC: 0.63620 cumulative IPC: 0.72991 (Simulation time: 0 hr 5 min 9 sec) 
Heartbeat CPU  0 instructions:  162000001 cycles:  135083445 heartbeat IPC: 0.63664 cumulative IPC: 0.72819 (Simulation time: 0 hr 5 min 12 sec) 
Heartbeat CPU  0 instructions:  163000001 cycles:  136657345 heartbeat IPC: 0.63536 cumulative IPC: 0.72651 (Simulation time: 0 hr 5 min 14 sec) 
Heartbeat CPU  0 instructions:  164000000 cycles:  138228450 heartbeat IPC: 0.63649 cumulative IPC: 0.72490 (Simulation time: 0 hr 5 min 16 sec) 
Heartbeat CPU  0 instructions:  165000000 cycles:  139803407 heartbeat IPC: 0.63494 cumulative IPC: 0.72333 (Simulation time: 0 hr 5 min 19 sec) 
Heartbeat CPU  0 instructions:  166000001 cycles:  141374505 heartbeat IPC: 0.63650 cumulative IPC: 0.72184 (Simulation time: 0 hr 5 min 21 sec) 
Heartbeat CPU  0 instructions:  167000003 cycles:  142949596 heartbeat IPC: 0.63489 cumulative IPC: 0.72036 (Simulation time: 0 hr 5 min 23 sec) 
Heartbeat CPU  0 instructions:  168000000 cycles:  144521491 heartbeat IPC: 0.63617 cumulative IPC: 0.71896 (Simulation time: 0 hr 5 min 26 sec) 
Heartbeat CPU  0 instructions:  169000001 cycles:  145871838 heartbeat IPC: 0.74055 cumulative IPC: 0.71927 (Simulation time: 0 hr 5 min 28 sec) 
Heartbeat CPU  0 instructions:  170000001 cycles:  147163955 heartbeat IPC: 0.77392 cumulative IPC: 0.71999 (Simulation time: 0 hr 5 min 30 sec) 
Heartbeat CPU  0 instructions:  171000001 cycles:  148480452 heartbeat IPC: 0.75959 cumulative IPC: 0.72052 (Simulation time: 0 hr 5 min 32 sec) 
Heartbeat CPU  0 instructions:  172000000 cycles:  149813146 heartbeat IPC: 0.75036 cumulative IPC: 0.72092 (Simulation time: 0 hr 5 min 35 sec) 
Heartbeat CPU  0 instructions:  173000000 cycles:  151384958 heartbeat IPC: 0.63621 cumulative IPC: 0.71961 (Simulation time: 0 hr 5 min 37 sec) 
Heartbeat CPU  0 instructions:  174000003 cycles:  152960440 heartbeat IPC: 0.63473 cumulative IPC: 0.71831 (Simulation time: 0 hr 5 min 39 sec) 
Heartbeat CPU  0 instructions:  175000002 cycles:  154532256 heartbeat IPC: 0.63621 cumulative IPC: 0.71708 (Simulation time: 0 hr 5 min 42 sec) 
Heartbeat CPU  0 instructions:  176000000 cycles:  156108296 heartbeat IPC: 0.63450 cumulative IPC: 0.71585 (Simulation time: 0 hr 5 min 44 sec) 
Heartbeat CPU  0 instructions:  177000001 cycles:  157680234 heartbeat IPC: 0.63616 cumulative IPC: 0.71469 (Simulation time: 0 hr 5 min 46 sec) 
Heartbeat CPU  0 instructions:  178000003 cycles:  159253085 heartbeat IPC: 0.63579 cumulative IPC: 0.71355 (Simulation time: 0 hr 5 min 49 sec) 
Heartbeat CPU  0 instructions:  179000002 cycles:  160825659 heartbeat IPC: 0.63590 cumulative IPC: 0.71245 (Simulation time: 0 hr 5 min 51 sec) 
Heartbeat CPU  0 instructions:  180000000 cycles:  162400841 heartbeat IPC: 0.63485 cumulative IPC: 0.71136 (Simulation time: 0 hr 5 min 53 sec) 
Heartbeat CPU  0 instructions:  181000000 cycles:  163859314 heartbeat IPC: 0.68565 cumulative IPC: 0.71104 (Simulation time: 0 hr 5 min 56 sec) 
Heartbeat CPU  0 instructions:  182000002 cycles:  165127742 heartbeat IPC: 0.78838 cumulative IPC: 0.71189 (Simulation time: 0 hr 5 min 58 sec) 
Heartbeat CPU  0 instructions:  183000002 cycles:  166419434 heartbeat IPC: 0.77418 cumulative IPC: 0.71258 (Simulation time: 0 hr 6 min 0 sec) 
Heartbeat CPU  0 instructions:  184000000 cycles:  167701662 heartbeat IPC: 0.77989 cumulative IPC: 0.71331 (Simulation time: 0 hr 6 min 2 sec) 
Heartbeat CPU  0 instructions:  185000003 cycles:  169168553 heartbeat IPC: 0.68172 cumulative IPC: 0.71292 (Simulation time: 0 hr 6 min 5 sec) 
Heartbeat CPU  0 instructions:  186000000 cycles:  170739800 heartbeat IPC: 0.63644 cumulative IPC: 0.71193 (Simulation time: 0 hr 6 min 7 sec) 
Heartbeat CPU  0 instructions:  187000000 cycles:  172314500 heartbeat IPC: 0.63504 cumulative IPC: 0.71094 (Simulation time: 0 hr 6 min 9 sec) 
Heartbeat CPU  0 instructions:  188000000 cycles:  173886241 heartbeat IPC: 0.63624 cumulative IPC: 0.70999 (Simulation time: 0 hr 6 min 12 sec) 
Heartbeat CPU  0 instructions:  189000003 cycles:  175461994 heartbeat IPC: 0.63462 cumulative IPC: 0.70904 (Simulation time: 0 hr 6 min 14 sec) 
Heartbeat CPU  0 instructions:  190000000 cycles:  177032812 heartbeat IPC: 0.63661 cumulative IPC: 0.70815 (Simulation time: 0 hr 6 min 16 sec) 
Heartbeat CPU  0 instructions:  191000000 cycles:  178608796 heartbeat IPC: 0.63452 cumulative IPC: 0.70725 (Simulation time: 0 hr 6 min 19 sec) 
Heartbeat CPU  0 instructions:  192000000 cycles:  180180636 heartbeat IPC: 0.63620 cumulative IPC: 0.70639 (Simulation time: 0 hr 6 min 21 sec) 
Heartbeat CPU  0 instructions:  193000000 cycles:  181750911 heartbeat IPC: 0.63683 cumulative IPC: 0.70556 (Simulation time: 0 hr 6 min 23 sec) 
Heartbeat CPU  0 instructions:  194000000 cycles:  183026238 heartbeat IPC: 0.78411 cumulative IPC: 0.70631 (Simulation time: 0 hr 6 min 25 sec) 
Heartbeat CPU  0 instructions:  195000003 cycles:  185035033 heartbeat IPC: 0.49781 cumulative IPC: 0.70321 (Simulation time: 0 hr 6 min 28 sec) 
Heartbeat CPU  0 instructions:  196000000 cycles:  187592032 heartbeat IPC: 0.39108 cumulative IPC: 0.69742 (Simulation time: 0 hr 6 min 30 sec) 
Heartbeat CPU  0 instructions:  197000000 cycles:  190136032 heartbeat IPC: 0.39308 cumulative IPC: 0.69189 (Simulation time: 0 hr 6 min 33 sec) 
Heartbeat CPU  0 instructions:  198000000 cycles:  192581797 heartbeat IPC: 0.40887 cumulative IPC: 0.68704 (Simulation time: 0 hr 6 min 36 sec) 
Heartbeat CPU  0 instructions:  199000001 cycles:  195066605 heartbeat IPC: 0.40245 cumulative IPC: 0.68217 (Simulation time: 0 hr 6 min 38 sec) 
Heartbeat CPU  0 instructions:  200000000 cycles:  197546793 heartbeat IPC: 0.40319 cumulative IPC: 0.67748 (Simulation time: 0 hr 6 min 41 sec) 
Heartbeat CPU  0 instructions:  201000002 cycles:  199993880 heartbeat IPC: 0.40865 cumulative IPC: 0.67310 (Simulation time: 0 hr 6 min 43 sec) 
Heartbeat CPU  0 instructions:  202000002 cycles:  202446987 heartbeat IPC: 0.40765 cumulative IPC: 0.66883 (Simulation time: 0 hr 6 min 46 sec) 
Heartbeat CPU  0 instructions:  203000003 cycles:  204957749 heartbeat IPC: 0.39829 cumulative IPC: 0.66444 (Simulation time: 0 hr 6 min 48 sec) 
Heartbeat CPU  0 instructions:  204000000 cycles:  207424258 heartbeat IPC: 0.40543 cumulative IPC: 0.66039 (Simulation time: 0 hr 6 min 51 sec) 
Heartbeat CPU  0 instructions:  205000001 cycles:  209930198 heartbeat IPC: 0.39905 cumulative IPC: 0.65629 (Simulation time: 0 hr 6 min 54 sec) 
Heartbeat CPU  0 instructions:  206000003 cycles:  212380365 heartbeat IPC: 0.40814 cumulative IPC: 0.65255 (Simulation time: 0 hr 6 min 56 sec) 
Heartbeat CPU  0 instructions:  207000001 cycles:  214827380 heartbeat IPC: 0.40866 cumulative IPC: 0.64893 (Simulation time: 0 hr 6 min 59 sec) 
Heartbeat CPU  0 instructions:  208000000 cycles:  217263317 heartbeat IPC: 0.41052 cumulative IPC: 0.64546 (Simulation time: 0 hr 7 min 1 sec) 
Heartbeat CPU  0 instructions:  209000000 cycles:  219658648 heartbeat IPC: 0.41748 cumulative IPC: 0.64224 (Simulation time: 0 hr 7 min 4 sec) 
Heartbeat CPU  0 instructions:  210000003 cycles:  222058684 heartbeat IPC: 0.41666 cumulative IPC: 0.63910 (Simulation time: 0 hr 7 min 6 sec) 
Heartbeat CPU  0 instructions:  211000002 cycles:  224444018 heartbeat IPC: 0.41923 cumulative IPC: 0.63609 (Simulation time: 0 hr 7 min 9 sec) 
Heartbeat CPU  0 instructions:  212000000 cycles:  226909235 heartbeat IPC: 0.40564 cumulative IPC: 0.63288 (Simulation time: 0 hr 7 min 11 sec) 
Heartbeat CPU  0 instructions:  213000001 cycles:  229410423 heartbeat IPC: 0.39981 cumulative IPC: 0.62963 (Simulation time: 0 hr 7 min 14 sec) 
Heartbeat CPU  0 instructions:  214000001 cycles:  231926144 heartbeat IPC: 0.39750 cumulative IPC: 0.62642 (Simulation time: 0 hr 7 min 17 sec) 
Heartbeat CPU  0 instructions:  215000002 cycles:  234397494 heartbeat IPC: 0.40464 cumulative IPC: 0.62345 (Simulation time: 0 hr 7 min 19 sec) 
Heartbeat CPU  0 instructions:  216000000 cycles:  236886069 heartbeat IPC: 0.40184 cumulative IPC: 0.62050 (Simulation time: 0 hr 7 min 22 sec) 
Heartbeat CPU  0 instructions:  217000003 cycles:  239371707 heartbeat IPC: 0.40231 cumulative IPC: 0.61764 (Simulation time: 0 hr 7 min 24 sec) 
Heartbeat CPU  0 instructions:  218000003 cycles:  241856890 heartbeat IPC: 0.40238 cumulative IPC: 0.61485 (Simulation time: 0 hr 7 min 27 sec) 
Heartbeat CPU  0 instructions:  219000003 cycles:  244345394 heartbeat IPC: 0.40185 cumulative IPC: 0.61213 (Simulation time: 0 hr 7 min 29 sec) 
Heartbeat CPU  0 instructions:  220000000 cycles:  246840530 heartbeat IPC: 0.40078 cumulative IPC: 0.60945 (Simulation time: 0 hr 7 min 32 sec) 
Heartbeat CPU  0 instructions:  221000003 cycles:  249235503 heartbeat IPC: 0.41754 cumulative IPC: 0.60714 (Simulation time: 0 hr 7 min 34 sec) 
Heartbeat CPU  0 instructions:  222000002 cycles:  251437878 heartbeat IPC: 0.45405 cumulative IPC: 0.60547 (Simulation time: 0 hr 7 min 37 sec) 
Heartbeat CPU  0 instructions:  223000002 cycles:  253668895 heartbeat IPC: 0.44823 cumulative IPC: 0.60375 (Simulation time: 0 hr 7 min 40 sec) 
Heartbeat CPU  0 instructions:  224000000 cycles:  255792642 heartbeat IPC: 0.47086 cumulative IPC: 0.60238 (Simulation time: 0 hr 7 min 43 sec) 
Heartbeat CPU  0 instructions:  225000000 cycles:  257721365 heartbeat IPC: 0.51848 cumulative IPC: 0.60160 (Simulation time: 0 hr 7 min 46 sec) 
Heartbeat CPU  0 instructions:  226000003 cycles:  259644266 heartbeat IPC: 0.52005 cumulative IPC: 0.60085 (Simulation time: 0 hr 7 min 49 sec) 
Heartbeat CPU  0 instructions:  227000001 cycles:  261552611 heartbeat IPC: 0.52401 cumulative IPC: 0.60016 (Simulation time: 0 hr 7 min 51 sec) 
Heartbeat CPU  0 instructions:  228000000 cycles:  263450155 heartbeat IPC: 0.52700 cumulative IPC: 0.59951 (Simulation time: 0 hr 7 min 54 sec) 
Heartbeat CPU  0 instructions:  229000000 cycles:  265261748 heartbeat IPC: 0.55200 cumulative IPC: 0.59911 (Simulation time: 0 hr 7 min 57 sec) 
Heartbeat CPU  0 instructions:  230000000 cycles:  267089550 heartbeat IPC: 0.54711 cumulative IPC: 0.59867 (Simulation time: 0 hr 7 min 59 sec) 
Heartbeat CPU  0 instructions:  231000000 cycles:  268975666 heartbeat IPC: 0.53019 cumulative IPC: 0.59808 (Simulation time: 0 hr 8 min 2 sec) 
Heartbeat CPU  0 instructions:  232000000 cycles:  270839914 heartbeat IPC: 0.53641 cumulative IPC: 0.59756 (Simulation time: 0 hr 8 min 5 sec) 
Heartbeat CPU  0 instructions:  233000000 cycles:  272702615 heartbeat IPC: 0.53685 cumulative IPC: 0.59705 (Simulation time: 0 hr 8 min 7 sec) 
Heartbeat CPU  0 instructions:  234000000 cycles:  274591494 heartbeat IPC: 0.52941 cumulative IPC: 0.59648 (Simulation time: 0 hr 8 min 10 sec) 
Heartbeat CPU  0 instructions:  235000003 cycles:  276443418 heartbeat IPC: 0.53998 cumulative IPC: 0.59602 (Simulation time: 0 hr 8 min 13 sec) 
Heartbeat CPU  0 instructions:  236000000 cycles:  278327000 heartbeat IPC: 0.53090 cumulative IPC: 0.59548 (Simulation time: 0 hr 8 min 15 sec) 
Heartbeat CPU  0 instructions:  237000000 cycles:  280202643 heartbeat IPC: 0.53315 cumulative IPC: 0.59498 (Simulation time: 0 hr 8 min 18 sec) 
Heartbeat CPU  0 instructions:  238000002 cycles:  282071271 heartbeat IPC: 0.53515 cumulative IPC: 0.59449 (Simulation time: 0 hr 8 min 21 sec) 
Heartbeat CPU  0 instructions:  239000000 cycles:  283958835 heartbeat IPC: 0.52978 cumulative IPC: 0.59397 (Simulation time: 0 hr 8 min 23 sec) 
Heartbeat CPU  0 instructions:  240000000 cycles:  285838934 heartbeat IPC: 0.53189 cumulative IPC: 0.59348 (Simulation time: 0 hr 8 min 26 sec) 
Heartbeat CPU  0 instructions:  241000002 cycles:  287727338 heartbeat IPC: 0.52955 cumulative IPC: 0.59297 (Simulation time: 0 hr 8 min 29 sec) 
Heartbeat CPU  0 instructions:  242000002 cycles:  289618453 heartbeat IPC: 0.52879 cumulative IPC: 0.59246 (Simulation time: 0 hr 8 min 31 sec) 
Heartbeat CPU  0 instructions:  243000001 cycles:  291515948 heartbeat IPC: 0.52701 cumulative IPC: 0.59195 (Simulation time: 0 hr 8 min 34 sec) 
Heartbeat CPU  0 instructions:  244000000 cycles:  293451236 heartbeat IPC: 0.51672 cumulative IPC: 0.59135 (Simulation time: 0 hr 8 min 37 sec) 
Heartbeat CPU  0 instructions:  245000002 cycles:  295316560 heartbeat IPC: 0.53610 cumulative IPC: 0.59093 (Simulation time: 0 hr 8 min 39 sec) 
Heartbeat CPU  0 instructions:  246000003 cycles:  297197692 heartbeat IPC: 0.53160 cumulative IPC: 0.59048 (Simulation time: 0 hr 8 min 42 sec) 
Heartbeat CPU  0 instructions:  247000002 cycles:  299124336 heartbeat IPC: 0.51904 cumulative IPC: 0.58993 (Simulation time: 0 hr 8 min 45 sec) 
Heartbeat CPU  0 instructions:  248000000 cycles:  301057293 heartbeat IPC: 0.51734 cumulative IPC: 0.58937 (Simulation time: 0 hr 8 min 47 sec) 
Heartbeat CPU  0 instructions:  249000000 cycles:  302983121 heartbeat IPC: 0.51926 cumulative IPC: 0.58883 (Simulation time: 0 hr 8 min 50 sec) 
Heartbeat CPU  0 instructions:  250000000 cycles:  304871587 heartbeat IPC: 0.52953 cumulative IPC: 0.58840 (Simulation time: 0 hr 8 min 53 sec) 
Heartbeat CPU  0 instructions:  251000002 cycles:  306802175 heartbeat IPC: 0.51798 cumulative IPC: 0.58787 (Simulation time: 0 hr 8 min 55 sec) 
Heartbeat CPU  0 instructions:  252000000 cycles:  308732742 heartbeat IPC: 0.51798 cumulative IPC: 0.58734 (Simulation time: 0 hr 8 min 58 sec) 
Heartbeat CPU  0 instructions:  253000001 cycles:  310662579 heartbeat IPC: 0.51818 cumulative IPC: 0.58683 (Simulation time: 0 hr 9 min 1 sec) 
Heartbeat CPU  0 instructions:  254000002 cycles:  312548005 heartbeat IPC: 0.53038 cumulative IPC: 0.58643 (Simulation time: 0 hr 9 min 4 sec) 
Heartbeat CPU  0 instructions:  255000001 cycles:  314500777 heartbeat IPC: 0.51209 cumulative IPC: 0.58588 (Simulation time: 0 hr 9 min 6 sec) 
Heartbeat CPU  0 instructions:  256000000 cycles:  316447200 heartbeat IPC: 0.51376 cumulative IPC: 0.58535 (Simulation time: 0 hr 9 min 9 sec) 
Heartbeat CPU  0 instructions:  257000001 cycles:  318392865 heartbeat IPC: 0.51396 cumulative IPC: 0.58483 (Simulation time: 0 hr 9 min 12 sec) 
Heartbeat CPU  0 instructions:  258000001 cycles:  320371831 heartbeat IPC: 0.50531 cumulative IPC: 0.58425 (Simulation time: 0 hr 9 min 15 sec) 
Heartbeat CPU  0 instructions:  259000000 cycles:  322147514 heartbeat IPC: 0.56316 cumulative IPC: 0.58412 (Simulation time: 0 hr 9 min 17 sec) 
Heartbeat CPU  0 instructions:  260000000 cycles:  323817826 heartbeat IPC: 0.59869 cumulative IPC: 0.58420 (Simulation time: 0 hr 9 min 20 sec) 
Heartbeat CPU  0 instructions:  261000000 cycles:  325486906 heartbeat IPC: 0.59913 cumulative IPC: 0.58429 (Simulation time: 0 hr 9 min 22 sec) 
Heartbeat CPU  0 instructions:  262000000 cycles:  327140012 heartbeat IPC: 0.60492 cumulative IPC: 0.58442 (Simulation time: 0 hr 9 min 24 sec) 
Heartbeat CPU  0 instructions:  263000001 cycles:  328752022 heartbeat IPC: 0.62034 cumulative IPC: 0.58463 (Simulation time: 0 hr 9 min 27 sec) 
Heartbeat CPU  0 instructions:  264000000 cycles:  330310928 heartbeat IPC: 0.64147 cumulative IPC: 0.58494 (Simulation time: 0 hr 9 min 29 sec) 
Heartbeat CPU  0 instructions:  265000001 cycles:  331852294 heartbeat IPC: 0.64878 cumulative IPC: 0.58529 (Simulation time: 0 hr 9 min 32 sec) 
Heartbeat CPU  0 instructions:  266000001 cycles:  333401887 heartbeat IPC: 0.64533 cumulative IPC: 0.58562 (Simulation time: 0 hr 9 min 34 sec) 
Heartbeat CPU  0 instructions:  267000002 cycles:  334936678 heartbeat IPC: 0.65156 cumulative IPC: 0.58597 (Simulation time: 0 hr 9 min 36 sec) 
Heartbeat CPU  0 instructions:  268000000 cycles:  336332508 heartbeat IPC: 0.71642 cumulative IPC: 0.58661 (Simulation time: 0 hr 9 min 38 sec) 
Heartbeat CPU  0 instructions:  269000001 cycles:  337873816 heartbeat IPC: 0.64880 cumulative IPC: 0.58694 (Simulation time: 0 hr 9 min 40 sec) 
Heartbeat CPU  0 instructions:  270000000 cycles:  339335544 heartbeat IPC: 0.68412 cumulative IPC: 0.58743 (Simulation time: 0 hr 9 min 43 sec) 
Heartbeat CPU  0 instructions:  271000002 cycles:  340771535 heartbeat IPC: 0.69638 cumulative IPC: 0.58797 (Simulation time: 0 hr 9 min 45 sec) 
Heartbeat CPU  0 instructions:  272000000 cycles:  342103323 heartbeat IPC: 0.75087 cumulative IPC: 0.58871 (Simulation time: 0 hr 9 min 47 sec) 
Heartbeat CPU  0 instructions:  273000003 cycles:  343302734 heartbeat IPC: 0.83375 cumulative IPC: 0.58972 (Simulation time: 0 hr 9 min 49 sec) 
Heartbeat CPU  0 instructions:  274000002 cycles:  344550380 heartbeat IPC: 0.80151 cumulative IPC: 0.59061 (Simulation time: 0 hr 9 min 52 sec) 
Heartbeat CPU  0 instructions:  275000000 cycles:  345877999 heartbeat IPC: 0.75323 cumulative IPC: 0.59134 (Simulation time: 0 hr 9 min 54 sec) 
Heartbeat CPU  0 instructions:  276000000 cycles:  347214045 heartbeat IPC: 0.74848 cumulative IPC: 0.59205 (Simulation time: 0 hr 9 min 56 sec) 
Heartbeat CPU  0 instructions:  277000001 cycles:  348530266 heartbeat IPC: 0.75975 cumulative IPC: 0.59279 (Simulation time: 0 hr 9 min 58 sec) 
Heartbeat CPU  0 instructions:  278000001 cycles:  349821647 heartbeat IPC: 0.77436 cumulative IPC: 0.59357 (Simulation time: 0 hr 10 min 0 sec) 
Heartbeat CPU  0 instructions:  279000003 cycles:  351285885 heartbeat IPC: 0.68295 cumulative IPC: 0.59400 (Simulation time: 0 hr 10 min 3 sec) 
Heartbeat CPU  0 instructions:  280000000 cycles:  352812121 heartbeat IPC: 0.65520 cumulative IPC: 0.59431 (Simulation time: 0 hr 10 min 5 sec) 
Heartbeat CPU  0 instructions:  281000000 cycles:  354116328 heartbeat IPC: 0.76675 cumulative IPC: 0.59505 (Simulation time: 0 hr 10 min 7 sec) 
Heartbeat CPU  0 instructions:  282000002 cycles:  355375731 heartbeat IPC: 0.79403 cumulative IPC: 0.59587 (Simulation time: 0 hr 10 min 9 sec) 
Heartbeat CPU  0 instructions:  283000003 cycles:  356607266 heartbeat IPC: 0.81200 cumulative IPC: 0.59674 (Simulation time: 0 hr 10 min 12 sec) 
Heartbeat CPU  0 instructions:  284000000 cycles:  357873131 heartbeat IPC: 0.78997 cumulative IPC: 0.59753 (Simulation time: 0 hr 10 min 14 sec) 
Heartbeat CPU  0 instructions:  285000001 cycles:  359215705 heartbeat IPC: 0.74484 cumulative IPC: 0.59817 (Simulation time: 0 hr 10 min 16 sec) 
Heartbeat CPU  0 instructions:  286000001 cycles:  360616710 heartbeat IPC: 0.71377 cumulative IPC: 0.59869 (Simulation time: 0 hr 10 min 18 sec) 
Heartbeat CPU  0 instructions:  287000003 cycles:  362005486 heartbeat IPC: 0.72006 cumulative IPC: 0.59923 (Simulation time: 0 hr 10 min 21 sec) 
Heartbeat CPU  0 instructions:  288000000 cycles:  363394603 heartbeat IPC: 0.71988 cumulative IPC: 0.59977 (Simulation time: 0 hr 10 min 23 sec) 
Heartbeat CPU  0 instructions:  289000000 cycles:  364905929 heartbeat IPC: 0.66167 cumulative IPC: 0.60007 (Simulation time: 0 hr 10 min 25 sec) 
Heartbeat CPU  0 instructions:  290000003 cycles:  366596181 heartbeat IPC: 0.59163 cumulative IPC: 0.60002 (Simulation time: 0 hr 10 min 27 sec) 
Heartbeat CPU  0 instructions:  291000002 cycles:  368038560 heartbeat IPC: 0.69330 cumulative IPC: 0.60044 (Simulation time: 0 hr 10 min 30 sec) 
Heartbeat CPU  0 instructions:  292000000 cycles:  369425297 heartbeat IPC: 0.72112 cumulative IPC: 0.60097 (Simulation time: 0 hr 10 min 32 sec) 
Heartbeat CPU  0 instructions:  293000003 cycles:  370759543 heartbeat IPC: 0.74949 cumulative IPC: 0.60159 (Simulation time: 0 hr 10 min 34 sec) 
Heartbeat CPU  0 instructions:  294000000 cycles:  372053379 heartbeat IPC: 0.77289 cumulative IPC: 0.60227 (Simulation time: 0 hr 10 min 36 sec) 
Heartbeat CPU  0 instructions:  295000000 cycles:  373415210 heartbeat IPC: 0.73431 cumulative IPC: 0.60283 (Simulation time: 0 hr 10 min 38 sec) 
Heartbeat CPU  0 instructions:  296000000 cycles:  374818855 heartbeat IPC: 0.71243 cumulative IPC: 0.60330 (Simulation time: 0 hr 10 min 41 sec) 
Heartbeat CPU  0 instructions:  297000000 cycles:  376219479 heartbeat IPC: 0.71397 cumulative IPC: 0.60378 (Simulation time: 0 hr 10 min 43 sec) 
Heartbeat CPU  0 instructions:  298000000 cycles:  377632726 heartbeat IPC: 0.70759 cumulative IPC: 0.60423 (Simulation time: 0 hr 10 min 45 sec) 
Heartbeat CPU  0 instructions:  299000002 cycles:  379031947 heartbeat IPC: 0.71468 cumulative IPC: 0.60470 (Simulation time: 0 hr 10 min 47 sec) 
Heartbeat CPU  0 instructions:  300000000 cycles:  380760152 heartbeat IPC: 0.57863 cumulative IPC: 0.60456 (Simulation time: 0 hr 10 min 50 sec) 
Heartbeat CPU  0 instructions:  301000003 cycles:  382310208 heartbeat IPC: 0.64514 cumulative IPC: 0.60475 (Simulation time: 0 hr 10 min 52 sec) 
Heartbeat CPU  0 instructions:  302000002 cycles:  383704509 heartbeat IPC: 0.71720 cumulative IPC: 0.60522 (Simulation time: 0 hr 10 min 54 sec) 
Heartbeat CPU  0 instructions:  303000000 cycles:  385061473 heartbeat IPC: 0.73694 cumulative IPC: 0.60575 (Simulation time: 0 hr 10 min 57 sec) 
Heartbeat CPU  0 instructions:  304000000 cycles:  386403282 heartbeat IPC: 0.74526 cumulative IPC: 0.60631 (Simulation time: 0 hr 10 min 59 sec) 
Heartbeat CPU  0 instructions:  305000000 cycles:  387765490 heartbeat IPC: 0.73410 cumulative IPC: 0.60682 (Simulation time: 0 hr 11 min 1 sec) 
Heartbeat CPU  0 instructions:  306000000 cycles:  389124625 heartbeat IPC: 0.73576 cumulative IPC: 0.60734 (Simulation time: 0 hr 11 min 3 sec) 
Heartbeat CPU  0 instructions:  307000003 cycles:  390481155 heartbeat IPC: 0.73718 cumulative IPC: 0.60786 (Simulation time: 0 hr 11 min 6 sec) 
Heartbeat CPU  0 instructions:  308000000 cycles:  391851793 heartbeat IPC: 0.72959 cumulative IPC: 0.60835 (Simulation time: 0 hr 11 min 8 sec) 
Heartbeat CPU  0 instructions:  309000003 cycles:  393202711 heartbeat IPC: 0.74024 cumulative IPC: 0.60886 (Simulation time: 0 hr 11 min 10 sec) 
Heartbeat CPU  0 instructions:  310000001 cycles:  394831671 heartbeat IPC: 0.61389 cumulative IPC: 0.60889 (Simulation time: 0 hr 11 min 12 sec) 
Heartbeat CPU  0 instructions:  311000000 cycles:  396491133 heartbeat IPC: 0.60260 cumulative IPC: 0.60886 (Simulation time: 0 hr 11 min 15 sec) 
Heartbeat CPU  0 instructions:  312000000 cycles:  397909609 heartbeat IPC: 0.70498 cumulative IPC: 0.60925 (Simulation time: 0 hr 11 min 17 sec) 
Heartbeat CPU  0 instructions:  313000000 cycles:  399281101 heartbeat IPC: 0.72913 cumulative IPC: 0.60972 (Simulation time: 0 hr 11 min 19 sec) 
Heartbeat CPU  0 instructions:  314000003 cycles:  400662298 heartbeat IPC: 0.72401 cumulative IPC: 0.61017 (Simulation time: 0 hr 11 min 21 sec) 
Heartbeat CPU  0 instructions:  315000000 cycles:  402040991 heartbeat IPC: 0.72532 cumulative IPC: 0.61062 (Simulation time: 0 hr 11 min 24 sec) 
Heartbeat CPU  0 instructions:  316000000 cycles:  403442018 heartbeat IPC: 0.71376 cumulative IPC: 0.61103 (Simulation time: 0 hr 11 min 26 sec) 
Heartbeat CPU  0 instructions:  317000000 cycles:  404832814 heartbeat IPC: 0.71901 cumulative IPC: 0.61145 (Simulation time: 0 hr 11 min 28 sec) 
Heartbeat CPU  0 instructions:  318000003 cycles:  406228664 heartbeat IPC: 0.71641 cumulative IPC: 0.61186 (Simulation time: 0 hr 11 min 30 sec) 
Heartbeat CPU  0 instructions:  319000000 cycles:  407620980 heartbeat IPC: 0.71823 cumulative IPC: 0.61228 (Simulation time: 0 hr 11 min 33 sec) 
Heartbeat CPU  0 instructions:  320000000 cycles:  409077231 heartbeat IPC: 0.68669 cumulative IPC: 0.61258 (Simulation time: 0 hr 11 min 35 sec) 
Heartbeat CPU  0 instructions:  321000003 cycles:  410765842 heartbeat IPC: 0.59220 cumulative IPC: 0.61249 (Simulation time: 0 hr 11 min 37 sec) 
Heartbeat CPU  0 instructions:  322000002 cycles:  412293015 heartbeat IPC: 0.65480 cumulative IPC: 0.61266 (Simulation time: 0 hr 11 min 39 sec) 
Heartbeat CPU  0 instructions:  323000002 cycles:  413689959 heartbeat IPC: 0.71585 cumulative IPC: 0.61306 (Simulation time: 0 hr 11 min 42 sec) 
Heartbeat CPU  0 instructions:  324000000 cycles:  415084644 heartbeat IPC: 0.71701 cumulative IPC: 0.61346 (Simulation time: 0 hr 11 min 44 sec) 
Heartbeat CPU  0 instructions:  325000000 cycles:  416474477 heartbeat IPC: 0.71951 cumulative IPC: 0.61386 (Simulation time: 0 hr 11 min 46 sec) 
Heartbeat CPU  0 instructions:  326000002 cycles:  417873116 heartbeat IPC: 0.71498 cumulative IPC: 0.61424 (Simulation time: 0 hr 11 min 49 sec) 
Heartbeat CPU  0 instructions:  327000000 cycles:  419251852 heartbeat IPC: 0.72530 cumulative IPC: 0.61466 (Simulation time: 0 hr 11 min 51 sec) 
Heartbeat CPU  0 instructions:  328000000 cycles:  420633659 heartbeat IPC: 0.72369 cumulative IPC: 0.61506 (Simulation time: 0 hr 11 min 53 sec) 
Heartbeat CPU  0 instructions:  329000003 cycles:  422026043 heartbeat IPC: 0.71819 cumulative IPC: 0.61545 (Simulation time: 0 hr 11 min 55 sec) 
Heartbeat CPU  0 instructions:  330000000 cycles:  423387787 heartbeat IPC: 0.73435 cumulative IPC: 0.61588 (Simulation time: 0 hr 11 min 57 sec) 
Heartbeat CPU  0 instructions:  331000002 cycles:  425043379 heartbeat IPC: 0.60401 cumulative IPC: 0.61583 (Simulation time: 0 hr 12 min 0 sec) 
Heartbeat CPU  0 instructions:  332000000 cycles:  426658437 heartbeat IPC: 0.61917 cumulative IPC: 0.61585 (Simulation time: 0 hr 12 min 2 sec) 
Heartbeat CPU  0 instructions:  333000002 cycles:  428094100 heartbeat IPC: 0.69654 cumulative IPC: 0.61615 (Simulation time: 0 hr 12 min 4 sec) 
Heartbeat CPU  0 instructions:  334000001 cycles:  429484228 heartbeat IPC: 0.71936 cumulative IPC: 0.61653 (Simulation time: 0 hr 12 min 7 sec) 
Heartbeat CPU  0 instructions:  335000003 cycles:  430894428 heartbeat IPC: 0.70912 cumulative IPC: 0.61687 (Simulation time: 0 hr 12 min 9 sec) 
Heartbeat CPU  0 instructions:  336000000 cycles:  432289400 heartbeat IPC: 0.71686 cumulative IPC: 0.61724 (Simulation time: 0 hr 12 min 11 sec) 
Heartbeat CPU  0 instructions:  337000001 cycles:  433668904 heartbeat IPC: 0.72490 cumulative IPC: 0.61762 (Simulation time: 0 hr 12 min 13 sec) 
Heartbeat CPU  0 instructions:  338000000 cycles:  435055509 heartbeat IPC: 0.72119 cumulative IPC: 0.61800 (Simulation time: 0 hr 12 min 16 sec) 
Heartbeat CPU  0 instructions:  339000000 cycles:  436474198 heartbeat IPC: 0.70488 cumulative IPC: 0.61832 (Simulation time: 0 hr 12 min 18 sec) 
Heartbeat CPU  0 instructions:  340000000 cycles:  437866727 heartbeat IPC: 0.71812 cumulative IPC: 0.61867 (Simulation time: 0 hr 12 min 20 sec) 
Heartbeat CPU  0 instructions:  341000003 cycles:  439335160 heartbeat IPC: 0.68100 cumulative IPC: 0.61891 (Simulation time: 0 hr 12 min 22 sec) 
Heartbeat CPU  0 instructions:  342000001 cycles:  441042666 heartbeat IPC: 0.58565 cumulative IPC: 0.61876 (Simulation time: 0 hr 12 min 25 sec) 
Heartbeat CPU  0 instructions:  343000002 cycles:  442493870 heartbeat IPC: 0.68908 cumulative IPC: 0.61902 (Simulation time: 0 hr 12 min 27 sec) 
Heartbeat CPU  0 instructions:  344000000 cycles:  443908119 heartbeat IPC: 0.70709 cumulative IPC: 0.61934 (Simulation time: 0 hr 12 min 29 sec) 
Heartbeat CPU  0 instructions:  345000003 cycles:  445297280 heartbeat IPC: 0.71986 cumulative IPC: 0.61969 (Simulation time: 0 hr 12 min 31 sec) 
Heartbeat CPU  0 instructions:  346000000 cycles:  446687714 heartbeat IPC: 0.71920 cumulative IPC: 0.62004 (Simulation time: 0 hr 12 min 34 sec) 
Heartbeat CPU  0 instructions:  347000000 cycles:  448089862 heartbeat IPC: 0.71319 cumulative IPC: 0.62037 (Simulation time: 0 hr 12 min 36 sec) 
Heartbeat CPU  0 instructions:  348000000 cycles:  449464188 heartbeat IPC: 0.72763 cumulative IPC: 0.62074 (Simulation time: 0 hr 12 min 38 sec) 
Heartbeat CPU  0 instructions:  349000001 cycles:  450866694 heartbeat IPC: 0.71301 cumulative IPC: 0.62106 (Simulation time: 0 hr 12 min 40 sec) 
Heartbeat CPU  0 instructions:  350000002 cycles:  452263386 heartbeat IPC: 0.71598 cumulative IPC: 0.62139 (Simulation time: 0 hr 12 min 43 sec) 
Heartbeat CPU  0 instructions:  351000001 cycles:  453612243 heartbeat IPC: 0.74137 cumulative IPC: 0.62179 (Simulation time: 0 hr 12 min 45 sec) 
Heartbeat CPU  0 instructions:  352000000 cycles:  455280975 heartbeat IPC: 0.59926 cumulative IPC: 0.62170 (Simulation time: 0 hr 12 min 47 sec) 
Heartbeat CPU  0 instructions:  353000002 cycles:  456855831 heartbeat IPC: 0.63498 cumulative IPC: 0.62175 (Simulation time: 0 hr 12 min 49 sec) 
Heartbeat CPU  0 instructions:  354000002 cycles:  458252059 heartbeat IPC: 0.71622 cumulative IPC: 0.62207 (Simulation time: 0 hr 12 min 52 sec) 
Heartbeat CPU  0 instructions:  355000003 cycles:  459628403 heartbeat IPC: 0.72656 cumulative IPC: 0.62243 (Simulation time: 0 hr 12 min 54 sec) 
Heartbeat CPU  0 instructions:  356000000 cycles:  461023879 heartbeat IPC: 0.71660 cumulative IPC: 0.62275 (Simulation time: 0 hr 12 min 56 sec) 
Heartbeat CPU  0 instructions:  357000002 cycles:  462414234 heartbeat IPC: 0.71924 cumulative IPC: 0.62307 (Simulation time: 0 hr 12 min 59 sec) 
Heartbeat CPU  0 instructions:  358000003 cycles:  463801288 heartbeat IPC: 0.72095 cumulative IPC: 0.62340 (Simulation time: 0 hr 13 min 1 sec) 
Heartbeat CPU  0 instructions:  359000001 cycles:  465173102 heartbeat IPC: 0.72896 cumulative IPC: 0.62375 (Simulation time: 0 hr 13 min 3 sec) 
Heartbeat CPU  0 instructions:  360000000 cycles:  466564016 heartbeat IPC: 0.71895 cumulative IPC: 0.62407 (Simulation time: 0 hr 13 min 5 sec) 
Heartbeat CPU  0 instructions:  361000003 cycles:  467940339 heartbeat IPC: 0.72658 cumulative IPC: 0.62440 (Simulation time: 0 hr 13 min 8 sec) 
Heartbeat CPU  0 instructions:  362000000 cycles:  469450561 heartbeat IPC: 0.66215 cumulative IPC: 0.62454 (Simulation time: 0 hr 13 min 10 sec) 
Heartbeat CPU  0 instructions:  363000000 cycles:  471111891 heartbeat IPC: 0.60193 cumulative IPC: 0.62445 (Simulation time: 0 hr 13 min 12 sec) 
Heartbeat CPU  0 instructions:  364000000 cycles:  472559655 heartbeat IPC: 0.69072 cumulative IPC: 0.62468 (Simulation time: 0 hr 13 min 14 sec) 
Heartbeat CPU  0 instructions:  365000000 cycles:  473935395 heartbeat IPC: 0.72688 cumulative IPC: 0.62501 (Simulation time: 0 hr 13 min 17 sec) 
Heartbeat CPU  0 instructions:  366000001 cycles:  475337978 heartbeat IPC: 0.71297 cumulative IPC: 0.62530 (Simulation time: 0 hr 13 min 19 sec) 
Heartbeat CPU  0 instructions:  367000002 cycles:  476719089 heartbeat IPC: 0.72406 cumulative IPC: 0.62562 (Simulation time: 0 hr 13 min 21 sec) 
Heartbeat CPU  0 instructions:  368000000 cycles:  478129622 heartbeat IPC: 0.70895 cumulative IPC: 0.62589 (Simulation time: 0 hr 13 min 23 sec) 
Heartbeat CPU  0 instructions:  369000001 cycles:  479521249 heartbeat IPC: 0.71858 cumulative IPC: 0.62619 (Simulation time: 0 hr 13 min 26 sec) 
Heartbeat CPU  0 instructions:  370000002 cycles:  480910107 heartbeat IPC: 0.72002 cumulative IPC: 0.62649 (Simulation time: 0 hr 13 min 28 sec) 
Heartbeat CPU  0 instructions:  371000000 cycles:  482319740 heartbeat IPC: 0.70940 cumulative IPC: 0.62677 (Simulation time: 0 hr 13 min 30 sec) 
Heartbeat CPU  0 instructions:  372000000 cycles:  483698034 heartbeat IPC: 0.72553 cumulative IPC: 0.62708 (Simulation time: 0 hr 13 min 32 sec) 
Heartbeat CPU  0 instructions:  373000003 cycles:  485396749 heartbeat IPC: 0.58868 cumulative IPC: 0.62693 (Simulation time: 0 hr 13 min 34 sec) 
Heartbeat CPU  0 instructions:  374000003 cycles:  486942382 heartbeat IPC: 0.64698 cumulative IPC: 0.62700 (Simulation time: 0 hr 13 min 37 sec) 
Heartbeat CPU  0 instructions:  375000001 cycles:  488363115 heartbeat IPC: 0.70386 cumulative IPC: 0.62725 (Simulation time: 0 hr 13 min 39 sec) 
Heartbeat CPU  0 instructions:  376000000 cycles:  489744280 heartbeat IPC: 0.72403 cumulative IPC: 0.62755 (Simulation time: 0 hr 13 min 41 sec) 
Heartbeat CPU  0 instructions:  377000001 cycles:  491153310 heartbeat IPC: 0.70971 cumulative IPC: 0.62782 (Simulation time: 0 hr 13 min 44 sec) 
Heartbeat CPU  0 instructions:  378000002 cycles:  492555604 heartbeat IPC: 0.71312 cumulative IPC: 0.62809 (Simulation time: 0 hr 13 min 46 sec) 
Heartbeat CPU  0 instructions:  379000001 cycles:  493951632 heartbeat IPC: 0.71632 cumulative IPC: 0.62836 (Simulation time: 0 hr 13 min 48 sec) 
Heartbeat CPU  0 instructions:  380000000 cycles:  495350129 heartbeat IPC: 0.71505 cumulative IPC: 0.62864 (Simulation time: 0 hr 13 min 50 sec) 
Heartbeat CPU  0 instructions:  381000000 cycles:  496726392 heartbeat IPC: 0.72661 cumulative IPC: 0.62894 (Simulation time: 0 hr 13 min 53 sec) 
Heartbeat CPU  0 instructions:  382000003 cycles:  498115346 heartbeat IPC: 0.71997 cumulative IPC: 0.62922 (Simulation time: 0 hr 13 min 55 sec) 
Heartbeat CPU  0 instructions:  383000001 cycles:  499684307 heartbeat IPC: 0.63736 cumulative IPC: 0.62925 (Simulation time: 0 hr 13 min 57 sec) 
Heartbeat CPU  0 instructions:  384000000 cycles:  501340820 heartbeat IPC: 0.60368 cumulative IPC: 0.62915 (Simulation time: 0 hr 13 min 59 sec) 
Heartbeat CPU  0 instructions:  385000000 cycles:  502785999 heartbeat IPC: 0.69196 cumulative IPC: 0.62935 (Simulation time: 0 hr 14 min 2 sec) 
Heartbeat CPU  0 instructions:  386000001 cycles:  504176736 heartbeat IPC: 0.71904 cumulative IPC: 0.62963 (Simulation time: 0 hr 14 min 4 sec) 
Heartbeat CPU  0 instructions:  387000000 cycles:  505589685 heartbeat IPC: 0.70774 cumulative IPC: 0.62987 (Simulation time: 0 hr 14 min 6 sec) 
Heartbeat CPU  0 instructions:  388000000 cycles:  507001593 heartbeat IPC: 0.70826 cumulative IPC: 0.63011 (Simulation time: 0 hr 14 min 9 sec) 
Heartbeat CPU  0 instructions:  389000001 cycles:  508384606 heartbeat IPC: 0.72306 cumulative IPC: 0.63039 (Simulation time: 0 hr 14 min 11 sec) 
Heartbeat CPU  0 instructions:  390000000 cycles:  509782760 heartbeat IPC: 0.71523 cumulative IPC: 0.63065 (Simulation time: 0 hr 14 min 13 sec) 
Heartbeat CPU  0 instructions:  391000002 cycles:  511190926 heartbeat IPC: 0.71014 cumulative IPC: 0.63089 (Simulation time: 0 hr 14 min 15 sec) 
Heartbeat CPU  0 instructions:  392000000 cycles:  512602158 heartbeat IPC: 0.70860 cumulative IPC: 0.63113 (Simulation time: 0 hr 14 min 18 sec) 
Heartbeat CPU  0 instructions:  393000002 cycles:  514033512 heartbeat IPC: 0.69864 cumulative IPC: 0.63134 (Simulation time: 0 hr 14 min 20 sec) 
Heartbeat CPU  0 instructions:  394000000 cycles:  515733978 heartbeat IPC: 0.58807 cumulative IPC: 0.63118 (Simulation time: 0 hr 14 min 22 sec) 
Heartbeat CPU  0 instructions:  395000002 cycles:  517277804 heartbeat IPC: 0.64774 cumulative IPC: 0.63124 (Simulation time: 0 hr 14 min 24 sec) 
Heartbeat CPU  0 instructions:  396000000 cycles:  518687170 heartbeat IPC: 0.70954 cumulative IPC: 0.63147 (Simulation time: 0 hr 14 min 27 sec) 
Heartbeat CPU  0 instructions:  397000003 cycles:  520068651 heartbeat IPC: 0.72386 cumulative IPC: 0.63174 (Simulation time: 0 hr 14 min 29 sec) 
Heartbeat CPU  0 instructions:  398000001 cycles:  521458103 heartbeat IPC: 0.71971 cumulative IPC: 0.63200 (Simulation time: 0 hr 14 min 31 sec) 
Heartbeat CPU  0 instructions:  399000000 cycles:  522859349 heartbeat IPC: 0.71365 cumulative IPC: 0.63224 (Simulation time: 0 hr 14 min 33 sec) 
Heartbeat CPU  0 instructions:  400000000 cycles:  524280535 heartbeat IPC: 0.70364 cumulative IPC: 0.63246 (Simulation time: 0 hr 14 min 36 sec) 
Heartbeat CPU  0 instructions:  401000002 cycles:  525670811 heartbeat IPC: 0.71928 cumulative IPC: 0.63271 (Simulation time: 0 hr 14 min 38 sec) 
Heartbeat CPU  0 instructions:  402000000 cycles:  527103078 heartbeat IPC: 0.69819 cumulative IPC: 0.63291 (Simulation time: 0 hr 14 min 40 sec) 
Heartbeat CPU  0 instructions:  403000000 cycles:  528485793 heartbeat IPC: 0.72321 cumulative IPC: 0.63317 (Simulation time: 0 hr 14 min 42 sec) 
Heartbeat CPU  0 instructions:  404000000 cycles:  530111715 heartbeat IPC: 0.61504 cumulative IPC: 0.63311 (Simulation time: 0 hr 14 min 45 sec) 
Heartbeat CPU  0 instructions:  405000003 cycles:  532186826 heartbeat IPC: 0.48190 cumulative IPC: 0.63246 (Simulation time: 0 hr 14 min 47 sec) 
Heartbeat CPU  0 instructions:  406000003 cycles:  534087159 heartbeat IPC: 0.52622 cumulative IPC: 0.63204 (Simulation time: 0 hr 14 min 50 sec) 
Heartbeat CPU  0 instructions:  407000000 cycles:  535741816 heartbeat IPC: 0.60435 cumulative IPC: 0.63195 (Simulation time: 0 hr 14 min 52 sec) 
Heartbeat CPU  0 instructions:  408000000 cycles:  537395439 heartbeat IPC: 0.60473 cumulative IPC: 0.63185 (Simulation time: 0 hr 14 min 54 sec) 
Heartbeat CPU  0 instructions:  409000003 cycles:  539050948 heartbeat IPC: 0.60405 cumulative IPC: 0.63176 (Simulation time: 0 hr 14 min 57 sec) 
Heartbeat CPU  0 instructions:  410000002 cycles:  540706076 heartbeat IPC: 0.60418 cumulative IPC: 0.63167 (Simulation time: 0 hr 14 min 59 sec) 
Heartbeat CPU  0 instructions:  411000000 cycles:  542363965 heartbeat IPC: 0.60318 cumulative IPC: 0.63157 (Simulation time: 0 hr 15 min 1 sec) 
Heartbeat CPU  0 instructions:  412000000 cycles:  544035698 heartbeat IPC: 0.59818 cumulative IPC: 0.63146 (Simulation time: 0 hr 15 min 4 sec) 
Heartbeat CPU  0 instructions:  413000001 cycles:  545700427 heartbeat IPC: 0.60070 cumulative IPC: 0.63135 (Simulation time: 0 hr 15 min 6 sec) 
Heartbeat CPU  0 instructions:  414000000 cycles:  547357461 heartbeat IPC: 0.60349 cumulative IPC: 0.63126 (Simulation time: 0 hr 15 min 9 sec) 
Heartbeat CPU  0 instructions:  415000003 cycles:  549017103 heartbeat IPC: 0.60254 cumulative IPC: 0.63117 (Simulation time: 0 hr 15 min 11 sec) 
Heartbeat CPU  0 instructions:  416000000 cycles:  551383350 heartbeat IPC: 0.42261 cumulative IPC: 0.63018 (Simulation time: 0 hr 15 min 14 sec) 
Heartbeat CPU  0 instructions:  417000001 cycles:  553036671 heartbeat IPC: 0.60484 cumulative IPC: 0.63010 (Simulation time: 0 hr 15 min 16 sec) 
Heartbeat CPU  0 instructions:  418000003 cycles:  554692512 heartbeat IPC: 0.60392 cumulative IPC: 0.63001 (Simulation time: 0 hr 15 min 18 sec) 
Heartbeat CPU  0 instructions:  419000002 cycles:  556347519 heartbeat IPC: 0.60423 cumulative IPC: 0.62993 (Simulation time: 0 hr 15 min 21 sec) 
Heartbeat CPU  0 instructions:  420000000 cycles:  558003273 heartbeat IPC: 0.60395 cumulative IPC: 0.62984 (Simulation time: 0 hr 15 min 23 sec) 
Heartbeat CPU  0 instructions:  421000003 cycles:  559659030 heartbeat IPC: 0.60396 cumulative IPC: 0.62976 (Simulation time: 0 hr 15 min 25 sec) 
Heartbeat CPU  0 instructions:  422000003 cycles:  561314945 heartbeat IPC: 0.60390 cumulative IPC: 0.62968 (Simulation time: 0 hr 15 min 28 sec) 
Heartbeat CPU  0 instructions:  423000002 cycles:  562968219 heartbeat IPC: 0.60486 cumulative IPC: 0.62960 (Simulation time: 0 hr 15 min 30 sec) 
Heartbeat CPU  0 instructions:  424000000 cycles:  564623441 heartbeat IPC: 0.60415 cumulative IPC: 0.62951 (Simulation time: 0 hr 15 min 32 sec) 
Heartbeat CPU  0 instructions:  425000003 cycles:  566277219 heartbeat IPC: 0.60468 cumulative IPC: 0.62943 (Simulation time: 0 hr 15 min 35 sec) 
Heartbeat CPU  0 instructions:  426000001 cycles:  568494024 heartbeat IPC: 0.45110 cumulative IPC: 0.62867 (Simulation time: 0 hr 15 min 37 sec) 
Heartbeat CPU  0 instructions:  427000003 cycles:  570300924 heartbeat IPC: 0.55344 cumulative IPC: 0.62841 (Simulation time: 0 hr 15 min 40 sec) 
Heartbeat CPU  0 instructions:  428000000 cycles:  571956462 heartbeat IPC: 0.60403 cumulative IPC: 0.62833 (Simulation time: 0 hr 15 min 42 sec) 
Heartbeat CPU  0 instructions:  429000000 cycles:  573618503 heartbeat IPC: 0.60167 cumulative IPC: 0.62825 (Simulation time: 0 hr 15 min 45 sec) 
Heartbeat CPU  0 instructions:  430000003 cycles:  575278856 heartbeat IPC: 0.60228 cumulative IPC: 0.62817 (Simulation time: 0 hr 15 min 47 sec) 
Heartbeat CPU  0 instructions:  431000002 cycles:  576935349 heartbeat IPC: 0.60368 cumulative IPC: 0.62809 (Simulation time: 0 hr 15 min 49 sec) 
Heartbeat CPU  0 instructions:  432000000 cycles:  578600533 heartbeat IPC: 0.60053 cumulative IPC: 0.62800 (Simulation time: 0 hr 15 min 52 sec) 
Heartbeat CPU  0 instructions:  433000001 cycles:  580255663 heartbeat IPC: 0.60418 cumulative IPC: 0.62793 (Simulation time: 0 hr 15 min 54 sec) 
Heartbeat CPU  0 instructions:  434000001 cycles:  581913200 heartbeat IPC: 0.60330 cumulative IPC: 0.62785 (Simulation time: 0 hr 15 min 56 sec) 
Heartbeat CPU  0 instructions:  435000002 cycles:  583566891 heartbeat IPC: 0.60471 cumulative IPC: 0.62778 (Simulation time: 0 hr 15 min 59 sec) 
Heartbeat CPU  0 instructions:  436000000 cycles:  585328406 heartbeat IPC: 0.56769 cumulative IPC: 0.62758 (Simulation time: 0 hr 16 min 1 sec) 
Heartbeat CPU  0 instructions:  437000001 cycles:  587602235 heartbeat IPC: 0.43979 cumulative IPC: 0.62679 (Simulation time: 0 hr 16 min 4 sec) 
Heartbeat CPU  0 instructions:  438000003 cycles:  589256351 heartbeat IPC: 0.60455 cumulative IPC: 0.62672 (Simulation time: 0 hr 16 min 6 sec) 
Heartbeat CPU  0 instructions:  439000003 cycles:  590913768 heartbeat IPC: 0.60335 cumulative IPC: 0.62665 (Simulation time: 0 hr 16 min 8 sec) 
Heartbeat CPU  0 instructions:  440000000 cycles:  592568887 heartbeat IPC: 0.60418 cumulative IPC: 0.62658 (Simulation time: 0 hr 16 min 11 sec) 
Heartbeat CPU  0 instructions:  441000000 cycles:  594225691 heartbeat IPC: 0.60357 cumulative IPC: 0.62651 (Simulation time: 0 hr 16 min 13 sec) 
Heartbeat CPU  0 instructions:  442000003 cycles:  595907389 heartbeat IPC: 0.59464 cumulative IPC: 0.62641 (Simulation time: 0 hr 16 min 16 sec) 
Heartbeat CPU  0 instructions:  443000003 cycles:  597561690 heartbeat IPC: 0.60448 cumulative IPC: 0.62635 (Simulation time: 0 hr 16 min 18 sec) 
Heartbeat CPU  0 instructions:  444000000 cycles:  599216197 heartbeat IPC: 0.60441 cumulative IPC: 0.62628 (Simulation time: 0 hr 16 min 20 sec) 
Heartbeat CPU  0 instructions:  445000000 cycles:  600871207 heartbeat IPC: 0.60423 cumulative IPC: 0.62621 (Simulation time: 0 hr 16 min 23 sec) 
Heartbeat CPU  0 instructions:  446000001 cycles:  602530014 heartbeat IPC: 0.60284 cumulative IPC: 0.62614 (Simulation time: 0 hr 16 min 25 sec) 
Heartbeat CPU  0 instructions:  447000000 cycles:  604846279 heartbeat IPC: 0.43173 cumulative IPC: 0.62533 (Simulation time: 0 hr 16 min 28 sec) 
Heartbeat CPU  0 instructions:  448000000 cycles:  606555415 heartbeat IPC: 0.58509 cumulative IPC: 0.62521 (Simulation time: 0 hr 16 min 30 sec) 
Heartbeat CPU  0 instructions:  449000002 cycles:  608210466 heartbeat IPC: 0.60421 cumulative IPC: 0.62515 (Simulation time: 0 hr 16 min 32 sec) 
Heartbeat CPU  0 instructions:  450000000 cycles:  609864256 heartbeat IPC: 0.60467 cumulative IPC: 0.62509 (Simulation time: 0 hr 16 min 35 sec) 
Heartbeat CPU  0 instructions:  451000003 cycles:  611520349 heartbeat IPC: 0.60383 cumulative IPC: 0.62502 (Simulation time: 0 hr 16 min 37 sec) 
Heartbeat CPU  0 instructions:  452000000 cycles:  613179261 heartbeat IPC: 0.60280 cumulative IPC: 0.62496 (Simulation time: 0 hr 16 min 39 sec) 
Heartbeat CPU  0 instructions:  453000002 cycles:  614832665 heartbeat IPC: 0.60481 cumulative IPC: 0.62490 (Simulation time: 0 hr 16 min 42 sec) 
Heartbeat CPU  0 instructions:  454000003 cycles:  616488643 heartbeat IPC: 0.60387 cumulative IPC: 0.62484 (Simulation time: 0 hr 16 min 44 sec) 
Heartbeat CPU  0 instructions:  455000001 cycles:  618141629 heartbeat IPC: 0.60496 cumulative IPC: 0.62478 (Simulation time: 0 hr 16 min 46 sec) 
Heartbeat CPU  0 instructions:  456000000 cycles:  619799244 heartbeat IPC: 0.60328 cumulative IPC: 0.62472 (Simulation time: 0 hr 16 min 49 sec) 
Heartbeat CPU  0 instructions:  457000002 cycles:  621623621 heartbeat IPC: 0.54813 cumulative IPC: 0.62447 (Simulation time: 0 hr 16 min 51 sec) 
Heartbeat CPU  0 instructions:  458000002 cycles:  624190003 heartbeat IPC: 0.38965 cumulative IPC: 0.62342 (Simulation time: 0 hr 16 min 54 sec) 
Heartbeat CPU  0 instructions:  459000002 cycles:  626735195 heartbeat IPC: 0.39290 cumulative IPC: 0.62241 (Simulation time: 0 hr 16 min 56 sec) 
Heartbeat CPU  0 instructions:  460000000 cycles:  629156355 heartbeat IPC: 0.41302 cumulative IPC: 0.62153 (Simulation time: 0 hr 16 min 59 sec) 
Heartbeat CPU  0 instructions:  461000002 cycles:  631565944 heartbeat IPC: 0.41501 cumulative IPC: 0.62067 (Simulation time: 0 hr 17 min 2 sec) 
Heartbeat CPU  0 instructions:  462000002 cycles:  634010295 heartbeat IPC: 0.40911 cumulative IPC: 0.61979 (Simulation time: 0 hr 17 min 4 sec) 
Heartbeat CPU  0 instructions:  463000002 cycles:  636439171 heartbeat IPC: 0.41171 cumulative IPC: 0.61893 (Simulation time: 0 hr 17 min 7 sec) 
Heartbeat CPU  0 instructions:  464000000 cycles:  638880743 heartbeat IPC: 0.40957 cumulative IPC: 0.61806 (Simulation time: 0 hr 17 min 9 sec) 
Heartbeat CPU  0 instructions:  465000000 cycles:  641366388 heartbeat IPC: 0.40231 cumulative IPC: 0.61715 (Simulation time: 0 hr 17 min 12 sec) 
Heartbeat CPU  0 instructions:  466000001 cycles:  643871084 heartbeat IPC: 0.39925 cumulative IPC: 0.61623 (Simulation time: 0 hr 17 min 14 sec) 
Heartbeat CPU  0 instructions:  467000000 cycles:  646317766 heartbeat IPC: 0.40872 cumulative IPC: 0.61538 (Simulation time: 0 hr 17 min 17 sec) 
Heartbeat CPU  0 instructions:  468000000 cycles:  648773135 heartbeat IPC: 0.40727 cumulative IPC: 0.61453 (Simulation time: 0 hr 17 min 20 sec) 
Heartbeat CPU  0 instructions:  469000003 cycles:  651209692 heartbeat IPC: 0.41042 cumulative IPC: 0.61370 (Simulation time: 0 hr 17 min 22 sec) 
Heartbeat CPU  0 instructions:  470000001 cycles:  653636069 heartbeat IPC: 0.41214 cumulative IPC: 0.61289 (Simulation time: 0 hr 17 min 25 sec) 
Heartbeat CPU  0 instructions:  471000003 cycles:  656050051 heartbeat IPC: 0.41425 cumulative IPC: 0.61210 (Simulation time: 0 hr 17 min 27 sec) 
Heartbeat CPU  0 instructions:  472000000 cycles:  658467646 heartbeat IPC: 0.41363 cumulative IPC: 0.61131 (Simulation time: 0 hr 17 min 30 sec) 
Heartbeat CPU  0 instructions:  473000000 cycles:  660958401 heartbeat IPC: 0.40148 cumulative IPC: 0.61046 (Simulation time: 0 hr 17 min 32 sec) 
Heartbeat CPU  0 instructions:  474000000 cycles:  663462606 heartbeat IPC: 0.39933 cumulative IPC: 0.60960 (Simulation time: 0 hr 17 min 35 sec) 
Heartbeat CPU  0 instructions:  475000002 cycles:  665956569 heartbeat IPC: 0.40097 cumulative IPC: 0.60875 (Simulation time: 0 hr 17 min 37 sec) 
Heartbeat CPU  0 instructions:  476000000 cycles:  668440361 heartbeat IPC: 0.40261 cumulative IPC: 0.60792 (Simulation time: 0 hr 17 min 40 sec) 
Heartbeat CPU  0 instructions:  477000002 cycles:  670917541 heartbeat IPC: 0.40369 cumulative IPC: 0.60711 (Simulation time: 0 hr 17 min 42 sec) 
Heartbeat CPU  0 instructions:  478000002 cycles:  673380986 heartbeat IPC: 0.40594 cumulative IPC: 0.60631 (Simulation time: 0 hr 17 min 45 sec) 
Heartbeat CPU  0 instructions:  479000002 cycles:  675798766 heartbeat IPC: 0.41360 cumulative IPC: 0.60557 (Simulation time: 0 hr 17 min 48 sec) 
Heartbeat CPU  0 instructions:  480000000 cycles:  677912152 heartbeat IPC: 0.47317 cumulative IPC: 0.60512 (Simulation time: 0 hr 17 min 50 sec) 
Heartbeat CPU  0 instructions:  481000002 cycles:  679928750 heartbeat IPC: 0.49589 cumulative IPC: 0.60477 (Simulation time: 0 hr 17 min 53 sec) 
Heartbeat CPU  0 instructions:  482000003 cycles:  681962333 heartbeat IPC: 0.49174 cumulative IPC: 0.60441 (Simulation time: 0 hr 17 min 56 sec) 
Heartbeat CPU  0 instructions:  483000000 cycles:  683918144 heartbeat IPC: 0.51130 cumulative IPC: 0.60412 (Simulation time: 0 hr 17 min 59 sec) 
Heartbeat CPU  0 instructions:  484000000 cycles:  685838490 heartbeat IPC: 0.52074 cumulative IPC: 0.60387 (Simulation time: 0 hr 18 min 2 sec) 
Heartbeat CPU  0 instructions:  485000003 cycles:  687657733 heartbeat IPC: 0.54968 cumulative IPC: 0.60372 (Simulation time: 0 hr 18 min 4 sec) 
Heartbeat CPU  0 instructions:  486000003 cycles:  689488506 heartbeat IPC: 0.54622 cumulative IPC: 0.60355 (Simulation time: 0 hr 18 min 7 sec) 
Heartbeat CPU  0 instructions:  487000000 cycles:  691358279 heartbeat IPC: 0.53482 cumulative IPC: 0.60335 (Simulation time: 0 hr 18 min 9 sec) 
Heartbeat CPU  0 instructions:  488000000 cycles:  693219241 heartbeat IPC: 0.53736 cumulative IPC: 0.60316 (Simulation time: 0 hr 18 min 12 sec) 
Heartbeat CPU  0 instructions:  489000000 cycles:  695070147 heartbeat IPC: 0.54028 cumulative IPC: 0.60298 (Simulation time: 0 hr 18 min 15 sec) 
Heartbeat CPU  0 instructions:  490000000 cycles:  696949129 heartbeat IPC: 0.53220 cumulative IPC: 0.60277 (Simulation time: 0 hr 18 min 17 sec) 
Heartbeat CPU  0 instructions:  491000001 cycles:  698814233 heartbeat IPC: 0.53616 cumulative IPC: 0.60258 (Simulation time: 0 hr 18 min 20 sec) 
Heartbeat CPU  0 instructions:  492000000 cycles:  700695214 heartbeat IPC: 0.53164 cumulative IPC: 0.60238 (Simulation time: 0 hr 18 min 23 sec) 
Heartbeat CPU  0 instructions:  493000001 cycles:  702583063 heartbeat IPC: 0.52970 cumulative IPC: 0.60217 (Simulation time: 0 hr 18 min 25 sec) 
Heartbeat CPU  0 instructions:  494000000 cycles:  704430065 heartbeat IPC: 0.54142 cumulative IPC: 0.60200 (Simulation time: 0 hr 18 min 28 sec) 
Heartbeat CPU  0 instructions:  495000001 cycles:  706321578 heartbeat IPC: 0.52868 cumulative IPC: 0.60178 (Simulation time: 0 hr 18 min 31 sec) 
Heartbeat CPU  0 instructions:  496000000 cycles:  708191605 heartbeat IPC: 0.53475 cumulative IPC: 0.60159 (Simulation time: 0 hr 18 min 33 sec) 
Heartbeat CPU  0 instructions:  497000001 cycles:  710070223 heartbeat IPC: 0.53231 cumulative IPC: 0.60140 (Simulation time: 0 hr 18 min 36 sec) 
Heartbeat CPU  0 instructions:  498000000 cycles:  711944295 heartbeat IPC: 0.53360 cumulative IPC: 0.60121 (Simulation time: 0 hr 18 min 39 sec) 
Heartbeat CPU  0 instructions:  499000002 cycles:  713851596 heartbeat IPC: 0.52430 cumulative IPC: 0.60098 (Simulation time: 0 hr 18 min 41 sec) 
Heartbeat CPU  0 instructions:  500000000 cycles:  715757128 heartbeat IPC: 0.52479 cumulative IPC: 0.60077 (Simulation time: 0 hr 18 min 44 sec) 
Heartbeat CPU  0 instructions:  501000002 cycles:  717635585 heartbeat IPC: 0.53235 cumulative IPC: 0.60057 (Simulation time: 0 hr 18 min 47 sec) 
Heartbeat CPU  0 instructions:  502000003 cycles:  719502198 heartbeat IPC: 0.53573 cumulative IPC: 0.60039 (Simulation time: 0 hr 18 min 49 sec) 
Heartbeat CPU  0 instructions:  503000000 cycles:  721400039 heartbeat IPC: 0.52691 cumulative IPC: 0.60019 (Simulation time: 0 hr 18 min 52 sec) 
Heartbeat CPU  0 instructions:  504000000 cycles:  723320227 heartbeat IPC: 0.52078 cumulative IPC: 0.59996 (Simulation time: 0 hr 18 min 55 sec) 
Heartbeat CPU  0 instructions:  505000001 cycles:  725254408 heartbeat IPC: 0.51702 cumulative IPC: 0.59972 (Simulation time: 0 hr 18 min 58 sec) 
Heartbeat CPU  0 instructions:  506000000 cycles:  727155523 heartbeat IPC: 0.52601 cumulative IPC: 0.59951 (Simulation time: 0 hr 19 min 0 sec) 
Heartbeat CPU  0 instructions:  507000003 cycles:  729081638 heartbeat IPC: 0.51918 cumulative IPC: 0.59929 (Simulation time: 0 hr 19 min 3 sec) 
Heartbeat CPU  0 instructions:  508000000 cycles:  730995346 heartbeat IPC: 0.52254 cumulative IPC: 0.59907 (Simulation time: 0 hr 19 min 6 sec) 
Heartbeat CPU  0 instructions:  509000002 cycles:  732929857 heartbeat IPC: 0.51693 cumulative IPC: 0.59884 (Simulation time: 0 hr 19 min 8 sec) 
Heartbeat CPU  0 instructions:  510000000 cycles:  734837509 heartbeat IPC: 0.52420 cumulative IPC: 0.59863 (Simulation time: 0 hr 19 min 11 sec) 
Heartbeat CPU  0 instructions:  511000002 cycles:  736567205 heartbeat IPC: 0.57814 cumulative IPC: 0.59858 (Simulation time: 0 hr 19 min 14 sec) 
Heartbeat CPU  0 instructions:  512000000 cycles:  738124660 heartbeat IPC: 0.64207 cumulative IPC: 0.59868 (Simulation time: 0 hr 19 min 16 sec) 
Heartbeat CPU  0 instructions:  513000000 cycles:  739607197 heartbeat IPC: 0.67452 cumulative IPC: 0.59884 (Simulation time: 0 hr 19 min 18 sec) 
Heartbeat CPU  0 instructions:  514000003 cycles:  740928954 heartbeat IPC: 0.75657 cumulative IPC: 0.59914 (Simulation time: 0 hr 19 min 20 sec) 
Heartbeat CPU  0 instructions:  515000002 cycles:  742394185 heartbeat IPC: 0.68249 cumulative IPC: 0.59932 (Simulation time: 0 hr 19 min 23 sec) 
Heartbeat CPU  0 instructions:  516000000 cycles:  743845549 heartbeat IPC: 0.68901 cumulative IPC: 0.59951 (Simulation time: 0 hr 19 min 25 sec) 
Heartbeat CPU  0 instructions:  517000001 cycles:  745283070 heartbeat IPC: 0.69564 cumulative IPC: 0.59970 (Simulation time: 0 hr 19 min 27 sec) 
Heartbeat CPU  0 instructions:  518000003 cycles:  746609157 heartbeat IPC: 0.75410 cumulative IPC: 0.60000 (Simulation time: 0 hr 19 min 29 sec) 
Heartbeat CPU  0 instructions:  519000001 cycles:  747907811 heartbeat IPC: 0.77003 cumulative IPC: 0.60031 (Simulation time: 0 hr 19 min 32 sec) 
Heartbeat CPU  0 instructions:  520000000 cycles:  749266815 heartbeat IPC: 0.73583 cumulative IPC: 0.60058 (Simulation time: 0 hr 19 min 34 sec) 
Heartbeat CPU  0 instructions:  521000002 cycles:  750587539 heartbeat IPC: 0.75716 cumulative IPC: 0.60087 (Simulation time: 0 hr 19 min 36 sec) 
Heartbeat CPU  0 instructions:  522000002 cycles:  751935149 heartbeat IPC: 0.74205 cumulative IPC: 0.60114 (Simulation time: 0 hr 19 min 38 sec) 
Heartbeat CPU  0 instructions:  523000000 cycles:  753155123 heartbeat IPC: 0.81969 cumulative IPC: 0.60152 (Simulation time: 0 hr 19 min 40 sec) 
Heartbeat CPU  0 instructions:  524000000 cycles:  754479795 heartbeat IPC: 0.75490 cumulative IPC: 0.60181 (Simulation time: 0 hr 19 min 43 sec) 
Heartbeat CPU  0 instructions:  525000003 cycles:  755810731 heartbeat IPC: 0.75135 cumulative IPC: 0.60209 (Simulation time: 0 hr 19 min 45 sec) 
Heartbeat CPU  0 instructions:  526000000 cycles:  757133215 heartbeat IPC: 0.75615 cumulative IPC: 0.60238 (Simulation time: 0 hr 19 min 47 sec) 
Heartbeat CPU  0 instructions:  527000003 cycles:  758452817 heartbeat IPC: 0.75781 cumulative IPC: 0.60267 (Simulation time: 0 hr 19 min 49 sec) 
Heartbeat CPU  0 instructions:  528000000 cycles:  759707485 heartbeat IPC: 0.79702 cumulative IPC: 0.60302 (Simulation time: 0 hr 19 min 51 sec) 
Heartbeat CPU  0 instructions:  529000003 cycles:  761025386 heartbeat IPC: 0.75878 cumulative IPC: 0.60330 (Simulation time: 0 hr 19 min 54 sec) 
Heartbeat CPU  0 instructions:  530000001 cycles:  762351511 heartbeat IPC: 0.75408 cumulative IPC: 0.60358 (Simulation time: 0 hr 19 min 56 sec) 
Heartbeat CPU  0 instructions:  531000000 cycles:  763677639 heartbeat IPC: 0.75407 cumulative IPC: 0.60386 (Simulation time: 0 hr 19 min 58 sec) 
Heartbeat CPU  0 instructions:  532000000 cycles:  764939010 heartbeat IPC: 0.79279 cumulative IPC: 0.60420 (Simulation time: 0 hr 20 min 0 sec) 
Heartbeat CPU  0 instructions:  533000001 cycles:  766251940 heartbeat IPC: 0.76166 cumulative IPC: 0.60449 (Simulation time: 0 hr 20 min 2 sec) 
Heartbeat CPU  0 instructions:  534000002 cycles:  767568429 heartbeat IPC: 0.75960 cumulative IPC: 0.60477 (Simulation time: 0 hr 20 min 4 sec) 
Heartbeat CPU  0 instructions:  535000000 cycles:  768899730 heartbeat IPC: 0.75114 cumulative IPC: 0.60504 (Simulation time: 0 hr 20 min 7 sec) 
Heartbeat CPU  0 instructions:  536000000 cycles:  770211145 heartbeat IPC: 0.76254 cumulative IPC: 0.60533 (Simulation time: 0 hr 20 min 9 sec) 
Heartbeat CPU  0 instructions:  537000002 cycles:  771487127 heartbeat IPC: 0.78371 cumulative IPC: 0.60564 (Simulation time: 0 hr 20 min 11 sec) 
Heartbeat CPU  0 instructions:  538000002 cycles:  772835338 heartbeat IPC: 0.74172 cumulative IPC: 0.60590 (Simulation time: 0 hr 20 min 13 sec) 
Heartbeat CPU  0 instructions:  539000000 cycles:  774158064 heartbeat IPC: 0.75601 cumulative IPC: 0.60617 (Simulation time: 0 hr 20 min 15 sec) 
Heartbeat CPU  0 instructions:  540000000 cycles:  775506763 heartbeat IPC: 0.74146 cumulative IPC: 0.60642 (Simulation time: 0 hr 20 min 18 sec) 
Heartbeat CPU  0 instructions:  541000000 cycles:  776764388 heartbeat IPC: 0.79515 cumulative IPC: 0.60675 (Simulation time: 0 hr 20 min 20 sec) 
Heartbeat CPU  0 instructions:  542000002 cycles:  778101876 heartbeat IPC: 0.74767 cumulative IPC: 0.60701 (Simulation time: 0 hr 20 min 22 sec) 
Heartbeat CPU  0 instructions:  543000001 cycles:  779456842 heartbeat IPC: 0.73803 cumulative IPC: 0.60725 (Simulation time: 0 hr 20 min 24 sec) 
Heartbeat CPU  0 instructions:  544000000 cycles:  780778394 heartbeat IPC: 0.75669 cumulative IPC: 0.60752 (Simulation time: 0 hr 20 min 26 sec) 
Heartbeat CPU  0 instructions:  545000001 cycles:  782105884 heartbeat IPC: 0.75330 cumulative IPC: 0.60779 (Simulation time: 0 hr 20 min 29 sec) 
Heartbeat CPU  0 instructions:  546000003 cycles:  783361089 heartbeat IPC: 0.79668 cumulative IPC: 0.60811 (Simulation time: 0 hr 20 min 31 sec) 
Heartbeat CPU  0 instructions:  547000000 cycles:  784718338 heartbeat IPC: 0.73678 cumulative IPC: 0.60835 (Simulation time: 0 hr 20 min 33 sec) 
Heartbeat CPU  0 instructions:  548000000 cycles:  786076513 heartbeat IPC: 0.73628 cumulative IPC: 0.60858 (Simulation time: 0 hr 20 min 35 sec) 
Heartbeat CPU  0 instructions:  549000001 cycles:  787399932 heartbeat IPC: 0.75562 cumulative IPC: 0.60885 (Simulation time: 0 hr 20 min 37 sec) 
Heartbeat CPU  0 instructions:  550000001 cycles:  788647702 heartbeat IPC: 0.80143 cumulative IPC: 0.60917 (Simulation time: 0 hr 20 min 39 sec) 
Heartbeat CPU  0 instructions:  551000002 cycles:  789952348 heartbeat IPC: 0.76649 cumulative IPC: 0.60945 (Simulation time: 0 hr 20 min 42 sec) 
Heartbeat CPU  0 instructions:  552000000 cycles:  791282717 heartbeat IPC: 0.75167 cumulative IPC: 0.60971 (Simulation time: 0 hr 20 min 44 sec) 
Heartbeat CPU  0 instructions:  553000002 cycles:  792633555 heartbeat IPC: 0.74028 cumulative IPC: 0.60994 (Simulation time: 0 hr 20 min 46 sec) 
Heartbeat CPU  0 instructions:  554000002 cycles:  793954636 heartbeat IPC: 0.75696 cumulative IPC: 0.61020 (Simulation time: 0 hr 20 min 48 sec) 
Heartbeat CPU  0 instructions:  555000001 cycles:  795169739 heartbeat IPC: 0.82297 cumulative IPC: 0.61055 (Simulation time: 0 hr 20 min 50 sec) 
Heartbeat CPU  0 instructions:  556000000 cycles:  796500902 heartbeat IPC: 0.75122 cumulative IPC: 0.61080 (Simulation time: 0 hr 20 min 53 sec) 
Heartbeat CPU  0 instructions:  557000003 cycles:  797832244 heartbeat IPC: 0.75112 cumulative IPC: 0.61105 (Simulation time: 0 hr 20 min 55 sec) 
Heartbeat CPU  0 instructions:  558000001 cycles:  799183360 heartbeat IPC: 0.74013 cumulative IPC: 0.61128 (Simulation time: 0 hr 20 min 57 sec) 
Heartbeat CPU  0 instructions:  559000001 cycles:  800472682 heartbeat IPC: 0.77560 cumulative IPC: 0.61157 (Simulation time: 0 hr 20 min 59 sec) 
Heartbeat CPU  0 instructions:  560000000 cycles:  801730685 heartbeat IPC: 0.79491 cumulative IPC: 0.61187 (Simulation time: 0 hr 21 min 1 sec) 
Heartbeat CPU  0 instructions:  561000003 cycles:  803068717 heartbeat IPC: 0.74737 cumulative IPC: 0.61211 (Simulation time: 0 hr 21 min 4 sec) 
Heartbeat CPU  0 instructions:  562000001 cycles:  804401514 heartbeat IPC: 0.75030 cumulative IPC: 0.61236 (Simulation time: 0 hr 21 min 6 sec) 
Heartbeat CPU  0 instructions:  563000003 cycles:  805734090 heartbeat IPC: 0.75043 cumulative IPC: 0.61260 (Simulation time: 0 hr 21 min 8 sec) 
Heartbeat CPU  0 instructions:  564000000 cycles:  806977061 heartbeat IPC: 0.80452 cumulative IPC: 0.61292 (Simulation time: 0 hr 21 min 10 sec) 
Heartbeat CPU  0 instructions:  565000002 cycles:  808290003 heartbeat IPC: 0.76165 cumulative IPC: 0.61317 (Simulation time: 0 hr 21 min 12 sec) 
Heartbeat CPU  0 instructions:  566000002 cycles:  809608944 heartbeat IPC: 0.75818 cumulative IPC: 0.61343 (Simulation time: 0 hr 21 min 14 sec) 
Heartbeat CPU  0 instructions:  567000000 cycles:  810934246 heartbeat IPC: 0.75454 cumulative IPC: 0.61367 (Simulation time: 0 hr 21 min 17 sec) 
Heartbeat CPU  0 instructions:  568000000 cycles:  812243400 heartbeat IPC: 0.76385 cumulative IPC: 0.61393 (Simulation time: 0 hr 21 min 19 sec) 
Heartbeat CPU  0 instructions:  569000002 cycles:  813526606 heartbeat IPC: 0.77930 cumulative IPC: 0.61421 (Simulation time: 0 hr 21 min 21 sec) 
Heartbeat CPU  0 instructions:  570000001 cycles:  814851029 heartbeat IPC: 0.75505 cumulative IPC: 0.61445 (Simulation time: 0 hr 21 min 23 sec) 
Heartbeat CPU  0 instructions:  571000000 cycles:  816178800 heartbeat IPC: 0.75314 cumulative IPC: 0.61469 (Simulation time: 0 hr 21 min 26 sec) 
Heartbeat CPU  0 instructions:  572000000 cycles:  817499154 heartbeat IPC: 0.75737 cumulative IPC: 0.61494 (Simulation time: 0 hr 21 min 28 sec) 
Heartbeat CPU  0 instructions:  573000002 cycles:  818739728 heartbeat IPC: 0.80608 cumulative IPC: 0.61525 (Simulation time: 0 hr 21 min 30 sec) 
Heartbeat CPU  0 instructions:  574000002 cycles:  820072858 heartbeat IPC: 0.75011 cumulative IPC: 0.61548 (Simulation time: 0 hr 21 min 32 sec) 
Heartbeat CPU  0 instructions:  575000000 cycles:  821383388 heartbeat IPC: 0.76305 cumulative IPC: 0.61573 (Simulation time: 0 hr 21 min 34 sec) 
Heartbeat CPU  0 instructions:  576000000 cycles:  822682749 heartbeat IPC: 0.76961 cumulative IPC: 0.61599 (Simulation time: 0 hr 21 min 36 sec) 
Heartbeat CPU  0 instructions:  577000002 cycles:  823983322 heartbeat IPC: 0.76889 cumulative IPC: 0.61625 (Simulation time: 0 hr 21 min 39 sec) 
Heartbeat CPU  0 instructions:  578000002 cycles:  825222346 heartbeat IPC: 0.80709 cumulative IPC: 0.61655 (Simulation time: 0 hr 21 min 41 sec) 
Heartbeat CPU  0 instructions:  579000001 cycles:  826567611 heartbeat IPC: 0.74335 cumulative IPC: 0.61677 (Simulation time: 0 hr 21 min 43 sec) 
Heartbeat CPU  0 instructions:  580000000 cycles:  827883816 heartbeat IPC: 0.75976 cumulative IPC: 0.61701 (Simulation time: 0 hr 21 min 45 sec) 
Heartbeat CPU  0 instructions:  581000002 cycles:  829194509 heartbeat IPC: 0.76296 cumulative IPC: 0.61726 (Simulation time: 0 hr 21 min 47 sec) 
Heartbeat CPU  0 instructions:  582000003 cycles:  830437076 heartbeat IPC: 0.80479 cumulative IPC: 0.61756 (Simulation time: 0 hr 21 min 50 sec) 
Heartbeat CPU  0 instructions:  583000002 cycles:  831739158 heartbeat IPC: 0.76800 cumulative IPC: 0.61781 (Simulation time: 0 hr 21 min 52 sec) 
Heartbeat CPU  0 instructions:  584000000 cycles:  833084384 heartbeat IPC: 0.74337 cumulative IPC: 0.61802 (Simulation time: 0 hr 21 min 54 sec) 
Heartbeat CPU  0 instructions:  585000003 cycles:  834415917 heartbeat IPC: 0.75102 cumulative IPC: 0.61825 (Simulation time: 0 hr 21 min 56 sec) 
Heartbeat CPU  0 instructions:  586000000 cycles:  835702391 heartbeat IPC: 0.77732 cumulative IPC: 0.61851 (Simulation time: 0 hr 21 min 58 sec) 
Heartbeat CPU  0 instructions:  587000002 cycles:  836942594 heartbeat IPC: 0.80632 cumulative IPC: 0.61880 (Simulation time: 0 hr 22 min 1 sec) 
Heartbeat CPU  0 instructions:  588000000 cycles:  838270617 heartbeat IPC: 0.75300 cumulative IPC: 0.61903 (Simulation time: 0 hr 22 min 3 sec) 
Heartbeat CPU  0 instructions:  589000002 cycles:  839611069 heartbeat IPC: 0.74602 cumulative IPC: 0.61925 (Simulation time: 0 hr 22 min 5 sec) 
Heartbeat CPU  0 instructions:  590000001 cycles:  840960291 heartbeat IPC: 0.74117 cumulative IPC: 0.61945 (Simulation time: 0 hr 22 min 7 sec) 
Heartbeat CPU  0 instructions:  591000003 cycles:  842211138 heartbeat IPC: 0.79946 cumulative IPC: 0.61974 (Simulation time: 0 hr 22 min 9 sec) 
Heartbeat CPU  0 instructions:  592000000 cycles:  843501391 heartbeat IPC: 0.77504 cumulative IPC: 0.61999 (Simulation time: 0 hr 22 min 11 sec) 
Heartbeat CPU  0 instructions:  593000002 cycles:  844827096 heartbeat IPC: 0.75432 cumulative IPC: 0.62021 (Simulation time: 0 hr 22 min 14 sec) 
Heartbeat CPU  0 instructions:  594000003 cycles:  846166224 heartbeat IPC: 0.74676 cumulative IPC: 0.62043 (Simulation time: 0 hr 22 min 16 sec) 
Heartbeat CPU  0 instructions:  595000001 cycles:  847508373 heartbeat IPC: 0.74507 cumulative IPC: 0.62064 (Simulation time: 0 hr 22 min 18 sec) 
Heartbeat CPU  0 instructions:  596000000 cycles:  848726951 heartbeat IPC: 0.82063 cumulative IPC: 0.62094 (Simulation time: 0 hr 22 min 20 sec) 
Heartbeat CPU  0 instructions:  597000000 cycles:  850058367 heartbeat IPC: 0.75108 cumulative IPC: 0.62116 (Simulation time: 0 hr 22 min 22 sec) 
Heartbeat CPU  0 instructions:  598000001 cycles:  851390545 heartbeat IPC: 0.75065 cumulative IPC: 0.62137 (Simulation time: 0 hr 22 min 25 sec) 
Heartbeat CPU  0 instructions:  599000003 cycles:  852722565 heartbeat IPC: 0.75074 cumulative IPC: 0.62159 (Simulation time: 0 hr 22 min 27 sec) 
Heartbeat CPU  0 instructions:  600000000 cycles:  854031373 heartbeat IPC: 0.76405 cumulative IPC: 0.62182 (Simulation time: 0 hr 22 min 29 sec) 
Finished CPU 0 instructions: 500000002 cycles: 804090489 cumulative IPC: 0.62182 (Simulation time: 0 hr 22 min 29 sec) 

ChampSim completed all CPUs

[ROI Statistics]
Core_0_instructions 500000002
Core_0_cycles 804090489
Core_0_IPC 0.62182

Core_0_branch_prediction_accuracy 99.14890
Core_0_branch_MPKI 0.20164
Core_0_average_ROB_occupancy_at_mispredict 245.43700

Core_0_L1D_total_access 145652821
Core_0_L1D_total_hit 140024259
Core_0_L1D_total_miss 5628562
Core_0_L1D_loads 133432470
Core_0_L1D_load_hit 129134376
Core_0_L1D_load_miss 4298094
Core_0_L1D_RFOs 12220351
Core_0_L1D_RFO_hit 10889883
Core_0_L1D_RFO_miss 1330468
Core_0_L1D_prefetches 0
Core_0_L1D_prefetch_hit 0
Core_0_L1D_prefetch_miss 0
Core_0_L1D_writebacks 0
Core_0_L1D_writeback_hit 0
Core_0_L1D_writeback_miss 0
Core_0_L1D_prefetch_requested 0
Core_0_L1D_prefetch_dropped 0
Core_0_L1D_prefetch_issued 0
Core_0_L1D_prefetch_filled 0
Core_0_L1D_prefetch_useful 0
Core_0_L1D_prefetch_useless 0
Core_0_L1D_prefetch_late 0
Core_0_L1D_average_miss_latency 144.52823

Core_0_L1D_rq_access 199055911
Core_0_L1D_rq_forward 0
Core_0_L1D_rq_merged 62785136
Core_0_L1D_rq_to_cache 136270775
Core_0_L1D_rq_full 0

Core_0_L1D_wq_access 15945109
Core_0_L1D_wq_forward 0
Core_0_L1D_wq_merged 0
Core_0_L1D_wq_to_cache 15945109
Core_0_L1D_wq_full 238128

Core_0_L1D_pq_access 0
Core_0_L1D_pq_forward 0
Core_0_L1D_pq_merged 0
Core_0_L1D_pq_to_cache 0
Core_0_L1D_pq_full 0

Core_0_L1D_acc_epochs 829687
Core_0_L1D_acc_level_0 829687
Core_0_L1D_acc_level_1 0
Core_0_L1D_acc_level_2 0
Core_0_L1D_acc_level_3 0
Core_0_L1D_acc_level_4 0
Core_0_L1D_acc_level_5 0
Core_0_L1D_acc_level_6 0
Core_0_L1D_acc_level_7 0
Core_0_L1D_acc_level_8 0
Core_0_L1D_acc_level_9 0

Core_0_L1I_total_access 121025444
Core_0_L1I_total_hit 121025118
Core_0_L1I_total_miss 326
Core_0_L1I_loads 121025444
Core_0_L1I_load_hit 121025118
Core_0_L1I_load_miss 326
Core_0_L1I_RFOs 0
Core_0_L1I_RFO_hit 0
Core_0_L1I_RFO_miss 0
Core_0_L1I_prefetches 0
Core_0_L1I_prefetch_hit 0
Core_0_L1I_prefetch_miss 0
Core_0_L1I_writebacks 0
Core_0_L1I_writeback_hit 0
Core_0_L1I_writeback_miss 0
Core_0_L1I_prefetch_requested 0
Core_0_L1I_prefetch_dropped 0
Core_0_L1I_prefetch_issued 0
Core_0_L1I_prefetch_filled 0
Core_0_L1I_prefetch_useful 0
Core_0_L1I_prefetch_useless 0
Core_0_L1I_prefetch_late 0
Core_0_L1I_average_miss_latency 240.29448

Core_0_L1I_rq_access 500000003
Core_0_L1I_rq_forward 0
Core_0_L1I_rq_merged 378973529
Core_0_L1I_rq_to_cache 121026474
Core_0_L1I_rq_full 0

Core_0_L1I_wq_access 0
Core_0_L1I_wq_forward 0
Core_0_L1I_wq_merged 0
Core_0_L1I_wq_to_cache 0
Core_0_L1I_wq_full 0

Core_0_L1I_pq_access 0
Core_0_L1I_pq_forward 0
Core_0_L1I_pq_merged 0
Core_0_L1I_pq_to_cache 0
Core_0_L1I_pq_full 0

Core_0_L1I_acc_epochs 829687
Core_0_L1I_acc_level_0 829687
Core_0_L1I_acc_level_1 0
Core_0_L1I_acc_level_2 0
Core_0_L1I_acc_level_3 0
Core_0_L1I_acc_level_4 0
Core_0_L1I_acc_level_5 0
Core_0_L1I_acc_level_6 0
Core_0_L1I_acc_level_7 0
Core_0_L1I_acc_level_8 0
Core_0_L1I_acc_level_9 0

Core_0_L2C_total_access 7368995
Core_0_L2C_total_hit 3356766
Core_0_L2C_total_miss 4012229
Core_0_L2C_loads 4298374
Core_0_L2C_load_hit 1142512
Core_0_L2C_load_miss 3155862
Core_0_L2C_RFOs 1330300
Core_0_L2C_RFO_hit 475159
Core_0_L2C_RFO_miss 855141
Core_0_L2C_prefetches 0
Core_0_L2C_prefetch_hit 0
Core_0_L2C_prefetch_miss 0
Core_0_L2C_writebacks 1740321
Core_0_L2C_writeback_hit 1739095
Core_0_L2C_writeback_miss 1226
Core_0_L2C_prefetch_requested 0
Core_0_L2C_prefetch_dropped 0
Core_0_L2C_prefetch_issued 0
Core_0_L2C_prefetch_filled 0
Core_0_L2C_prefetch_useful 0
Core_0_L2C_prefetch_useless 0
Core_0_L2C_prefetch_late 0
Core_0_L2C_average_miss_latency 182.96916

Core_0_L2C_rq_access 5628888
Core_0_L2C_rq_forward 0
Core_0_L2C_rq_merged 0
Core_0_L2C_rq_to_cache 5628674
Core_0_L2C_rq_full 0

Core_0_L2C_wq_access 1740321
Core_0_L2C_wq_forward 214
Core_0_L2C_wq_merged 0
Core_0_L2C_wq_to_cache 1740321
Core_0_L2C_wq_full 0

Core_0_L2C_pq_access 0
Core_0_L2C_pq_forward 0
Core_0_L2C_pq_merged 0
Core_0_L2C_pq_to_cache 0
Core_0_L2C_pq_full 0

Core_0_L2C_acc_epochs 829687
Core_0_L2C_acc_level_0 829687
Core_0_L2C_acc_level_1 0
Core_0_L2C_acc_level_2 0
Core_0_L2C_acc_level_3 0
Core_0_L2C_acc_level_4 0
Core_0_L2C_acc_level_5 0
Core_0_L2C_acc_level_6 0
Core_0_L2C_acc_level_7 0
Core_0_L2C_acc_level_8 0
Core_0_L2C_acc_level_9 0

Core_0_LLC_total_access 5103662
Core_0_LLC_total_hit 1220272
Core_0_LLC_total_miss 3883390
Core_0_LLC_loads 3155862
Core_0_LLC_load_hit 649200
Core_0_LLC_load_miss 2506662
Core_0_LLC_RFOs 855141
Core_0_LLC_RFO_hit 169768
Core_0_LLC_RFO_miss 685373
Core_0_LLC_prefetches 0
Core_0_LLC_prefetch_hit 0
Core_0_LLC_prefetch_miss 0
Core_0_LLC_writebacks 1092659
Core_0_LLC_writeback_hit 401304
Core_0_LLC_writeback_miss 691355
Core_0_LLC_prefetch_requested 0
Core_0_LLC_prefetch_dropped 0
Core_0_LLC_prefetch_issued 0
Core_0_LLC_prefetch_filled 0
Core_0_LLC_prefetch_useful 0
Core_0_LLC_prefetch_useless 0
Core_0_LLC_prefetch_late 0
Core_0_LLC_average_miss_latency 157.96334

Core_0_LLC_rq_access 4011003
Core_0_LLC_rq_forward 0
Core_0_LLC_rq_merged 0
Core_0_LLC_rq_to_cache 4011003
Core_0_LLC_rq_full 0

Core_0_LLC_wq_access 1092659
Core_0_LLC_wq_forward 0
Core_0_LLC_wq_merged 0
Core_0_LLC_wq_to_cache 1092659
Core_0_LLC_wq_full 0

Core_0_LLC_pq_access 0
Core_0_LLC_pq_forward 0
Core_0_LLC_pq_merged 0
Core_0_LLC_pq_to_cache 0
Core_0_LLC_pq_full 0

Core_0_LLC_acc_epochs 834016
Core_0_LLC_acc_level_0 834016
Core_0_LLC_acc_level_1 0
Core_0_LLC_acc_level_2 0
Core_0_LLC_acc_level_3 0
Core_0_LLC_acc_level_4 0
Core_0_LLC_acc_level_5 0
Core_0_LLC_acc_level_6 0
Core_0_LLC_acc_level_7 0
Core_0_LLC_acc_level_8 0
Core_0_LLC_acc_level_9 0

Core_0_major_page_fault 0
Core_0_minor_page_fault 14851

Channel_0_RQ_row_buffer_hit 1062607
Channel_0_RQ_row_buffer_miss 2129428
Channel_0_WQ_row_buffer_hit 359593
Channel_0_WQ_row_buffer_miss 551521
Channel_0_WQ_full 1032
Channel_0_dbus_congested 346237

avg_congested_cycle 4

DRAM_bw_pochs 3336061
DRAM_bw_level_0 3334682
DRAM_bw_level_1 1271
DRAM_bw_level_2 108
DRAM_bw_level_3 0
