*************************************************
   ChampSim Multicore Out-of-Order Simulator
   Last compiled: Dec 11 2024 17:59:53
*************************************************
parsing config file: /home/functionmain/桌面/Pythia/config/nopref.ini

trace_0 /home/functionmain/桌面/Pythia/traces/437.leslie3d-149B.champsimtrace.xz
adding L2C_PREFETCHER: NONE
Initialize SHIP state
warmup_instructions 100000000
simulation_instructions 500000000
champsim_seed 224
measure_ipc 0
measure_ipc_epoch 1000
measure_dram_bw 1
measure_dram_bw_epoch 256
measure_cache_acc 1
measure_cache_acc_epoch 1024
l1d_perfect 0
l2c_perfect 0
llc_perfect 0
l1d_semi_perfect 0
l2c_semi_perfect 0
llc_semi_perfect 0
semi_perfect_cache_page_buffer_size 64

num_cpus 1
cpu_freq 4000
dram_io_freq 1200
page_size 4096
block_size 64
max_read_per_cycle 8
max_fill_per_cycle 1
dram_channels 1
log2_dram_channels 0
dram_ranks 1
dram_banks 8
dram_rows 65536
dram_columns 128
dram_row_size 8
dram_size 4096
dram_pages 1048576

fetch_width 6
decode_width 6
exec_width 4
lq_width 2
sq_width 2
retire_width 4
scheduler_size 128
branch_mispredict_penalty 20
rob_size 256
lq_size 72
sq_size 56
num_instr_destinations_sparc 4
num_instr_destinations 2
num_instr_sources 4

itlb_set 16
itlb_way 8
itlb_rq_size 16
itlb_wq_size 16
itlb_pq_size 0
itlb_mshr_size 8
itlb_latency 1

dtlb_set 16
dtlb_way 4
dtlb_rq_size 16
dtlb_wq_size 16
dtlb_pq_size 0
dtlb_mshr_size 8
dtlb_latency 1

stlb_set 128
stlb_way 12
stlb_rq_size 32
stlb_wq_size 32
stlb_pq_size 0
stlb_mshr_size 16
stlb_latency 8

l1i_size 32
l1i_set 64
l1i_way 8
l1i_rq_size 64
l1i_wq_size 64
l1i_pq_size 8
l1i_mshr_size 8
l1i_latency 1

l1d_size 32
l1d_set 64
l1d_way 8
l1d_rq_size 64
l1d_wq_size 64
l1d_pq_size 8
l1d_mshr_size 16
l1d_latency 4

l2c_size 256
l2c_set 512
l2c_way 8
l2c_rq_size 32
l2c_wq_size 32
l2c_pq_size 32
l2c_mshr_size 32
l2c_latency 10

llc_size 2048
llc_set 2048
llc_way 16
llc_rq_size 32
llc_wq_size 32
llc_pq_size 32
llc_mshr_size 64
llc_latency 20

dram_channel_width 8
dram_wq_size 64
dram_rq_size 64
tRP 15
tRCD 15
tCAS 12.5
dram_dbus_turn_around_time 30
dram_write_high_wm 56
dram_write_low_wm 48
min_dram_writes_per_switch 16
dram_mtps 1200
dram_dbus_return_time 26


Heartbeat CPU  0 instructions:    1000002 cycles:     502455 heartbeat IPC: 1.99023 cumulative IPC: 1.99023 (Simulation time: 0 hr 0 min 2 sec) 
Heartbeat CPU  0 instructions:    2000001 cycles:     990567 heartbeat IPC: 2.04871 cumulative IPC: 2.01905 (Simulation time: 0 hr 0 min 4 sec) 
Heartbeat CPU  0 instructions:    3000003 cycles:    1492263 heartbeat IPC: 1.99324 cumulative IPC: 2.01037 (Simulation time: 0 hr 0 min 5 sec) 
Heartbeat CPU  0 instructions:    4000000 cycles:    1993703 heartbeat IPC: 1.99425 cumulative IPC: 2.00632 (Simulation time: 0 hr 0 min 7 sec) 
Heartbeat CPU  0 instructions:    5000000 cycles:    2495660 heartbeat IPC: 1.99220 cumulative IPC: 2.00348 (Simulation time: 0 hr 0 min 9 sec) 
Heartbeat CPU  0 instructions:    6000001 cycles:    2995131 heartbeat IPC: 2.00212 cumulative IPC: 2.00325 (Simulation time: 0 hr 0 min 10 sec) 
Heartbeat CPU  0 instructions:    7000000 cycles:    3485011 heartbeat IPC: 2.04131 cumulative IPC: 2.00860 (Simulation time: 0 hr 0 min 12 sec) 
Heartbeat CPU  0 instructions:    8000000 cycles:    3987569 heartbeat IPC: 1.98982 cumulative IPC: 2.00623 (Simulation time: 0 hr 0 min 14 sec) 
Heartbeat CPU  0 instructions:    9000002 cycles:    4489104 heartbeat IPC: 1.99388 cumulative IPC: 2.00485 (Simulation time: 0 hr 0 min 16 sec) 
Heartbeat CPU  0 instructions:   10000000 cycles:    4990827 heartbeat IPC: 1.99313 cumulative IPC: 2.00368 (Simulation time: 0 hr 0 min 17 sec) 
Heartbeat CPU  0 instructions:   11000002 cycles:    5481674 heartbeat IPC: 2.03730 cumulative IPC: 2.00669 (Simulation time: 0 hr 0 min 19 sec) 
Heartbeat CPU  0 instructions:   12000000 cycles:    5980267 heartbeat IPC: 2.00564 cumulative IPC: 2.00660 (Simulation time: 0 hr 0 min 21 sec) 
Heartbeat CPU  0 instructions:   13000002 cycles:    6482372 heartbeat IPC: 1.99162 cumulative IPC: 2.00544 (Simulation time: 0 hr 0 min 23 sec) 
Heartbeat CPU  0 instructions:   14000003 cycles:    6984236 heartbeat IPC: 1.99257 cumulative IPC: 2.00451 (Simulation time: 0 hr 0 min 24 sec) 
Heartbeat CPU  0 instructions:   15000002 cycles:    7486143 heartbeat IPC: 1.99240 cumulative IPC: 2.00370 (Simulation time: 0 hr 0 min 26 sec) 
Heartbeat CPU  0 instructions:   16000000 cycles:    7973657 heartbeat IPC: 2.05122 cumulative IPC: 2.00661 (Simulation time: 0 hr 0 min 28 sec) 
Heartbeat CPU  0 instructions:   17000001 cycles:    8476067 heartbeat IPC: 1.99041 cumulative IPC: 2.00565 (Simulation time: 0 hr 0 min 30 sec) 
Heartbeat CPU  0 instructions:   18000003 cycles:    8978839 heartbeat IPC: 1.98898 cumulative IPC: 2.00471 (Simulation time: 0 hr 0 min 31 sec) 
Heartbeat CPU  0 instructions:   19000003 cycles:    9480621 heartbeat IPC: 1.99290 cumulative IPC: 2.00409 (Simulation time: 0 hr 0 min 33 sec) 
Heartbeat CPU  0 instructions:   20000000 cycles:    9972704 heartbeat IPC: 2.03217 cumulative IPC: 2.00547 (Simulation time: 0 hr 0 min 35 sec) 
Heartbeat CPU  0 instructions:   21000003 cycles:   10469873 heartbeat IPC: 2.01139 cumulative IPC: 2.00576 (Simulation time: 0 hr 0 min 36 sec) 
Heartbeat CPU  0 instructions:   22000001 cycles:   10971983 heartbeat IPC: 1.99159 cumulative IPC: 2.00511 (Simulation time: 0 hr 0 min 38 sec) 
Heartbeat CPU  0 instructions:   23000002 cycles:   11474237 heartbeat IPC: 1.99103 cumulative IPC: 2.00449 (Simulation time: 0 hr 0 min 40 sec) 
Heartbeat CPU  0 instructions:   24000000 cycles:   11975899 heartbeat IPC: 1.99337 cumulative IPC: 2.00402 (Simulation time: 0 hr 0 min 42 sec) 
Heartbeat CPU  0 instructions:   25000002 cycles:   12463629 heartbeat IPC: 2.05032 cumulative IPC: 2.00584 (Simulation time: 0 hr 0 min 43 sec) 
Heartbeat CPU  0 instructions:   26000002 cycles:   12965143 heartbeat IPC: 1.99396 cumulative IPC: 2.00538 (Simulation time: 0 hr 0 min 45 sec) 
Heartbeat CPU  0 instructions:   27000001 cycles:   13467037 heartbeat IPC: 1.99245 cumulative IPC: 2.00490 (Simulation time: 0 hr 0 min 47 sec) 
Heartbeat CPU  0 instructions:   28000000 cycles:   13969106 heartbeat IPC: 1.99176 cumulative IPC: 2.00442 (Simulation time: 0 hr 0 min 49 sec) 
Heartbeat CPU  0 instructions:   29000003 cycles:   14463774 heartbeat IPC: 2.02156 cumulative IPC: 2.00501 (Simulation time: 0 hr 0 min 50 sec) 
Heartbeat CPU  0 instructions:   30000003 cycles:   14958376 heartbeat IPC: 2.02183 cumulative IPC: 2.00557 (Simulation time: 0 hr 0 min 52 sec) 
Heartbeat CPU  0 instructions:   31000001 cycles:   15460208 heartbeat IPC: 1.99269 cumulative IPC: 2.00515 (Simulation time: 0 hr 0 min 54 sec) 
Heartbeat CPU  0 instructions:   32000000 cycles:   15962066 heartbeat IPC: 1.99259 cumulative IPC: 2.00475 (Simulation time: 0 hr 0 min 55 sec) 
Heartbeat CPU  0 instructions:   33000000 cycles:   16463985 heartbeat IPC: 1.99235 cumulative IPC: 2.00437 (Simulation time: 0 hr 0 min 57 sec) 
Heartbeat CPU  0 instructions:   34000003 cycles:   16951695 heartbeat IPC: 2.05041 cumulative IPC: 2.00570 (Simulation time: 0 hr 0 min 59 sec) 
Heartbeat CPU  0 instructions:   35000003 cycles:   17453282 heartbeat IPC: 1.99367 cumulative IPC: 2.00535 (Simulation time: 0 hr 1 min 1 sec) 
Heartbeat CPU  0 instructions:   36000000 cycles:   17955146 heartbeat IPC: 1.99257 cumulative IPC: 2.00500 (Simulation time: 0 hr 1 min 2 sec) 
Heartbeat CPU  0 instructions:   37000001 cycles:   18457716 heartbeat IPC: 1.98977 cumulative IPC: 2.00458 (Simulation time: 0 hr 1 min 4 sec) 
Heartbeat CPU  0 instructions:   38000003 cycles:   18954829 heartbeat IPC: 2.01162 cumulative IPC: 2.00477 (Simulation time: 0 hr 1 min 6 sec) 
Heartbeat CPU  0 instructions:   39000001 cycles:   19447430 heartbeat IPC: 2.03004 cumulative IPC: 2.00541 (Simulation time: 0 hr 1 min 8 sec) 
Heartbeat CPU  0 instructions:   40000000 cycles:   19949413 heartbeat IPC: 1.99210 cumulative IPC: 2.00507 (Simulation time: 0 hr 1 min 9 sec) 
Heartbeat CPU  0 instructions:   41000002 cycles:   20451474 heartbeat IPC: 1.99179 cumulative IPC: 2.00475 (Simulation time: 0 hr 1 min 11 sec) 
Heartbeat CPU  0 instructions:   42000000 cycles:   20953651 heartbeat IPC: 1.99133 cumulative IPC: 2.00442 (Simulation time: 0 hr 1 min 13 sec) 
Heartbeat CPU  0 instructions:   43000000 cycles:   21441620 heartbeat IPC: 2.04931 cumulative IPC: 2.00545 (Simulation time: 0 hr 1 min 15 sec) 
Heartbeat CPU  0 instructions:   44000000 cycles:   21943430 heartbeat IPC: 1.99279 cumulative IPC: 2.00516 (Simulation time: 0 hr 1 min 16 sec) 
Heartbeat CPU  0 instructions:   45000002 cycles:   22445657 heartbeat IPC: 1.99114 cumulative IPC: 2.00484 (Simulation time: 0 hr 1 min 18 sec) 
Heartbeat CPU  0 instructions:   46000003 cycles:   22947292 heartbeat IPC: 1.99348 cumulative IPC: 2.00459 (Simulation time: 0 hr 1 min 20 sec) 
Heartbeat CPU  0 instructions:   47000000 cycles:   23446029 heartbeat IPC: 2.00506 cumulative IPC: 2.00460 (Simulation time: 0 hr 1 min 21 sec) 
Heartbeat CPU  0 instructions:   48000000 cycles:   23936749 heartbeat IPC: 2.03782 cumulative IPC: 2.00528 (Simulation time: 0 hr 1 min 23 sec) 
Heartbeat CPU  0 instructions:   49000002 cycles:   24439044 heartbeat IPC: 1.99087 cumulative IPC: 2.00499 (Simulation time: 0 hr 1 min 25 sec) 
Heartbeat CPU  0 instructions:   50000003 cycles:   24940955 heartbeat IPC: 1.99239 cumulative IPC: 2.00473 (Simulation time: 0 hr 1 min 27 sec) 
Heartbeat CPU  0 instructions:   51000001 cycles:   25442656 heartbeat IPC: 1.99322 cumulative IPC: 2.00451 (Simulation time: 0 hr 1 min 28 sec) 
Heartbeat CPU  0 instructions:   52000000 cycles:   25932741 heartbeat IPC: 2.04046 cumulative IPC: 2.00519 (Simulation time: 0 hr 1 min 30 sec) 
Heartbeat CPU  0 instructions:   53000003 cycles:   26432169 heartbeat IPC: 2.00230 cumulative IPC: 2.00513 (Simulation time: 0 hr 1 min 32 sec) 
Heartbeat CPU  0 instructions:   54000003 cycles:   26943194 heartbeat IPC: 1.95685 cumulative IPC: 2.00422 (Simulation time: 0 hr 1 min 34 sec) 
Heartbeat CPU  0 instructions:   55000001 cycles:   27462670 heartbeat IPC: 1.92501 cumulative IPC: 2.00272 (Simulation time: 0 hr 1 min 35 sec) 
Heartbeat CPU  0 instructions:   56000000 cycles:   27977310 heartbeat IPC: 1.94310 cumulative IPC: 2.00162 (Simulation time: 0 hr 1 min 37 sec) 
Heartbeat CPU  0 instructions:   57000000 cycles:   28491309 heartbeat IPC: 1.94553 cumulative IPC: 2.00061 (Simulation time: 0 hr 1 min 38 sec) 
Heartbeat CPU  0 instructions:   58000002 cycles:   29007103 heartbeat IPC: 1.93876 cumulative IPC: 1.99951 (Simulation time: 0 hr 1 min 40 sec) 
Heartbeat CPU  0 instructions:   59000003 cycles:   29519682 heartbeat IPC: 1.95092 cumulative IPC: 1.99867 (Simulation time: 0 hr 1 min 42 sec) 
Heartbeat CPU  0 instructions:   60000000 cycles:   30031429 heartbeat IPC: 1.95408 cumulative IPC: 1.99791 (Simulation time: 0 hr 1 min 43 sec) 
Heartbeat CPU  0 instructions:   61000001 cycles:   30545201 heartbeat IPC: 1.94639 cumulative IPC: 1.99704 (Simulation time: 0 hr 1 min 45 sec) 
Heartbeat CPU  0 instructions:   62000003 cycles:   31058890 heartbeat IPC: 1.94671 cumulative IPC: 1.99621 (Simulation time: 0 hr 1 min 46 sec) 
Heartbeat CPU  0 instructions:   63000001 cycles:   31571806 heartbeat IPC: 1.94963 cumulative IPC: 1.99545 (Simulation time: 0 hr 1 min 48 sec) 
Heartbeat CPU  0 instructions:   64000000 cycles:   32086215 heartbeat IPC: 1.94398 cumulative IPC: 1.99463 (Simulation time: 0 hr 1 min 50 sec) 
Heartbeat CPU  0 instructions:   65000000 cycles:   32600699 heartbeat IPC: 1.94370 cumulative IPC: 1.99382 (Simulation time: 0 hr 1 min 51 sec) 
Heartbeat CPU  0 instructions:   66000002 cycles:   33113838 heartbeat IPC: 1.94879 cumulative IPC: 1.99312 (Simulation time: 0 hr 1 min 53 sec) 
Heartbeat CPU  0 instructions:   67000002 cycles:   33628362 heartbeat IPC: 1.94354 cumulative IPC: 1.99237 (Simulation time: 0 hr 1 min 54 sec) 
Heartbeat CPU  0 instructions:   68000000 cycles:   34142881 heartbeat IPC: 1.94356 cumulative IPC: 1.99163 (Simulation time: 0 hr 1 min 56 sec) 
Heartbeat CPU  0 instructions:   69000001 cycles:   34655840 heartbeat IPC: 1.94948 cumulative IPC: 1.99101 (Simulation time: 0 hr 1 min 58 sec) 
Heartbeat CPU  0 instructions:   70000003 cycles:   35170158 heartbeat IPC: 1.94433 cumulative IPC: 1.99032 (Simulation time: 0 hr 1 min 59 sec) 
Heartbeat CPU  0 instructions:   71000002 cycles:   35684457 heartbeat IPC: 1.94439 cumulative IPC: 1.98966 (Simulation time: 0 hr 2 min 1 sec) 
Heartbeat CPU  0 instructions:   72000000 cycles:   36197322 heartbeat IPC: 1.94983 cumulative IPC: 1.98910 (Simulation time: 0 hr 2 min 2 sec) 
Heartbeat CPU  0 instructions:   73000003 cycles:   36711110 heartbeat IPC: 1.94633 cumulative IPC: 1.98850 (Simulation time: 0 hr 2 min 4 sec) 
Heartbeat CPU  0 instructions:   74000001 cycles:   37225165 heartbeat IPC: 1.94531 cumulative IPC: 1.98790 (Simulation time: 0 hr 2 min 6 sec) 
Heartbeat CPU  0 instructions:   75000001 cycles:   37738303 heartbeat IPC: 1.94879 cumulative IPC: 1.98737 (Simulation time: 0 hr 2 min 7 sec) 
Heartbeat CPU  0 instructions:   76000000 cycles:   38252261 heartbeat IPC: 1.94568 cumulative IPC: 1.98681 (Simulation time: 0 hr 2 min 9 sec) 
Heartbeat CPU  0 instructions:   77000001 cycles:   38766953 heartbeat IPC: 1.94291 cumulative IPC: 1.98623 (Simulation time: 0 hr 2 min 10 sec) 
Heartbeat CPU  0 instructions:   78000003 cycles:   39280007 heartbeat IPC: 1.94912 cumulative IPC: 1.98574 (Simulation time: 0 hr 2 min 12 sec) 
Heartbeat CPU  0 instructions:   79000000 cycles:   39793733 heartbeat IPC: 1.94656 cumulative IPC: 1.98524 (Simulation time: 0 hr 2 min 14 sec) 
Heartbeat CPU  0 instructions:   80000000 cycles:   40308307 heartbeat IPC: 1.94336 cumulative IPC: 1.98470 (Simulation time: 0 hr 2 min 15 sec) 
Heartbeat CPU  0 instructions:   81000000 cycles:   40822072 heartbeat IPC: 1.94642 cumulative IPC: 1.98422 (Simulation time: 0 hr 2 min 17 sec) 
Heartbeat CPU  0 instructions:   82000001 cycles:   41336449 heartbeat IPC: 1.94410 cumulative IPC: 1.98372 (Simulation time: 0 hr 2 min 18 sec) 
Heartbeat CPU  0 instructions:   83000001 cycles:   41852085 heartbeat IPC: 1.93935 cumulative IPC: 1.98317 (Simulation time: 0 hr 2 min 20 sec) 
Heartbeat CPU  0 instructions:   84000000 cycles:   42366111 heartbeat IPC: 1.94542 cumulative IPC: 1.98272 (Simulation time: 0 hr 2 min 22 sec) 
Heartbeat CPU  0 instructions:   85000001 cycles:   42880400 heartbeat IPC: 1.94443 cumulative IPC: 1.98226 (Simulation time: 0 hr 2 min 23 sec) 
Heartbeat CPU  0 instructions:   86000002 cycles:   43396108 heartbeat IPC: 1.93908 cumulative IPC: 1.98174 (Simulation time: 0 hr 2 min 25 sec) 
Heartbeat CPU  0 instructions:   87000003 cycles:   43909888 heartbeat IPC: 1.94636 cumulative IPC: 1.98133 (Simulation time: 0 hr 2 min 26 sec) 
Heartbeat CPU  0 instructions:   88000000 cycles:   44423098 heartbeat IPC: 1.94851 cumulative IPC: 1.98095 (Simulation time: 0 hr 2 min 28 sec) 
Heartbeat CPU  0 instructions:   89000002 cycles:   44937938 heartbeat IPC: 1.94235 cumulative IPC: 1.98051 (Simulation time: 0 hr 2 min 30 sec) 
Heartbeat CPU  0 instructions:   90000003 cycles:   45451066 heartbeat IPC: 1.94883 cumulative IPC: 1.98015 (Simulation time: 0 hr 2 min 31 sec) 
Heartbeat CPU  0 instructions:   91000002 cycles:   45963737 heartbeat IPC: 1.95057 cumulative IPC: 1.97982 (Simulation time: 0 hr 2 min 33 sec) 
Heartbeat CPU  0 instructions:   92000000 cycles:   46478442 heartbeat IPC: 1.94286 cumulative IPC: 1.97941 (Simulation time: 0 hr 2 min 34 sec) 
Heartbeat CPU  0 instructions:   93000001 cycles:   46991795 heartbeat IPC: 1.94798 cumulative IPC: 1.97907 (Simulation time: 0 hr 2 min 36 sec) 
Heartbeat CPU  0 instructions:   94000003 cycles:   47504872 heartbeat IPC: 1.94903 cumulative IPC: 1.97874 (Simulation time: 0 hr 2 min 38 sec) 
Heartbeat CPU  0 instructions:   95000003 cycles:   48020143 heartbeat IPC: 1.94073 cumulative IPC: 1.97834 (Simulation time: 0 hr 2 min 39 sec) 
Heartbeat CPU  0 instructions:   96000000 cycles:   48533927 heartbeat IPC: 1.94634 cumulative IPC: 1.97800 (Simulation time: 0 hr 2 min 41 sec) 
Heartbeat CPU  0 instructions:   97000002 cycles:   49047190 heartbeat IPC: 1.94832 cumulative IPC: 1.97769 (Simulation time: 0 hr 2 min 42 sec) 
Heartbeat CPU  0 instructions:   98000000 cycles:   49562272 heartbeat IPC: 1.94143 cumulative IPC: 1.97731 (Simulation time: 0 hr 2 min 44 sec) 
Heartbeat CPU  0 instructions:   99000000 cycles:   50076250 heartbeat IPC: 1.94561 cumulative IPC: 1.97699 (Simulation time: 0 hr 2 min 46 sec) 
Heartbeat CPU  0 instructions:  100000000 cycles:   50614496 heartbeat IPC: 1.85789 cumulative IPC: 1.97572 (Simulation time: 0 hr 2 min 47 sec) 

Warmup complete CPU  0 instructions:  100000001 cycles:   50614517 (Simulation time: 0 hr 2 min 47 sec) 

Heartbeat CPU  0 instructions:  101000003 cycles:   52851928 heartbeat IPC: 0.44694 cumulative IPC: 0.44695 (Simulation time: 0 hr 2 min 50 sec) 
Heartbeat CPU  0 instructions:  102000002 cycles:   57069656 heartbeat IPC: 0.23709 cumulative IPC: 0.30983 (Simulation time: 0 hr 2 min 54 sec) 
Heartbeat CPU  0 instructions:  103000002 cycles:   59773656 heartbeat IPC: 0.36982 cumulative IPC: 0.32754 (Simulation time: 0 hr 2 min 57 sec) 
Heartbeat CPU  0 instructions:  104000000 cycles:   61039156 heartbeat IPC: 0.79020 cumulative IPC: 0.38371 (Simulation time: 0 hr 2 min 59 sec) 
Heartbeat CPU  0 instructions:  105000002 cycles:   62335798 heartbeat IPC: 0.77122 cumulative IPC: 0.42657 (Simulation time: 0 hr 3 min 2 sec) 
Heartbeat CPU  0 instructions:  106000003 cycles:   63643875 heartbeat IPC: 0.76448 cumulative IPC: 0.46050 (Simulation time: 0 hr 3 min 4 sec) 
Heartbeat CPU  0 instructions:  107000000 cycles:   64936389 heartbeat IPC: 0.77368 cumulative IPC: 0.48876 (Simulation time: 0 hr 3 min 6 sec) 
Heartbeat CPU  0 instructions:  108000000 cycles:   66224691 heartbeat IPC: 0.77622 cumulative IPC: 0.51249 (Simulation time: 0 hr 3 min 9 sec) 
Heartbeat CPU  0 instructions:  109000001 cycles:   67542578 heartbeat IPC: 0.75879 cumulative IPC: 0.53166 (Simulation time: 0 hr 3 min 11 sec) 
Heartbeat CPU  0 instructions:  110000001 cycles:   68844186 heartbeat IPC: 0.76828 cumulative IPC: 0.54856 (Simulation time: 0 hr 3 min 13 sec) 
Heartbeat CPU  0 instructions:  111000001 cycles:   70114184 heartbeat IPC: 0.78740 cumulative IPC: 0.56411 (Simulation time: 0 hr 3 min 16 sec) 
Heartbeat CPU  0 instructions:  112000000 cycles:   71410714 heartbeat IPC: 0.77129 cumulative IPC: 0.57703 (Simulation time: 0 hr 3 min 18 sec) 
Heartbeat CPU  0 instructions:  113000003 cycles:   72696146 heartbeat IPC: 0.77795 cumulative IPC: 0.58872 (Simulation time: 0 hr 3 min 20 sec) 
Heartbeat CPU  0 instructions:  114000001 cycles:   73918993 heartbeat IPC: 0.81776 cumulative IPC: 0.60074 (Simulation time: 0 hr 3 min 22 sec) 
Heartbeat CPU  0 instructions:  115000001 cycles:   75161662 heartbeat IPC: 0.80472 cumulative IPC: 0.61107 (Simulation time: 0 hr 3 min 25 sec) 
Heartbeat CPU  0 instructions:  116000000 cycles:   76469094 heartbeat IPC: 0.76486 cumulative IPC: 0.61885 (Simulation time: 0 hr 3 min 27 sec) 
Heartbeat CPU  0 instructions:  117000000 cycles:   77496424 heartbeat IPC: 0.97340 cumulative IPC: 0.63240 (Simulation time: 0 hr 3 min 29 sec) 
Heartbeat CPU  0 instructions:  118000003 cycles:   78611079 heartbeat IPC: 0.89714 cumulative IPC: 0.64294 (Simulation time: 0 hr 3 min 31 sec) 
Heartbeat CPU  0 instructions:  119000000 cycles:   79920305 heartbeat IPC: 0.76381 cumulative IPC: 0.64834 (Simulation time: 0 hr 3 min 34 sec) 
Heartbeat CPU  0 instructions:  120000000 cycles:   81234599 heartbeat IPC: 0.76086 cumulative IPC: 0.65317 (Simulation time: 0 hr 3 min 36 sec) 
Heartbeat CPU  0 instructions:  121000001 cycles:   82550054 heartbeat IPC: 0.76019 cumulative IPC: 0.65757 (Simulation time: 0 hr 3 min 38 sec) 
Heartbeat CPU  0 instructions:  122000002 cycles:   83863953 heartbeat IPC: 0.76109 cumulative IPC: 0.66167 (Simulation time: 0 hr 3 min 40 sec) 
Heartbeat CPU  0 instructions:  123000000 cycles:   85177216 heartbeat IPC: 0.76146 cumulative IPC: 0.66546 (Simulation time: 0 hr 3 min 42 sec) 
Heartbeat CPU  0 instructions:  124000000 cycles:   86490180 heartbeat IPC: 0.76164 cumulative IPC: 0.66898 (Simulation time: 0 hr 3 min 45 sec) 
Heartbeat CPU  0 instructions:  125000002 cycles:   87803627 heartbeat IPC: 0.76136 cumulative IPC: 0.67224 (Simulation time: 0 hr 3 min 47 sec) 
Heartbeat CPU  0 instructions:  126000001 cycles:   89118629 heartbeat IPC: 0.76045 cumulative IPC: 0.67525 (Simulation time: 0 hr 3 min 49 sec) 
Heartbeat CPU  0 instructions:  127000003 cycles:   90432772 heartbeat IPC: 0.76095 cumulative IPC: 0.67808 (Simulation time: 0 hr 3 min 51 sec) 
Heartbeat CPU  0 instructions:  128000000 cycles:   91746536 heartbeat IPC: 0.76117 cumulative IPC: 0.68073 (Simulation time: 0 hr 3 min 53 sec) 
Heartbeat CPU  0 instructions:  129000001 cycles:   93057917 heartbeat IPC: 0.76256 cumulative IPC: 0.68326 (Simulation time: 0 hr 3 min 55 sec) 
Heartbeat CPU  0 instructions:  130000003 cycles:   94371863 heartbeat IPC: 0.76107 cumulative IPC: 0.68560 (Simulation time: 0 hr 3 min 58 sec) 
Heartbeat CPU  0 instructions:  131000000 cycles:   95687262 heartbeat IPC: 0.76022 cumulative IPC: 0.68778 (Simulation time: 0 hr 4 min 0 sec) 
Heartbeat CPU  0 instructions:  132000000 cycles:   96999259 heartbeat IPC: 0.76220 cumulative IPC: 0.68988 (Simulation time: 0 hr 4 min 2 sec) 
Heartbeat CPU  0 instructions:  133000000 cycles:   98310395 heartbeat IPC: 0.76270 cumulative IPC: 0.69188 (Simulation time: 0 hr 4 min 4 sec) 
Heartbeat CPU  0 instructions:  134000003 cycles:   99622176 heartbeat IPC: 0.76232 cumulative IPC: 0.69377 (Simulation time: 0 hr 4 min 6 sec) 
Heartbeat CPU  0 instructions:  135000003 cycles:  100937775 heartbeat IPC: 0.76011 cumulative IPC: 0.69550 (Simulation time: 0 hr 4 min 8 sec) 
Heartbeat CPU  0 instructions:  136000000 cycles:  102251566 heartbeat IPC: 0.76115 cumulative IPC: 0.69717 (Simulation time: 0 hr 4 min 11 sec) 
Heartbeat CPU  0 instructions:  137000003 cycles:  103568084 heartbeat IPC: 0.75958 cumulative IPC: 0.69873 (Simulation time: 0 hr 4 min 13 sec) 
Heartbeat CPU  0 instructions:  138000002 cycles:  104880918 heartbeat IPC: 0.76171 cumulative IPC: 0.70025 (Simulation time: 0 hr 4 min 15 sec) 
Heartbeat CPU  0 instructions:  139000002 cycles:  106194405 heartbeat IPC: 0.76133 cumulative IPC: 0.70169 (Simulation time: 0 hr 4 min 17 sec) 
Heartbeat CPU  0 instructions:  140000000 cycles:  107506053 heartbeat IPC: 0.76240 cumulative IPC: 0.70309 (Simulation time: 0 hr 4 min 19 sec) 
Heartbeat CPU  0 instructions:  141000000 cycles:  108821832 heartbeat IPC: 0.76001 cumulative IPC: 0.70438 (Simulation time: 0 hr 4 min 21 sec) 
Heartbeat CPU  0 instructions:  142000000 cycles:  110135909 heartbeat IPC: 0.76099 cumulative IPC: 0.70563 (Simulation time: 0 hr 4 min 24 sec) 
Heartbeat CPU  0 instructions:  143000003 cycles:  111451390 heartbeat IPC: 0.76018 cumulative IPC: 0.70681 (Simulation time: 0 hr 4 min 26 sec) 
Heartbeat CPU  0 instructions:  144000000 cycles:  112765305 heartbeat IPC: 0.76108 cumulative IPC: 0.70796 (Simulation time: 0 hr 4 min 28 sec) 
Heartbeat CPU  0 instructions:  145000001 cycles:  114079780 heartbeat IPC: 0.76076 cumulative IPC: 0.70905 (Simulation time: 0 hr 4 min 30 sec) 
Heartbeat CPU  0 instructions:  146000003 cycles:  115394229 heartbeat IPC: 0.76078 cumulative IPC: 0.71010 (Simulation time: 0 hr 4 min 32 sec) 
Heartbeat CPU  0 instructions:  147000000 cycles:  116704375 heartbeat IPC: 0.76327 cumulative IPC: 0.71115 (Simulation time: 0 hr 4 min 35 sec) 
Heartbeat CPU  0 instructions:  148000000 cycles:  118017915 heartbeat IPC: 0.76130 cumulative IPC: 0.71213 (Simulation time: 0 hr 4 min 37 sec) 
Heartbeat CPU  0 instructions:  149000003 cycles:  119330676 heartbeat IPC: 0.76176 cumulative IPC: 0.71308 (Simulation time: 0 hr 4 min 39 sec) 
Heartbeat CPU  0 instructions:  150000003 cycles:  120643911 heartbeat IPC: 0.76148 cumulative IPC: 0.71399 (Simulation time: 0 hr 4 min 41 sec) 
Heartbeat CPU  0 instructions:  151000000 cycles:  121959122 heartbeat IPC: 0.76033 cumulative IPC: 0.71484 (Simulation time: 0 hr 4 min 43 sec) 
Heartbeat CPU  0 instructions:  152000000 cycles:  123273965 heartbeat IPC: 0.76055 cumulative IPC: 0.71567 (Simulation time: 0 hr 4 min 46 sec) 
Heartbeat CPU  0 instructions:  153000002 cycles:  124589745 heartbeat IPC: 0.76001 cumulative IPC: 0.71646 (Simulation time: 0 hr 4 min 48 sec) 
Heartbeat CPU  0 instructions:  154000002 cycles:  125902427 heartbeat IPC: 0.76180 cumulative IPC: 0.71725 (Simulation time: 0 hr 4 min 50 sec) 
Heartbeat CPU  0 instructions:  155000001 cycles:  127216424 heartbeat IPC: 0.76104 cumulative IPC: 0.71800 (Simulation time: 0 hr 4 min 52 sec) 
Heartbeat CPU  0 instructions:  156000000 cycles:  128528109 heartbeat IPC: 0.76238 cumulative IPC: 0.71874 (Simulation time: 0 hr 4 min 54 sec) 
Heartbeat CPU  0 instructions:  157000000 cycles:  129843444 heartbeat IPC: 0.76026 cumulative IPC: 0.71943 (Simulation time: 0 hr 4 min 57 sec) 
Heartbeat CPU  0 instructions:  158000001 cycles:  131156835 heartbeat IPC: 0.76139 cumulative IPC: 0.72012 (Simulation time: 0 hr 4 min 59 sec) 
Heartbeat CPU  0 instructions:  159000003 cycles:  132468499 heartbeat IPC: 0.76239 cumulative IPC: 0.72080 (Simulation time: 0 hr 5 min 1 sec) 
Heartbeat CPU  0 instructions:  160000000 cycles:  133784046 heartbeat IPC: 0.76014 cumulative IPC: 0.72142 (Simulation time: 0 hr 5 min 3 sec) 
Heartbeat CPU  0 instructions:  161000001 cycles:  135098369 heartbeat IPC: 0.76085 cumulative IPC: 0.72203 (Simulation time: 0 hr 5 min 5 sec) 
Heartbeat CPU  0 instructions:  162000000 cycles:  136413931 heartbeat IPC: 0.76013 cumulative IPC: 0.72262 (Simulation time: 0 hr 5 min 7 sec) 
Heartbeat CPU  0 instructions:  163000003 cycles:  137727054 heartbeat IPC: 0.76155 cumulative IPC: 0.72320 (Simulation time: 0 hr 5 min 10 sec) 
Heartbeat CPU  0 instructions:  164000000 cycles:  139040488 heartbeat IPC: 0.76136 cumulative IPC: 0.72377 (Simulation time: 0 hr 5 min 12 sec) 
Heartbeat CPU  0 instructions:  165000000 cycles:  140352556 heartbeat IPC: 0.76216 cumulative IPC: 0.72433 (Simulation time: 0 hr 5 min 14 sec) 
Heartbeat CPU  0 instructions:  166000000 cycles:  141667396 heartbeat IPC: 0.76055 cumulative IPC: 0.72485 (Simulation time: 0 hr 5 min 16 sec) 
Heartbeat CPU  0 instructions:  167000003 cycles:  142981610 heartbeat IPC: 0.76091 cumulative IPC: 0.72537 (Simulation time: 0 hr 5 min 18 sec) 
Heartbeat CPU  0 instructions:  168000000 cycles:  144296887 heartbeat IPC: 0.76029 cumulative IPC: 0.72586 (Simulation time: 0 hr 5 min 21 sec) 
Heartbeat CPU  0 instructions:  169000003 cycles:  145611081 heartbeat IPC: 0.76092 cumulative IPC: 0.72634 (Simulation time: 0 hr 5 min 23 sec) 
Heartbeat CPU  0 instructions:  170000001 cycles:  146924234 heartbeat IPC: 0.76152 cumulative IPC: 0.72682 (Simulation time: 0 hr 5 min 25 sec) 
Heartbeat CPU  0 instructions:  171000002 cycles:  148237340 heartbeat IPC: 0.76155 cumulative IPC: 0.72729 (Simulation time: 0 hr 5 min 27 sec) 
Heartbeat CPU  0 instructions:  172000000 cycles:  149550336 heartbeat IPC: 0.76162 cumulative IPC: 0.72774 (Simulation time: 0 hr 5 min 29 sec) 
Heartbeat CPU  0 instructions:  173000002 cycles:  150864197 heartbeat IPC: 0.76112 cumulative IPC: 0.72818 (Simulation time: 0 hr 5 min 32 sec) 
Heartbeat CPU  0 instructions:  174000000 cycles:  152177707 heartbeat IPC: 0.76132 cumulative IPC: 0.72861 (Simulation time: 0 hr 5 min 34 sec) 
Heartbeat CPU  0 instructions:  175000001 cycles:  153489872 heartbeat IPC: 0.76210 cumulative IPC: 0.72904 (Simulation time: 0 hr 5 min 36 sec) 
Heartbeat CPU  0 instructions:  176000000 cycles:  154804640 heartbeat IPC: 0.76059 cumulative IPC: 0.72944 (Simulation time: 0 hr 5 min 38 sec) 
Heartbeat CPU  0 instructions:  177000000 cycles:  156118701 heartbeat IPC: 0.76100 cumulative IPC: 0.72983 (Simulation time: 0 hr 5 min 40 sec) 
Heartbeat CPU  0 instructions:  178000003 cycles:  157434325 heartbeat IPC: 0.76010 cumulative IPC: 0.73020 (Simulation time: 0 hr 5 min 43 sec) 
Heartbeat CPU  0 instructions:  179000000 cycles:  158746987 heartbeat IPC: 0.76181 cumulative IPC: 0.73059 (Simulation time: 0 hr 5 min 45 sec) 
Heartbeat CPU  0 instructions:  180000000 cycles:  160060548 heartbeat IPC: 0.76129 cumulative IPC: 0.73095 (Simulation time: 0 hr 5 min 47 sec) 
Heartbeat CPU  0 instructions:  181000003 cycles:  161371856 heartbeat IPC: 0.76260 cumulative IPC: 0.73133 (Simulation time: 0 hr 5 min 49 sec) 
Heartbeat CPU  0 instructions:  182000003 cycles:  162688028 heartbeat IPC: 0.75978 cumulative IPC: 0.73166 (Simulation time: 0 hr 5 min 51 sec) 
Heartbeat CPU  0 instructions:  183000003 cycles:  164002319 heartbeat IPC: 0.76087 cumulative IPC: 0.73200 (Simulation time: 0 hr 5 min 53 sec) 
Heartbeat CPU  0 instructions:  184000000 cycles:  165319040 heartbeat IPC: 0.75946 cumulative IPC: 0.73232 (Simulation time: 0 hr 5 min 56 sec) 
Heartbeat CPU  0 instructions:  185000002 cycles:  166631914 heartbeat IPC: 0.76169 cumulative IPC: 0.73265 (Simulation time: 0 hr 5 min 58 sec) 
Heartbeat CPU  0 instructions:  186000002 cycles:  167945208 heartbeat IPC: 0.76144 cumulative IPC: 0.73297 (Simulation time: 0 hr 6 min 0 sec) 
Heartbeat CPU  0 instructions:  187000001 cycles:  170102505 heartbeat IPC: 0.46354 cumulative IPC: 0.72811 (Simulation time: 0 hr 6 min 2 sec) 
Heartbeat CPU  0 instructions:  188000000 cycles:  172753813 heartbeat IPC: 0.37717 cumulative IPC: 0.72049 (Simulation time: 0 hr 6 min 5 sec) 
Heartbeat CPU  0 instructions:  189000000 cycles:  175343951 heartbeat IPC: 0.38608 cumulative IPC: 0.71354 (Simulation time: 0 hr 6 min 8 sec) 
Heartbeat CPU  0 instructions:  190000000 cycles:  177893073 heartbeat IPC: 0.39229 cumulative IPC: 0.70711 (Simulation time: 0 hr 6 min 10 sec) 
Heartbeat CPU  0 instructions:  191000003 cycles:  180442177 heartbeat IPC: 0.39230 cumulative IPC: 0.70093 (Simulation time: 0 hr 6 min 13 sec) 
Heartbeat CPU  0 instructions:  192000000 cycles:  182983245 heartbeat IPC: 0.39353 cumulative IPC: 0.69503 (Simulation time: 0 hr 6 min 16 sec) 
Heartbeat CPU  0 instructions:  193000003 cycles:  185505557 heartbeat IPC: 0.39646 cumulative IPC: 0.68945 (Simulation time: 0 hr 6 min 18 sec) 
Heartbeat CPU  0 instructions:  194000001 cycles:  187999971 heartbeat IPC: 0.40089 cumulative IPC: 0.68421 (Simulation time: 0 hr 6 min 21 sec) 
Heartbeat CPU  0 instructions:  195000000 cycles:  190531389 heartbeat IPC: 0.39504 cumulative IPC: 0.67897 (Simulation time: 0 hr 6 min 23 sec) 
Heartbeat CPU  0 instructions:  196000000 cycles:  193087090 heartbeat IPC: 0.39128 cumulative IPC: 0.67381 (Simulation time: 0 hr 6 min 26 sec) 
Heartbeat CPU  0 instructions:  197000000 cycles:  195685611 heartbeat IPC: 0.38483 cumulative IPC: 0.66864 (Simulation time: 0 hr 6 min 28 sec) 
Heartbeat CPU  0 instructions:  198000002 cycles:  198202435 heartbeat IPC: 0.39733 cumulative IPC: 0.66401 (Simulation time: 0 hr 6 min 31 sec) 
Heartbeat CPU  0 instructions:  199000001 cycles:  200699011 heartbeat IPC: 0.40055 cumulative IPC: 0.65963 (Simulation time: 0 hr 6 min 34 sec) 
Heartbeat CPU  0 instructions:  200000000 cycles:  203184171 heartbeat IPC: 0.40239 cumulative IPC: 0.65544 (Simulation time: 0 hr 6 min 36 sec) 
Heartbeat CPU  0 instructions:  201000001 cycles:  205663783 heartbeat IPC: 0.40329 cumulative IPC: 0.65141 (Simulation time: 0 hr 6 min 39 sec) 
Heartbeat CPU  0 instructions:  202000002 cycles:  208148148 heartbeat IPC: 0.40252 cumulative IPC: 0.64748 (Simulation time: 0 hr 6 min 41 sec) 
Heartbeat CPU  0 instructions:  203000000 cycles:  210628469 heartbeat IPC: 0.40317 cumulative IPC: 0.64369 (Simulation time: 0 hr 6 min 44 sec) 
Heartbeat CPU  0 instructions:  204000000 cycles:  213118239 heartbeat IPC: 0.40164 cumulative IPC: 0.63999 (Simulation time: 0 hr 6 min 47 sec) 
Heartbeat CPU  0 instructions:  205000003 cycles:  215658743 heartbeat IPC: 0.39362 cumulative IPC: 0.63619 (Simulation time: 0 hr 6 min 49 sec) 
Heartbeat CPU  0 instructions:  206000000 cycles:  218212616 heartbeat IPC: 0.39156 cumulative IPC: 0.63247 (Simulation time: 0 hr 6 min 52 sec) 
Heartbeat CPU  0 instructions:  207000001 cycles:  220695812 heartbeat IPC: 0.40271 cumulative IPC: 0.62911 (Simulation time: 0 hr 6 min 54 sec) 
Heartbeat CPU  0 instructions:  208000000 cycles:  223166057 heartbeat IPC: 0.40482 cumulative IPC: 0.62590 (Simulation time: 0 hr 6 min 57 sec) 
Heartbeat CPU  0 instructions:  209000001 cycles:  225634969 heartbeat IPC: 0.40504 cumulative IPC: 0.62278 (Simulation time: 0 hr 6 min 59 sec) 
Heartbeat CPU  0 instructions:  210000003 cycles:  228105046 heartbeat IPC: 0.40485 cumulative IPC: 0.61975 (Simulation time: 0 hr 7 min 2 sec) 
Heartbeat CPU  0 instructions:  211000001 cycles:  230569043 heartbeat IPC: 0.40584 cumulative IPC: 0.61682 (Simulation time: 0 hr 7 min 5 sec) 
Heartbeat CPU  0 instructions:  212000000 cycles:  233030647 heartbeat IPC: 0.40624 cumulative IPC: 0.61398 (Simulation time: 0 hr 7 min 7 sec) 
Heartbeat CPU  0 instructions:  213000001 cycles:  235361311 heartbeat IPC: 0.42906 cumulative IPC: 0.61165 (Simulation time: 0 hr 7 min 10 sec) 
Heartbeat CPU  0 instructions:  214000002 cycles:  237571331 heartbeat IPC: 0.45249 cumulative IPC: 0.60977 (Simulation time: 0 hr 7 min 13 sec) 
Heartbeat CPU  0 instructions:  215000002 cycles:  239813967 heartbeat IPC: 0.44590 cumulative IPC: 0.60782 (Simulation time: 0 hr 7 min 16 sec) 
Heartbeat CPU  0 instructions:  216000000 cycles:  241998903 heartbeat IPC: 0.45768 cumulative IPC: 0.60611 (Simulation time: 0 hr 7 min 19 sec) 
Heartbeat CPU  0 instructions:  217000002 cycles:  244001708 heartbeat IPC: 0.49930 cumulative IPC: 0.60500 (Simulation time: 0 hr 7 min 22 sec) 
Heartbeat CPU  0 instructions:  218000003 cycles:  246119007 heartbeat IPC: 0.47230 cumulative IPC: 0.60357 (Simulation time: 0 hr 7 min 24 sec) 
Heartbeat CPU  0 instructions:  219000000 cycles:  248059404 heartbeat IPC: 0.51536 cumulative IPC: 0.60270 (Simulation time: 0 hr 7 min 27 sec) 
Heartbeat CPU  0 instructions:  220000000 cycles:  250164071 heartbeat IPC: 0.47513 cumulative IPC: 0.60135 (Simulation time: 0 hr 7 min 30 sec) 
Heartbeat CPU  0 instructions:  221000000 cycles:  252112820 heartbeat IPC: 0.51315 cumulative IPC: 0.60050 (Simulation time: 0 hr 7 min 33 sec) 
Heartbeat CPU  0 instructions:  222000001 cycles:  254211236 heartbeat IPC: 0.47655 cumulative IPC: 0.59922 (Simulation time: 0 hr 7 min 36 sec) 
Heartbeat CPU  0 instructions:  223000000 cycles:  256140844 heartbeat IPC: 0.51824 cumulative IPC: 0.59846 (Simulation time: 0 hr 7 min 38 sec) 
Heartbeat CPU  0 instructions:  224000000 cycles:  258231371 heartbeat IPC: 0.47835 cumulative IPC: 0.59725 (Simulation time: 0 hr 7 min 41 sec) 
Heartbeat CPU  0 instructions:  225000003 cycles:  260219854 heartbeat IPC: 0.50290 cumulative IPC: 0.59636 (Simulation time: 0 hr 7 min 44 sec) 
Heartbeat CPU  0 instructions:  226000003 cycles:  262295428 heartbeat IPC: 0.48179 cumulative IPC: 0.59524 (Simulation time: 0 hr 7 min 47 sec) 
Heartbeat CPU  0 instructions:  227000002 cycles:  264284598 heartbeat IPC: 0.50272 cumulative IPC: 0.59437 (Simulation time: 0 hr 7 min 49 sec) 
Heartbeat CPU  0 instructions:  228000000 cycles:  266363527 heartbeat IPC: 0.48102 cumulative IPC: 0.59328 (Simulation time: 0 hr 7 min 52 sec) 
Heartbeat CPU  0 instructions:  229000001 cycles:  268375274 heartbeat IPC: 0.49708 cumulative IPC: 0.59239 (Simulation time: 0 hr 7 min 55 sec) 
Heartbeat CPU  0 instructions:  230000000 cycles:  270392366 heartbeat IPC: 0.49576 cumulative IPC: 0.59151 (Simulation time: 0 hr 7 min 58 sec) 
Heartbeat CPU  0 instructions:  231000001 cycles:  272421836 heartbeat IPC: 0.49274 cumulative IPC: 0.59060 (Simulation time: 0 hr 8 min 0 sec) 
Heartbeat CPU  0 instructions:  232000000 cycles:  274442407 heartbeat IPC: 0.49491 cumulative IPC: 0.58974 (Simulation time: 0 hr 8 min 3 sec) 
Heartbeat CPU  0 instructions:  233000001 cycles:  276492685 heartbeat IPC: 0.48774 cumulative IPC: 0.58881 (Simulation time: 0 hr 8 min 6 sec) 
Heartbeat CPU  0 instructions:  234000000 cycles:  278500920 heartbeat IPC: 0.49795 cumulative IPC: 0.58801 (Simulation time: 0 hr 8 min 9 sec) 
Heartbeat CPU  0 instructions:  235000002 cycles:  280594960 heartbeat IPC: 0.47755 cumulative IPC: 0.58701 (Simulation time: 0 hr 8 min 12 sec) 
Heartbeat CPU  0 instructions:  236000000 cycles:  282592398 heartbeat IPC: 0.50064 cumulative IPC: 0.58626 (Simulation time: 0 hr 8 min 14 sec) 
Heartbeat CPU  0 instructions:  237000003 cycles:  284710594 heartbeat IPC: 0.47210 cumulative IPC: 0.58523 (Simulation time: 0 hr 8 min 17 sec) 
Heartbeat CPU  0 instructions:  238000003 cycles:  286661570 heartbeat IPC: 0.51256 cumulative IPC: 0.58463 (Simulation time: 0 hr 8 min 20 sec) 
Heartbeat CPU  0 instructions:  239000000 cycles:  288811324 heartbeat IPC: 0.46517 cumulative IPC: 0.58355 (Simulation time: 0 hr 8 min 23 sec) 
Heartbeat CPU  0 instructions:  240000000 cycles:  290795790 heartbeat IPC: 0.50391 cumulative IPC: 0.58289 (Simulation time: 0 hr 8 min 26 sec) 
Heartbeat CPU  0 instructions:  241000000 cycles:  292962445 heartbeat IPC: 0.46154 cumulative IPC: 0.58181 (Simulation time: 0 hr 8 min 28 sec) 
Heartbeat CPU  0 instructions:  242000001 cycles:  294949484 heartbeat IPC: 0.50326 cumulative IPC: 0.58117 (Simulation time: 0 hr 8 min 31 sec) 
Heartbeat CPU  0 instructions:  243000000 cycles:  297083152 heartbeat IPC: 0.46868 cumulative IPC: 0.58020 (Simulation time: 0 hr 8 min 34 sec) 
Heartbeat CPU  0 instructions:  244000000 cycles:  299061846 heartbeat IPC: 0.50538 cumulative IPC: 0.57960 (Simulation time: 0 hr 8 min 37 sec) 
Heartbeat CPU  0 instructions:  245000002 cycles:  301163054 heartbeat IPC: 0.47592 cumulative IPC: 0.57873 (Simulation time: 0 hr 8 min 40 sec) 
Heartbeat CPU  0 instructions:  246000001 cycles:  303203931 heartbeat IPC: 0.48998 cumulative IPC: 0.57801 (Simulation time: 0 hr 8 min 42 sec) 
Heartbeat CPU  0 instructions:  247000003 cycles:  305303697 heartbeat IPC: 0.47624 cumulative IPC: 0.57717 (Simulation time: 0 hr 8 min 45 sec) 
Heartbeat CPU  0 instructions:  248000000 cycles:  307446635 heartbeat IPC: 0.46665 cumulative IPC: 0.57625 (Simulation time: 0 hr 8 min 48 sec) 
Heartbeat CPU  0 instructions:  249000003 cycles:  309618815 heartbeat IPC: 0.46037 cumulative IPC: 0.57528 (Simulation time: 0 hr 8 min 51 sec) 
Heartbeat CPU  0 instructions:  250000000 cycles:  311779796 heartbeat IPC: 0.46275 cumulative IPC: 0.57435 (Simulation time: 0 hr 8 min 54 sec) 
Heartbeat CPU  0 instructions:  251000000 cycles:  313677750 heartbeat IPC: 0.52688 cumulative IPC: 0.57401 (Simulation time: 0 hr 8 min 57 sec) 
Heartbeat CPU  0 instructions:  252000000 cycles:  315177767 heartbeat IPC: 0.66666 cumulative IPC: 0.57453 (Simulation time: 0 hr 8 min 59 sec) 
Heartbeat CPU  0 instructions:  253000002 cycles:  316711798 heartbeat IPC: 0.65188 cumulative IPC: 0.57498 (Simulation time: 0 hr 9 min 1 sec) 
Heartbeat CPU  0 instructions:  254000003 cycles:  318219268 heartbeat IPC: 0.66336 cumulative IPC: 0.57548 (Simulation time: 0 hr 9 min 4 sec) 
Heartbeat CPU  0 instructions:  255000000 cycles:  319741613 heartbeat IPC: 0.65688 cumulative IPC: 0.57594 (Simulation time: 0 hr 9 min 6 sec) 
Heartbeat CPU  0 instructions:  256000000 cycles:  321254002 heartbeat IPC: 0.66121 cumulative IPC: 0.57641 (Simulation time: 0 hr 9 min 8 sec) 
Heartbeat CPU  0 instructions:  257000000 cycles:  322717396 heartbeat IPC: 0.68334 cumulative IPC: 0.57699 (Simulation time: 0 hr 9 min 11 sec) 
Heartbeat CPU  0 instructions:  258000002 cycles:  324089551 heartbeat IPC: 0.72878 cumulative IPC: 0.57775 (Simulation time: 0 hr 9 min 13 sec) 
Heartbeat CPU  0 instructions:  259000000 cycles:  325409327 heartbeat IPC: 0.75770 cumulative IPC: 0.57861 (Simulation time: 0 hr 9 min 15 sec) 
Heartbeat CPU  0 instructions:  260000000 cycles:  326705246 heartbeat IPC: 0.77165 cumulative IPC: 0.57952 (Simulation time: 0 hr 9 min 17 sec) 
Heartbeat CPU  0 instructions:  261000001 cycles:  328019948 heartbeat IPC: 0.76063 cumulative IPC: 0.58038 (Simulation time: 0 hr 9 min 20 sec) 
Heartbeat CPU  0 instructions:  262000000 cycles:  329379099 heartbeat IPC: 0.73575 cumulative IPC: 0.58114 (Simulation time: 0 hr 9 min 22 sec) 
Heartbeat CPU  0 instructions:  263000002 cycles:  330650267 heartbeat IPC: 0.78668 cumulative IPC: 0.58207 (Simulation time: 0 hr 9 min 24 sec) 
Heartbeat CPU  0 instructions:  264000000 cycles:  331882094 heartbeat IPC: 0.81180 cumulative IPC: 0.58307 (Simulation time: 0 hr 9 min 26 sec) 
Heartbeat CPU  0 instructions:  265000002 cycles:  333089123 heartbeat IPC: 0.82848 cumulative IPC: 0.58412 (Simulation time: 0 hr 9 min 28 sec) 
Heartbeat CPU  0 instructions:  266000000 cycles:  334314140 heartbeat IPC: 0.81631 cumulative IPC: 0.58513 (Simulation time: 0 hr 9 min 31 sec) 
Heartbeat CPU  0 instructions:  267000000 cycles:  335570060 heartbeat IPC: 0.79623 cumulative IPC: 0.58606 (Simulation time: 0 hr 9 min 33 sec) 
Heartbeat CPU  0 instructions:  268000000 cycles:  336899499 heartbeat IPC: 0.75220 cumulative IPC: 0.58683 (Simulation time: 0 hr 9 min 35 sec) 
Heartbeat CPU  0 instructions:  269000000 cycles:  338165391 heartbeat IPC: 0.78996 cumulative IPC: 0.58772 (Simulation time: 0 hr 9 min 37 sec) 
Heartbeat CPU  0 instructions:  270000001 cycles:  339443974 heartbeat IPC: 0.78212 cumulative IPC: 0.58858 (Simulation time: 0 hr 9 min 40 sec) 
Heartbeat CPU  0 instructions:  271000000 cycles:  340695032 heartbeat IPC: 0.79932 cumulative IPC: 0.58949 (Simulation time: 0 hr 9 min 42 sec) 
Heartbeat CPU  0 instructions:  272000000 cycles:  342063634 heartbeat IPC: 0.73067 cumulative IPC: 0.59015 (Simulation time: 0 hr 9 min 44 sec) 
Heartbeat CPU  0 instructions:  273000000 cycles:  343382875 heartbeat IPC: 0.75801 cumulative IPC: 0.59091 (Simulation time: 0 hr 9 min 46 sec) 
Heartbeat CPU  0 instructions:  274000001 cycles:  344672143 heartbeat IPC: 0.77563 cumulative IPC: 0.59172 (Simulation time: 0 hr 9 min 49 sec) 
Heartbeat CPU  0 instructions:  275000000 cycles:  345972922 heartbeat IPC: 0.76877 cumulative IPC: 0.59250 (Simulation time: 0 hr 9 min 51 sec) 
Heartbeat CPU  0 instructions:  276000000 cycles:  347245906 heartbeat IPC: 0.78556 cumulative IPC: 0.59333 (Simulation time: 0 hr 9 min 53 sec) 
Heartbeat CPU  0 instructions:  277000002 cycles:  348565394 heartbeat IPC: 0.75787 cumulative IPC: 0.59406 (Simulation time: 0 hr 9 min 55 sec) 
Heartbeat CPU  0 instructions:  278000002 cycles:  349918665 heartbeat IPC: 0.73895 cumulative IPC: 0.59471 (Simulation time: 0 hr 9 min 57 sec) 
Heartbeat CPU  0 instructions:  279000000 cycles:  351231821 heartbeat IPC: 0.76152 cumulative IPC: 0.59544 (Simulation time: 0 hr 10 min 0 sec) 
Heartbeat CPU  0 instructions:  280000000 cycles:  352523921 heartbeat IPC: 0.77393 cumulative IPC: 0.59621 (Simulation time: 0 hr 10 min 2 sec) 
Heartbeat CPU  0 instructions:  281000002 cycles:  353791430 heartbeat IPC: 0.78895 cumulative IPC: 0.59701 (Simulation time: 0 hr 10 min 4 sec) 
Heartbeat CPU  0 instructions:  282000002 cycles:  355127056 heartbeat IPC: 0.74871 cumulative IPC: 0.59768 (Simulation time: 0 hr 10 min 6 sec) 
Heartbeat CPU  0 instructions:  283000003 cycles:  356535611 heartbeat IPC: 0.70995 cumulative IPC: 0.59819 (Simulation time: 0 hr 10 min 9 sec) 
Heartbeat CPU  0 instructions:  284000000 cycles:  357899366 heartbeat IPC: 0.73327 cumulative IPC: 0.59879 (Simulation time: 0 hr 10 min 11 sec) 
Heartbeat CPU  0 instructions:  285000003 cycles:  359278921 heartbeat IPC: 0.72487 cumulative IPC: 0.59936 (Simulation time: 0 hr 10 min 13 sec) 
Heartbeat CPU  0 instructions:  286000003 cycles:  360654674 heartbeat IPC: 0.72687 cumulative IPC: 0.59992 (Simulation time: 0 hr 10 min 15 sec) 
Heartbeat CPU  0 instructions:  287000003 cycles:  362022757 heartbeat IPC: 0.73095 cumulative IPC: 0.60050 (Simulation time: 0 hr 10 min 18 sec) 
Heartbeat CPU  0 instructions:  288000000 cycles:  363427651 heartbeat IPC: 0.71180 cumulative IPC: 0.60100 (Simulation time: 0 hr 10 min 20 sec) 
Heartbeat CPU  0 instructions:  289000001 cycles:  364791747 heartbeat IPC: 0.73309 cumulative IPC: 0.60157 (Simulation time: 0 hr 10 min 22 sec) 
Heartbeat CPU  0 instructions:  290000003 cycles:  366092802 heartbeat IPC: 0.76861 cumulative IPC: 0.60226 (Simulation time: 0 hr 10 min 25 sec) 
Heartbeat CPU  0 instructions:  291000003 cycles:  367396395 heartbeat IPC: 0.76711 cumulative IPC: 0.60294 (Simulation time: 0 hr 10 min 27 sec) 
Heartbeat CPU  0 instructions:  292000000 cycles:  368705016 heartbeat IPC: 0.76416 cumulative IPC: 0.60360 (Simulation time: 0 hr 10 min 29 sec) 
Heartbeat CPU  0 instructions:  293000002 cycles:  370112331 heartbeat IPC: 0.71057 cumulative IPC: 0.60407 (Simulation time: 0 hr 10 min 31 sec) 
Heartbeat CPU  0 instructions:  294000002 cycles:  371542226 heartbeat IPC: 0.69935 cumulative IPC: 0.60450 (Simulation time: 0 hr 10 min 34 sec) 
Heartbeat CPU  0 instructions:  295000003 cycles:  372940398 heartbeat IPC: 0.71522 cumulative IPC: 0.60498 (Simulation time: 0 hr 10 min 36 sec) 
Heartbeat CPU  0 instructions:  296000000 cycles:  374361410 heartbeat IPC: 0.70372 cumulative IPC: 0.60541 (Simulation time: 0 hr 10 min 38 sec) 
Heartbeat CPU  0 instructions:  297000003 cycles:  375749501 heartbeat IPC: 0.72042 cumulative IPC: 0.60590 (Simulation time: 0 hr 10 min 40 sec) 
Heartbeat CPU  0 instructions:  298000002 cycles:  377154192 heartbeat IPC: 0.71190 cumulative IPC: 0.60636 (Simulation time: 0 hr 10 min 43 sec) 
Heartbeat CPU  0 instructions:  299000003 cycles:  378553745 heartbeat IPC: 0.71451 cumulative IPC: 0.60682 (Simulation time: 0 hr 10 min 45 sec) 
Heartbeat CPU  0 instructions:  300000000 cycles:  379879512 heartbeat IPC: 0.75428 cumulative IPC: 0.60741 (Simulation time: 0 hr 10 min 47 sec) 
Heartbeat CPU  0 instructions:  301000000 cycles:  381195557 heartbeat IPC: 0.75985 cumulative IPC: 0.60802 (Simulation time: 0 hr 10 min 49 sec) 
Heartbeat CPU  0 instructions:  302000003 cycles:  382473248 heartbeat IPC: 0.78266 cumulative IPC: 0.60869 (Simulation time: 0 hr 10 min 52 sec) 
Heartbeat CPU  0 instructions:  303000000 cycles:  383814050 heartbeat IPC: 0.74582 cumulative IPC: 0.60924 (Simulation time: 0 hr 10 min 54 sec) 
Heartbeat CPU  0 instructions:  304000000 cycles:  385256171 heartbeat IPC: 0.69342 cumulative IPC: 0.60961 (Simulation time: 0 hr 10 min 56 sec) 
Heartbeat CPU  0 instructions:  305000003 cycles:  386723911 heartbeat IPC: 0.68132 cumulative IPC: 0.60992 (Simulation time: 0 hr 10 min 59 sec) 
Heartbeat CPU  0 instructions:  306000001 cycles:  388165192 heartbeat IPC: 0.69383 cumulative IPC: 0.61028 (Simulation time: 0 hr 11 min 1 sec) 
Heartbeat CPU  0 instructions:  307000003 cycles:  389617357 heartbeat IPC: 0.68863 cumulative IPC: 0.61061 (Simulation time: 0 hr 11 min 3 sec) 
Heartbeat CPU  0 instructions:  308000000 cycles:  391049040 heartbeat IPC: 0.69848 cumulative IPC: 0.61098 (Simulation time: 0 hr 11 min 5 sec) 
Heartbeat CPU  0 instructions:  309000001 cycles:  392513403 heartbeat IPC: 0.68289 cumulative IPC: 0.61129 (Simulation time: 0 hr 11 min 8 sec) 
Heartbeat CPU  0 instructions:  310000000 cycles:  393847313 heartbeat IPC: 0.74968 cumulative IPC: 0.61183 (Simulation time: 0 hr 11 min 10 sec) 
Heartbeat CPU  0 instructions:  311000000 cycles:  395149288 heartbeat IPC: 0.76806 cumulative IPC: 0.61242 (Simulation time: 0 hr 11 min 12 sec) 
Heartbeat CPU  0 instructions:  312000000 cycles:  396441828 heartbeat IPC: 0.77367 cumulative IPC: 0.61302 (Simulation time: 0 hr 11 min 14 sec) 
Heartbeat CPU  0 instructions:  313000003 cycles:  397740193 heartbeat IPC: 0.77020 cumulative IPC: 0.61361 (Simulation time: 0 hr 11 min 17 sec) 
Heartbeat CPU  0 instructions:  314000001 cycles:  399163034 heartbeat IPC: 0.70282 cumulative IPC: 0.61397 (Simulation time: 0 hr 11 min 19 sec) 
Heartbeat CPU  0 instructions:  315000000 cycles:  400621828 heartbeat IPC: 0.68550 cumulative IPC: 0.61427 (Simulation time: 0 hr 11 min 21 sec) 
Heartbeat CPU  0 instructions:  316000000 cycles:  402073313 heartbeat IPC: 0.68895 cumulative IPC: 0.61458 (Simulation time: 0 hr 11 min 24 sec) 
Heartbeat CPU  0 instructions:  317000003 cycles:  403533357 heartbeat IPC: 0.68491 cumulative IPC: 0.61487 (Simulation time: 0 hr 11 min 26 sec) 
Heartbeat CPU  0 instructions:  318000002 cycles:  404998700 heartbeat IPC: 0.68243 cumulative IPC: 0.61515 (Simulation time: 0 hr 11 min 28 sec) 
Heartbeat CPU  0 instructions:  319000002 cycles:  406429490 heartbeat IPC: 0.69891 cumulative IPC: 0.61549 (Simulation time: 0 hr 11 min 30 sec) 
Heartbeat CPU  0 instructions:  320000000 cycles:  407869627 heartbeat IPC: 0.69438 cumulative IPC: 0.61581 (Simulation time: 0 hr 11 min 33 sec) 
Heartbeat CPU  0 instructions:  321000002 cycles:  409172720 heartbeat IPC: 0.76741 cumulative IPC: 0.61636 (Simulation time: 0 hr 11 min 35 sec) 
Heartbeat CPU  0 instructions:  322000002 cycles:  410464203 heartbeat IPC: 0.77430 cumulative IPC: 0.61692 (Simulation time: 0 hr 11 min 37 sec) 
Heartbeat CPU  0 instructions:  323000002 cycles:  411763953 heartbeat IPC: 0.76938 cumulative IPC: 0.61747 (Simulation time: 0 hr 11 min 39 sec) 
Heartbeat CPU  0 instructions:  324000000 cycles:  413105325 heartbeat IPC: 0.74550 cumulative IPC: 0.61795 (Simulation time: 0 hr 11 min 42 sec) 
Heartbeat CPU  0 instructions:  325000002 cycles:  414557038 heartbeat IPC: 0.68884 cumulative IPC: 0.61823 (Simulation time: 0 hr 11 min 44 sec) 
Heartbeat CPU  0 instructions:  326000000 cycles:  416024726 heartbeat IPC: 0.68134 cumulative IPC: 0.61848 (Simulation time: 0 hr 11 min 46 sec) 
Heartbeat CPU  0 instructions:  327000002 cycles:  417440975 heartbeat IPC: 0.70609 cumulative IPC: 0.61882 (Simulation time: 0 hr 11 min 49 sec) 
Heartbeat CPU  0 instructions:  328000000 cycles:  418892278 heartbeat IPC: 0.68903 cumulative IPC: 0.61910 (Simulation time: 0 hr 11 min 51 sec) 
Heartbeat CPU  0 instructions:  329000001 cycles:  420334445 heartbeat IPC: 0.69340 cumulative IPC: 0.61939 (Simulation time: 0 hr 11 min 53 sec) 
Heartbeat CPU  0 instructions:  330000001 cycles:  421788280 heartbeat IPC: 0.68784 cumulative IPC: 0.61966 (Simulation time: 0 hr 11 min 55 sec) 
Heartbeat CPU  0 instructions:  331000001 cycles:  423131263 heartbeat IPC: 0.74461 cumulative IPC: 0.62011 (Simulation time: 0 hr 11 min 58 sec) 
Heartbeat CPU  0 instructions:  332000000 cycles:  424419504 heartbeat IPC: 0.77625 cumulative IPC: 0.62064 (Simulation time: 0 hr 12 min 0 sec) 
Heartbeat CPU  0 instructions:  333000001 cycles:  425675819 heartbeat IPC: 0.79598 cumulative IPC: 0.62123 (Simulation time: 0 hr 12 min 2 sec) 
Heartbeat CPU  0 instructions:  334000003 cycles:  426952773 heartbeat IPC: 0.78312 cumulative IPC: 0.62178 (Simulation time: 0 hr 12 min 4 sec) 
Heartbeat CPU  0 instructions:  335000002 cycles:  428414790 heartbeat IPC: 0.68399 cumulative IPC: 0.62202 (Simulation time: 0 hr 12 min 7 sec) 
Heartbeat CPU  0 instructions:  336000000 cycles:  429849924 heartbeat IPC: 0.69680 cumulative IPC: 0.62230 (Simulation time: 0 hr 12 min 9 sec) 
Heartbeat CPU  0 instructions:  337000002 cycles:  431304985 heartbeat IPC: 0.68726 cumulative IPC: 0.62255 (Simulation time: 0 hr 12 min 11 sec) 
Heartbeat CPU  0 instructions:  338000002 cycles:  432734814 heartbeat IPC: 0.69938 cumulative IPC: 0.62284 (Simulation time: 0 hr 12 min 14 sec) 
Heartbeat CPU  0 instructions:  339000002 cycles:  434186104 heartbeat IPC: 0.68904 cumulative IPC: 0.62309 (Simulation time: 0 hr 12 min 16 sec) 
Heartbeat CPU  0 instructions:  340000000 cycles:  435629436 heartbeat IPC: 0.69284 cumulative IPC: 0.62335 (Simulation time: 0 hr 12 min 18 sec) 
Heartbeat CPU  0 instructions:  341000001 cycles:  437047392 heartbeat IPC: 0.70524 cumulative IPC: 0.62365 (Simulation time: 0 hr 12 min 21 sec) 
Heartbeat CPU  0 instructions:  342000003 cycles:  438355880 heartbeat IPC: 0.76424 cumulative IPC: 0.62413 (Simulation time: 0 hr 12 min 23 sec) 
Heartbeat CPU  0 instructions:  343000003 cycles:  439670940 heartbeat IPC: 0.76042 cumulative IPC: 0.62459 (Simulation time: 0 hr 12 min 25 sec) 
Heartbeat CPU  0 instructions:  344000000 cycles:  440949471 heartbeat IPC: 0.78215 cumulative IPC: 0.62510 (Simulation time: 0 hr 12 min 27 sec) 
Heartbeat CPU  0 instructions:  345000001 cycles:  442305927 heartbeat IPC: 0.73722 cumulative IPC: 0.62549 (Simulation time: 0 hr 12 min 30 sec) 
Heartbeat CPU  0 instructions:  346000003 cycles:  443750664 heartbeat IPC: 0.69217 cumulative IPC: 0.62574 (Simulation time: 0 hr 12 min 32 sec) 
Heartbeat CPU  0 instructions:  347000003 cycles:  445207468 heartbeat IPC: 0.68643 cumulative IPC: 0.62596 (Simulation time: 0 hr 12 min 34 sec) 
Heartbeat CPU  0 instructions:  348000000 cycles:  446649670 heartbeat IPC: 0.69338 cumulative IPC: 0.62621 (Simulation time: 0 hr 12 min 37 sec) 
Heartbeat CPU  0 instructions:  349000000 cycles:  448074448 heartbeat IPC: 0.70186 cumulative IPC: 0.62648 (Simulation time: 0 hr 12 min 39 sec) 
Heartbeat CPU  0 instructions:  350000003 cycles:  449539237 heartbeat IPC: 0.68269 cumulative IPC: 0.62668 (Simulation time: 0 hr 12 min 41 sec) 
Heartbeat CPU  0 instructions:  351000000 cycles:  450970043 heartbeat IPC: 0.69890 cumulative IPC: 0.62694 (Simulation time: 0 hr 12 min 43 sec) 
Heartbeat CPU  0 instructions:  352000000 cycles:  452330676 heartbeat IPC: 0.73495 cumulative IPC: 0.62731 (Simulation time: 0 hr 12 min 46 sec) 
Heartbeat CPU  0 instructions:  353000003 cycles:  453620635 heartbeat IPC: 0.77522 cumulative IPC: 0.62778 (Simulation time: 0 hr 12 min 48 sec) 
Heartbeat CPU  0 instructions:  354000003 cycles:  454906034 heartbeat IPC: 0.77797 cumulative IPC: 0.62826 (Simulation time: 0 hr 12 min 50 sec) 
Heartbeat CPU  0 instructions:  355000000 cycles:  456194932 heartbeat IPC: 0.77585 cumulative IPC: 0.62873 (Simulation time: 0 hr 12 min 52 sec) 
Heartbeat CPU  0 instructions:  356000000 cycles:  457677981 heartbeat IPC: 0.67429 cumulative IPC: 0.62889 (Simulation time: 0 hr 12 min 55 sec) 
Heartbeat CPU  0 instructions:  357000001 cycles:  459109361 heartbeat IPC: 0.69863 cumulative IPC: 0.62914 (Simulation time: 0 hr 12 min 57 sec) 
Heartbeat CPU  0 instructions:  358000003 cycles:  460557166 heartbeat IPC: 0.69070 cumulative IPC: 0.62936 (Simulation time: 0 hr 12 min 59 sec) 
Heartbeat CPU  0 instructions:  359000000 cycles:  461994534 heartbeat IPC: 0.69571 cumulative IPC: 0.62959 (Simulation time: 0 hr 13 min 1 sec) 
Heartbeat CPU  0 instructions:  360000000 cycles:  463438999 heartbeat IPC: 0.69230 cumulative IPC: 0.62981 (Simulation time: 0 hr 13 min 4 sec) 
Heartbeat CPU  0 instructions:  361000002 cycles:  464890508 heartbeat IPC: 0.68894 cumulative IPC: 0.63001 (Simulation time: 0 hr 13 min 6 sec) 
Heartbeat CPU  0 instructions:  362000002 cycles:  466291770 heartbeat IPC: 0.71364 cumulative IPC: 0.63030 (Simulation time: 0 hr 13 min 8 sec) 
Heartbeat CPU  0 instructions:  363000002 cycles:  467639951 heartbeat IPC: 0.74174 cumulative IPC: 0.63066 (Simulation time: 0 hr 13 min 11 sec) 
Heartbeat CPU  0 instructions:  364000000 cycles:  468933331 heartbeat IPC: 0.77317 cumulative IPC: 0.63110 (Simulation time: 0 hr 13 min 13 sec) 
Heartbeat CPU  0 instructions:  365000001 cycles:  470221153 heartbeat IPC: 0.77651 cumulative IPC: 0.63154 (Simulation time: 0 hr 13 min 15 sec) 
Heartbeat CPU  0 instructions:  366000001 cycles:  471606059 heartbeat IPC: 0.72207 cumulative IPC: 0.63184 (Simulation time: 0 hr 13 min 17 sec) 
Heartbeat CPU  0 instructions:  367000003 cycles:  473074397 heartbeat IPC: 0.68104 cumulative IPC: 0.63201 (Simulation time: 0 hr 13 min 20 sec) 
Heartbeat CPU  0 instructions:  368000000 cycles:  474510934 heartbeat IPC: 0.69612 cumulative IPC: 0.63223 (Simulation time: 0 hr 13 min 22 sec) 
Heartbeat CPU  0 instructions:  369000001 cycles:  475965006 heartbeat IPC: 0.68772 cumulative IPC: 0.63242 (Simulation time: 0 hr 13 min 24 sec) 
Heartbeat CPU  0 instructions:  370000002 cycles:  477408981 heartbeat IPC: 0.69253 cumulative IPC: 0.63262 (Simulation time: 0 hr 13 min 27 sec) 
Heartbeat CPU  0 instructions:  371000002 cycles:  478872329 heartbeat IPC: 0.68336 cumulative IPC: 0.63280 (Simulation time: 0 hr 13 min 29 sec) 
Heartbeat CPU  0 instructions:  372000000 cycles:  480295683 heartbeat IPC: 0.70256 cumulative IPC: 0.63303 (Simulation time: 0 hr 13 min 31 sec) 
Heartbeat CPU  0 instructions:  373000001 cycles:  481645536 heartbeat IPC: 0.74082 cumulative IPC: 0.63337 (Simulation time: 0 hr 13 min 33 sec) 
Heartbeat CPU  0 instructions:  374000001 cycles:  482952702 heartbeat IPC: 0.76501 cumulative IPC: 0.63376 (Simulation time: 0 hr 13 min 36 sec) 
Heartbeat CPU  0 instructions:  375000003 cycles:  484271109 heartbeat IPC: 0.75849 cumulative IPC: 0.63414 (Simulation time: 0 hr 13 min 38 sec) 
Heartbeat CPU  0 instructions:  376000000 cycles:  485543592 heartbeat IPC: 0.78586 cumulative IPC: 0.63459 (Simulation time: 0 hr 13 min 40 sec) 
Heartbeat CPU  0 instructions:  377000002 cycles:  487003239 heartbeat IPC: 0.68510 cumulative IPC: 0.63476 (Simulation time: 0 hr 13 min 42 sec) 
Heartbeat CPU  0 instructions:  378000000 cycles:  488455288 heartbeat IPC: 0.68868 cumulative IPC: 0.63493 (Simulation time: 0 hr 13 min 45 sec) 
Heartbeat CPU  0 instructions:  379000000 cycles:  489882002 heartbeat IPC: 0.70091 cumulative IPC: 0.63515 (Simulation time: 0 hr 13 min 47 sec) 
Heartbeat CPU  0 instructions:  380000000 cycles:  491349691 heartbeat IPC: 0.68134 cumulative IPC: 0.63530 (Simulation time: 0 hr 13 min 49 sec) 
Heartbeat CPU  0 instructions:  381000002 cycles:  492804401 heartbeat IPC: 0.68742 cumulative IPC: 0.63547 (Simulation time: 0 hr 13 min 52 sec) 
Heartbeat CPU  0 instructions:  382000000 cycles:  494257409 heartbeat IPC: 0.68823 cumulative IPC: 0.63565 (Simulation time: 0 hr 13 min 54 sec) 
Heartbeat CPU  0 instructions:  383000000 cycles:  495664655 heartbeat IPC: 0.71061 cumulative IPC: 0.63588 (Simulation time: 0 hr 13 min 56 sec) 
Heartbeat CPU  0 instructions:  384000000 cycles:  497023883 heartbeat IPC: 0.73571 cumulative IPC: 0.63619 (Simulation time: 0 hr 13 min 58 sec) 
Heartbeat CPU  0 instructions:  385000001 cycles:  498363317 heartbeat IPC: 0.74658 cumulative IPC: 0.63652 (Simulation time: 0 hr 14 min 1 sec) 
Heartbeat CPU  0 instructions:  386000002 cycles:  499703838 heartbeat IPC: 0.74598 cumulative IPC: 0.63684 (Simulation time: 0 hr 14 min 3 sec) 
Heartbeat CPU  0 instructions:  387000000 cycles:  501119270 heartbeat IPC: 0.70650 cumulative IPC: 0.63706 (Simulation time: 0 hr 14 min 5 sec) 
Heartbeat CPU  0 instructions:  388000000 cycles:  502586520 heartbeat IPC: 0.68155 cumulative IPC: 0.63721 (Simulation time: 0 hr 14 min 8 sec) 
Heartbeat CPU  0 instructions:  389000003 cycles:  504012745 heartbeat IPC: 0.70115 cumulative IPC: 0.63741 (Simulation time: 0 hr 14 min 10 sec) 
Heartbeat CPU  0 instructions:  390000001 cycles:  505472252 heartbeat IPC: 0.68516 cumulative IPC: 0.63756 (Simulation time: 0 hr 14 min 12 sec) 
Heartbeat CPU  0 instructions:  391000002 cycles:  506923439 heartbeat IPC: 0.68909 cumulative IPC: 0.63773 (Simulation time: 0 hr 14 min 14 sec) 
Heartbeat CPU  0 instructions:  392000000 cycles:  508367647 heartbeat IPC: 0.69242 cumulative IPC: 0.63790 (Simulation time: 0 hr 14 min 17 sec) 
Heartbeat CPU  0 instructions:  393000003 cycles:  509810769 heartbeat IPC: 0.69294 cumulative IPC: 0.63807 (Simulation time: 0 hr 14 min 19 sec) 
Heartbeat CPU  0 instructions:  394000003 cycles:  511174512 heartbeat IPC: 0.73328 cumulative IPC: 0.63835 (Simulation time: 0 hr 14 min 21 sec) 
Heartbeat CPU  0 instructions:  395000003 cycles:  512566030 heartbeat IPC: 0.71864 cumulative IPC: 0.63860 (Simulation time: 0 hr 14 min 24 sec) 
Heartbeat CPU  0 instructions:  396000000 cycles:  513920460 heartbeat IPC: 0.73832 cumulative IPC: 0.63889 (Simulation time: 0 hr 14 min 26 sec) 
Heartbeat CPU  0 instructions:  397000001 cycles:  515272287 heartbeat IPC: 0.73974 cumulative IPC: 0.63918 (Simulation time: 0 hr 14 min 28 sec) 
Heartbeat CPU  0 instructions:  398000001 cycles:  517085045 heartbeat IPC: 0.55165 cumulative IPC: 0.63884 (Simulation time: 0 hr 14 min 30 sec) 
Heartbeat CPU  0 instructions:  399000002 cycles:  518803380 heartbeat IPC: 0.58196 cumulative IPC: 0.63863 (Simulation time: 0 hr 14 min 33 sec) 
Heartbeat CPU  0 instructions:  400000000 cycles:  520521765 heartbeat IPC: 0.58194 cumulative IPC: 0.63842 (Simulation time: 0 hr 14 min 35 sec) 
Heartbeat CPU  0 instructions:  401000001 cycles:  522243712 heartbeat IPC: 0.58074 cumulative IPC: 0.63821 (Simulation time: 0 hr 14 min 38 sec) 
Heartbeat CPU  0 instructions:  402000003 cycles:  523960411 heartbeat IPC: 0.58251 cumulative IPC: 0.63801 (Simulation time: 0 hr 14 min 40 sec) 
Heartbeat CPU  0 instructions:  403000000 cycles:  525668423 heartbeat IPC: 0.58547 cumulative IPC: 0.63782 (Simulation time: 0 hr 14 min 43 sec) 
Heartbeat CPU  0 instructions:  404000000 cycles:  527348061 heartbeat IPC: 0.59537 cumulative IPC: 0.63767 (Simulation time: 0 hr 14 min 45 sec) 
Heartbeat CPU  0 instructions:  405000003 cycles:  529036820 heartbeat IPC: 0.59215 cumulative IPC: 0.63751 (Simulation time: 0 hr 14 min 48 sec) 
Heartbeat CPU  0 instructions:  406000003 cycles:  530712238 heartbeat IPC: 0.59687 cumulative IPC: 0.63737 (Simulation time: 0 hr 14 min 50 sec) 
Heartbeat CPU  0 instructions:  407000000 cycles:  532388802 heartbeat IPC: 0.59646 cumulative IPC: 0.63723 (Simulation time: 0 hr 14 min 52 sec) 
Heartbeat CPU  0 instructions:  408000000 cycles:  534058179 heartbeat IPC: 0.59903 cumulative IPC: 0.63710 (Simulation time: 0 hr 14 min 55 sec) 
Heartbeat CPU  0 instructions:  409000002 cycles:  535724253 heartbeat IPC: 0.60021 cumulative IPC: 0.63697 (Simulation time: 0 hr 14 min 57 sec) 
Heartbeat CPU  0 instructions:  410000002 cycles:  537376840 heartbeat IPC: 0.60511 cumulative IPC: 0.63686 (Simulation time: 0 hr 15 min 0 sec) 
Heartbeat CPU  0 instructions:  411000000 cycles:  539045946 heartbeat IPC: 0.59912 cumulative IPC: 0.63673 (Simulation time: 0 hr 15 min 2 sec) 
Heartbeat CPU  0 instructions:  412000000 cycles:  540714643 heartbeat IPC: 0.59927 cumulative IPC: 0.63660 (Simulation time: 0 hr 15 min 4 sec) 
Heartbeat CPU  0 instructions:  413000001 cycles:  542369860 heartbeat IPC: 0.60415 cumulative IPC: 0.63650 (Simulation time: 0 hr 15 min 7 sec) 
Heartbeat CPU  0 instructions:  414000000 cycles:  544035656 heartbeat IPC: 0.60031 cumulative IPC: 0.63637 (Simulation time: 0 hr 15 min 9 sec) 
Heartbeat CPU  0 instructions:  415000002 cycles:  545708195 heartbeat IPC: 0.59789 cumulative IPC: 0.63624 (Simulation time: 0 hr 15 min 12 sec) 
Heartbeat CPU  0 instructions:  416000000 cycles:  547399904 heartbeat IPC: 0.59112 cumulative IPC: 0.63609 (Simulation time: 0 hr 15 min 14 sec) 
Heartbeat CPU  0 instructions:  417000001 cycles:  549083141 heartbeat IPC: 0.59409 cumulative IPC: 0.63595 (Simulation time: 0 hr 15 min 16 sec) 
Heartbeat CPU  0 instructions:  418000002 cycles:  550779151 heartbeat IPC: 0.58962 cumulative IPC: 0.63579 (Simulation time: 0 hr 15 min 19 sec) 
Heartbeat CPU  0 instructions:  419000003 cycles:  552466760 heartbeat IPC: 0.59255 cumulative IPC: 0.63565 (Simulation time: 0 hr 15 min 21 sec) 
Heartbeat CPU  0 instructions:  420000000 cycles:  554152999 heartbeat IPC: 0.59303 cumulative IPC: 0.63550 (Simulation time: 0 hr 15 min 24 sec) 
Heartbeat CPU  0 instructions:  421000002 cycles:  555846097 heartbeat IPC: 0.59063 cumulative IPC: 0.63535 (Simulation time: 0 hr 15 min 26 sec) 
Heartbeat CPU  0 instructions:  422000000 cycles:  557529951 heartbeat IPC: 0.59387 cumulative IPC: 0.63521 (Simulation time: 0 hr 15 min 29 sec) 
Heartbeat CPU  0 instructions:  423000003 cycles:  559216690 heartbeat IPC: 0.59286 cumulative IPC: 0.63507 (Simulation time: 0 hr 15 min 31 sec) 
Heartbeat CPU  0 instructions:  424000000 cycles:  560902412 heartbeat IPC: 0.59322 cumulative IPC: 0.63494 (Simulation time: 0 hr 15 min 34 sec) 
Heartbeat CPU  0 instructions:  425000000 cycles:  562599361 heartbeat IPC: 0.58929 cumulative IPC: 0.63478 (Simulation time: 0 hr 15 min 36 sec) 
Heartbeat CPU  0 instructions:  426000000 cycles:  564283303 heartbeat IPC: 0.59384 cumulative IPC: 0.63465 (Simulation time: 0 hr 15 min 38 sec) 
Heartbeat CPU  0 instructions:  427000003 cycles:  565974078 heartbeat IPC: 0.59145 cumulative IPC: 0.63451 (Simulation time: 0 hr 15 min 41 sec) 
Heartbeat CPU  0 instructions:  428000000 cycles:  567666047 heartbeat IPC: 0.59103 cumulative IPC: 0.63437 (Simulation time: 0 hr 15 min 43 sec) 
Heartbeat CPU  0 instructions:  429000000 cycles:  569356395 heartbeat IPC: 0.59159 cumulative IPC: 0.63423 (Simulation time: 0 hr 15 min 46 sec) 
Heartbeat CPU  0 instructions:  430000003 cycles:  571054790 heartbeat IPC: 0.58879 cumulative IPC: 0.63408 (Simulation time: 0 hr 15 min 48 sec) 
Heartbeat CPU  0 instructions:  431000003 cycles:  572736803 heartbeat IPC: 0.59453 cumulative IPC: 0.63395 (Simulation time: 0 hr 15 min 51 sec) 
Heartbeat CPU  0 instructions:  432000000 cycles:  574436150 heartbeat IPC: 0.58846 cumulative IPC: 0.63380 (Simulation time: 0 hr 15 min 53 sec) 
Heartbeat CPU  0 instructions:  433000000 cycles:  576125136 heartbeat IPC: 0.59207 cumulative IPC: 0.63367 (Simulation time: 0 hr 15 min 56 sec) 
Heartbeat CPU  0 instructions:  434000003 cycles:  577816587 heartbeat IPC: 0.59121 cumulative IPC: 0.63353 (Simulation time: 0 hr 15 min 58 sec) 
Heartbeat CPU  0 instructions:  435000003 cycles:  579502921 heartbeat IPC: 0.59300 cumulative IPC: 0.63340 (Simulation time: 0 hr 16 min 1 sec) 
Heartbeat CPU  0 instructions:  436000000 cycles:  581196795 heartbeat IPC: 0.59036 cumulative IPC: 0.63327 (Simulation time: 0 hr 16 min 3 sec) 
Heartbeat CPU  0 instructions:  437000000 cycles:  582892469 heartbeat IPC: 0.58974 cumulative IPC: 0.63313 (Simulation time: 0 hr 16 min 5 sec) 
Heartbeat CPU  0 instructions:  438000001 cycles:  584589091 heartbeat IPC: 0.58941 cumulative IPC: 0.63299 (Simulation time: 0 hr 16 min 8 sec) 
Heartbeat CPU  0 instructions:  439000002 cycles:  586278506 heartbeat IPC: 0.59192 cumulative IPC: 0.63286 (Simulation time: 0 hr 16 min 10 sec) 
Heartbeat CPU  0 instructions:  440000000 cycles:  587970127 heartbeat IPC: 0.59115 cumulative IPC: 0.63273 (Simulation time: 0 hr 16 min 13 sec) 
Heartbeat CPU  0 instructions:  441000001 cycles:  589665977 heartbeat IPC: 0.58968 cumulative IPC: 0.63259 (Simulation time: 0 hr 16 min 15 sec) 
Heartbeat CPU  0 instructions:  442000001 cycles:  591360105 heartbeat IPC: 0.59027 cumulative IPC: 0.63246 (Simulation time: 0 hr 16 min 18 sec) 
Heartbeat CPU  0 instructions:  443000003 cycles:  593052561 heartbeat IPC: 0.59086 cumulative IPC: 0.63233 (Simulation time: 0 hr 16 min 20 sec) 
Heartbeat CPU  0 instructions:  444000000 cycles:  594744624 heartbeat IPC: 0.59099 cumulative IPC: 0.63220 (Simulation time: 0 hr 16 min 22 sec) 
Heartbeat CPU  0 instructions:  445000001 cycles:  596439467 heartbeat IPC: 0.59003 cumulative IPC: 0.63207 (Simulation time: 0 hr 16 min 25 sec) 
Heartbeat CPU  0 instructions:  446000001 cycles:  598126704 heartbeat IPC: 0.59268 cumulative IPC: 0.63195 (Simulation time: 0 hr 16 min 27 sec) 
Heartbeat CPU  0 instructions:  447000000 cycles:  599815150 heartbeat IPC: 0.59226 cumulative IPC: 0.63183 (Simulation time: 0 hr 16 min 30 sec) 
Heartbeat CPU  0 instructions:  448000000 cycles:  601511278 heartbeat IPC: 0.58958 cumulative IPC: 0.63170 (Simulation time: 0 hr 16 min 32 sec) 
Heartbeat CPU  0 instructions:  449000003 cycles:  603196011 heartbeat IPC: 0.59357 cumulative IPC: 0.63158 (Simulation time: 0 hr 16 min 34 sec) 
Heartbeat CPU  0 instructions:  450000002 cycles:  604895701 heartbeat IPC: 0.58834 cumulative IPC: 0.63145 (Simulation time: 0 hr 16 min 37 sec) 
Heartbeat CPU  0 instructions:  451000000 cycles:  606582943 heartbeat IPC: 0.59268 cumulative IPC: 0.63133 (Simulation time: 0 hr 16 min 39 sec) 
Heartbeat CPU  0 instructions:  452000000 cycles:  608282204 heartbeat IPC: 0.58849 cumulative IPC: 0.63120 (Simulation time: 0 hr 16 min 42 sec) 
Heartbeat CPU  0 instructions:  453000003 cycles:  609965203 heartbeat IPC: 0.59418 cumulative IPC: 0.63109 (Simulation time: 0 hr 16 min 44 sec) 
Heartbeat CPU  0 instructions:  454000000 cycles:  611657079 heartbeat IPC: 0.59106 cumulative IPC: 0.63097 (Simulation time: 0 hr 16 min 47 sec) 
Heartbeat CPU  0 instructions:  455000002 cycles:  613350753 heartbeat IPC: 0.59043 cumulative IPC: 0.63085 (Simulation time: 0 hr 16 min 49 sec) 
Heartbeat CPU  0 instructions:  456000000 cycles:  615042750 heartbeat IPC: 0.59102 cumulative IPC: 0.63073 (Simulation time: 0 hr 16 min 52 sec) 
Heartbeat CPU  0 instructions:  457000000 cycles:  616733790 heartbeat IPC: 0.59135 cumulative IPC: 0.63061 (Simulation time: 0 hr 16 min 54 sec) 
Heartbeat CPU  0 instructions:  458000002 cycles:  618430123 heartbeat IPC: 0.58951 cumulative IPC: 0.63049 (Simulation time: 0 hr 16 min 57 sec) 
Heartbeat CPU  0 instructions:  459000003 cycles:  620125072 heartbeat IPC: 0.58999 cumulative IPC: 0.63037 (Simulation time: 0 hr 16 min 59 sec) 
Heartbeat CPU  0 instructions:  460000000 cycles:  622066583 heartbeat IPC: 0.51506 cumulative IPC: 0.62997 (Simulation time: 0 hr 17 min 2 sec) 
Heartbeat CPU  0 instructions:  461000000 cycles:  624599689 heartbeat IPC: 0.39477 cumulative IPC: 0.62894 (Simulation time: 0 hr 17 min 4 sec) 
Heartbeat CPU  0 instructions:  462000000 cycles:  627131578 heartbeat IPC: 0.39496 cumulative IPC: 0.62791 (Simulation time: 0 hr 17 min 7 sec) 
Heartbeat CPU  0 instructions:  463000001 cycles:  629669548 heartbeat IPC: 0.39402 cumulative IPC: 0.62688 (Simulation time: 0 hr 17 min 9 sec) 
Heartbeat CPU  0 instructions:  464000000 cycles:  632212726 heartbeat IPC: 0.39321 cumulative IPC: 0.62586 (Simulation time: 0 hr 17 min 12 sec) 
Heartbeat CPU  0 instructions:  465000002 cycles:  634760108 heartbeat IPC: 0.39256 cumulative IPC: 0.62484 (Simulation time: 0 hr 17 min 15 sec) 
Heartbeat CPU  0 instructions:  466000000 cycles:  637313893 heartbeat IPC: 0.39157 cumulative IPC: 0.62383 (Simulation time: 0 hr 17 min 17 sec) 
Heartbeat CPU  0 instructions:  467000001 cycles:  639860025 heartbeat IPC: 0.39275 cumulative IPC: 0.62283 (Simulation time: 0 hr 17 min 20 sec) 
Heartbeat CPU  0 instructions:  468000000 cycles:  642406104 heartbeat IPC: 0.39276 cumulative IPC: 0.62184 (Simulation time: 0 hr 17 min 22 sec) 
Heartbeat CPU  0 instructions:  469000003 cycles:  644971194 heartbeat IPC: 0.38985 cumulative IPC: 0.62084 (Simulation time: 0 hr 17 min 25 sec) 
Heartbeat CPU  0 instructions:  470000001 cycles:  647547076 heartbeat IPC: 0.38822 cumulative IPC: 0.61984 (Simulation time: 0 hr 17 min 28 sec) 
Heartbeat CPU  0 instructions:  471000003 cycles:  650106929 heartbeat IPC: 0.39065 cumulative IPC: 0.61886 (Simulation time: 0 hr 17 min 30 sec) 
Heartbeat CPU  0 instructions:  472000000 cycles:  652573651 heartbeat IPC: 0.40540 cumulative IPC: 0.61798 (Simulation time: 0 hr 17 min 33 sec) 
Heartbeat CPU  0 instructions:  473000002 cycles:  655044346 heartbeat IPC: 0.40475 cumulative IPC: 0.61711 (Simulation time: 0 hr 17 min 35 sec) 
Heartbeat CPU  0 instructions:  474000001 cycles:  657517773 heartbeat IPC: 0.40430 cumulative IPC: 0.61624 (Simulation time: 0 hr 17 min 38 sec) 
Heartbeat CPU  0 instructions:  475000002 cycles:  659983939 heartbeat IPC: 0.40549 cumulative IPC: 0.61539 (Simulation time: 0 hr 17 min 41 sec) 
Heartbeat CPU  0 instructions:  476000000 cycles:  662448283 heartbeat IPC: 0.40579 cumulative IPC: 0.61455 (Simulation time: 0 hr 17 min 43 sec) 
Heartbeat CPU  0 instructions:  477000002 cycles:  664916287 heartbeat IPC: 0.40519 cumulative IPC: 0.61370 (Simulation time: 0 hr 17 min 46 sec) 
Heartbeat CPU  0 instructions:  478000000 cycles:  667441366 heartbeat IPC: 0.39603 cumulative IPC: 0.61281 (Simulation time: 0 hr 17 min 48 sec) 
Heartbeat CPU  0 instructions:  479000002 cycles:  670041492 heartbeat IPC: 0.38460 cumulative IPC: 0.61186 (Simulation time: 0 hr 17 min 51 sec) 
Heartbeat CPU  0 instructions:  480000000 cycles:  672599248 heartbeat IPC: 0.39097 cumulative IPC: 0.61095 (Simulation time: 0 hr 17 min 54 sec) 
Heartbeat CPU  0 instructions:  481000003 cycles:  675116112 heartbeat IPC: 0.39732 cumulative IPC: 0.61009 (Simulation time: 0 hr 17 min 56 sec) 
Heartbeat CPU  0 instructions:  482000003 cycles:  677625559 heartbeat IPC: 0.39849 cumulative IPC: 0.60924 (Simulation time: 0 hr 17 min 59 sec) 
Heartbeat CPU  0 instructions:  483000003 cycles:  680147160 heartbeat IPC: 0.39657 cumulative IPC: 0.60839 (Simulation time: 0 hr 18 min 1 sec) 
Heartbeat CPU  0 instructions:  484000000 cycles:  682656718 heartbeat IPC: 0.39848 cumulative IPC: 0.60755 (Simulation time: 0 hr 18 min 4 sec) 
Heartbeat CPU  0 instructions:  485000002 cycles:  685152941 heartbeat IPC: 0.40061 cumulative IPC: 0.60674 (Simulation time: 0 hr 18 min 7 sec) 
Heartbeat CPU  0 instructions:  486000000 cycles:  687659132 heartbeat IPC: 0.39901 cumulative IPC: 0.60592 (Simulation time: 0 hr 18 min 9 sec) 
Heartbeat CPU  0 instructions:  487000000 cycles:  689862298 heartbeat IPC: 0.45389 cumulative IPC: 0.60540 (Simulation time: 0 hr 18 min 12 sec) 
Heartbeat CPU  0 instructions:  488000000 cycles:  692099749 heartbeat IPC: 0.44694 cumulative IPC: 0.60485 (Simulation time: 0 hr 18 min 15 sec) 
Heartbeat CPU  0 instructions:  489000000 cycles:  694351187 heartbeat IPC: 0.44416 cumulative IPC: 0.60428 (Simulation time: 0 hr 18 min 18 sec) 
Heartbeat CPU  0 instructions:  490000003 cycles:  696393177 heartbeat IPC: 0.48972 cumulative IPC: 0.60392 (Simulation time: 0 hr 18 min 21 sec) 
Heartbeat CPU  0 instructions:  491000003 cycles:  698496359 heartbeat IPC: 0.47547 cumulative IPC: 0.60351 (Simulation time: 0 hr 18 min 24 sec) 
Heartbeat CPU  0 instructions:  492000000 cycles:  700500689 heartbeat IPC: 0.49892 cumulative IPC: 0.60318 (Simulation time: 0 hr 18 min 26 sec) 
Heartbeat CPU  0 instructions:  493000001 cycles:  702574128 heartbeat IPC: 0.48229 cumulative IPC: 0.60280 (Simulation time: 0 hr 18 min 29 sec) 
Heartbeat CPU  0 instructions:  494000000 cycles:  704581357 heartbeat IPC: 0.49820 cumulative IPC: 0.60248 (Simulation time: 0 hr 18 min 32 sec) 
Heartbeat CPU  0 instructions:  495000000 cycles:  706639346 heartbeat IPC: 0.48591 cumulative IPC: 0.60211 (Simulation time: 0 hr 18 min 35 sec) 
Heartbeat CPU  0 instructions:  496000000 cycles:  708650305 heartbeat IPC: 0.49728 cumulative IPC: 0.60179 (Simulation time: 0 hr 18 min 37 sec) 
Heartbeat CPU  0 instructions:  497000002 cycles:  710671592 heartbeat IPC: 0.49474 cumulative IPC: 0.60146 (Simulation time: 0 hr 18 min 40 sec) 
Heartbeat CPU  0 instructions:  498000001 cycles:  712720863 heartbeat IPC: 0.48798 cumulative IPC: 0.60111 (Simulation time: 0 hr 18 min 43 sec) 
Heartbeat CPU  0 instructions:  499000000 cycles:  714756942 heartbeat IPC: 0.49114 cumulative IPC: 0.60077 (Simulation time: 0 hr 18 min 46 sec) 
Heartbeat CPU  0 instructions:  500000000 cycles:  716810634 heartbeat IPC: 0.48693 cumulative IPC: 0.60042 (Simulation time: 0 hr 18 min 49 sec) 
Heartbeat CPU  0 instructions:  501000003 cycles:  718836291 heartbeat IPC: 0.49367 cumulative IPC: 0.60010 (Simulation time: 0 hr 18 min 51 sec) 
Heartbeat CPU  0 instructions:  502000000 cycles:  720906820 heartbeat IPC: 0.48297 cumulative IPC: 0.59974 (Simulation time: 0 hr 18 min 54 sec) 
Heartbeat CPU  0 instructions:  503000000 cycles:  722890465 heartbeat IPC: 0.50412 cumulative IPC: 0.59946 (Simulation time: 0 hr 18 min 57 sec) 
Heartbeat CPU  0 instructions:  504000000 cycles:  724979949 heartbeat IPC: 0.47859 cumulative IPC: 0.59908 (Simulation time: 0 hr 19 min 0 sec) 
Heartbeat CPU  0 instructions:  505000000 cycles:  726948975 heartbeat IPC: 0.50787 cumulative IPC: 0.59882 (Simulation time: 0 hr 19 min 2 sec) 
Heartbeat CPU  0 instructions:  506000003 cycles:  729066331 heartbeat IPC: 0.47229 cumulative IPC: 0.59842 (Simulation time: 0 hr 19 min 5 sec) 
Heartbeat CPU  0 instructions:  507000002 cycles:  731032986 heartbeat IPC: 0.50848 cumulative IPC: 0.59816 (Simulation time: 0 hr 19 min 8 sec) 
Heartbeat CPU  0 instructions:  508000000 cycles:  733159729 heartbeat IPC: 0.47020 cumulative IPC: 0.59776 (Simulation time: 0 hr 19 min 11 sec) 
Heartbeat CPU  0 instructions:  509000001 cycles:  735149113 heartbeat IPC: 0.50267 cumulative IPC: 0.59749 (Simulation time: 0 hr 19 min 13 sec) 
Heartbeat CPU  0 instructions:  510000000 cycles:  737272762 heartbeat IPC: 0.47089 cumulative IPC: 0.59709 (Simulation time: 0 hr 19 min 16 sec) 
Heartbeat CPU  0 instructions:  511000001 cycles:  739224334 heartbeat IPC: 0.51241 cumulative IPC: 0.59685 (Simulation time: 0 hr 19 min 19 sec) 
Heartbeat CPU  0 instructions:  512000000 cycles:  741371817 heartbeat IPC: 0.46566 cumulative IPC: 0.59645 (Simulation time: 0 hr 19 min 22 sec) 
Heartbeat CPU  0 instructions:  513000000 cycles:  743384554 heartbeat IPC: 0.49684 cumulative IPC: 0.59616 (Simulation time: 0 hr 19 min 25 sec) 
Heartbeat CPU  0 instructions:  514000000 cycles:  745554458 heartbeat IPC: 0.46085 cumulative IPC: 0.59573 (Simulation time: 0 hr 19 min 27 sec) 
Heartbeat CPU  0 instructions:  515000003 cycles:  747569344 heartbeat IPC: 0.49631 cumulative IPC: 0.59545 (Simulation time: 0 hr 19 min 30 sec) 
Heartbeat CPU  0 instructions:  516000000 cycles:  749689058 heartbeat IPC: 0.47176 cumulative IPC: 0.59507 (Simulation time: 0 hr 19 min 33 sec) 
Heartbeat CPU  0 instructions:  517000001 cycles:  751697675 heartbeat IPC: 0.49786 cumulative IPC: 0.59479 (Simulation time: 0 hr 19 min 36 sec) 
Heartbeat CPU  0 instructions:  518000001 cycles:  753789324 heartbeat IPC: 0.47809 cumulative IPC: 0.59445 (Simulation time: 0 hr 19 min 39 sec) 
Heartbeat CPU  0 instructions:  519000000 cycles:  755849173 heartbeat IPC: 0.48547 cumulative IPC: 0.59413 (Simulation time: 0 hr 19 min 41 sec) 
Heartbeat CPU  0 instructions:  520000000 cycles:  757945492 heartbeat IPC: 0.47703 cumulative IPC: 0.59378 (Simulation time: 0 hr 19 min 44 sec) 
Heartbeat CPU  0 instructions:  521000002 cycles:  760097896 heartbeat IPC: 0.46460 cumulative IPC: 0.59339 (Simulation time: 0 hr 19 min 47 sec) 
Heartbeat CPU  0 instructions:  522000002 cycles:  762275020 heartbeat IPC: 0.45932 cumulative IPC: 0.59298 (Simulation time: 0 hr 19 min 50 sec) 
Heartbeat CPU  0 instructions:  523000001 cycles:  764448060 heartbeat IPC: 0.46018 cumulative IPC: 0.59258 (Simulation time: 0 hr 19 min 53 sec) 
Heartbeat CPU  0 instructions:  524000000 cycles:  766421155 heartbeat IPC: 0.50682 cumulative IPC: 0.59234 (Simulation time: 0 hr 19 min 56 sec) 
Heartbeat CPU  0 instructions:  525000000 cycles:  768118138 heartbeat IPC: 0.58928 cumulative IPC: 0.59233 (Simulation time: 0 hr 19 min 58 sec) 
Heartbeat CPU  0 instructions:  526000001 cycles:  769812896 heartbeat IPC: 0.59006 cumulative IPC: 0.59233 (Simulation time: 0 hr 20 min 1 sec) 
Heartbeat CPU  0 instructions:  527000001 cycles:  771516951 heartbeat IPC: 0.58684 cumulative IPC: 0.59231 (Simulation time: 0 hr 20 min 3 sec) 
Heartbeat CPU  0 instructions:  528000000 cycles:  773217891 heartbeat IPC: 0.58791 cumulative IPC: 0.59230 (Simulation time: 0 hr 20 min 5 sec) 
Heartbeat CPU  0 instructions:  529000003 cycles:  774891025 heartbeat IPC: 0.59768 cumulative IPC: 0.59232 (Simulation time: 0 hr 20 min 8 sec) 
Heartbeat CPU  0 instructions:  530000002 cycles:  776455402 heartbeat IPC: 0.63923 cumulative IPC: 0.59242 (Simulation time: 0 hr 20 min 10 sec) 
Heartbeat CPU  0 instructions:  531000001 cycles:  777975177 heartbeat IPC: 0.65799 cumulative IPC: 0.59255 (Simulation time: 0 hr 20 min 13 sec) 
Heartbeat CPU  0 instructions:  532000000 cycles:  779518686 heartbeat IPC: 0.64787 cumulative IPC: 0.59267 (Simulation time: 0 hr 20 min 15 sec) 
Heartbeat CPU  0 instructions:  533000003 cycles:  781052359 heartbeat IPC: 0.65203 cumulative IPC: 0.59280 (Simulation time: 0 hr 20 min 17 sec) 
Heartbeat CPU  0 instructions:  534000001 cycles:  782599194 heartbeat IPC: 0.64648 cumulative IPC: 0.59291 (Simulation time: 0 hr 20 min 19 sec) 
Heartbeat CPU  0 instructions:  535000000 cycles:  784166060 heartbeat IPC: 0.63822 cumulative IPC: 0.59301 (Simulation time: 0 hr 20 min 22 sec) 
Heartbeat CPU  0 instructions:  536000000 cycles:  785696494 heartbeat IPC: 0.65341 cumulative IPC: 0.59313 (Simulation time: 0 hr 20 min 24 sec) 
Heartbeat CPU  0 instructions:  537000003 cycles:  787144624 heartbeat IPC: 0.69055 cumulative IPC: 0.59332 (Simulation time: 0 hr 20 min 26 sec) 
Heartbeat CPU  0 instructions:  538000003 cycles:  788513319 heartbeat IPC: 0.73062 cumulative IPC: 0.59358 (Simulation time: 0 hr 20 min 29 sec) 
Heartbeat CPU  0 instructions:  539000001 cycles:  789822225 heartbeat IPC: 0.76400 cumulative IPC: 0.59388 (Simulation time: 0 hr 20 min 31 sec) 
Heartbeat CPU  0 instructions:  540000000 cycles:  791226682 heartbeat IPC: 0.71202 cumulative IPC: 0.59410 (Simulation time: 0 hr 20 min 33 sec) 
Heartbeat CPU  0 instructions:  541000003 cycles:  792634412 heartbeat IPC: 0.71037 cumulative IPC: 0.59432 (Simulation time: 0 hr 20 min 35 sec) 
Heartbeat CPU  0 instructions:  542000000 cycles:  794013110 heartbeat IPC: 0.72532 cumulative IPC: 0.59457 (Simulation time: 0 hr 20 min 38 sec) 
Heartbeat CPU  0 instructions:  543000000 cycles:  795396767 heartbeat IPC: 0.72272 cumulative IPC: 0.59480 (Simulation time: 0 hr 20 min 40 sec) 
Heartbeat CPU  0 instructions:  544000000 cycles:  796829517 heartbeat IPC: 0.69796 cumulative IPC: 0.59500 (Simulation time: 0 hr 20 min 42 sec) 
Heartbeat CPU  0 instructions:  545000003 cycles:  798461296 heartbeat IPC: 0.61283 cumulative IPC: 0.59504 (Simulation time: 0 hr 20 min 44 sec) 
Heartbeat CPU  0 instructions:  546000002 cycles:  800037513 heartbeat IPC: 0.63443 cumulative IPC: 0.59512 (Simulation time: 0 hr 20 min 47 sec) 
Heartbeat CPU  0 instructions:  547000002 cycles:  801556472 heartbeat IPC: 0.65835 cumulative IPC: 0.59525 (Simulation time: 0 hr 20 min 49 sec) 
Heartbeat CPU  0 instructions:  548000000 cycles:  802987338 heartbeat IPC: 0.69888 cumulative IPC: 0.59545 (Simulation time: 0 hr 20 min 51 sec) 
Heartbeat CPU  0 instructions:  549000003 cycles:  804420767 heartbeat IPC: 0.69763 cumulative IPC: 0.59564 (Simulation time: 0 hr 20 min 54 sec) 
Heartbeat CPU  0 instructions:  550000000 cycles:  805849107 heartbeat IPC: 0.70011 cumulative IPC: 0.59584 (Simulation time: 0 hr 20 min 56 sec) 
Heartbeat CPU  0 instructions:  551000000 cycles:  807267484 heartbeat IPC: 0.70503 cumulative IPC: 0.59605 (Simulation time: 0 hr 20 min 58 sec) 
Heartbeat CPU  0 instructions:  552000000 cycles:  808643920 heartbeat IPC: 0.72651 cumulative IPC: 0.59628 (Simulation time: 0 hr 21 min 1 sec) 
Heartbeat CPU  0 instructions:  553000000 cycles:  810069953 heartbeat IPC: 0.70125 cumulative IPC: 0.59648 (Simulation time: 0 hr 21 min 3 sec) 
Heartbeat CPU  0 instructions:  554000000 cycles:  811529422 heartbeat IPC: 0.68518 cumulative IPC: 0.59665 (Simulation time: 0 hr 21 min 5 sec) 
Heartbeat CPU  0 instructions:  555000001 cycles:  813234372 heartbeat IPC: 0.58653 cumulative IPC: 0.59663 (Simulation time: 0 hr 21 min 7 sec) 
Heartbeat CPU  0 instructions:  556000000 cycles:  814851883 heartbeat IPC: 0.61823 cumulative IPC: 0.59667 (Simulation time: 0 hr 21 min 10 sec) 
Heartbeat CPU  0 instructions:  557000000 cycles:  816408365 heartbeat IPC: 0.64247 cumulative IPC: 0.59677 (Simulation time: 0 hr 21 min 12 sec) 
Heartbeat CPU  0 instructions:  558000000 cycles:  817917458 heartbeat IPC: 0.66265 cumulative IPC: 0.59690 (Simulation time: 0 hr 21 min 14 sec) 
Heartbeat CPU  0 instructions:  559000000 cycles:  819398937 heartbeat IPC: 0.67500 cumulative IPC: 0.59705 (Simulation time: 0 hr 21 min 17 sec) 
Heartbeat CPU  0 instructions:  560000000 cycles:  820887211 heartbeat IPC: 0.67192 cumulative IPC: 0.59719 (Simulation time: 0 hr 21 min 19 sec) 
Heartbeat CPU  0 instructions:  561000001 cycles:  822325919 heartbeat IPC: 0.69507 cumulative IPC: 0.59737 (Simulation time: 0 hr 21 min 21 sec) 
Heartbeat CPU  0 instructions:  562000003 cycles:  823741215 heartbeat IPC: 0.70657 cumulative IPC: 0.59757 (Simulation time: 0 hr 21 min 24 sec) 
Heartbeat CPU  0 instructions:  563000000 cycles:  825143912 heartbeat IPC: 0.71291 cumulative IPC: 0.59778 (Simulation time: 0 hr 21 min 26 sec) 
Heartbeat CPU  0 instructions:  564000000 cycles:  826517696 heartbeat IPC: 0.72792 cumulative IPC: 0.59801 (Simulation time: 0 hr 21 min 28 sec) 
Heartbeat CPU  0 instructions:  565000003 cycles:  828196271 heartbeat IPC: 0.59575 cumulative IPC: 0.59801 (Simulation time: 0 hr 21 min 30 sec) 
Heartbeat CPU  0 instructions:  566000003 cycles:  829894525 heartbeat IPC: 0.58884 cumulative IPC: 0.59799 (Simulation time: 0 hr 21 min 33 sec) 
Heartbeat CPU  0 instructions:  567000001 cycles:  831482714 heartbeat IPC: 0.62965 cumulative IPC: 0.59805 (Simulation time: 0 hr 21 min 35 sec) 
Heartbeat CPU  0 instructions:  568000000 cycles:  833020736 heartbeat IPC: 0.65019 cumulative IPC: 0.59815 (Simulation time: 0 hr 21 min 38 sec) 
Heartbeat CPU  0 instructions:  569000002 cycles:  834541226 heartbeat IPC: 0.65768 cumulative IPC: 0.59827 (Simulation time: 0 hr 21 min 40 sec) 
Heartbeat CPU  0 instructions:  570000001 cycles:  836065995 heartbeat IPC: 0.65584 cumulative IPC: 0.59838 (Simulation time: 0 hr 21 min 42 sec) 
Heartbeat CPU  0 instructions:  571000002 cycles:  837576519 heartbeat IPC: 0.66202 cumulative IPC: 0.59850 (Simulation time: 0 hr 21 min 45 sec) 
Heartbeat CPU  0 instructions:  572000000 cycles:  838991268 heartbeat IPC: 0.70684 cumulative IPC: 0.59870 (Simulation time: 0 hr 21 min 47 sec) 
Heartbeat CPU  0 instructions:  573000001 cycles:  840385782 heartbeat IPC: 0.71710 cumulative IPC: 0.59891 (Simulation time: 0 hr 21 min 49 sec) 
Heartbeat CPU  0 instructions:  574000003 cycles:  841778395 heartbeat IPC: 0.71808 cumulative IPC: 0.59912 (Simulation time: 0 hr 21 min 51 sec) 
Heartbeat CPU  0 instructions:  575000000 cycles:  843280077 heartbeat IPC: 0.66592 cumulative IPC: 0.59924 (Simulation time: 0 hr 21 min 54 sec) 
Heartbeat CPU  0 instructions:  576000000 cycles:  845034803 heartbeat IPC: 0.56989 cumulative IPC: 0.59918 (Simulation time: 0 hr 21 min 56 sec) 
Heartbeat CPU  0 instructions:  577000000 cycles:  846628590 heartbeat IPC: 0.62744 cumulative IPC: 0.59924 (Simulation time: 0 hr 21 min 58 sec) 
Heartbeat CPU  0 instructions:  578000002 cycles:  848214227 heartbeat IPC: 0.63066 cumulative IPC: 0.59930 (Simulation time: 0 hr 22 min 1 sec) 
Heartbeat CPU  0 instructions:  579000001 cycles:  849794104 heartbeat IPC: 0.63296 cumulative IPC: 0.59936 (Simulation time: 0 hr 22 min 3 sec) 
Heartbeat CPU  0 instructions:  580000000 cycles:  851360555 heartbeat IPC: 0.63839 cumulative IPC: 0.59944 (Simulation time: 0 hr 22 min 5 sec) 
Heartbeat CPU  0 instructions:  581000002 cycles:  852936838 heartbeat IPC: 0.63441 cumulative IPC: 0.59951 (Simulation time: 0 hr 22 min 8 sec) 
Heartbeat CPU  0 instructions:  582000000 cycles:  854360861 heartbeat IPC: 0.70223 cumulative IPC: 0.59969 (Simulation time: 0 hr 22 min 10 sec) 
Heartbeat CPU  0 instructions:  583000003 cycles:  855770437 heartbeat IPC: 0.70944 cumulative IPC: 0.59988 (Simulation time: 0 hr 22 min 12 sec) 
Heartbeat CPU  0 instructions:  584000000 cycles:  857180791 heartbeat IPC: 0.70904 cumulative IPC: 0.60007 (Simulation time: 0 hr 22 min 15 sec) 
Heartbeat CPU  0 instructions:  585000002 cycles:  858574044 heartbeat IPC: 0.71775 cumulative IPC: 0.60028 (Simulation time: 0 hr 22 min 17 sec) 
Heartbeat CPU  0 instructions:  586000003 cycles:  860283246 heartbeat IPC: 0.58507 cumulative IPC: 0.60025 (Simulation time: 0 hr 22 min 19 sec) 
Heartbeat CPU  0 instructions:  587000001 cycles:  861975542 heartbeat IPC: 0.59091 cumulative IPC: 0.60023 (Simulation time: 0 hr 22 min 21 sec) 
Heartbeat CPU  0 instructions:  588000000 cycles:  863560850 heartbeat IPC: 0.63079 cumulative IPC: 0.60029 (Simulation time: 0 hr 22 min 24 sec) 
Heartbeat CPU  0 instructions:  589000002 cycles:  865141553 heartbeat IPC: 0.63263 cumulative IPC: 0.60035 (Simulation time: 0 hr 22 min 26 sec) 
Heartbeat CPU  0 instructions:  590000001 cycles:  866723361 heartbeat IPC: 0.63219 cumulative IPC: 0.60041 (Simulation time: 0 hr 22 min 29 sec) 
Heartbeat CPU  0 instructions:  591000002 cycles:  868290348 heartbeat IPC: 0.63817 cumulative IPC: 0.60048 (Simulation time: 0 hr 22 min 31 sec) 
Heartbeat CPU  0 instructions:  592000000 cycles:  869825979 heartbeat IPC: 0.65120 cumulative IPC: 0.60058 (Simulation time: 0 hr 22 min 33 sec) 
Heartbeat CPU  0 instructions:  593000003 cycles:  871245512 heartbeat IPC: 0.70446 cumulative IPC: 0.60076 (Simulation time: 0 hr 22 min 35 sec) 
Heartbeat CPU  0 instructions:  594000000 cycles:  872630768 heartbeat IPC: 0.72189 cumulative IPC: 0.60096 (Simulation time: 0 hr 22 min 38 sec) 
Heartbeat CPU  0 instructions:  595000003 cycles:  874007010 heartbeat IPC: 0.72662 cumulative IPC: 0.60117 (Simulation time: 0 hr 22 min 40 sec) 
Heartbeat CPU  0 instructions:  596000000 cycles:  875554220 heartbeat IPC: 0.64632 cumulative IPC: 0.60126 (Simulation time: 0 hr 22 min 42 sec) 
Heartbeat CPU  0 instructions:  597000001 cycles:  877257277 heartbeat IPC: 0.58718 cumulative IPC: 0.60123 (Simulation time: 0 hr 22 min 45 sec) 
Heartbeat CPU  0 instructions:  598000002 cycles:  878862695 heartbeat IPC: 0.62289 cumulative IPC: 0.60127 (Simulation time: 0 hr 22 min 47 sec) 
Heartbeat CPU  0 instructions:  599000000 cycles:  880428822 heartbeat IPC: 0.63852 cumulative IPC: 0.60134 (Simulation time: 0 hr 22 min 49 sec) 
Heartbeat CPU  0 instructions:  600000000 cycles:  881998955 heartbeat IPC: 0.63689 cumulative IPC: 0.60141 (Simulation time: 0 hr 22 min 52 sec) 
Finished CPU 0 instructions: 500000001 cycles: 831384454 cumulative IPC: 0.60141 (Simulation time: 0 hr 22 min 52 sec) 

ChampSim completed all CPUs

[ROI Statistics]
Core_0_instructions 500000001
Core_0_cycles 831384454
Core_0_IPC 0.60141

Core_0_branch_prediction_accuracy 99.14585
Core_0_branch_MPKI 0.18961
Core_0_average_ROB_occupancy_at_mispredict 244.15231

Core_0_L1D_total_access 145558050
Core_0_L1D_total_hit 140706926
Core_0_L1D_total_miss 4851124
Core_0_L1D_loads 133987660
Core_0_L1D_load_hit 130527427
Core_0_L1D_load_miss 3460233
Core_0_L1D_RFOs 11570390
Core_0_L1D_RFO_hit 10179499
Core_0_L1D_RFO_miss 1390891
Core_0_L1D_prefetches 0
Core_0_L1D_prefetch_hit 0
Core_0_L1D_prefetch_miss 0
Core_0_L1D_writebacks 0
Core_0_L1D_writeback_hit 0
Core_0_L1D_writeback_miss 0
Core_0_L1D_prefetch_requested 0
Core_0_L1D_prefetch_dropped 0
Core_0_L1D_prefetch_issued 0
Core_0_L1D_prefetch_filled 0
Core_0_L1D_prefetch_useful 0
Core_0_L1D_prefetch_useless 0
Core_0_L1D_prefetch_late 0
Core_0_L1D_average_miss_latency 198.40843

Core_0_L1D_rq_access 196244203
Core_0_L1D_rq_forward 0
Core_0_L1D_rq_merged 60036760
Core_0_L1D_rq_to_cache 136207443
Core_0_L1D_rq_full 0

Core_0_L1D_wq_access 15647860
Core_0_L1D_wq_forward 0
Core_0_L1D_wq_merged 1
Core_0_L1D_wq_to_cache 15647859
Core_0_L1D_wq_full 848903

Core_0_L1D_pq_access 0
Core_0_L1D_pq_forward 0
Core_0_L1D_pq_merged 0
Core_0_L1D_pq_to_cache 0
Core_0_L1D_pq_full 0

Core_0_L1D_acc_epochs 855652
Core_0_L1D_acc_level_0 855652
Core_0_L1D_acc_level_1 0
Core_0_L1D_acc_level_2 0
Core_0_L1D_acc_level_3 0
Core_0_L1D_acc_level_4 0
Core_0_L1D_acc_level_5 0
Core_0_L1D_acc_level_6 0
Core_0_L1D_acc_level_7 0
Core_0_L1D_acc_level_8 0
Core_0_L1D_acc_level_9 0

Core_0_L1I_total_access 116637338
Core_0_L1I_total_hit 116636962
Core_0_L1I_total_miss 376
Core_0_L1I_loads 116637338
Core_0_L1I_load_hit 116636962
Core_0_L1I_load_miss 376
Core_0_L1I_RFOs 0
Core_0_L1I_RFO_hit 0
Core_0_L1I_RFO_miss 0
Core_0_L1I_prefetches 0
Core_0_L1I_prefetch_hit 0
Core_0_L1I_prefetch_miss 0
Core_0_L1I_writebacks 0
Core_0_L1I_writeback_hit 0
Core_0_L1I_writeback_miss 0
Core_0_L1I_prefetch_requested 0
Core_0_L1I_prefetch_dropped 0
Core_0_L1I_prefetch_issued 0
Core_0_L1I_prefetch_filled 0
Core_0_L1I_prefetch_useful 0
Core_0_L1I_prefetch_useless 0
Core_0_L1I_prefetch_late 0
Core_0_L1I_average_miss_latency 342.54787

Core_0_L1I_rq_access 500000000
Core_0_L1I_rq_forward 0
Core_0_L1I_rq_merged 383361605
Core_0_L1I_rq_to_cache 116638395
Core_0_L1I_rq_full 0

Core_0_L1I_wq_access 0
Core_0_L1I_wq_forward 0
Core_0_L1I_wq_merged 0
Core_0_L1I_wq_to_cache 0
Core_0_L1I_wq_full 0

Core_0_L1I_pq_access 0
Core_0_L1I_pq_forward 0
Core_0_L1I_pq_merged 0
Core_0_L1I_pq_to_cache 0
Core_0_L1I_pq_full 0

Core_0_L1I_acc_epochs 855652
Core_0_L1I_acc_level_0 855652
Core_0_L1I_acc_level_1 0
Core_0_L1I_acc_level_2 0
Core_0_L1I_acc_level_3 0
Core_0_L1I_acc_level_4 0
Core_0_L1I_acc_level_5 0
Core_0_L1I_acc_level_6 0
Core_0_L1I_acc_level_7 0
Core_0_L1I_acc_level_8 0
Core_0_L1I_acc_level_9 0

Core_0_L2C_total_access 6510173
Core_0_L2C_total_hit 2858642
Core_0_L2C_total_miss 3651531
Core_0_L2C_loads 3460584
Core_0_L2C_load_hit 838884
Core_0_L2C_load_miss 2621700
Core_0_L2C_RFOs 1390876
Core_0_L2C_RFO_hit 361118
Core_0_L2C_RFO_miss 1029758
Core_0_L2C_prefetches 0
Core_0_L2C_prefetch_hit 0
Core_0_L2C_prefetch_miss 0
Core_0_L2C_writebacks 1658713
Core_0_L2C_writeback_hit 1658640
Core_0_L2C_writeback_miss 73
Core_0_L2C_prefetch_requested 0
Core_0_L2C_prefetch_dropped 0
Core_0_L2C_prefetch_issued 0
Core_0_L2C_prefetch_filled 0
Core_0_L2C_prefetch_useful 0
Core_0_L2C_prefetch_useless 0
Core_0_L2C_prefetch_late 0
Core_0_L2C_average_miss_latency 244.60064

Core_0_L2C_rq_access 4851500
Core_0_L2C_rq_forward 0
Core_0_L2C_rq_merged 0
Core_0_L2C_rq_to_cache 4851460
Core_0_L2C_rq_full 0

Core_0_L2C_wq_access 1658713
Core_0_L2C_wq_forward 40
Core_0_L2C_wq_merged 0
Core_0_L2C_wq_to_cache 1658713
Core_0_L2C_wq_full 0

Core_0_L2C_pq_access 0
Core_0_L2C_pq_forward 0
Core_0_L2C_pq_merged 0
Core_0_L2C_pq_to_cache 0
Core_0_L2C_pq_full 0

Core_0_L2C_acc_epochs 855652
Core_0_L2C_acc_level_0 855652
Core_0_L2C_acc_level_1 0
Core_0_L2C_acc_level_2 0
Core_0_L2C_acc_level_3 0
Core_0_L2C_acc_level_4 0
Core_0_L2C_acc_level_5 0
Core_0_L2C_acc_level_6 0
Core_0_L2C_acc_level_7 0
Core_0_L2C_acc_level_8 0
Core_0_L2C_acc_level_9 0

Core_0_LLC_total_access 4760237
Core_0_LLC_total_hit 500687
Core_0_LLC_total_miss 4259550
Core_0_LLC_loads 2621700
Core_0_LLC_load_hit 111338
Core_0_LLC_load_miss 2510362
Core_0_LLC_RFOs 1029758
Core_0_LLC_RFO_hit 67518
Core_0_LLC_RFO_miss 962240
Core_0_LLC_prefetches 0
Core_0_LLC_prefetch_hit 0
Core_0_LLC_prefetch_miss 0
Core_0_LLC_writebacks 1108779
Core_0_LLC_writeback_hit 321831
Core_0_LLC_writeback_miss 786948
Core_0_LLC_prefetch_requested 0
Core_0_LLC_prefetch_dropped 0
Core_0_LLC_prefetch_issued 0
Core_0_LLC_prefetch_filled 0
Core_0_LLC_prefetch_useful 0
Core_0_LLC_prefetch_useless 0
Core_0_LLC_prefetch_late 0
Core_0_LLC_average_miss_latency 183.71031

Core_0_LLC_rq_access 3651458
Core_0_LLC_rq_forward 0
Core_0_LLC_rq_merged 0
Core_0_LLC_rq_to_cache 3651458
Core_0_LLC_rq_full 0

Core_0_LLC_wq_access 1108779
Core_0_LLC_wq_forward 0
Core_0_LLC_wq_merged 0
Core_0_LLC_wq_to_cache 1108779
Core_0_LLC_wq_full 0

Core_0_LLC_pq_access 0
Core_0_LLC_pq_forward 0
Core_0_LLC_pq_merged 0
Core_0_LLC_pq_to_cache 0
Core_0_LLC_pq_full 0

Core_0_LLC_acc_epochs 861328
Core_0_LLC_acc_level_0 861328
Core_0_LLC_acc_level_1 0
Core_0_LLC_acc_level_2 0
Core_0_LLC_acc_level_3 0
Core_0_LLC_acc_level_4 0
Core_0_LLC_acc_level_5 0
Core_0_LLC_acc_level_6 0
Core_0_LLC_acc_level_7 0
Core_0_LLC_acc_level_8 0
Core_0_LLC_acc_level_9 0

Core_0_major_page_fault 0
Core_0_minor_page_fault 19121

Channel_0_RQ_row_buffer_hit 753026
Channel_0_RQ_row_buffer_miss 2719546
Channel_0_WQ_row_buffer_hit 429167
Channel_0_WQ_row_buffer_miss 619949
Channel_0_WQ_full 0
Channel_0_dbus_congested 968934

avg_congested_cycle 17

DRAM_bw_pochs 3445309
DRAM_bw_level_0 2835749
DRAM_bw_level_1 507201
DRAM_bw_level_2 76620
DRAM_bw_level_3 25739
