*************************************************
   ChampSim Multicore Out-of-Order Simulator
   Last compiled: Dec 11 2024 17:59:53
*************************************************
parsing config file: /home/functionmain/桌面/Pythia/config/nopref.ini

trace_0 /home/functionmain/桌面/Pythia/traces/437.leslie3d-232B.champsimtrace.xz
adding L2C_PREFETCHER: NONE
Initialize SHIP state
warmup_instructions 100000000
simulation_instructions 500000000
champsim_seed 217
measure_ipc 0
measure_ipc_epoch 1000
measure_dram_bw 1
measure_dram_bw_epoch 256
measure_cache_acc 1
measure_cache_acc_epoch 1024
l1d_perfect 0
l2c_perfect 0
llc_perfect 0
l1d_semi_perfect 0
l2c_semi_perfect 0
llc_semi_perfect 0
semi_perfect_cache_page_buffer_size 64

num_cpus 1
cpu_freq 4000
dram_io_freq 4800
page_size 4096
block_size 64
max_read_per_cycle 8
max_fill_per_cycle 1
dram_channels 1
log2_dram_channels 0
dram_ranks 1
dram_banks 8
dram_rows 65536
dram_columns 128
dram_row_size 8
dram_size 4096
dram_pages 1048576

fetch_width 6
decode_width 6
exec_width 4
lq_width 2
sq_width 2
retire_width 4
scheduler_size 128
branch_mispredict_penalty 20
rob_size 256
lq_size 72
sq_size 56
num_instr_destinations_sparc 4
num_instr_destinations 2
num_instr_sources 4

itlb_set 16
itlb_way 8
itlb_rq_size 16
itlb_wq_size 16
itlb_pq_size 0
itlb_mshr_size 8
itlb_latency 1

dtlb_set 16
dtlb_way 4
dtlb_rq_size 16
dtlb_wq_size 16
dtlb_pq_size 0
dtlb_mshr_size 8
dtlb_latency 1

stlb_set 128
stlb_way 12
stlb_rq_size 32
stlb_wq_size 32
stlb_pq_size 0
stlb_mshr_size 16
stlb_latency 8

l1i_size 32
l1i_set 64
l1i_way 8
l1i_rq_size 64
l1i_wq_size 64
l1i_pq_size 8
l1i_mshr_size 8
l1i_latency 1

l1d_size 32
l1d_set 64
l1d_way 8
l1d_rq_size 64
l1d_wq_size 64
l1d_pq_size 8
l1d_mshr_size 16
l1d_latency 4

l2c_size 256
l2c_set 512
l2c_way 8
l2c_rq_size 32
l2c_wq_size 32
l2c_pq_size 32
l2c_mshr_size 32
l2c_latency 10

llc_size 2048
llc_set 2048
llc_way 16
llc_rq_size 32
llc_wq_size 32
llc_pq_size 32
llc_mshr_size 64
llc_latency 20

dram_channel_width 8
dram_wq_size 64
dram_rq_size 64
tRP 15
tRCD 15
tCAS 12.5
dram_dbus_turn_around_time 30
dram_write_high_wm 56
dram_write_low_wm 48
min_dram_writes_per_switch 16
dram_mtps 4800
dram_dbus_return_time 6


Heartbeat CPU  0 instructions:    1000000 cycles:     488175 heartbeat IPC: 2.04845 cumulative IPC: 2.04845 (Simulation time: 0 hr 0 min 1 sec) 
Heartbeat CPU  0 instructions:    2000001 cycles:     995179 heartbeat IPC: 1.97237 cumulative IPC: 2.00969 (Simulation time: 0 hr 0 min 3 sec) 
Heartbeat CPU  0 instructions:    3000003 cycles:    1550933 heartbeat IPC: 1.79936 cumulative IPC: 1.93432 (Simulation time: 0 hr 0 min 5 sec) 
Heartbeat CPU  0 instructions:    4000000 cycles:    2073909 heartbeat IPC: 1.91213 cumulative IPC: 1.92872 (Simulation time: 0 hr 0 min 7 sec) 
Heartbeat CPU  0 instructions:    5000002 cycles:    2561903 heartbeat IPC: 2.04921 cumulative IPC: 1.95167 (Simulation time: 0 hr 0 min 8 sec) 
Heartbeat CPU  0 instructions:    6000003 cycles:    3049484 heartbeat IPC: 2.05094 cumulative IPC: 1.96755 (Simulation time: 0 hr 0 min 10 sec) 
Heartbeat CPU  0 instructions:    7000001 cycles:    3537343 heartbeat IPC: 2.04977 cumulative IPC: 1.97889 (Simulation time: 0 hr 0 min 12 sec) 
Heartbeat CPU  0 instructions:    8000000 cycles:    4025245 heartbeat IPC: 2.04959 cumulative IPC: 1.98746 (Simulation time: 0 hr 0 min 14 sec) 
Heartbeat CPU  0 instructions:    9000000 cycles:    4513531 heartbeat IPC: 2.04798 cumulative IPC: 1.99400 (Simulation time: 0 hr 0 min 15 sec) 
Heartbeat CPU  0 instructions:   10000003 cycles:    5001900 heartbeat IPC: 2.04764 cumulative IPC: 1.99924 (Simulation time: 0 hr 0 min 17 sec) 
Heartbeat CPU  0 instructions:   11000000 cycles:    5490435 heartbeat IPC: 2.04693 cumulative IPC: 2.00348 (Simulation time: 0 hr 0 min 19 sec) 
Heartbeat CPU  0 instructions:   12000000 cycles:    5978549 heartbeat IPC: 2.04870 cumulative IPC: 2.00718 (Simulation time: 0 hr 0 min 21 sec) 
Heartbeat CPU  0 instructions:   13000001 cycles:    6523488 heartbeat IPC: 1.83507 cumulative IPC: 1.99280 (Simulation time: 0 hr 0 min 22 sec) 
Heartbeat CPU  0 instructions:   14000001 cycles:    7076920 heartbeat IPC: 1.80691 cumulative IPC: 1.97826 (Simulation time: 0 hr 0 min 24 sec) 
Heartbeat CPU  0 instructions:   15000000 cycles:    7564664 heartbeat IPC: 2.05025 cumulative IPC: 1.98290 (Simulation time: 0 hr 0 min 26 sec) 
Heartbeat CPU  0 instructions:   16000000 cycles:    8052612 heartbeat IPC: 2.04940 cumulative IPC: 1.98693 (Simulation time: 0 hr 0 min 28 sec) 
Heartbeat CPU  0 instructions:   17000003 cycles:    8540561 heartbeat IPC: 2.04940 cumulative IPC: 1.99050 (Simulation time: 0 hr 0 min 29 sec) 
Heartbeat CPU  0 instructions:   18000003 cycles:    9028618 heartbeat IPC: 2.04894 cumulative IPC: 1.99366 (Simulation time: 0 hr 0 min 31 sec) 
Heartbeat CPU  0 instructions:   19000001 cycles:    9516742 heartbeat IPC: 2.04866 cumulative IPC: 1.99648 (Simulation time: 0 hr 0 min 33 sec) 
Heartbeat CPU  0 instructions:   20000000 cycles:   10005291 heartbeat IPC: 2.04688 cumulative IPC: 1.99894 (Simulation time: 0 hr 0 min 35 sec) 
Heartbeat CPU  0 instructions:   21000000 cycles:   10493845 heartbeat IPC: 2.04686 cumulative IPC: 2.00117 (Simulation time: 0 hr 0 min 36 sec) 
Heartbeat CPU  0 instructions:   22000002 cycles:   10981862 heartbeat IPC: 2.04911 cumulative IPC: 2.00330 (Simulation time: 0 hr 0 min 38 sec) 
Heartbeat CPU  0 instructions:   23000002 cycles:   11495790 heartbeat IPC: 1.94580 cumulative IPC: 2.00073 (Simulation time: 0 hr 0 min 40 sec) 
Heartbeat CPU  0 instructions:   24000000 cycles:   12051931 heartbeat IPC: 1.79810 cumulative IPC: 1.99138 (Simulation time: 0 hr 0 min 41 sec) 
Heartbeat CPU  0 instructions:   25000001 cycles:   12566174 heartbeat IPC: 1.94461 cumulative IPC: 1.98947 (Simulation time: 0 hr 0 min 43 sec) 
Heartbeat CPU  0 instructions:   26000001 cycles:   13054456 heartbeat IPC: 2.04800 cumulative IPC: 1.99166 (Simulation time: 0 hr 0 min 45 sec) 
Heartbeat CPU  0 instructions:   27000000 cycles:   13542471 heartbeat IPC: 2.04912 cumulative IPC: 1.99373 (Simulation time: 0 hr 0 min 47 sec) 
Heartbeat CPU  0 instructions:   28000000 cycles:   14031002 heartbeat IPC: 2.04695 cumulative IPC: 1.99558 (Simulation time: 0 hr 0 min 48 sec) 
Heartbeat CPU  0 instructions:   29000002 cycles:   14519391 heartbeat IPC: 2.04755 cumulative IPC: 1.99733 (Simulation time: 0 hr 0 min 50 sec) 
Heartbeat CPU  0 instructions:   30000001 cycles:   15007994 heartbeat IPC: 2.04665 cumulative IPC: 1.99893 (Simulation time: 0 hr 0 min 52 sec) 
Heartbeat CPU  0 instructions:   31000001 cycles:   15495767 heartbeat IPC: 2.05013 cumulative IPC: 2.00055 (Simulation time: 0 hr 0 min 54 sec) 
Heartbeat CPU  0 instructions:   32000000 cycles:   15983503 heartbeat IPC: 2.05029 cumulative IPC: 2.00206 (Simulation time: 0 hr 0 min 55 sec) 
Heartbeat CPU  0 instructions:   33000002 cycles:   16471467 heartbeat IPC: 2.04934 cumulative IPC: 2.00346 (Simulation time: 0 hr 0 min 57 sec) 
Heartbeat CPU  0 instructions:   34000001 cycles:   17025132 heartbeat IPC: 1.80614 cumulative IPC: 1.99705 (Simulation time: 0 hr 0 min 59 sec) 
Heartbeat CPU  0 instructions:   35000001 cycles:   17570601 heartbeat IPC: 1.83328 cumulative IPC: 1.99196 (Simulation time: 0 hr 1 min 1 sec) 
Heartbeat CPU  0 instructions:   36000000 cycles:   18058603 heartbeat IPC: 2.04917 cumulative IPC: 1.99351 (Simulation time: 0 hr 1 min 2 sec) 
Heartbeat CPU  0 instructions:   37000003 cycles:   18547330 heartbeat IPC: 2.04614 cumulative IPC: 1.99490 (Simulation time: 0 hr 1 min 4 sec) 
Heartbeat CPU  0 instructions:   38000001 cycles:   19035699 heartbeat IPC: 2.04763 cumulative IPC: 1.99625 (Simulation time: 0 hr 1 min 6 sec) 
Heartbeat CPU  0 instructions:   39000002 cycles:   19523997 heartbeat IPC: 2.04793 cumulative IPC: 1.99754 (Simulation time: 0 hr 1 min 8 sec) 
Heartbeat CPU  0 instructions:   40000000 cycles:   20011591 heartbeat IPC: 2.05088 cumulative IPC: 1.99884 (Simulation time: 0 hr 1 min 9 sec) 
Heartbeat CPU  0 instructions:   41000001 cycles:   20499197 heartbeat IPC: 2.05084 cumulative IPC: 2.00008 (Simulation time: 0 hr 1 min 11 sec) 
Heartbeat CPU  0 instructions:   42000001 cycles:   20987050 heartbeat IPC: 2.04980 cumulative IPC: 2.00123 (Simulation time: 0 hr 1 min 13 sec) 
Heartbeat CPU  0 instructions:   43000001 cycles:   21475135 heartbeat IPC: 2.04882 cumulative IPC: 2.00232 (Simulation time: 0 hr 1 min 15 sec) 
Heartbeat CPU  0 instructions:   44000000 cycles:   21998034 heartbeat IPC: 1.91241 cumulative IPC: 2.00018 (Simulation time: 0 hr 1 min 16 sec) 
Heartbeat CPU  0 instructions:   45000000 cycles:   22555479 heartbeat IPC: 1.79390 cumulative IPC: 1.99508 (Simulation time: 0 hr 1 min 18 sec) 
Heartbeat CPU  0 instructions:   46000002 cycles:   23063076 heartbeat IPC: 1.97007 cumulative IPC: 1.99453 (Simulation time: 0 hr 1 min 20 sec) 
Heartbeat CPU  0 instructions:   47000002 cycles:   23551479 heartbeat IPC: 2.04749 cumulative IPC: 1.99563 (Simulation time: 0 hr 1 min 22 sec) 
Heartbeat CPU  0 instructions:   48000000 cycles:   24039394 heartbeat IPC: 2.04953 cumulative IPC: 1.99672 (Simulation time: 0 hr 1 min 23 sec) 
Heartbeat CPU  0 instructions:   49000002 cycles:   24527142 heartbeat IPC: 2.05024 cumulative IPC: 1.99779 (Simulation time: 0 hr 1 min 25 sec) 
Heartbeat CPU  0 instructions:   50000000 cycles:   25015211 heartbeat IPC: 2.04889 cumulative IPC: 1.99878 (Simulation time: 0 hr 1 min 27 sec) 
Heartbeat CPU  0 instructions:   51000002 cycles:   25503121 heartbeat IPC: 2.04956 cumulative IPC: 1.99976 (Simulation time: 0 hr 1 min 29 sec) 
Heartbeat CPU  0 instructions:   52000000 cycles:   25991435 heartbeat IPC: 2.04786 cumulative IPC: 2.00066 (Simulation time: 0 hr 1 min 30 sec) 
Heartbeat CPU  0 instructions:   53000000 cycles:   26479585 heartbeat IPC: 2.04855 cumulative IPC: 2.00154 (Simulation time: 0 hr 1 min 32 sec) 
Heartbeat CPU  0 instructions:   54000000 cycles:   26971967 heartbeat IPC: 2.03094 cumulative IPC: 2.00208 (Simulation time: 0 hr 1 min 34 sec) 
Heartbeat CPU  0 instructions:   55000002 cycles:   27528710 heartbeat IPC: 1.79616 cumulative IPC: 1.99791 (Simulation time: 0 hr 1 min 36 sec) 
Heartbeat CPU  0 instructions:   56000000 cycles:   28067272 heartbeat IPC: 1.85679 cumulative IPC: 1.99521 (Simulation time: 0 hr 1 min 37 sec) 
Heartbeat CPU  0 instructions:   57000000 cycles:   28554896 heartbeat IPC: 2.05076 cumulative IPC: 1.99616 (Simulation time: 0 hr 1 min 39 sec) 
Heartbeat CPU  0 instructions:   58000003 cycles:   29042493 heartbeat IPC: 2.05088 cumulative IPC: 1.99707 (Simulation time: 0 hr 1 min 41 sec) 
Heartbeat CPU  0 instructions:   59000001 cycles:   29530262 heartbeat IPC: 2.05015 cumulative IPC: 1.99795 (Simulation time: 0 hr 1 min 43 sec) 
Heartbeat CPU  0 instructions:   60000000 cycles:   30018388 heartbeat IPC: 2.04865 cumulative IPC: 1.99877 (Simulation time: 0 hr 1 min 44 sec) 
Heartbeat CPU  0 instructions:   61000000 cycles:   30506522 heartbeat IPC: 2.04862 cumulative IPC: 1.99957 (Simulation time: 0 hr 1 min 46 sec) 
Heartbeat CPU  0 instructions:   62000000 cycles:   30995110 heartbeat IPC: 2.04671 cumulative IPC: 2.00032 (Simulation time: 0 hr 1 min 48 sec) 
Heartbeat CPU  0 instructions:   63000002 cycles:   31483416 heartbeat IPC: 2.04790 cumulative IPC: 2.00105 (Simulation time: 0 hr 1 min 50 sec) 
Heartbeat CPU  0 instructions:   64000000 cycles:   31971698 heartbeat IPC: 2.04799 cumulative IPC: 2.00177 (Simulation time: 0 hr 1 min 51 sec) 
Heartbeat CPU  0 instructions:   65000000 cycles:   32500798 heartbeat IPC: 1.89000 cumulative IPC: 1.99995 (Simulation time: 0 hr 1 min 53 sec) 
Heartbeat CPU  0 instructions:   66000001 cycles:   33056972 heartbeat IPC: 1.79800 cumulative IPC: 1.99655 (Simulation time: 0 hr 1 min 55 sec) 
Heartbeat CPU  0 instructions:   67000000 cycles:   33556378 heartbeat IPC: 2.00238 cumulative IPC: 1.99664 (Simulation time: 0 hr 1 min 57 sec) 
Heartbeat CPU  0 instructions:   68000000 cycles:   34044205 heartbeat IPC: 2.04991 cumulative IPC: 1.99740 (Simulation time: 0 hr 1 min 58 sec) 
Heartbeat CPU  0 instructions:   69000001 cycles:   34532392 heartbeat IPC: 2.04840 cumulative IPC: 1.99812 (Simulation time: 0 hr 2 min 0 sec) 
Heartbeat CPU  0 instructions:   70000001 cycles:   35020431 heartbeat IPC: 2.04902 cumulative IPC: 1.99883 (Simulation time: 0 hr 2 min 2 sec) 
Heartbeat CPU  0 instructions:   71000003 cycles:   35508970 heartbeat IPC: 2.04692 cumulative IPC: 1.99949 (Simulation time: 0 hr 2 min 4 sec) 
Heartbeat CPU  0 instructions:   72000000 cycles:   35997443 heartbeat IPC: 2.04719 cumulative IPC: 2.00014 (Simulation time: 0 hr 2 min 5 sec) 
Heartbeat CPU  0 instructions:   73000001 cycles:   36486001 heartbeat IPC: 2.04684 cumulative IPC: 2.00077 (Simulation time: 0 hr 2 min 7 sec) 
Heartbeat CPU  0 instructions:   74000000 cycles:   36973706 heartbeat IPC: 2.05042 cumulative IPC: 2.00142 (Simulation time: 0 hr 2 min 9 sec) 
Heartbeat CPU  0 instructions:   75000001 cycles:   37472861 heartbeat IPC: 2.00339 cumulative IPC: 2.00145 (Simulation time: 0 hr 2 min 11 sec) 
Heartbeat CPU  0 instructions:   76000000 cycles:   38030323 heartbeat IPC: 1.79384 cumulative IPC: 1.99841 (Simulation time: 0 hr 2 min 12 sec) 
Heartbeat CPU  0 instructions:   77000002 cycles:   38560247 heartbeat IPC: 1.88707 cumulative IPC: 1.99688 (Simulation time: 0 hr 2 min 14 sec) 
Heartbeat CPU  0 instructions:   78000001 cycles:   39048297 heartbeat IPC: 2.04897 cumulative IPC: 1.99753 (Simulation time: 0 hr 2 min 16 sec) 
Heartbeat CPU  0 instructions:   79000001 cycles:   39536807 heartbeat IPC: 2.04704 cumulative IPC: 1.99814 (Simulation time: 0 hr 2 min 17 sec) 
Heartbeat CPU  0 instructions:   80000000 cycles:   40025145 heartbeat IPC: 2.04776 cumulative IPC: 1.99874 (Simulation time: 0 hr 2 min 19 sec) 
Heartbeat CPU  0 instructions:   81000003 cycles:   40513580 heartbeat IPC: 2.04736 cumulative IPC: 1.99933 (Simulation time: 0 hr 2 min 21 sec) 
Heartbeat CPU  0 instructions:   82000001 cycles:   41001565 heartbeat IPC: 2.04924 cumulative IPC: 1.99992 (Simulation time: 0 hr 2 min 23 sec) 
Heartbeat CPU  0 instructions:   83000000 cycles:   41489285 heartbeat IPC: 2.05035 cumulative IPC: 2.00052 (Simulation time: 0 hr 2 min 25 sec) 
Heartbeat CPU  0 instructions:   84000000 cycles:   41976959 heartbeat IPC: 2.05055 cumulative IPC: 2.00110 (Simulation time: 0 hr 2 min 26 sec) 
Heartbeat CPU  0 instructions:   85000002 cycles:   42464815 heartbeat IPC: 2.04979 cumulative IPC: 2.00166 (Simulation time: 0 hr 2 min 28 sec) 
Heartbeat CPU  0 instructions:   86000000 cycles:   43003768 heartbeat IPC: 1.85545 cumulative IPC: 1.99982 (Simulation time: 0 hr 2 min 30 sec) 
Heartbeat CPU  0 instructions:   87000002 cycles:   43561066 heartbeat IPC: 1.79438 cumulative IPC: 1.99720 (Simulation time: 0 hr 2 min 31 sec) 
Heartbeat CPU  0 instructions:   88000000 cycles:   44075332 heartbeat IPC: 1.94452 cumulative IPC: 1.99658 (Simulation time: 0 hr 2 min 33 sec) 
Heartbeat CPU  0 instructions:   89000002 cycles:   44605439 heartbeat IPC: 1.88642 cumulative IPC: 1.99527 (Simulation time: 0 hr 2 min 35 sec) 
Heartbeat CPU  0 instructions:   90000002 cycles:   45134897 heartbeat IPC: 1.88872 cumulative IPC: 1.99402 (Simulation time: 0 hr 2 min 37 sec) 
Heartbeat CPU  0 instructions:   91000003 cycles:   45664359 heartbeat IPC: 1.88871 cumulative IPC: 1.99280 (Simulation time: 0 hr 2 min 38 sec) 
Heartbeat CPU  0 instructions:   92000000 cycles:   46194023 heartbeat IPC: 1.88798 cumulative IPC: 1.99160 (Simulation time: 0 hr 2 min 40 sec) 
Heartbeat CPU  0 instructions:   93000001 cycles:   46723291 heartbeat IPC: 1.88940 cumulative IPC: 1.99044 (Simulation time: 0 hr 2 min 42 sec) 
Heartbeat CPU  0 instructions:   94000003 cycles:   47253444 heartbeat IPC: 1.88625 cumulative IPC: 1.98927 (Simulation time: 0 hr 2 min 44 sec) 
Heartbeat CPU  0 instructions:   95000003 cycles:   47782887 heartbeat IPC: 1.88878 cumulative IPC: 1.98816 (Simulation time: 0 hr 2 min 46 sec) 
Heartbeat CPU  0 instructions:   96000000 cycles:   48311847 heartbeat IPC: 1.89050 cumulative IPC: 1.98709 (Simulation time: 0 hr 2 min 47 sec) 
Heartbeat CPU  0 instructions:   97000003 cycles:   48842056 heartbeat IPC: 1.88605 cumulative IPC: 1.98599 (Simulation time: 0 hr 2 min 49 sec) 
Heartbeat CPU  0 instructions:   98000002 cycles:   49371697 heartbeat IPC: 1.88807 cumulative IPC: 1.98494 (Simulation time: 0 hr 2 min 51 sec) 
Heartbeat CPU  0 instructions:   99000002 cycles:   49901520 heartbeat IPC: 1.88742 cumulative IPC: 1.98391 (Simulation time: 0 hr 2 min 53 sec) 
Heartbeat CPU  0 instructions:  100000000 cycles:   50430913 heartbeat IPC: 1.88895 cumulative IPC: 1.98291 (Simulation time: 0 hr 2 min 54 sec) 

Warmup complete CPU  0 instructions:  100000001 cycles:   50430914 (Simulation time: 0 hr 2 min 54 sec) 

Heartbeat CPU  0 instructions:  101000002 cycles:   51923110 heartbeat IPC: 0.67015 cumulative IPC: 0.67015 (Simulation time: 0 hr 2 min 57 sec) 
Heartbeat CPU  0 instructions:  102000002 cycles:   53381925 heartbeat IPC: 0.68549 cumulative IPC: 0.67773 (Simulation time: 0 hr 2 min 59 sec) 
Heartbeat CPU  0 instructions:  103000000 cycles:   54960461 heartbeat IPC: 0.63350 cumulative IPC: 0.66232 (Simulation time: 0 hr 3 min 1 sec) 
Heartbeat CPU  0 instructions:  104000000 cycles:   56615449 heartbeat IPC: 0.60423 cumulative IPC: 0.64677 (Simulation time: 0 hr 3 min 4 sec) 
Heartbeat CPU  0 instructions:  105000002 cycles:   58281235 heartbeat IPC: 0.60032 cumulative IPC: 0.63692 (Simulation time: 0 hr 3 min 6 sec) 
Heartbeat CPU  0 instructions:  106000002 cycles:   59935276 heartbeat IPC: 0.60458 cumulative IPC: 0.63129 (Simulation time: 0 hr 3 min 9 sec) 
Heartbeat CPU  0 instructions:  107000003 cycles:   61590966 heartbeat IPC: 0.60398 cumulative IPC: 0.62724 (Simulation time: 0 hr 3 min 11 sec) 
Heartbeat CPU  0 instructions:  108000000 cycles:   63250378 heartbeat IPC: 0.60262 cumulative IPC: 0.62405 (Simulation time: 0 hr 3 min 13 sec) 
Heartbeat CPU  0 instructions:  109000002 cycles:   65283607 heartbeat IPC: 0.49183 cumulative IPC: 0.60595 (Simulation time: 0 hr 3 min 16 sec) 
Heartbeat CPU  0 instructions:  110000000 cycles:   66796515 heartbeat IPC: 0.66098 cumulative IPC: 0.61104 (Simulation time: 0 hr 3 min 18 sec) 
Heartbeat CPU  0 instructions:  111000000 cycles:   68231381 heartbeat IPC: 0.69693 cumulative IPC: 0.61796 (Simulation time: 0 hr 3 min 20 sec) 
Heartbeat CPU  0 instructions:  112000000 cycles:   69694463 heartbeat IPC: 0.68349 cumulative IPC: 0.62294 (Simulation time: 0 hr 3 min 23 sec) 
Heartbeat CPU  0 instructions:  113000001 cycles:   71218023 heartbeat IPC: 0.65636 cumulative IPC: 0.62539 (Simulation time: 0 hr 3 min 25 sec) 
Heartbeat CPU  0 instructions:  114000002 cycles:   72893629 heartbeat IPC: 0.59680 cumulative IPC: 0.62326 (Simulation time: 0 hr 3 min 28 sec) 
Heartbeat CPU  0 instructions:  115000001 cycles:   74576104 heartbeat IPC: 0.59436 cumulative IPC: 0.62124 (Simulation time: 0 hr 3 min 30 sec) 
Heartbeat CPU  0 instructions:  116000000 cycles:   76234692 heartbeat IPC: 0.60292 cumulative IPC: 0.62006 (Simulation time: 0 hr 3 min 32 sec) 
Heartbeat CPU  0 instructions:  117000002 cycles:   77898882 heartbeat IPC: 0.60089 cumulative IPC: 0.61890 (Simulation time: 0 hr 3 min 35 sec) 
Heartbeat CPU  0 instructions:  118000000 cycles:   79552559 heartbeat IPC: 0.60471 cumulative IPC: 0.61810 (Simulation time: 0 hr 3 min 37 sec) 
Heartbeat CPU  0 instructions:  119000002 cycles:   81587117 heartbeat IPC: 0.49151 cumulative IPC: 0.60983 (Simulation time: 0 hr 3 min 40 sec) 
Heartbeat CPU  0 instructions:  120000000 cycles:   83289990 heartbeat IPC: 0.58724 cumulative IPC: 0.60866 (Simulation time: 0 hr 3 min 42 sec) 
Heartbeat CPU  0 instructions:  121000003 cycles:   84746524 heartbeat IPC: 0.68656 cumulative IPC: 0.61197 (Simulation time: 0 hr 3 min 44 sec) 
Heartbeat CPU  0 instructions:  122000003 cycles:   86266932 heartbeat IPC: 0.65772 cumulative IPC: 0.61391 (Simulation time: 0 hr 3 min 47 sec) 
Heartbeat CPU  0 instructions:  123000000 cycles:   87819701 heartbeat IPC: 0.64401 cumulative IPC: 0.61516 (Simulation time: 0 hr 3 min 49 sec) 
Heartbeat CPU  0 instructions:  124000000 cycles:   89447293 heartbeat IPC: 0.61440 cumulative IPC: 0.61513 (Simulation time: 0 hr 3 min 51 sec) 
Heartbeat CPU  0 instructions:  125000003 cycles:   91137277 heartbeat IPC: 0.59172 cumulative IPC: 0.61415 (Simulation time: 0 hr 3 min 54 sec) 
Heartbeat CPU  0 instructions:  126000000 cycles:   92808783 heartbeat IPC: 0.59826 cumulative IPC: 0.61353 (Simulation time: 0 hr 3 min 56 sec) 
Heartbeat CPU  0 instructions:  127000000 cycles:   94472035 heartbeat IPC: 0.60123 cumulative IPC: 0.61306 (Simulation time: 0 hr 3 min 58 sec) 
Heartbeat CPU  0 instructions:  128000000 cycles:   96129660 heartbeat IPC: 0.60327 cumulative IPC: 0.61271 (Simulation time: 0 hr 4 min 1 sec) 
Heartbeat CPU  0 instructions:  129000002 cycles:   97828164 heartbeat IPC: 0.58875 cumulative IPC: 0.61185 (Simulation time: 0 hr 4 min 3 sec) 
Heartbeat CPU  0 instructions:  130000001 cycles:   99905397 heartbeat IPC: 0.48141 cumulative IPC: 0.60637 (Simulation time: 0 hr 4 min 6 sec) 
Heartbeat CPU  0 instructions:  131000002 cycles:  101430175 heartbeat IPC: 0.65583 cumulative IPC: 0.60785 (Simulation time: 0 hr 4 min 8 sec) 
Heartbeat CPU  0 instructions:  132000000 cycles:  102928574 heartbeat IPC: 0.66738 cumulative IPC: 0.60955 (Simulation time: 0 hr 4 min 11 sec) 
Heartbeat CPU  0 instructions:  133000000 cycles:  104489996 heartbeat IPC: 0.64044 cumulative IPC: 0.61044 (Simulation time: 0 hr 4 min 13 sec) 
Heartbeat CPU  0 instructions:  134000000 cycles:  106074714 heartbeat IPC: 0.63103 cumulative IPC: 0.61103 (Simulation time: 0 hr 4 min 15 sec) 
Heartbeat CPU  0 instructions:  135000002 cycles:  107749534 heartbeat IPC: 0.59708 cumulative IPC: 0.61062 (Simulation time: 0 hr 4 min 18 sec) 
Heartbeat CPU  0 instructions:  136000000 cycles:  109402242 heartbeat IPC: 0.60507 cumulative IPC: 0.61047 (Simulation time: 0 hr 4 min 20 sec) 
Heartbeat CPU  0 instructions:  137000001 cycles:  111058670 heartbeat IPC: 0.60371 cumulative IPC: 0.61028 (Simulation time: 0 hr 4 min 22 sec) 
Heartbeat CPU  0 instructions:  138000003 cycles:  112716138 heartbeat IPC: 0.60333 cumulative IPC: 0.61010 (Simulation time: 0 hr 4 min 25 sec) 
Heartbeat CPU  0 instructions:  139000000 cycles:  114370201 heartbeat IPC: 0.60457 cumulative IPC: 0.60995 (Simulation time: 0 hr 4 min 27 sec) 
Heartbeat CPU  0 instructions:  140000000 cycles:  116587193 heartbeat IPC: 0.45106 cumulative IPC: 0.60463 (Simulation time: 0 hr 4 min 30 sec) 
Heartbeat CPU  0 instructions:  141000001 cycles:  119148667 heartbeat IPC: 0.39040 cumulative IPC: 0.59664 (Simulation time: 0 hr 4 min 32 sec) 
Heartbeat CPU  0 instructions:  142000001 cycles:  121701744 heartbeat IPC: 0.39168 cumulative IPC: 0.58930 (Simulation time: 0 hr 4 min 35 sec) 
Heartbeat CPU  0 instructions:  143000000 cycles:  124183751 heartbeat IPC: 0.40290 cumulative IPC: 0.58303 (Simulation time: 0 hr 4 min 38 sec) 
Heartbeat CPU  0 instructions:  144000000 cycles:  126587460 heartbeat IPC: 0.41602 cumulative IPC: 0.57776 (Simulation time: 0 hr 4 min 40 sec) 
Heartbeat CPU  0 instructions:  145000001 cycles:  128956225 heartbeat IPC: 0.42216 cumulative IPC: 0.57306 (Simulation time: 0 hr 4 min 43 sec) 
Heartbeat CPU  0 instructions:  146000001 cycles:  131356250 heartbeat IPC: 0.41666 cumulative IPC: 0.56843 (Simulation time: 0 hr 4 min 45 sec) 
Heartbeat CPU  0 instructions:  147000002 cycles:  133844501 heartbeat IPC: 0.40189 cumulative IPC: 0.56346 (Simulation time: 0 hr 4 min 48 sec) 
Heartbeat CPU  0 instructions:  148000000 cycles:  136331772 heartbeat IPC: 0.40205 cumulative IPC: 0.55878 (Simulation time: 0 hr 4 min 51 sec) 
Heartbeat CPU  0 instructions:  149000000 cycles:  138841279 heartbeat IPC: 0.39848 cumulative IPC: 0.55423 (Simulation time: 0 hr 4 min 53 sec) 
Heartbeat CPU  0 instructions:  150000001 cycles:  141314446 heartbeat IPC: 0.40434 cumulative IPC: 0.55015 (Simulation time: 0 hr 4 min 56 sec) 
Heartbeat CPU  0 instructions:  151000002 cycles:  143741016 heartbeat IPC: 0.41210 cumulative IPC: 0.54656 (Simulation time: 0 hr 4 min 58 sec) 
Heartbeat CPU  0 instructions:  152000000 cycles:  146140287 heartbeat IPC: 0.41679 cumulative IPC: 0.54331 (Simulation time: 0 hr 5 min 1 sec) 
Heartbeat CPU  0 instructions:  153000002 cycles:  148536210 heartbeat IPC: 0.41738 cumulative IPC: 0.54024 (Simulation time: 0 hr 5 min 3 sec) 
Heartbeat CPU  0 instructions:  154000000 cycles:  150929441 heartbeat IPC: 0.41784 cumulative IPC: 0.53732 (Simulation time: 0 hr 5 min 6 sec) 
Heartbeat CPU  0 instructions:  155000003 cycles:  153417036 heartbeat IPC: 0.40200 cumulative IPC: 0.53405 (Simulation time: 0 hr 5 min 9 sec) 
Heartbeat CPU  0 instructions:  156000000 cycles:  155930672 heartbeat IPC: 0.39783 cumulative IPC: 0.53081 (Simulation time: 0 hr 5 min 11 sec) 
Heartbeat CPU  0 instructions:  157000003 cycles:  158468136 heartbeat IPC: 0.39410 cumulative IPC: 0.52760 (Simulation time: 0 hr 5 min 14 sec) 
Heartbeat CPU  0 instructions:  158000003 cycles:  160990456 heartbeat IPC: 0.39646 cumulative IPC: 0.52460 (Simulation time: 0 hr 5 min 16 sec) 
Heartbeat CPU  0 instructions:  159000003 cycles:  163455924 heartbeat IPC: 0.40560 cumulative IPC: 0.52201 (Simulation time: 0 hr 5 min 19 sec) 
Heartbeat CPU  0 instructions:  160000000 cycles:  165882547 heartbeat IPC: 0.41209 cumulative IPC: 0.51970 (Simulation time: 0 hr 5 min 22 sec) 
Heartbeat CPU  0 instructions:  161000001 cycles:  168302204 heartbeat IPC: 0.41328 cumulative IPC: 0.51751 (Simulation time: 0 hr 5 min 24 sec) 
Heartbeat CPU  0 instructions:  162000001 cycles:  170604072 heartbeat IPC: 0.43443 cumulative IPC: 0.51592 (Simulation time: 0 hr 5 min 27 sec) 
Heartbeat CPU  0 instructions:  163000002 cycles:  172742005 heartbeat IPC: 0.46774 cumulative IPC: 0.51508 (Simulation time: 0 hr 5 min 30 sec) 
Heartbeat CPU  0 instructions:  164000000 cycles:  174969366 heartbeat IPC: 0.44896 cumulative IPC: 0.51390 (Simulation time: 0 hr 5 min 33 sec) 
Heartbeat CPU  0 instructions:  165000000 cycles:  177164629 heartbeat IPC: 0.45553 cumulative IPC: 0.51289 (Simulation time: 0 hr 5 min 36 sec) 
Heartbeat CPU  0 instructions:  166000002 cycles:  179292355 heartbeat IPC: 0.46999 cumulative IPC: 0.51218 (Simulation time: 0 hr 5 min 39 sec) 
Heartbeat CPU  0 instructions:  167000002 cycles:  181409330 heartbeat IPC: 0.47237 cumulative IPC: 0.51153 (Simulation time: 0 hr 5 min 41 sec) 
Heartbeat CPU  0 instructions:  168000000 cycles:  183526614 heartbeat IPC: 0.47230 cumulative IPC: 0.51091 (Simulation time: 0 hr 5 min 44 sec) 
Heartbeat CPU  0 instructions:  169000002 cycles:  185608344 heartbeat IPC: 0.48037 cumulative IPC: 0.51044 (Simulation time: 0 hr 5 min 47 sec) 
Heartbeat CPU  0 instructions:  170000002 cycles:  187726106 heartbeat IPC: 0.47220 cumulative IPC: 0.50985 (Simulation time: 0 hr 5 min 50 sec) 
Heartbeat CPU  0 instructions:  171000003 cycles:  189825619 heartbeat IPC: 0.47630 cumulative IPC: 0.50935 (Simulation time: 0 hr 5 min 53 sec) 
Heartbeat CPU  0 instructions:  172000000 cycles:  191824784 heartbeat IPC: 0.50021 cumulative IPC: 0.50922 (Simulation time: 0 hr 5 min 55 sec) 
Heartbeat CPU  0 instructions:  173000003 cycles:  193738661 heartbeat IPC: 0.52250 cumulative IPC: 0.50939 (Simulation time: 0 hr 5 min 58 sec) 
Heartbeat CPU  0 instructions:  174000000 cycles:  195639891 heartbeat IPC: 0.52597 cumulative IPC: 0.50961 (Simulation time: 0 hr 6 min 1 sec) 
Heartbeat CPU  0 instructions:  175000000 cycles:  197556071 heartbeat IPC: 0.52187 cumulative IPC: 0.50977 (Simulation time: 0 hr 6 min 3 sec) 
Heartbeat CPU  0 instructions:  176000000 cycles:  199441293 heartbeat IPC: 0.53044 cumulative IPC: 0.51003 (Simulation time: 0 hr 6 min 6 sec) 
Heartbeat CPU  0 instructions:  177000003 cycles:  201267467 heartbeat IPC: 0.54759 cumulative IPC: 0.51049 (Simulation time: 0 hr 6 min 9 sec) 
Heartbeat CPU  0 instructions:  178000001 cycles:  203091424 heartbeat IPC: 0.54826 cumulative IPC: 0.51094 (Simulation time: 0 hr 6 min 11 sec) 
Heartbeat CPU  0 instructions:  179000000 cycles:  204973591 heartbeat IPC: 0.53130 cumulative IPC: 0.51119 (Simulation time: 0 hr 6 min 14 sec) 
Heartbeat CPU  0 instructions:  180000000 cycles:  206819075 heartbeat IPC: 0.54186 cumulative IPC: 0.51155 (Simulation time: 0 hr 6 min 17 sec) 
Heartbeat CPU  0 instructions:  181000000 cycles:  208701841 heartbeat IPC: 0.53113 cumulative IPC: 0.51178 (Simulation time: 0 hr 6 min 20 sec) 
Heartbeat CPU  0 instructions:  182000001 cycles:  210586854 heartbeat IPC: 0.53050 cumulative IPC: 0.51200 (Simulation time: 0 hr 6 min 22 sec) 
Heartbeat CPU  0 instructions:  183000003 cycles:  212463756 heartbeat IPC: 0.53279 cumulative IPC: 0.51224 (Simulation time: 0 hr 6 min 25 sec) 
Heartbeat CPU  0 instructions:  184000000 cycles:  214328102 heartbeat IPC: 0.53638 cumulative IPC: 0.51252 (Simulation time: 0 hr 6 min 28 sec) 
Heartbeat CPU  0 instructions:  185000000 cycles:  216241824 heartbeat IPC: 0.52254 cumulative IPC: 0.51263 (Simulation time: 0 hr 6 min 30 sec) 
Heartbeat CPU  0 instructions:  186000002 cycles:  218120880 heartbeat IPC: 0.53218 cumulative IPC: 0.51285 (Simulation time: 0 hr 6 min 33 sec) 
Heartbeat CPU  0 instructions:  187000001 cycles:  220021071 heartbeat IPC: 0.52626 cumulative IPC: 0.51300 (Simulation time: 0 hr 6 min 36 sec) 
Heartbeat CPU  0 instructions:  188000000 cycles:  221920943 heartbeat IPC: 0.52635 cumulative IPC: 0.51315 (Simulation time: 0 hr 6 min 39 sec) 
Heartbeat CPU  0 instructions:  189000001 cycles:  223815452 heartbeat IPC: 0.52784 cumulative IPC: 0.51331 (Simulation time: 0 hr 6 min 41 sec) 
Heartbeat CPU  0 instructions:  190000002 cycles:  225681306 heartbeat IPC: 0.53595 cumulative IPC: 0.51355 (Simulation time: 0 hr 6 min 44 sec) 
Heartbeat CPU  0 instructions:  191000001 cycles:  227553968 heartbeat IPC: 0.53400 cumulative IPC: 0.51377 (Simulation time: 0 hr 6 min 47 sec) 
Heartbeat CPU  0 instructions:  192000000 cycles:  229438609 heartbeat IPC: 0.53060 cumulative IPC: 0.51394 (Simulation time: 0 hr 6 min 49 sec) 
Heartbeat CPU  0 instructions:  193000003 cycles:  231280881 heartbeat IPC: 0.54281 cumulative IPC: 0.51424 (Simulation time: 0 hr 6 min 52 sec) 
Heartbeat CPU  0 instructions:  194000002 cycles:  232893976 heartbeat IPC: 0.61993 cumulative IPC: 0.51517 (Simulation time: 0 hr 6 min 55 sec) 
Heartbeat CPU  0 instructions:  195000001 cycles:  234423529 heartbeat IPC: 0.65379 cumulative IPC: 0.51633 (Simulation time: 0 hr 6 min 57 sec) 
Heartbeat CPU  0 instructions:  196000000 cycles:  235896524 heartbeat IPC: 0.67889 cumulative IPC: 0.51762 (Simulation time: 0 hr 6 min 59 sec) 
Heartbeat CPU  0 instructions:  197000003 cycles:  237348557 heartbeat IPC: 0.68869 cumulative IPC: 0.51895 (Simulation time: 0 hr 7 min 1 sec) 
Heartbeat CPU  0 instructions:  198000000 cycles:  238740097 heartbeat IPC: 0.71863 cumulative IPC: 0.52042 (Simulation time: 0 hr 7 min 4 sec) 
Heartbeat CPU  0 instructions:  199000000 cycles:  240146941 heartbeat IPC: 0.71081 cumulative IPC: 0.52183 (Simulation time: 0 hr 7 min 6 sec) 
Heartbeat CPU  0 instructions:  200000000 cycles:  241584035 heartbeat IPC: 0.69585 cumulative IPC: 0.52314 (Simulation time: 0 hr 7 min 8 sec) 
Heartbeat CPU  0 instructions:  201000002 cycles:  242947275 heartbeat IPC: 0.73355 cumulative IPC: 0.52463 (Simulation time: 0 hr 7 min 11 sec) 
Heartbeat CPU  0 instructions:  202000000 cycles:  244289601 heartbeat IPC: 0.74497 cumulative IPC: 0.52616 (Simulation time: 0 hr 7 min 13 sec) 
Heartbeat CPU  0 instructions:  203000001 cycles:  245548474 heartbeat IPC: 0.79436 cumulative IPC: 0.52789 (Simulation time: 0 hr 7 min 15 sec) 
Heartbeat CPU  0 instructions:  204000000 cycles:  246900800 heartbeat IPC: 0.73947 cumulative IPC: 0.52934 (Simulation time: 0 hr 7 min 17 sec) 
Heartbeat CPU  0 instructions:  205000002 cycles:  248250772 heartbeat IPC: 0.74076 cumulative IPC: 0.53079 (Simulation time: 0 hr 7 min 19 sec) 
Heartbeat CPU  0 instructions:  206000003 cycles:  249551520 heartbeat IPC: 0.76879 cumulative IPC: 0.53234 (Simulation time: 0 hr 7 min 22 sec) 
Heartbeat CPU  0 instructions:  207000001 cycles:  250814332 heartbeat IPC: 0.79188 cumulative IPC: 0.53398 (Simulation time: 0 hr 7 min 24 sec) 
Heartbeat CPU  0 instructions:  208000000 cycles:  252098830 heartbeat IPC: 0.77851 cumulative IPC: 0.53553 (Simulation time: 0 hr 7 min 26 sec) 
Heartbeat CPU  0 instructions:  209000001 cycles:  253434257 heartbeat IPC: 0.74882 cumulative IPC: 0.53694 (Simulation time: 0 hr 7 min 28 sec) 
Heartbeat CPU  0 instructions:  210000003 cycles:  254773697 heartbeat IPC: 0.74658 cumulative IPC: 0.53831 (Simulation time: 0 hr 7 min 30 sec) 
Heartbeat CPU  0 instructions:  211000002 cycles:  256053476 heartbeat IPC: 0.78138 cumulative IPC: 0.53982 (Simulation time: 0 hr 7 min 33 sec) 
Heartbeat CPU  0 instructions:  212000000 cycles:  257290510 heartbeat IPC: 0.80838 cumulative IPC: 0.54143 (Simulation time: 0 hr 7 min 35 sec) 
Heartbeat CPU  0 instructions:  213000003 cycles:  258614716 heartbeat IPC: 0.75517 cumulative IPC: 0.54279 (Simulation time: 0 hr 7 min 37 sec) 
Heartbeat CPU  0 instructions:  214000000 cycles:  259957066 heartbeat IPC: 0.74496 cumulative IPC: 0.54408 (Simulation time: 0 hr 7 min 39 sec) 
Heartbeat CPU  0 instructions:  215000002 cycles:  261302880 heartbeat IPC: 0.74305 cumulative IPC: 0.54535 (Simulation time: 0 hr 7 min 42 sec) 
Heartbeat CPU  0 instructions:  216000000 cycles:  262571452 heartbeat IPC: 0.78829 cumulative IPC: 0.54681 (Simulation time: 0 hr 7 min 44 sec) 
Heartbeat CPU  0 instructions:  217000002 cycles:  263836907 heartbeat IPC: 0.79023 cumulative IPC: 0.54825 (Simulation time: 0 hr 7 min 46 sec) 
Heartbeat CPU  0 instructions:  218000000 cycles:  265184009 heartbeat IPC: 0.74233 cumulative IPC: 0.54947 (Simulation time: 0 hr 7 min 48 sec) 
Heartbeat CPU  0 instructions:  219000003 cycles:  266516715 heartbeat IPC: 0.75036 cumulative IPC: 0.55071 (Simulation time: 0 hr 7 min 50 sec) 
Heartbeat CPU  0 instructions:  220000000 cycles:  267855172 heartbeat IPC: 0.74713 cumulative IPC: 0.55192 (Simulation time: 0 hr 7 min 53 sec) 
Heartbeat CPU  0 instructions:  221000002 cycles:  269116529 heartbeat IPC: 0.79280 cumulative IPC: 0.55331 (Simulation time: 0 hr 7 min 55 sec) 
Heartbeat CPU  0 instructions:  222000001 cycles:  270444387 heartbeat IPC: 0.75309 cumulative IPC: 0.55451 (Simulation time: 0 hr 7 min 57 sec) 
Heartbeat CPU  0 instructions:  223000000 cycles:  271793670 heartbeat IPC: 0.74113 cumulative IPC: 0.55565 (Simulation time: 0 hr 7 min 59 sec) 
Heartbeat CPU  0 instructions:  224000000 cycles:  273133730 heartbeat IPC: 0.74624 cumulative IPC: 0.55680 (Simulation time: 0 hr 8 min 1 sec) 
Heartbeat CPU  0 instructions:  225000001 cycles:  274478745 heartbeat IPC: 0.74349 cumulative IPC: 0.55792 (Simulation time: 0 hr 8 min 4 sec) 
Heartbeat CPU  0 instructions:  226000003 cycles:  275755891 heartbeat IPC: 0.78300 cumulative IPC: 0.55919 (Simulation time: 0 hr 8 min 6 sec) 
Heartbeat CPU  0 instructions:  227000001 cycles:  277100853 heartbeat IPC: 0.74351 cumulative IPC: 0.56029 (Simulation time: 0 hr 8 min 8 sec) 
Heartbeat CPU  0 instructions:  228000000 cycles:  278446465 heartbeat IPC: 0.74316 cumulative IPC: 0.56137 (Simulation time: 0 hr 8 min 10 sec) 
Heartbeat CPU  0 instructions:  229000002 cycles:  279764914 heartbeat IPC: 0.75847 cumulative IPC: 0.56250 (Simulation time: 0 hr 8 min 13 sec) 
Heartbeat CPU  0 instructions:  230000002 cycles:  281046051 heartbeat IPC: 0.78056 cumulative IPC: 0.56371 (Simulation time: 0 hr 8 min 15 sec) 
Heartbeat CPU  0 instructions:  231000001 cycles:  282360881 heartbeat IPC: 0.76055 cumulative IPC: 0.56483 (Simulation time: 0 hr 8 min 17 sec) 
Heartbeat CPU  0 instructions:  232000000 cycles:  283681874 heartbeat IPC: 0.75701 cumulative IPC: 0.56591 (Simulation time: 0 hr 8 min 19 sec) 
Heartbeat CPU  0 instructions:  233000000 cycles:  285011973 heartbeat IPC: 0.75182 cumulative IPC: 0.56697 (Simulation time: 0 hr 8 min 21 sec) 
Heartbeat CPU  0 instructions:  234000003 cycles:  286312457 heartbeat IPC: 0.76895 cumulative IPC: 0.56808 (Simulation time: 0 hr 8 min 24 sec) 
Heartbeat CPU  0 instructions:  235000002 cycles:  287578369 heartbeat IPC: 0.78994 cumulative IPC: 0.56927 (Simulation time: 0 hr 8 min 26 sec) 
Heartbeat CPU  0 instructions:  236000000 cycles:  288940342 heartbeat IPC: 0.73423 cumulative IPC: 0.57021 (Simulation time: 0 hr 8 min 28 sec) 
Heartbeat CPU  0 instructions:  237000000 cycles:  290273131 heartbeat IPC: 0.75031 cumulative IPC: 0.57121 (Simulation time: 0 hr 8 min 30 sec) 
Heartbeat CPU  0 instructions:  238000001 cycles:  291590803 heartbeat IPC: 0.75891 cumulative IPC: 0.57223 (Simulation time: 0 hr 8 min 32 sec) 
Heartbeat CPU  0 instructions:  239000003 cycles:  292869828 heartbeat IPC: 0.78185 cumulative IPC: 0.57334 (Simulation time: 0 hr 8 min 35 sec) 
Heartbeat CPU  0 instructions:  240000000 cycles:  294192616 heartbeat IPC: 0.75598 cumulative IPC: 0.57433 (Simulation time: 0 hr 8 min 37 sec) 
Heartbeat CPU  0 instructions:  241000000 cycles:  295542295 heartbeat IPC: 0.74092 cumulative IPC: 0.57525 (Simulation time: 0 hr 8 min 39 sec) 
Heartbeat CPU  0 instructions:  242000000 cycles:  296861914 heartbeat IPC: 0.75779 cumulative IPC: 0.57623 (Simulation time: 0 hr 8 min 41 sec) 
Heartbeat CPU  0 instructions:  243000003 cycles:  298165626 heartbeat IPC: 0.76704 cumulative IPC: 0.57723 (Simulation time: 0 hr 8 min 44 sec) 
Heartbeat CPU  0 instructions:  244000000 cycles:  299413354 heartbeat IPC: 0.80145 cumulative IPC: 0.57835 (Simulation time: 0 hr 8 min 46 sec) 
Heartbeat CPU  0 instructions:  245000000 cycles:  300749068 heartbeat IPC: 0.74866 cumulative IPC: 0.57926 (Simulation time: 0 hr 8 min 48 sec) 
Heartbeat CPU  0 instructions:  246000002 cycles:  302100638 heartbeat IPC: 0.73988 cumulative IPC: 0.58013 (Simulation time: 0 hr 8 min 50 sec) 
Heartbeat CPU  0 instructions:  247000000 cycles:  303427026 heartbeat IPC: 0.75393 cumulative IPC: 0.58104 (Simulation time: 0 hr 8 min 52 sec) 
Heartbeat CPU  0 instructions:  248000000 cycles:  304705473 heartbeat IPC: 0.78220 cumulative IPC: 0.58205 (Simulation time: 0 hr 8 min 55 sec) 
Heartbeat CPU  0 instructions:  249000000 cycles:  305998373 heartbeat IPC: 0.77346 cumulative IPC: 0.58302 (Simulation time: 0 hr 8 min 57 sec) 
Heartbeat CPU  0 instructions:  250000001 cycles:  307341678 heartbeat IPC: 0.74443 cumulative IPC: 0.58386 (Simulation time: 0 hr 8 min 59 sec) 
Heartbeat CPU  0 instructions:  251000003 cycles:  308687959 heartbeat IPC: 0.74279 cumulative IPC: 0.58469 (Simulation time: 0 hr 9 min 1 sec) 
Heartbeat CPU  0 instructions:  252000000 cycles:  309999544 heartbeat IPC: 0.76243 cumulative IPC: 0.58559 (Simulation time: 0 hr 9 min 3 sec) 
Heartbeat CPU  0 instructions:  253000000 cycles:  311231748 heartbeat IPC: 0.81155 cumulative IPC: 0.58665 (Simulation time: 0 hr 9 min 6 sec) 
Heartbeat CPU  0 instructions:  254000000 cycles:  312556247 heartbeat IPC: 0.75500 cumulative IPC: 0.58751 (Simulation time: 0 hr 9 min 8 sec) 
Heartbeat CPU  0 instructions:  255000003 cycles:  313880341 heartbeat IPC: 0.75524 cumulative IPC: 0.58835 (Simulation time: 0 hr 9 min 10 sec) 
Heartbeat CPU  0 instructions:  256000000 cycles:  315212099 heartbeat IPC: 0.75088 cumulative IPC: 0.58917 (Simulation time: 0 hr 9 min 12 sec) 
Heartbeat CPU  0 instructions:  257000003 cycles:  316517907 heartbeat IPC: 0.76581 cumulative IPC: 0.59003 (Simulation time: 0 hr 9 min 15 sec) 
Heartbeat CPU  0 instructions:  258000000 cycles:  317782224 heartbeat IPC: 0.79094 cumulative IPC: 0.59098 (Simulation time: 0 hr 9 min 17 sec) 
Heartbeat CPU  0 instructions:  259000003 cycles:  319118368 heartbeat IPC: 0.74842 cumulative IPC: 0.59177 (Simulation time: 0 hr 9 min 19 sec) 
Heartbeat CPU  0 instructions:  260000000 cycles:  320438880 heartbeat IPC: 0.75728 cumulative IPC: 0.59258 (Simulation time: 0 hr 9 min 21 sec) 
Heartbeat CPU  0 instructions:  261000001 cycles:  321761974 heartbeat IPC: 0.75580 cumulative IPC: 0.59337 (Simulation time: 0 hr 9 min 23 sec) 
Heartbeat CPU  0 instructions:  262000000 cycles:  323041174 heartbeat IPC: 0.78174 cumulative IPC: 0.59425 (Simulation time: 0 hr 9 min 26 sec) 
Heartbeat CPU  0 instructions:  263000000 cycles:  324345782 heartbeat IPC: 0.76651 cumulative IPC: 0.59508 (Simulation time: 0 hr 9 min 28 sec) 
Heartbeat CPU  0 instructions:  264000000 cycles:  325674498 heartbeat IPC: 0.75261 cumulative IPC: 0.59584 (Simulation time: 0 hr 9 min 30 sec) 
Heartbeat CPU  0 instructions:  265000000 cycles:  326989630 heartbeat IPC: 0.76038 cumulative IPC: 0.59662 (Simulation time: 0 hr 9 min 32 sec) 
Heartbeat CPU  0 instructions:  266000001 cycles:  328304811 heartbeat IPC: 0.76035 cumulative IPC: 0.59739 (Simulation time: 0 hr 9 min 34 sec) 
Heartbeat CPU  0 instructions:  267000000 cycles:  329590512 heartbeat IPC: 0.77779 cumulative IPC: 0.59822 (Simulation time: 0 hr 9 min 37 sec) 
Heartbeat CPU  0 instructions:  268000000 cycles:  330918645 heartbeat IPC: 0.75294 cumulative IPC: 0.59896 (Simulation time: 0 hr 9 min 39 sec) 
Heartbeat CPU  0 instructions:  269000003 cycles:  332247539 heartbeat IPC: 0.75251 cumulative IPC: 0.59968 (Simulation time: 0 hr 9 min 41 sec) 
Heartbeat CPU  0 instructions:  270000002 cycles:  333558905 heartbeat IPC: 0.76256 cumulative IPC: 0.60044 (Simulation time: 0 hr 9 min 43 sec) 
Heartbeat CPU  0 instructions:  271000000 cycles:  334817313 heartbeat IPC: 0.79465 cumulative IPC: 0.60129 (Simulation time: 0 hr 9 min 46 sec) 
Heartbeat CPU  0 instructions:  272000000 cycles:  336152271 heartbeat IPC: 0.74909 cumulative IPC: 0.60199 (Simulation time: 0 hr 9 min 48 sec) 
Heartbeat CPU  0 instructions:  273000002 cycles:  337489565 heartbeat IPC: 0.74778 cumulative IPC: 0.60266 (Simulation time: 0 hr 9 min 50 sec) 
Heartbeat CPU  0 instructions:  274000002 cycles:  338815060 heartbeat IPC: 0.75444 cumulative IPC: 0.60336 (Simulation time: 0 hr 9 min 52 sec) 
Heartbeat CPU  0 instructions:  275000001 cycles:  340133945 heartbeat IPC: 0.75822 cumulative IPC: 0.60407 (Simulation time: 0 hr 9 min 54 sec) 
Heartbeat CPU  0 instructions:  276000000 cycles:  341401679 heartbeat IPC: 0.78881 cumulative IPC: 0.60487 (Simulation time: 0 hr 9 min 57 sec) 
Heartbeat CPU  0 instructions:  277000003 cycles:  342768238 heartbeat IPC: 0.73177 cumulative IPC: 0.60546 (Simulation time: 0 hr 9 min 59 sec) 
Heartbeat CPU  0 instructions:  278000003 cycles:  344110345 heartbeat IPC: 0.74510 cumulative IPC: 0.60610 (Simulation time: 0 hr 10 min 1 sec) 
Heartbeat CPU  0 instructions:  279000003 cycles:  345425035 heartbeat IPC: 0.76064 cumulative IPC: 0.60679 (Simulation time: 0 hr 10 min 3 sec) 
Heartbeat CPU  0 instructions:  280000000 cycles:  346683938 heartbeat IPC: 0.79434 cumulative IPC: 0.60759 (Simulation time: 0 hr 10 min 5 sec) 
Heartbeat CPU  0 instructions:  281000002 cycles:  347988626 heartbeat IPC: 0.76647 cumulative IPC: 0.60829 (Simulation time: 0 hr 10 min 8 sec) 
Heartbeat CPU  0 instructions:  282000001 cycles:  349332091 heartbeat IPC: 0.74434 cumulative IPC: 0.60890 (Simulation time: 0 hr 10 min 10 sec) 
Heartbeat CPU  0 instructions:  283000003 cycles:  350654591 heartbeat IPC: 0.75615 cumulative IPC: 0.60955 (Simulation time: 0 hr 10 min 12 sec) 
Heartbeat CPU  0 instructions:  284000000 cycles:  351936451 heartbeat IPC: 0.78011 cumulative IPC: 0.61027 (Simulation time: 0 hr 10 min 14 sec) 
Heartbeat CPU  0 instructions:  285000002 cycles:  353176916 heartbeat IPC: 0.80615 cumulative IPC: 0.61107 (Simulation time: 0 hr 10 min 16 sec) 
Heartbeat CPU  0 instructions:  286000001 cycles:  354501050 heartbeat IPC: 0.75521 cumulative IPC: 0.61170 (Simulation time: 0 hr 10 min 19 sec) 
Heartbeat CPU  0 instructions:  287000001 cycles:  355837947 heartbeat IPC: 0.74800 cumulative IPC: 0.61230 (Simulation time: 0 hr 10 min 21 sec) 
Heartbeat CPU  0 instructions:  288000000 cycles:  357176787 heartbeat IPC: 0.74691 cumulative IPC: 0.61289 (Simulation time: 0 hr 10 min 23 sec) 
Heartbeat CPU  0 instructions:  289000000 cycles:  358437038 heartbeat IPC: 0.79349 cumulative IPC: 0.61362 (Simulation time: 0 hr 10 min 25 sec) 
Heartbeat CPU  0 instructions:  290000000 cycles:  359719984 heartbeat IPC: 0.77946 cumulative IPC: 0.61431 (Simulation time: 0 hr 10 min 28 sec) 
Heartbeat CPU  0 instructions:  291000002 cycles:  361056568 heartbeat IPC: 0.74818 cumulative IPC: 0.61489 (Simulation time: 0 hr 10 min 30 sec) 
Heartbeat CPU  0 instructions:  292000000 cycles:  362392802 heartbeat IPC: 0.74837 cumulative IPC: 0.61546 (Simulation time: 0 hr 10 min 32 sec) 
Heartbeat CPU  0 instructions:  293000001 cycles:  363719131 heartbeat IPC: 0.75396 cumulative IPC: 0.61605 (Simulation time: 0 hr 10 min 34 sec) 
Heartbeat CPU  0 instructions:  294000002 cycles:  364960347 heartbeat IPC: 0.80566 cumulative IPC: 0.61679 (Simulation time: 0 hr 10 min 36 sec) 
Heartbeat CPU  0 instructions:  295000003 cycles:  366286609 heartbeat IPC: 0.75400 cumulative IPC: 0.61737 (Simulation time: 0 hr 10 min 39 sec) 
Heartbeat CPU  0 instructions:  296000000 cycles:  367614988 heartbeat IPC: 0.75279 cumulative IPC: 0.61794 (Simulation time: 0 hr 10 min 41 sec) 
Heartbeat CPU  0 instructions:  297000003 cycles:  368947516 heartbeat IPC: 0.75046 cumulative IPC: 0.61849 (Simulation time: 0 hr 10 min 43 sec) 
Heartbeat CPU  0 instructions:  298000002 cycles:  370250580 heartbeat IPC: 0.76742 cumulative IPC: 0.61910 (Simulation time: 0 hr 10 min 45 sec) 
Heartbeat CPU  0 instructions:  299000003 cycles:  371527574 heartbeat IPC: 0.78309 cumulative IPC: 0.61975 (Simulation time: 0 hr 10 min 47 sec) 
Heartbeat CPU  0 instructions:  300000000 cycles:  372858644 heartbeat IPC: 0.75127 cumulative IPC: 0.62029 (Simulation time: 0 hr 10 min 50 sec) 
Heartbeat CPU  0 instructions:  301000000 cycles:  374178877 heartbeat IPC: 0.75744 cumulative IPC: 0.62085 (Simulation time: 0 hr 10 min 52 sec) 
Heartbeat CPU  0 instructions:  302000003 cycles:  375488279 heartbeat IPC: 0.76371 cumulative IPC: 0.62143 (Simulation time: 0 hr 10 min 54 sec) 
Heartbeat CPU  0 instructions:  303000002 cycles:  376759373 heartbeat IPC: 0.78672 cumulative IPC: 0.62207 (Simulation time: 0 hr 10 min 56 sec) 
Heartbeat CPU  0 instructions:  304000000 cycles:  378079339 heartbeat IPC: 0.75759 cumulative IPC: 0.62262 (Simulation time: 0 hr 10 min 58 sec) 
Heartbeat CPU  0 instructions:  305000001 cycles:  379406989 heartbeat IPC: 0.75321 cumulative IPC: 0.62315 (Simulation time: 0 hr 11 min 1 sec) 
Heartbeat CPU  0 instructions:  306000003 cycles:  380704937 heartbeat IPC: 0.77045 cumulative IPC: 0.62372 (Simulation time: 0 hr 11 min 3 sec) 
Heartbeat CPU  0 instructions:  307000000 cycles:  382000740 heartbeat IPC: 0.77172 cumulative IPC: 0.62430 (Simulation time: 0 hr 11 min 5 sec) 
Heartbeat CPU  0 instructions:  308000000 cycles:  383281347 heartbeat IPC: 0.78088 cumulative IPC: 0.62491 (Simulation time: 0 hr 11 min 7 sec) 
Heartbeat CPU  0 instructions:  309000000 cycles:  384615708 heartbeat IPC: 0.74942 cumulative IPC: 0.62540 (Simulation time: 0 hr 11 min 10 sec) 
Heartbeat CPU  0 instructions:  310000003 cycles:  385943207 heartbeat IPC: 0.75330 cumulative IPC: 0.62591 (Simulation time: 0 hr 11 min 12 sec) 
Heartbeat CPU  0 instructions:  311000001 cycles:  387242533 heartbeat IPC: 0.76963 cumulative IPC: 0.62646 (Simulation time: 0 hr 11 min 14 sec) 
Heartbeat CPU  0 instructions:  312000000 cycles:  388496813 heartbeat IPC: 0.79727 cumulative IPC: 0.62710 (Simulation time: 0 hr 11 min 16 sec) 
Heartbeat CPU  0 instructions:  313000001 cycles:  389827631 heartbeat IPC: 0.75142 cumulative IPC: 0.62758 (Simulation time: 0 hr 11 min 18 sec) 
Heartbeat CPU  0 instructions:  314000000 cycles:  391169359 heartbeat IPC: 0.74531 cumulative IPC: 0.62805 (Simulation time: 0 hr 11 min 21 sec) 
Heartbeat CPU  0 instructions:  315000000 cycles:  392496139 heartbeat IPC: 0.75370 cumulative IPC: 0.62854 (Simulation time: 0 hr 11 min 23 sec) 
Heartbeat CPU  0 instructions:  316000000 cycles:  393796110 heartbeat IPC: 0.76925 cumulative IPC: 0.62907 (Simulation time: 0 hr 11 min 25 sec) 
Heartbeat CPU  0 instructions:  317000000 cycles:  395058868 heartbeat IPC: 0.79192 cumulative IPC: 0.62966 (Simulation time: 0 hr 11 min 27 sec) 
Heartbeat CPU  0 instructions:  318000002 cycles:  396405485 heartbeat IPC: 0.74260 cumulative IPC: 0.63010 (Simulation time: 0 hr 11 min 29 sec) 
Heartbeat CPU  0 instructions:  319000001 cycles:  397750488 heartbeat IPC: 0.74349 cumulative IPC: 0.63054 (Simulation time: 0 hr 11 min 32 sec) 
Heartbeat CPU  0 instructions:  320000000 cycles:  399087513 heartbeat IPC: 0.74793 cumulative IPC: 0.63099 (Simulation time: 0 hr 11 min 34 sec) 
Heartbeat CPU  0 instructions:  321000003 cycles:  400346958 heartbeat IPC: 0.79400 cumulative IPC: 0.63158 (Simulation time: 0 hr 11 min 36 sec) 
Heartbeat CPU  0 instructions:  322000003 cycles:  401656246 heartbeat IPC: 0.76377 cumulative IPC: 0.63207 (Simulation time: 0 hr 11 min 38 sec) 
Heartbeat CPU  0 instructions:  323000003 cycles:  402995625 heartbeat IPC: 0.74661 cumulative IPC: 0.63251 (Simulation time: 0 hr 11 min 40 sec) 
Heartbeat CPU  0 instructions:  324000000 cycles:  404326344 heartbeat IPC: 0.75147 cumulative IPC: 0.63296 (Simulation time: 0 hr 11 min 43 sec) 
Heartbeat CPU  0 instructions:  325000000 cycles:  405641740 heartbeat IPC: 0.76023 cumulative IPC: 0.63343 (Simulation time: 0 hr 11 min 45 sec) 
Heartbeat CPU  0 instructions:  326000001 cycles:  406885233 heartbeat IPC: 0.80419 cumulative IPC: 0.63402 (Simulation time: 0 hr 11 min 47 sec) 
Heartbeat CPU  0 instructions:  327000001 cycles:  408210385 heartbeat IPC: 0.75463 cumulative IPC: 0.63447 (Simulation time: 0 hr 11 min 49 sec) 
Heartbeat CPU  0 instructions:  328000000 cycles:  409537295 heartbeat IPC: 0.75363 cumulative IPC: 0.63491 (Simulation time: 0 hr 11 min 51 sec) 
Heartbeat CPU  0 instructions:  329000000 cycles:  410864175 heartbeat IPC: 0.75365 cumulative IPC: 0.63535 (Simulation time: 0 hr 11 min 54 sec) 
Heartbeat CPU  0 instructions:  330000000 cycles:  412152582 heartbeat IPC: 0.77615 cumulative IPC: 0.63585 (Simulation time: 0 hr 11 min 56 sec) 
Heartbeat CPU  0 instructions:  331000003 cycles:  413435691 heartbeat IPC: 0.77936 cumulative IPC: 0.63636 (Simulation time: 0 hr 11 min 58 sec) 
Heartbeat CPU  0 instructions:  332000000 cycles:  414759050 heartbeat IPC: 0.75565 cumulative IPC: 0.63679 (Simulation time: 0 hr 12 min 0 sec) 
Heartbeat CPU  0 instructions:  333000002 cycles:  416090664 heartbeat IPC: 0.75097 cumulative IPC: 0.63720 (Simulation time: 0 hr 12 min 2 sec) 
Heartbeat CPU  0 instructions:  334000003 cycles:  417411321 heartbeat IPC: 0.75720 cumulative IPC: 0.63764 (Simulation time: 0 hr 12 min 5 sec) 
Heartbeat CPU  0 instructions:  335000000 cycles:  418670836 heartbeat IPC: 0.79395 cumulative IPC: 0.63817 (Simulation time: 0 hr 12 min 7 sec) 
Heartbeat CPU  0 instructions:  336000000 cycles:  419993258 heartbeat IPC: 0.75619 cumulative IPC: 0.63859 (Simulation time: 0 hr 12 min 9 sec) 
Heartbeat CPU  0 instructions:  337000001 cycles:  421296537 heartbeat IPC: 0.76730 cumulative IPC: 0.63905 (Simulation time: 0 hr 12 min 11 sec) 
Heartbeat CPU  0 instructions:  338000003 cycles:  422615894 heartbeat IPC: 0.75795 cumulative IPC: 0.63947 (Simulation time: 0 hr 12 min 14 sec) 
Heartbeat CPU  0 instructions:  339000000 cycles:  423894846 heartbeat IPC: 0.78189 cumulative IPC: 0.63995 (Simulation time: 0 hr 12 min 16 sec) 
Heartbeat CPU  0 instructions:  340000000 cycles:  425179897 heartbeat IPC: 0.77818 cumulative IPC: 0.64043 (Simulation time: 0 hr 12 min 18 sec) 
Heartbeat CPU  0 instructions:  341000002 cycles:  426501515 heartbeat IPC: 0.75665 cumulative IPC: 0.64084 (Simulation time: 0 hr 12 min 20 sec) 
Heartbeat CPU  0 instructions:  342000002 cycles:  427809162 heartbeat IPC: 0.76473 cumulative IPC: 0.64127 (Simulation time: 0 hr 12 min 22 sec) 
Heartbeat CPU  0 instructions:  343000001 cycles:  429114939 heartbeat IPC: 0.76583 cumulative IPC: 0.64170 (Simulation time: 0 hr 12 min 25 sec) 
Heartbeat CPU  0 instructions:  344000000 cycles:  430357960 heartbeat IPC: 0.80449 cumulative IPC: 0.64223 (Simulation time: 0 hr 12 min 27 sec) 
Heartbeat CPU  0 instructions:  345000003 cycles:  431692075 heartbeat IPC: 0.74956 cumulative IPC: 0.64260 (Simulation time: 0 hr 12 min 29 sec) 
Heartbeat CPU  0 instructions:  346000001 cycles:  432971639 heartbeat IPC: 0.78151 cumulative IPC: 0.64307 (Simulation time: 0 hr 12 min 31 sec) 
Heartbeat CPU  0 instructions:  347000003 cycles:  434717401 heartbeat IPC: 0.57282 cumulative IPC: 0.64275 (Simulation time: 0 hr 12 min 34 sec) 
Heartbeat CPU  0 instructions:  348000000 cycles:  437417148 heartbeat IPC: 0.37040 cumulative IPC: 0.64085 (Simulation time: 0 hr 12 min 36 sec) 
Heartbeat CPU  0 instructions:  349000002 cycles:  440106770 heartbeat IPC: 0.37180 cumulative IPC: 0.63899 (Simulation time: 0 hr 12 min 39 sec) 
Heartbeat CPU  0 instructions:  350000000 cycles:  442795225 heartbeat IPC: 0.37196 cumulative IPC: 0.63716 (Simulation time: 0 hr 12 min 42 sec) 
Heartbeat CPU  0 instructions:  351000002 cycles:  445464555 heartbeat IPC: 0.37463 cumulative IPC: 0.63539 (Simulation time: 0 hr 12 min 44 sec) 
Heartbeat CPU  0 instructions:  352000000 cycles:  448139470 heartbeat IPC: 0.37384 cumulative IPC: 0.63363 (Simulation time: 0 hr 12 min 47 sec) 
Heartbeat CPU  0 instructions:  353000000 cycles:  450824629 heartbeat IPC: 0.37242 cumulative IPC: 0.63188 (Simulation time: 0 hr 12 min 49 sec) 
Heartbeat CPU  0 instructions:  354000000 cycles:  453521746 heartbeat IPC: 0.37077 cumulative IPC: 0.63013 (Simulation time: 0 hr 12 min 52 sec) 
Heartbeat CPU  0 instructions:  355000003 cycles:  456208079 heartbeat IPC: 0.37226 cumulative IPC: 0.62842 (Simulation time: 0 hr 12 min 55 sec) 
Heartbeat CPU  0 instructions:  356000000 cycles:  458910174 heartbeat IPC: 0.37008 cumulative IPC: 0.62671 (Simulation time: 0 hr 12 min 57 sec) 
Heartbeat CPU  0 instructions:  357000000 cycles:  461609198 heartbeat IPC: 0.37050 cumulative IPC: 0.62503 (Simulation time: 0 hr 13 min 0 sec) 
Heartbeat CPU  0 instructions:  358000000 cycles:  464305652 heartbeat IPC: 0.37086 cumulative IPC: 0.62338 (Simulation time: 0 hr 13 min 3 sec) 
Heartbeat CPU  0 instructions:  359000000 cycles:  467012158 heartbeat IPC: 0.36948 cumulative IPC: 0.62173 (Simulation time: 0 hr 13 min 5 sec) 
Heartbeat CPU  0 instructions:  360000000 cycles:  469708737 heartbeat IPC: 0.37084 cumulative IPC: 0.62011 (Simulation time: 0 hr 13 min 8 sec) 
Heartbeat CPU  0 instructions:  361000000 cycles:  472399806 heartbeat IPC: 0.37160 cumulative IPC: 0.61853 (Simulation time: 0 hr 13 min 11 sec) 
Heartbeat CPU  0 instructions:  362000001 cycles:  475106198 heartbeat IPC: 0.36950 cumulative IPC: 0.61694 (Simulation time: 0 hr 13 min 13 sec) 
Heartbeat CPU  0 instructions:  363000003 cycles:  477812264 heartbeat IPC: 0.36954 cumulative IPC: 0.61538 (Simulation time: 0 hr 13 min 16 sec) 
Heartbeat CPU  0 instructions:  364000000 cycles:  480517643 heartbeat IPC: 0.36963 cumulative IPC: 0.61383 (Simulation time: 0 hr 13 min 19 sec) 
Heartbeat CPU  0 instructions:  365000000 cycles:  483225409 heartbeat IPC: 0.36931 cumulative IPC: 0.61230 (Simulation time: 0 hr 13 min 21 sec) 
Heartbeat CPU  0 instructions:  366000000 cycles:  485938479 heartbeat IPC: 0.36859 cumulative IPC: 0.61078 (Simulation time: 0 hr 13 min 24 sec) 
Heartbeat CPU  0 instructions:  367000001 cycles:  488632483 heartbeat IPC: 0.37120 cumulative IPC: 0.60931 (Simulation time: 0 hr 13 min 27 sec) 
Heartbeat CPU  0 instructions:  368000000 cycles:  491341769 heartbeat IPC: 0.36910 cumulative IPC: 0.60783 (Simulation time: 0 hr 13 min 30 sec) 
Heartbeat CPU  0 instructions:  369000000 cycles:  494051960 heartbeat IPC: 0.36898 cumulative IPC: 0.60637 (Simulation time: 0 hr 13 min 32 sec) 
Heartbeat CPU  0 instructions:  370000002 cycles:  496756575 heartbeat IPC: 0.36974 cumulative IPC: 0.60494 (Simulation time: 0 hr 13 min 35 sec) 
Heartbeat CPU  0 instructions:  371000002 cycles:  499470861 heartbeat IPC: 0.36842 cumulative IPC: 0.60351 (Simulation time: 0 hr 13 min 38 sec) 
Heartbeat CPU  0 instructions:  372000000 cycles:  502197734 heartbeat IPC: 0.36672 cumulative IPC: 0.60208 (Simulation time: 0 hr 13 min 40 sec) 
Heartbeat CPU  0 instructions:  373000002 cycles:  504898092 heartbeat IPC: 0.37032 cumulative IPC: 0.60070 (Simulation time: 0 hr 13 min 43 sec) 
Heartbeat CPU  0 instructions:  374000003 cycles:  507597604 heartbeat IPC: 0.37044 cumulative IPC: 0.59934 (Simulation time: 0 hr 13 min 46 sec) 
Heartbeat CPU  0 instructions:  375000003 cycles:  510312399 heartbeat IPC: 0.36835 cumulative IPC: 0.59798 (Simulation time: 0 hr 13 min 48 sec) 
Heartbeat CPU  0 instructions:  376000000 cycles:  513000522 heartbeat IPC: 0.37201 cumulative IPC: 0.59667 (Simulation time: 0 hr 13 min 51 sec) 
Heartbeat CPU  0 instructions:  377000003 cycles:  515712527 heartbeat IPC: 0.36873 cumulative IPC: 0.59534 (Simulation time: 0 hr 13 min 54 sec) 
Heartbeat CPU  0 instructions:  378000003 cycles:  518430763 heartbeat IPC: 0.36789 cumulative IPC: 0.59402 (Simulation time: 0 hr 13 min 56 sec) 
Heartbeat CPU  0 instructions:  379000003 cycles:  521127976 heartbeat IPC: 0.37075 cumulative IPC: 0.59274 (Simulation time: 0 hr 13 min 59 sec) 
Heartbeat CPU  0 instructions:  380000000 cycles:  523833808 heartbeat IPC: 0.36957 cumulative IPC: 0.59146 (Simulation time: 0 hr 14 min 2 sec) 
Heartbeat CPU  0 instructions:  381000002 cycles:  526557937 heartbeat IPC: 0.36709 cumulative IPC: 0.59018 (Simulation time: 0 hr 14 min 4 sec) 
Heartbeat CPU  0 instructions:  382000001 cycles:  529265421 heartbeat IPC: 0.36935 cumulative IPC: 0.58893 (Simulation time: 0 hr 14 min 7 sec) 
Heartbeat CPU  0 instructions:  383000000 cycles:  531964476 heartbeat IPC: 0.37050 cumulative IPC: 0.58771 (Simulation time: 0 hr 14 min 10 sec) 
Heartbeat CPU  0 instructions:  384000000 cycles:  534686482 heartbeat IPC: 0.36738 cumulative IPC: 0.58647 (Simulation time: 0 hr 14 min 13 sec) 
Heartbeat CPU  0 instructions:  385000000 cycles:  537399694 heartbeat IPC: 0.36857 cumulative IPC: 0.58525 (Simulation time: 0 hr 14 min 15 sec) 
Heartbeat CPU  0 instructions:  386000001 cycles:  540106190 heartbeat IPC: 0.36948 cumulative IPC: 0.58406 (Simulation time: 0 hr 14 min 18 sec) 
Heartbeat CPU  0 instructions:  387000003 cycles:  542816053 heartbeat IPC: 0.36902 cumulative IPC: 0.58288 (Simulation time: 0 hr 14 min 21 sec) 
Heartbeat CPU  0 instructions:  388000000 cycles:  545523561 heartbeat IPC: 0.36934 cumulative IPC: 0.58171 (Simulation time: 0 hr 14 min 23 sec) 
Heartbeat CPU  0 instructions:  389000001 cycles:  548223990 heartbeat IPC: 0.37031 cumulative IPC: 0.58056 (Simulation time: 0 hr 14 min 26 sec) 
Heartbeat CPU  0 instructions:  390000000 cycles:  550926264 heartbeat IPC: 0.37006 cumulative IPC: 0.57943 (Simulation time: 0 hr 14 min 29 sec) 
Heartbeat CPU  0 instructions:  391000000 cycles:  553626897 heartbeat IPC: 0.37028 cumulative IPC: 0.57830 (Simulation time: 0 hr 14 min 31 sec) 
Heartbeat CPU  0 instructions:  392000000 cycles:  555957573 heartbeat IPC: 0.42906 cumulative IPC: 0.57762 (Simulation time: 0 hr 14 min 34 sec) 
Heartbeat CPU  0 instructions:  393000002 cycles:  558098727 heartbeat IPC: 0.46704 cumulative IPC: 0.57715 (Simulation time: 0 hr 14 min 37 sec) 
Heartbeat CPU  0 instructions:  394000001 cycles:  562030859 heartbeat IPC: 0.25431 cumulative IPC: 0.57467 (Simulation time: 0 hr 14 min 41 sec) 
Heartbeat CPU  0 instructions:  395000000 cycles:  564504710 heartbeat IPC: 0.40423 cumulative IPC: 0.57385 (Simulation time: 0 hr 14 min 44 sec) 
Heartbeat CPU  0 instructions:  396000000 cycles:  565780968 heartbeat IPC: 0.78354 cumulative IPC: 0.57437 (Simulation time: 0 hr 14 min 46 sec) 
Heartbeat CPU  0 instructions:  397000000 cycles:  567069406 heartbeat IPC: 0.77613 cumulative IPC: 0.57487 (Simulation time: 0 hr 14 min 48 sec) 
Heartbeat CPU  0 instructions:  398000001 cycles:  568363985 heartbeat IPC: 0.77245 cumulative IPC: 0.57536 (Simulation time: 0 hr 14 min 50 sec) 
Heartbeat CPU  0 instructions:  399000002 cycles:  569679401 heartbeat IPC: 0.76022 cumulative IPC: 0.57583 (Simulation time: 0 hr 14 min 53 sec) 
Heartbeat CPU  0 instructions:  400000000 cycles:  570970984 heartbeat IPC: 0.77424 cumulative IPC: 0.57632 (Simulation time: 0 hr 14 min 55 sec) 
Heartbeat CPU  0 instructions:  401000003 cycles:  572284005 heartbeat IPC: 0.76160 cumulative IPC: 0.57679 (Simulation time: 0 hr 14 min 57 sec) 
Heartbeat CPU  0 instructions:  402000002 cycles:  573579240 heartbeat IPC: 0.77206 cumulative IPC: 0.57727 (Simulation time: 0 hr 15 min 0 sec) 
Heartbeat CPU  0 instructions:  403000002 cycles:  574843207 heartbeat IPC: 0.79116 cumulative IPC: 0.57779 (Simulation time: 0 hr 15 min 2 sec) 
Heartbeat CPU  0 instructions:  404000000 cycles:  576104782 heartbeat IPC: 0.79266 cumulative IPC: 0.57831 (Simulation time: 0 hr 15 min 4 sec) 
Heartbeat CPU  0 instructions:  405000000 cycles:  577379582 heartbeat IPC: 0.78444 cumulative IPC: 0.57880 (Simulation time: 0 hr 15 min 7 sec) 
Heartbeat CPU  0 instructions:  406000000 cycles:  578645578 heartbeat IPC: 0.78989 cumulative IPC: 0.57931 (Simulation time: 0 hr 15 min 9 sec) 
Heartbeat CPU  0 instructions:  407000000 cycles:  579908950 heartbeat IPC: 0.79153 cumulative IPC: 0.57982 (Simulation time: 0 hr 15 min 11 sec) 
Heartbeat CPU  0 instructions:  408000000 cycles:  581384611 heartbeat IPC: 0.67766 cumulative IPC: 0.58009 (Simulation time: 0 hr 15 min 14 sec) 
Heartbeat CPU  0 instructions:  409000001 cycles:  583950438 heartbeat IPC: 0.38974 cumulative IPC: 0.57917 (Simulation time: 0 hr 15 min 16 sec) 
Heartbeat CPU  0 instructions:  410000003 cycles:  586504503 heartbeat IPC: 0.39153 cumulative IPC: 0.57828 (Simulation time: 0 hr 15 min 19 sec) 
Heartbeat CPU  0 instructions:  411000002 cycles:  589001223 heartbeat IPC: 0.40053 cumulative IPC: 0.57745 (Simulation time: 0 hr 15 min 22 sec) 
Heartbeat CPU  0 instructions:  412000000 cycles:  590282938 heartbeat IPC: 0.78020 cumulative IPC: 0.57794 (Simulation time: 0 hr 15 min 24 sec) 
Heartbeat CPU  0 instructions:  413000003 cycles:  591373655 heartbeat IPC: 0.91683 cumulative IPC: 0.57862 (Simulation time: 0 hr 15 min 26 sec) 
Heartbeat CPU  0 instructions:  414000000 cycles:  592573140 heartbeat IPC: 0.83369 cumulative IPC: 0.57918 (Simulation time: 0 hr 15 min 28 sec) 
Heartbeat CPU  0 instructions:  415000002 cycles:  593782617 heartbeat IPC: 0.82681 cumulative IPC: 0.57973 (Simulation time: 0 hr 15 min 31 sec) 
Heartbeat CPU  0 instructions:  416000000 cycles:  594997362 heartbeat IPC: 0.82322 cumulative IPC: 0.58028 (Simulation time: 0 hr 15 min 33 sec) 
Heartbeat CPU  0 instructions:  417000000 cycles:  596267971 heartbeat IPC: 0.78702 cumulative IPC: 0.58076 (Simulation time: 0 hr 15 min 35 sec) 
Heartbeat CPU  0 instructions:  418000001 cycles:  597514562 heartbeat IPC: 0.80219 cumulative IPC: 0.58126 (Simulation time: 0 hr 15 min 37 sec) 
Heartbeat CPU  0 instructions:  419000003 cycles:  598779206 heartbeat IPC: 0.79074 cumulative IPC: 0.58175 (Simulation time: 0 hr 15 min 39 sec) 
Heartbeat CPU  0 instructions:  420000000 cycles:  600052689 heartbeat IPC: 0.78525 cumulative IPC: 0.58222 (Simulation time: 0 hr 15 min 41 sec) 
Heartbeat CPU  0 instructions:  421000001 cycles:  601345031 heartbeat IPC: 0.77379 cumulative IPC: 0.58267 (Simulation time: 0 hr 15 min 44 sec) 
Heartbeat CPU  0 instructions:  422000000 cycles:  602659394 heartbeat IPC: 0.76082 cumulative IPC: 0.58309 (Simulation time: 0 hr 15 min 46 sec) 
Heartbeat CPU  0 instructions:  423000002 cycles:  603944262 heartbeat IPC: 0.77829 cumulative IPC: 0.58355 (Simulation time: 0 hr 15 min 48 sec) 
Heartbeat CPU  0 instructions:  424000000 cycles:  605261666 heartbeat IPC: 0.75907 cumulative IPC: 0.58396 (Simulation time: 0 hr 15 min 50 sec) 
Heartbeat CPU  0 instructions:  425000000 cycles:  606580721 heartbeat IPC: 0.75812 cumulative IPC: 0.58437 (Simulation time: 0 hr 15 min 52 sec) 
Heartbeat CPU  0 instructions:  426000003 cycles:  607899085 heartbeat IPC: 0.75852 cumulative IPC: 0.58479 (Simulation time: 0 hr 15 min 54 sec) 
Heartbeat CPU  0 instructions:  427000003 cycles:  609217486 heartbeat IPC: 0.75849 cumulative IPC: 0.58520 (Simulation time: 0 hr 15 min 57 sec) 
Heartbeat CPU  0 instructions:  428000000 cycles:  610537434 heartbeat IPC: 0.75760 cumulative IPC: 0.58560 (Simulation time: 0 hr 15 min 59 sec) 
Heartbeat CPU  0 instructions:  429000002 cycles:  611854160 heartbeat IPC: 0.75946 cumulative IPC: 0.58601 (Simulation time: 0 hr 16 min 1 sec) 
Heartbeat CPU  0 instructions:  430000002 cycles:  613171732 heartbeat IPC: 0.75897 cumulative IPC: 0.58642 (Simulation time: 0 hr 16 min 3 sec) 
Heartbeat CPU  0 instructions:  431000003 cycles:  614489418 heartbeat IPC: 0.75891 cumulative IPC: 0.58682 (Simulation time: 0 hr 16 min 5 sec) 
Heartbeat CPU  0 instructions:  432000000 cycles:  615807538 heartbeat IPC: 0.75865 cumulative IPC: 0.58722 (Simulation time: 0 hr 16 min 7 sec) 
Heartbeat CPU  0 instructions:  433000001 cycles:  617125936 heartbeat IPC: 0.75850 cumulative IPC: 0.58762 (Simulation time: 0 hr 16 min 10 sec) 
Heartbeat CPU  0 instructions:  434000001 cycles:  618446500 heartbeat IPC: 0.75725 cumulative IPC: 0.58801 (Simulation time: 0 hr 16 min 12 sec) 
Heartbeat CPU  0 instructions:  435000000 cycles:  619763629 heartbeat IPC: 0.75923 cumulative IPC: 0.58841 (Simulation time: 0 hr 16 min 14 sec) 
Heartbeat CPU  0 instructions:  436000000 cycles:  621081178 heartbeat IPC: 0.75899 cumulative IPC: 0.58880 (Simulation time: 0 hr 16 min 16 sec) 
Heartbeat CPU  0 instructions:  437000002 cycles:  622398169 heartbeat IPC: 0.75931 cumulative IPC: 0.58919 (Simulation time: 0 hr 16 min 18 sec) 
Heartbeat CPU  0 instructions:  438000000 cycles:  623716989 heartbeat IPC: 0.75825 cumulative IPC: 0.58958 (Simulation time: 0 hr 16 min 21 sec) 
Heartbeat CPU  0 instructions:  439000003 cycles:  625034313 heartbeat IPC: 0.75912 cumulative IPC: 0.58997 (Simulation time: 0 hr 16 min 23 sec) 
Heartbeat CPU  0 instructions:  440000000 cycles:  626350115 heartbeat IPC: 0.75999 cumulative IPC: 0.59036 (Simulation time: 0 hr 16 min 25 sec) 
Heartbeat CPU  0 instructions:  441000000 cycles:  627669198 heartbeat IPC: 0.75810 cumulative IPC: 0.59074 (Simulation time: 0 hr 16 min 27 sec) 
Heartbeat CPU  0 instructions:  442000003 cycles:  628986886 heartbeat IPC: 0.75891 cumulative IPC: 0.59113 (Simulation time: 0 hr 16 min 29 sec) 
Heartbeat CPU  0 instructions:  443000002 cycles:  630307134 heartbeat IPC: 0.75743 cumulative IPC: 0.59151 (Simulation time: 0 hr 16 min 31 sec) 
Heartbeat CPU  0 instructions:  444000000 cycles:  631626058 heartbeat IPC: 0.75819 cumulative IPC: 0.59188 (Simulation time: 0 hr 16 min 34 sec) 
Heartbeat CPU  0 instructions:  445000003 cycles:  632942891 heartbeat IPC: 0.75940 cumulative IPC: 0.59226 (Simulation time: 0 hr 16 min 36 sec) 
Heartbeat CPU  0 instructions:  446000002 cycles:  634259457 heartbeat IPC: 0.75955 cumulative IPC: 0.59264 (Simulation time: 0 hr 16 min 38 sec) 
Heartbeat CPU  0 instructions:  447000000 cycles:  635578708 heartbeat IPC: 0.75800 cumulative IPC: 0.59301 (Simulation time: 0 hr 16 min 40 sec) 
Heartbeat CPU  0 instructions:  448000000 cycles:  636896650 heartbeat IPC: 0.75876 cumulative IPC: 0.59339 (Simulation time: 0 hr 16 min 42 sec) 
Heartbeat CPU  0 instructions:  449000003 cycles:  638215653 heartbeat IPC: 0.75815 cumulative IPC: 0.59375 (Simulation time: 0 hr 16 min 45 sec) 
Heartbeat CPU  0 instructions:  450000001 cycles:  639535193 heartbeat IPC: 0.75784 cumulative IPC: 0.59412 (Simulation time: 0 hr 16 min 47 sec) 
Heartbeat CPU  0 instructions:  451000003 cycles:  640851900 heartbeat IPC: 0.75947 cumulative IPC: 0.59449 (Simulation time: 0 hr 16 min 49 sec) 
Heartbeat CPU  0 instructions:  452000000 cycles:  642168935 heartbeat IPC: 0.75928 cumulative IPC: 0.59486 (Simulation time: 0 hr 16 min 51 sec) 
Heartbeat CPU  0 instructions:  453000000 cycles:  643486411 heartbeat IPC: 0.75903 cumulative IPC: 0.59522 (Simulation time: 0 hr 16 min 53 sec) 
Heartbeat CPU  0 instructions:  454000000 cycles:  644802795 heartbeat IPC: 0.75966 cumulative IPC: 0.59559 (Simulation time: 0 hr 16 min 56 sec) 
Heartbeat CPU  0 instructions:  455000002 cycles:  646120725 heartbeat IPC: 0.75877 cumulative IPC: 0.59595 (Simulation time: 0 hr 16 min 58 sec) 
Heartbeat CPU  0 instructions:  456000000 cycles:  647437771 heartbeat IPC: 0.75927 cumulative IPC: 0.59631 (Simulation time: 0 hr 17 min 0 sec) 
Heartbeat CPU  0 instructions:  457000000 cycles:  648757138 heartbeat IPC: 0.75794 cumulative IPC: 0.59666 (Simulation time: 0 hr 17 min 2 sec) 
Heartbeat CPU  0 instructions:  458000002 cycles:  650074542 heartbeat IPC: 0.75907 cumulative IPC: 0.59702 (Simulation time: 0 hr 17 min 4 sec) 
Heartbeat CPU  0 instructions:  459000001 cycles:  651395655 heartbeat IPC: 0.75694 cumulative IPC: 0.59737 (Simulation time: 0 hr 17 min 6 sec) 
Heartbeat CPU  0 instructions:  460000000 cycles:  652712926 heartbeat IPC: 0.75914 cumulative IPC: 0.59773 (Simulation time: 0 hr 17 min 9 sec) 
Heartbeat CPU  0 instructions:  461000003 cycles:  654030683 heartbeat IPC: 0.75887 cumulative IPC: 0.59808 (Simulation time: 0 hr 17 min 11 sec) 
Heartbeat CPU  0 instructions:  462000002 cycles:  655347353 heartbeat IPC: 0.75949 cumulative IPC: 0.59843 (Simulation time: 0 hr 17 min 13 sec) 
Heartbeat CPU  0 instructions:  463000002 cycles:  656665836 heartbeat IPC: 0.75845 cumulative IPC: 0.59878 (Simulation time: 0 hr 17 min 15 sec) 
Heartbeat CPU  0 instructions:  464000000 cycles:  657983876 heartbeat IPC: 0.75870 cumulative IPC: 0.59912 (Simulation time: 0 hr 17 min 17 sec) 
Heartbeat CPU  0 instructions:  465000001 cycles:  659304921 heartbeat IPC: 0.75698 cumulative IPC: 0.59947 (Simulation time: 0 hr 17 min 20 sec) 
Heartbeat CPU  0 instructions:  466000001 cycles:  660622862 heartbeat IPC: 0.75876 cumulative IPC: 0.59981 (Simulation time: 0 hr 17 min 22 sec) 
Heartbeat CPU  0 instructions:  467000001 cycles:  661939541 heartbeat IPC: 0.75949 cumulative IPC: 0.60016 (Simulation time: 0 hr 17 min 24 sec) 
Heartbeat CPU  0 instructions:  468000000 cycles:  663259567 heartbeat IPC: 0.75756 cumulative IPC: 0.60049 (Simulation time: 0 hr 17 min 26 sec) 
Heartbeat CPU  0 instructions:  469000000 cycles:  664579022 heartbeat IPC: 0.75789 cumulative IPC: 0.60083 (Simulation time: 0 hr 17 min 28 sec) 
Heartbeat CPU  0 instructions:  470000003 cycles:  665894983 heartbeat IPC: 0.75990 cumulative IPC: 0.60117 (Simulation time: 0 hr 17 min 31 sec) 
Heartbeat CPU  0 instructions:  471000002 cycles:  667211823 heartbeat IPC: 0.75939 cumulative IPC: 0.60151 (Simulation time: 0 hr 17 min 33 sec) 
Heartbeat CPU  0 instructions:  472000000 cycles:  668530275 heartbeat IPC: 0.75846 cumulative IPC: 0.60184 (Simulation time: 0 hr 17 min 35 sec) 
Heartbeat CPU  0 instructions:  473000003 cycles:  669848894 heartbeat IPC: 0.75837 cumulative IPC: 0.60218 (Simulation time: 0 hr 17 min 37 sec) 
Heartbeat CPU  0 instructions:  474000002 cycles:  671167743 heartbeat IPC: 0.75824 cumulative IPC: 0.60251 (Simulation time: 0 hr 17 min 39 sec) 
Heartbeat CPU  0 instructions:  475000003 cycles:  672487602 heartbeat IPC: 0.75766 cumulative IPC: 0.60284 (Simulation time: 0 hr 17 min 42 sec) 
Heartbeat CPU  0 instructions:  476000000 cycles:  673804530 heartbeat IPC: 0.75934 cumulative IPC: 0.60317 (Simulation time: 0 hr 17 min 44 sec) 
Heartbeat CPU  0 instructions:  477000002 cycles:  675122035 heartbeat IPC: 0.75901 cumulative IPC: 0.60350 (Simulation time: 0 hr 17 min 46 sec) 
Heartbeat CPU  0 instructions:  478000001 cycles:  676439709 heartbeat IPC: 0.75891 cumulative IPC: 0.60383 (Simulation time: 0 hr 17 min 48 sec) 
Heartbeat CPU  0 instructions:  479000002 cycles:  677758225 heartbeat IPC: 0.75843 cumulative IPC: 0.60415 (Simulation time: 0 hr 17 min 50 sec) 
Heartbeat CPU  0 instructions:  480000000 cycles:  679075849 heartbeat IPC: 0.75894 cumulative IPC: 0.60447 (Simulation time: 0 hr 17 min 52 sec) 
Heartbeat CPU  0 instructions:  481000001 cycles:  680396528 heartbeat IPC: 0.75719 cumulative IPC: 0.60479 (Simulation time: 0 hr 17 min 55 sec) 
Heartbeat CPU  0 instructions:  482000000 cycles:  682426314 heartbeat IPC: 0.49266 cumulative IPC: 0.60443 (Simulation time: 0 hr 17 min 57 sec) 
Heartbeat CPU  0 instructions:  483000003 cycles:  685009475 heartbeat IPC: 0.38712 cumulative IPC: 0.60355 (Simulation time: 0 hr 18 min 0 sec) 
Heartbeat CPU  0 instructions:  484000000 cycles:  687582842 heartbeat IPC: 0.38859 cumulative IPC: 0.60268 (Simulation time: 0 hr 18 min 2 sec) 
Heartbeat CPU  0 instructions:  485000003 cycles:  690118794 heartbeat IPC: 0.39433 cumulative IPC: 0.60186 (Simulation time: 0 hr 18 min 5 sec) 
Heartbeat CPU  0 instructions:  486000002 cycles:  692539027 heartbeat IPC: 0.41318 cumulative IPC: 0.60114 (Simulation time: 0 hr 18 min 7 sec) 
Heartbeat CPU  0 instructions:  487000002 cycles:  694900461 heartbeat IPC: 0.42347 cumulative IPC: 0.60049 (Simulation time: 0 hr 18 min 10 sec) 
Heartbeat CPU  0 instructions:  488000000 cycles:  697311980 heartbeat IPC: 0.41468 cumulative IPC: 0.59980 (Simulation time: 0 hr 18 min 12 sec) 
Heartbeat CPU  0 instructions:  489000001 cycles:  699657017 heartbeat IPC: 0.42643 cumulative IPC: 0.59917 (Simulation time: 0 hr 18 min 15 sec) 
Heartbeat CPU  0 instructions:  490000001 cycles:  702179121 heartbeat IPC: 0.39649 cumulative IPC: 0.59839 (Simulation time: 0 hr 18 min 17 sec) 
Heartbeat CPU  0 instructions:  491000003 cycles:  704690072 heartbeat IPC: 0.39826 cumulative IPC: 0.59762 (Simulation time: 0 hr 18 min 20 sec) 
Heartbeat CPU  0 instructions:  492000000 cycles:  707218982 heartbeat IPC: 0.39543 cumulative IPC: 0.59684 (Simulation time: 0 hr 18 min 23 sec) 
Heartbeat CPU  0 instructions:  493000002 cycles:  709709461 heartbeat IPC: 0.40153 cumulative IPC: 0.59611 (Simulation time: 0 hr 18 min 25 sec) 
Heartbeat CPU  0 instructions:  494000001 cycles:  712190854 heartbeat IPC: 0.40300 cumulative IPC: 0.59538 (Simulation time: 0 hr 18 min 28 sec) 
Heartbeat CPU  0 instructions:  495000000 cycles:  714597418 heartbeat IPC: 0.41553 cumulative IPC: 0.59473 (Simulation time: 0 hr 18 min 30 sec) 
Heartbeat CPU  0 instructions:  496000000 cycles:  716958024 heartbeat IPC: 0.42362 cumulative IPC: 0.59412 (Simulation time: 0 hr 18 min 33 sec) 
Heartbeat CPU  0 instructions:  497000000 cycles:  719376008 heartbeat IPC: 0.41357 cumulative IPC: 0.59347 (Simulation time: 0 hr 18 min 35 sec) 
Heartbeat CPU  0 instructions:  498000001 cycles:  721781477 heartbeat IPC: 0.41572 cumulative IPC: 0.59283 (Simulation time: 0 hr 18 min 38 sec) 
Heartbeat CPU  0 instructions:  499000000 cycles:  724258684 heartbeat IPC: 0.40368 cumulative IPC: 0.59214 (Simulation time: 0 hr 18 min 40 sec) 
Heartbeat CPU  0 instructions:  500000000 cycles:  726771117 heartbeat IPC: 0.39802 cumulative IPC: 0.59142 (Simulation time: 0 hr 18 min 43 sec) 
Heartbeat CPU  0 instructions:  501000002 cycles:  729294435 heartbeat IPC: 0.39630 cumulative IPC: 0.59069 (Simulation time: 0 hr 18 min 45 sec) 
Heartbeat CPU  0 instructions:  502000003 cycles:  731774483 heartbeat IPC: 0.40322 cumulative IPC: 0.59001 (Simulation time: 0 hr 18 min 48 sec) 
Heartbeat CPU  0 instructions:  503000000 cycles:  734245714 heartbeat IPC: 0.40466 cumulative IPC: 0.58934 (Simulation time: 0 hr 18 min 51 sec) 
Heartbeat CPU  0 instructions:  504000000 cycles:  736663767 heartbeat IPC: 0.41356 cumulative IPC: 0.58872 (Simulation time: 0 hr 18 min 53 sec) 
Heartbeat CPU  0 instructions:  505000003 cycles:  739039132 heartbeat IPC: 0.42099 cumulative IPC: 0.58814 (Simulation time: 0 hr 18 min 56 sec) 
Heartbeat CPU  0 instructions:  506000002 cycles:  741426360 heartbeat IPC: 0.41890 cumulative IPC: 0.58756 (Simulation time: 0 hr 18 min 58 sec) 
Heartbeat CPU  0 instructions:  507000000 cycles:  743866369 heartbeat IPC: 0.40983 cumulative IPC: 0.58693 (Simulation time: 0 hr 19 min 1 sec) 
Heartbeat CPU  0 instructions:  508000000 cycles:  746214487 heartbeat IPC: 0.42587 cumulative IPC: 0.58639 (Simulation time: 0 hr 19 min 3 sec) 
Heartbeat CPU  0 instructions:  509000002 cycles:  748423082 heartbeat IPC: 0.45278 cumulative IPC: 0.58597 (Simulation time: 0 hr 19 min 6 sec) 
Heartbeat CPU  0 instructions:  510000002 cycles:  750652785 heartbeat IPC: 0.44849 cumulative IPC: 0.58553 (Simulation time: 0 hr 19 min 9 sec) 
Heartbeat CPU  0 instructions:  511000003 cycles:  752836916 heartbeat IPC: 0.45785 cumulative IPC: 0.58513 (Simulation time: 0 hr 19 min 12 sec) 
Heartbeat CPU  0 instructions:  512000000 cycles:  754969033 heartbeat IPC: 0.46902 cumulative IPC: 0.58478 (Simulation time: 0 hr 19 min 15 sec) 
Heartbeat CPU  0 instructions:  513000003 cycles:  757066205 heartbeat IPC: 0.47683 cumulative IPC: 0.58446 (Simulation time: 0 hr 19 min 18 sec) 
Heartbeat CPU  0 instructions:  514000003 cycles:  759169968 heartbeat IPC: 0.47534 cumulative IPC: 0.58414 (Simulation time: 0 hr 19 min 21 sec) 
Heartbeat CPU  0 instructions:  515000000 cycles:  761267537 heartbeat IPC: 0.47674 cumulative IPC: 0.58382 (Simulation time: 0 hr 19 min 24 sec) 
Heartbeat CPU  0 instructions:  516000000 cycles:  763370948 heartbeat IPC: 0.47542 cumulative IPC: 0.58350 (Simulation time: 0 hr 19 min 26 sec) 
Heartbeat CPU  0 instructions:  517000001 cycles:  765456844 heartbeat IPC: 0.47941 cumulative IPC: 0.58320 (Simulation time: 0 hr 19 min 29 sec) 
Heartbeat CPU  0 instructions:  518000002 cycles:  767545803 heartbeat IPC: 0.47871 cumulative IPC: 0.58289 (Simulation time: 0 hr 19 min 32 sec) 
Heartbeat CPU  0 instructions:  519000000 cycles:  769626275 heartbeat IPC: 0.48066 cumulative IPC: 0.58260 (Simulation time: 0 hr 19 min 35 sec) 
Heartbeat CPU  0 instructions:  520000000 cycles:  771674867 heartbeat IPC: 0.48814 cumulative IPC: 0.58233 (Simulation time: 0 hr 19 min 38 sec) 
Heartbeat CPU  0 instructions:  521000003 cycles:  773575417 heartbeat IPC: 0.52617 cumulative IPC: 0.58218 (Simulation time: 0 hr 19 min 40 sec) 
Heartbeat CPU  0 instructions:  522000002 cycles:  775467677 heartbeat IPC: 0.52847 cumulative IPC: 0.58204 (Simulation time: 0 hr 19 min 43 sec) 
Heartbeat CPU  0 instructions:  523000001 cycles:  777388761 heartbeat IPC: 0.52054 cumulative IPC: 0.58188 (Simulation time: 0 hr 19 min 46 sec) 
Heartbeat CPU  0 instructions:  524000000 cycles:  779289395 heartbeat IPC: 0.52614 cumulative IPC: 0.58173 (Simulation time: 0 hr 19 min 48 sec) 
Heartbeat CPU  0 instructions:  525000000 cycles:  781109774 heartbeat IPC: 0.54934 cumulative IPC: 0.58165 (Simulation time: 0 hr 19 min 51 sec) 
Heartbeat CPU  0 instructions:  526000001 cycles:  782938565 heartbeat IPC: 0.54681 cumulative IPC: 0.58156 (Simulation time: 0 hr 19 min 54 sec) 
Heartbeat CPU  0 instructions:  527000000 cycles:  784823657 heartbeat IPC: 0.53048 cumulative IPC: 0.58143 (Simulation time: 0 hr 19 min 56 sec) 
Heartbeat CPU  0 instructions:  528000000 cycles:  786693127 heartbeat IPC: 0.53491 cumulative IPC: 0.58131 (Simulation time: 0 hr 19 min 59 sec) 
Heartbeat CPU  0 instructions:  529000002 cycles:  788569343 heartbeat IPC: 0.53299 cumulative IPC: 0.58119 (Simulation time: 0 hr 20 min 2 sec) 
Heartbeat CPU  0 instructions:  530000003 cycles:  790465545 heartbeat IPC: 0.52737 cumulative IPC: 0.58105 (Simulation time: 0 hr 20 min 5 sec) 
Heartbeat CPU  0 instructions:  531000002 cycles:  792332579 heartbeat IPC: 0.53561 cumulative IPC: 0.58094 (Simulation time: 0 hr 20 min 7 sec) 
Heartbeat CPU  0 instructions:  532000000 cycles:  794203913 heartbeat IPC: 0.53438 cumulative IPC: 0.58082 (Simulation time: 0 hr 20 min 10 sec) 
Heartbeat CPU  0 instructions:  533000000 cycles:  796084713 heartbeat IPC: 0.53169 cumulative IPC: 0.58070 (Simulation time: 0 hr 20 min 13 sec) 
Heartbeat CPU  0 instructions:  534000000 cycles:  797974849 heartbeat IPC: 0.52906 cumulative IPC: 0.58057 (Simulation time: 0 hr 20 min 15 sec) 
Heartbeat CPU  0 instructions:  535000000 cycles:  799872709 heartbeat IPC: 0.52691 cumulative IPC: 0.58043 (Simulation time: 0 hr 20 min 18 sec) 
Heartbeat CPU  0 instructions:  536000000 cycles:  801771095 heartbeat IPC: 0.52676 cumulative IPC: 0.58030 (Simulation time: 0 hr 20 min 21 sec) 
Heartbeat CPU  0 instructions:  537000001 cycles:  803655709 heartbeat IPC: 0.53061 cumulative IPC: 0.58017 (Simulation time: 0 hr 20 min 24 sec) 
Heartbeat CPU  0 instructions:  538000002 cycles:  805538933 heartbeat IPC: 0.53100 cumulative IPC: 0.58005 (Simulation time: 0 hr 20 min 26 sec) 
Heartbeat CPU  0 instructions:  539000000 cycles:  807389826 heartbeat IPC: 0.54028 cumulative IPC: 0.57995 (Simulation time: 0 hr 20 min 29 sec) 
Heartbeat CPU  0 instructions:  540000000 cycles:  809285047 heartbeat IPC: 0.52764 cumulative IPC: 0.57982 (Simulation time: 0 hr 20 min 32 sec) 
Heartbeat CPU  0 instructions:  541000002 cycles:  811131764 heartbeat IPC: 0.54150 cumulative IPC: 0.57973 (Simulation time: 0 hr 20 min 35 sec) 
Heartbeat CPU  0 instructions:  542000000 cycles:  813045111 heartbeat IPC: 0.52264 cumulative IPC: 0.57959 (Simulation time: 0 hr 20 min 37 sec) 
Heartbeat CPU  0 instructions:  543000001 cycles:  815004315 heartbeat IPC: 0.51041 cumulative IPC: 0.57941 (Simulation time: 0 hr 20 min 40 sec) 
Heartbeat CPU  0 instructions:  544000000 cycles:  816937189 heartbeat IPC: 0.51736 cumulative IPC: 0.57925 (Simulation time: 0 hr 20 min 43 sec) 
Heartbeat CPU  0 instructions:  545000002 cycles:  818869666 heartbeat IPC: 0.51747 cumulative IPC: 0.57910 (Simulation time: 0 hr 20 min 46 sec) 
Heartbeat CPU  0 instructions:  546000001 cycles:  820649695 heartbeat IPC: 0.56179 cumulative IPC: 0.57906 (Simulation time: 0 hr 20 min 48 sec) 
Heartbeat CPU  0 instructions:  547000001 cycles:  822166515 heartbeat IPC: 0.65927 cumulative IPC: 0.57921 (Simulation time: 0 hr 20 min 51 sec) 
Heartbeat CPU  0 instructions:  548000000 cycles:  823684216 heartbeat IPC: 0.65889 cumulative IPC: 0.57937 (Simulation time: 0 hr 20 min 53 sec) 
Heartbeat CPU  0 instructions:  549000000 cycles:  825198419 heartbeat IPC: 0.66041 cumulative IPC: 0.57953 (Simulation time: 0 hr 20 min 55 sec) 
Heartbeat CPU  0 instructions:  550000002 cycles:  826718035 heartbeat IPC: 0.65806 cumulative IPC: 0.57968 (Simulation time: 0 hr 20 min 58 sec) 
Heartbeat CPU  0 instructions:  551000001 cycles:  828204216 heartbeat IPC: 0.67286 cumulative IPC: 0.57986 (Simulation time: 0 hr 21 min 0 sec) 
Heartbeat CPU  0 instructions:  552000000 cycles:  829683649 heartbeat IPC: 0.67593 cumulative IPC: 0.58004 (Simulation time: 0 hr 21 min 2 sec) 
Heartbeat CPU  0 instructions:  553000000 cycles:  831133173 heartbeat IPC: 0.68988 cumulative IPC: 0.58025 (Simulation time: 0 hr 21 min 5 sec) 
Heartbeat CPU  0 instructions:  554000001 cycles:  832594446 heartbeat IPC: 0.68434 cumulative IPC: 0.58044 (Simulation time: 0 hr 21 min 7 sec) 
Heartbeat CPU  0 instructions:  555000002 cycles:  834029439 heartbeat IPC: 0.69687 cumulative IPC: 0.58065 (Simulation time: 0 hr 21 min 9 sec) 
Heartbeat CPU  0 instructions:  556000000 cycles:  835472717 heartbeat IPC: 0.69287 cumulative IPC: 0.58086 (Simulation time: 0 hr 21 min 12 sec) 
Heartbeat CPU  0 instructions:  557000002 cycles:  836842914 heartbeat IPC: 0.72982 cumulative IPC: 0.58112 (Simulation time: 0 hr 21 min 14 sec) 
Heartbeat CPU  0 instructions:  558000003 cycles:  838190494 heartbeat IPC: 0.74207 cumulative IPC: 0.58140 (Simulation time: 0 hr 21 min 16 sec) 
Heartbeat CPU  0 instructions:  559000002 cycles:  839469689 heartbeat IPC: 0.78174 cumulative IPC: 0.58172 (Simulation time: 0 hr 21 min 18 sec) 
Heartbeat CPU  0 instructions:  560000000 cycles:  840699955 heartbeat IPC: 0.81283 cumulative IPC: 0.58208 (Simulation time: 0 hr 21 min 20 sec) 
Heartbeat CPU  0 instructions:  561000002 cycles:  841943873 heartbeat IPC: 0.80391 cumulative IPC: 0.58243 (Simulation time: 0 hr 21 min 23 sec) 
Heartbeat CPU  0 instructions:  562000002 cycles:  843221016 heartbeat IPC: 0.78300 cumulative IPC: 0.58275 (Simulation time: 0 hr 21 min 25 sec) 
Heartbeat CPU  0 instructions:  563000001 cycles:  844619987 heartbeat IPC: 0.71481 cumulative IPC: 0.58298 (Simulation time: 0 hr 21 min 27 sec) 
Heartbeat CPU  0 instructions:  564000000 cycles:  846051975 heartbeat IPC: 0.69833 cumulative IPC: 0.58319 (Simulation time: 0 hr 21 min 30 sec) 
Heartbeat CPU  0 instructions:  565000003 cycles:  847502429 heartbeat IPC: 0.68944 cumulative IPC: 0.58339 (Simulation time: 0 hr 21 min 32 sec) 
Heartbeat CPU  0 instructions:  566000002 cycles:  848908274 heartbeat IPC: 0.71132 cumulative IPC: 0.58361 (Simulation time: 0 hr 21 min 34 sec) 
Heartbeat CPU  0 instructions:  567000001 cycles:  850329656 heartbeat IPC: 0.70354 cumulative IPC: 0.58382 (Simulation time: 0 hr 21 min 36 sec) 
Heartbeat CPU  0 instructions:  568000000 cycles:  851635562 heartbeat IPC: 0.76575 cumulative IPC: 0.58412 (Simulation time: 0 hr 21 min 39 sec) 
Heartbeat CPU  0 instructions:  569000001 cycles:  852952531 heartbeat IPC: 0.75932 cumulative IPC: 0.58441 (Simulation time: 0 hr 21 min 41 sec) 
Heartbeat CPU  0 instructions:  570000001 cycles:  854209757 heartbeat IPC: 0.79540 cumulative IPC: 0.58474 (Simulation time: 0 hr 21 min 43 sec) 
Heartbeat CPU  0 instructions:  571000003 cycles:  855459434 heartbeat IPC: 0.80021 cumulative IPC: 0.58507 (Simulation time: 0 hr 21 min 45 sec) 
Heartbeat CPU  0 instructions:  572000000 cycles:  856700169 heartbeat IPC: 0.80597 cumulative IPC: 0.58541 (Simulation time: 0 hr 21 min 48 sec) 
Heartbeat CPU  0 instructions:  573000001 cycles:  858042132 heartbeat IPC: 0.74518 cumulative IPC: 0.58568 (Simulation time: 0 hr 21 min 50 sec) 
Heartbeat CPU  0 instructions:  574000003 cycles:  859410038 heartbeat IPC: 0.73105 cumulative IPC: 0.58592 (Simulation time: 0 hr 21 min 52 sec) 
Heartbeat CPU  0 instructions:  575000000 cycles:  860841956 heartbeat IPC: 0.69836 cumulative IPC: 0.58612 (Simulation time: 0 hr 21 min 54 sec) 
Heartbeat CPU  0 instructions:  576000000 cycles:  862235459 heartbeat IPC: 0.71762 cumulative IPC: 0.58635 (Simulation time: 0 hr 21 min 57 sec) 
Heartbeat CPU  0 instructions:  577000002 cycles:  863652595 heartbeat IPC: 0.70565 cumulative IPC: 0.58656 (Simulation time: 0 hr 21 min 59 sec) 
Heartbeat CPU  0 instructions:  578000003 cycles:  864994049 heartbeat IPC: 0.74546 cumulative IPC: 0.58682 (Simulation time: 0 hr 22 min 1 sec) 
Heartbeat CPU  0 instructions:  579000000 cycles:  866344420 heartbeat IPC: 0.74054 cumulative IPC: 0.58707 (Simulation time: 0 hr 22 min 4 sec) 
Heartbeat CPU  0 instructions:  580000000 cycles:  867677698 heartbeat IPC: 0.75003 cumulative IPC: 0.58734 (Simulation time: 0 hr 22 min 6 sec) 
Heartbeat CPU  0 instructions:  581000002 cycles:  868988203 heartbeat IPC: 0.76307 cumulative IPC: 0.58762 (Simulation time: 0 hr 22 min 8 sec) 
Heartbeat CPU  0 instructions:  582000000 cycles:  870280117 heartbeat IPC: 0.77404 cumulative IPC: 0.58791 (Simulation time: 0 hr 22 min 10 sec) 
Heartbeat CPU  0 instructions:  583000000 cycles:  871603125 heartbeat IPC: 0.75585 cumulative IPC: 0.58818 (Simulation time: 0 hr 22 min 13 sec) 
Heartbeat CPU  0 instructions:  584000000 cycles:  873017466 heartbeat IPC: 0.70704 cumulative IPC: 0.58839 (Simulation time: 0 hr 22 min 15 sec) 
Heartbeat CPU  0 instructions:  585000001 cycles:  874435045 heartbeat IPC: 0.70543 cumulative IPC: 0.58859 (Simulation time: 0 hr 22 min 17 sec) 
Heartbeat CPU  0 instructions:  586000000 cycles:  875837599 heartbeat IPC: 0.71298 cumulative IPC: 0.58880 (Simulation time: 0 hr 22 min 20 sec) 
Heartbeat CPU  0 instructions:  587000000 cycles:  877208245 heartbeat IPC: 0.72958 cumulative IPC: 0.58903 (Simulation time: 0 hr 22 min 22 sec) 
Heartbeat CPU  0 instructions:  588000000 cycles:  878599620 heartbeat IPC: 0.71871 cumulative IPC: 0.58925 (Simulation time: 0 hr 22 min 24 sec) 
Heartbeat CPU  0 instructions:  589000001 cycles:  879937520 heartbeat IPC: 0.74744 cumulative IPC: 0.58951 (Simulation time: 0 hr 22 min 26 sec) 
Heartbeat CPU  0 instructions:  590000003 cycles:  881280104 heartbeat IPC: 0.74483 cumulative IPC: 0.58976 (Simulation time: 0 hr 22 min 29 sec) 
Heartbeat CPU  0 instructions:  591000002 cycles:  882579219 heartbeat IPC: 0.76975 cumulative IPC: 0.59004 (Simulation time: 0 hr 22 min 31 sec) 
Heartbeat CPU  0 instructions:  592000000 cycles:  883894313 heartbeat IPC: 0.76040 cumulative IPC: 0.59031 (Simulation time: 0 hr 22 min 33 sec) 
Heartbeat CPU  0 instructions:  593000000 cycles:  885236415 heartbeat IPC: 0.74510 cumulative IPC: 0.59056 (Simulation time: 0 hr 22 min 35 sec) 
Heartbeat CPU  0 instructions:  594000003 cycles:  886566594 heartbeat IPC: 0.75178 cumulative IPC: 0.59081 (Simulation time: 0 hr 22 min 38 sec) 
Heartbeat CPU  0 instructions:  595000000 cycles:  887924518 heartbeat IPC: 0.73642 cumulative IPC: 0.59105 (Simulation time: 0 hr 22 min 40 sec) 
Heartbeat CPU  0 instructions:  596000000 cycles:  889312141 heartbeat IPC: 0.72066 cumulative IPC: 0.59126 (Simulation time: 0 hr 22 min 42 sec) 
Heartbeat CPU  0 instructions:  597000001 cycles:  890678163 heartbeat IPC: 0.73205 cumulative IPC: 0.59149 (Simulation time: 0 hr 22 min 44 sec) 
Heartbeat CPU  0 instructions:  598000001 cycles:  892031950 heartbeat IPC: 0.73867 cumulative IPC: 0.59173 (Simulation time: 0 hr 22 min 47 sec) 
Heartbeat CPU  0 instructions:  599000000 cycles:  893392345 heartbeat IPC: 0.73508 cumulative IPC: 0.59196 (Simulation time: 0 hr 22 min 49 sec) 
Heartbeat CPU  0 instructions:  600000000 cycles:  894725425 heartbeat IPC: 0.75014 cumulative IPC: 0.59221 (Simulation time: 0 hr 22 min 51 sec) 
Finished CPU 0 instructions: 500000002 cycles: 844294525 cumulative IPC: 0.59221 (Simulation time: 0 hr 22 min 51 sec) 

ChampSim completed all CPUs

[ROI Statistics]
Core_0_instructions 500000002
Core_0_cycles 844294525
Core_0_IPC 0.59221

Core_0_branch_prediction_accuracy 99.14567
Core_0_branch_MPKI 0.22121
Core_0_average_ROB_occupancy_at_mispredict 245.41955

Core_0_L1D_total_access 143338271
Core_0_L1D_total_hit 137632004
Core_0_L1D_total_miss 5706267
Core_0_L1D_loads 130090637
Core_0_L1D_load_hit 125795389
Core_0_L1D_load_miss 4295248
Core_0_L1D_RFOs 13247634
Core_0_L1D_RFO_hit 11836615
Core_0_L1D_RFO_miss 1411019
Core_0_L1D_prefetches 0
Core_0_L1D_prefetch_hit 0
Core_0_L1D_prefetch_miss 0
Core_0_L1D_writebacks 0
Core_0_L1D_writeback_hit 0
Core_0_L1D_writeback_miss 0
Core_0_L1D_prefetch_requested 0
Core_0_L1D_prefetch_dropped 0
Core_0_L1D_prefetch_issued 0
Core_0_L1D_prefetch_filled 0
Core_0_L1D_prefetch_useful 0
Core_0_L1D_prefetch_useless 0
Core_0_L1D_prefetch_late 0
Core_0_L1D_average_miss_latency 161.53785

Core_0_L1D_rq_access 194151135
Core_0_L1D_rq_forward 0
Core_0_L1D_rq_merged 61566817
Core_0_L1D_rq_to_cache 132584318
Core_0_L1D_rq_full 0

Core_0_L1D_wq_access 17666329
Core_0_L1D_wq_forward 0
Core_0_L1D_wq_merged 10100
Core_0_L1D_wq_to_cache 17656229
Core_0_L1D_wq_full 0

Core_0_L1D_pq_access 0
Core_0_L1D_pq_forward 0
Core_0_L1D_pq_merged 0
Core_0_L1D_pq_to_cache 0
Core_0_L1D_pq_full 0

Core_0_L1D_acc_epochs 867621
Core_0_L1D_acc_level_0 867621
Core_0_L1D_acc_level_1 0
Core_0_L1D_acc_level_2 0
Core_0_L1D_acc_level_3 0
Core_0_L1D_acc_level_4 0
Core_0_L1D_acc_level_5 0
Core_0_L1D_acc_level_6 0
Core_0_L1D_acc_level_7 0
Core_0_L1D_acc_level_8 0
Core_0_L1D_acc_level_9 0

Core_0_L1I_total_access 115591870
Core_0_L1I_total_hit 115591064
Core_0_L1I_total_miss 806
Core_0_L1I_loads 115591870
Core_0_L1I_load_hit 115591064
Core_0_L1I_load_miss 806
Core_0_L1I_RFOs 0
Core_0_L1I_RFO_hit 0
Core_0_L1I_RFO_miss 0
Core_0_L1I_prefetches 0
Core_0_L1I_prefetch_hit 0
Core_0_L1I_prefetch_miss 0
Core_0_L1I_writebacks 0
Core_0_L1I_writeback_hit 0
Core_0_L1I_writeback_miss 0
Core_0_L1I_prefetch_requested 0
Core_0_L1I_prefetch_dropped 0
Core_0_L1I_prefetch_issued 0
Core_0_L1I_prefetch_filled 0
Core_0_L1I_prefetch_useful 0
Core_0_L1I_prefetch_useless 0
Core_0_L1I_prefetch_late 0
Core_0_L1I_average_miss_latency 225.56948

Core_0_L1I_rq_access 500000001
Core_0_L1I_rq_forward 0
Core_0_L1I_rq_merged 384406978
Core_0_L1I_rq_to_cache 115593023
Core_0_L1I_rq_full 0

Core_0_L1I_wq_access 0
Core_0_L1I_wq_forward 0
Core_0_L1I_wq_merged 0
Core_0_L1I_wq_to_cache 0
Core_0_L1I_wq_full 0

Core_0_L1I_pq_access 0
Core_0_L1I_pq_forward 0
Core_0_L1I_pq_merged 0
Core_0_L1I_pq_to_cache 0
Core_0_L1I_pq_full 0

Core_0_L1I_acc_epochs 867621
Core_0_L1I_acc_level_0 867621
Core_0_L1I_acc_level_1 0
Core_0_L1I_acc_level_2 0
Core_0_L1I_acc_level_3 0
Core_0_L1I_acc_level_4 0
Core_0_L1I_acc_level_5 0
Core_0_L1I_acc_level_6 0
Core_0_L1I_acc_level_7 0
Core_0_L1I_acc_level_8 0
Core_0_L1I_acc_level_9 0

Core_0_L2C_total_access 7552311
Core_0_L2C_total_hit 3285845
Core_0_L2C_total_miss 4266466
Core_0_L2C_loads 4296023
Core_0_L2C_load_hit 1023273
Core_0_L2C_load_miss 3272750
Core_0_L2C_RFOs 1410755
Core_0_L2C_RFO_hit 418934
Core_0_L2C_RFO_miss 991821
Core_0_L2C_prefetches 0
Core_0_L2C_prefetch_hit 0
Core_0_L2C_prefetch_miss 0
Core_0_L2C_writebacks 1845533
Core_0_L2C_writeback_hit 1843638
Core_0_L2C_writeback_miss 1895
Core_0_L2C_prefetch_requested 0
Core_0_L2C_prefetch_dropped 0
Core_0_L2C_prefetch_issued 0
Core_0_L2C_prefetch_filled 0
Core_0_L2C_prefetch_useful 0
Core_0_L2C_prefetch_useless 0
Core_0_L2C_prefetch_late 0
Core_0_L2C_average_miss_latency 197.00121

Core_0_L2C_rq_access 5707073
Core_0_L2C_rq_forward 0
Core_0_L2C_rq_merged 0
Core_0_L2C_rq_to_cache 5706778
Core_0_L2C_rq_full 0

Core_0_L2C_wq_access 1845533
Core_0_L2C_wq_forward 295
Core_0_L2C_wq_merged 0
Core_0_L2C_wq_to_cache 1845533
Core_0_L2C_wq_full 0

Core_0_L2C_pq_access 0
Core_0_L2C_pq_forward 0
Core_0_L2C_pq_merged 0
Core_0_L2C_pq_to_cache 0
Core_0_L2C_pq_full 0

Core_0_L2C_acc_epochs 867621
Core_0_L2C_acc_level_0 867621
Core_0_L2C_acc_level_1 0
Core_0_L2C_acc_level_2 0
Core_0_L2C_acc_level_3 0
Core_0_L2C_acc_level_4 0
Core_0_L2C_acc_level_5 0
Core_0_L2C_acc_level_6 0
Core_0_L2C_acc_level_7 0
Core_0_L2C_acc_level_8 0
Core_0_L2C_acc_level_9 0

Core_0_LLC_total_access 5581443
Core_0_LLC_total_hit 1149661
Core_0_LLC_total_miss 4431782
Core_0_LLC_loads 3272750
Core_0_LLC_load_hit 658951
Core_0_LLC_load_miss 2613799
Core_0_LLC_RFOs 991821
Core_0_LLC_RFO_hit 92372
Core_0_LLC_RFO_miss 899449
Core_0_LLC_prefetches 0
Core_0_LLC_prefetch_hit 0
Core_0_LLC_prefetch_miss 0
Core_0_LLC_writebacks 1316872
Core_0_LLC_writeback_hit 398338
Core_0_LLC_writeback_miss 918534
Core_0_LLC_prefetch_requested 0
Core_0_LLC_prefetch_dropped 0
Core_0_LLC_prefetch_issued 0
Core_0_LLC_prefetch_filled 0
Core_0_LLC_prefetch_useful 0
Core_0_LLC_prefetch_useless 0
Core_0_LLC_prefetch_late 0
Core_0_LLC_average_miss_latency 160.54089

Core_0_LLC_rq_access 4264571
Core_0_LLC_rq_forward 0
Core_0_LLC_rq_merged 0
Core_0_LLC_rq_to_cache 4264571
Core_0_LLC_rq_full 0

Core_0_LLC_wq_access 1316872
Core_0_LLC_wq_forward 0
Core_0_LLC_wq_merged 0
Core_0_LLC_wq_to_cache 1316872
Core_0_LLC_wq_full 0

Core_0_LLC_pq_access 0
Core_0_LLC_pq_forward 0
Core_0_LLC_pq_merged 0
Core_0_LLC_pq_to_cache 0
Core_0_LLC_pq_full 0

Core_0_LLC_acc_epochs 873756
Core_0_LLC_acc_level_0 873756
Core_0_LLC_acc_level_1 0
Core_0_LLC_acc_level_2 0
Core_0_LLC_acc_level_3 0
Core_0_LLC_acc_level_4 0
Core_0_LLC_acc_level_5 0
Core_0_LLC_acc_level_6 0
Core_0_LLC_acc_level_7 0
Core_0_LLC_acc_level_8 0
Core_0_LLC_acc_level_9 0

Core_0_major_page_fault 0
Core_0_minor_page_fault 19646

Channel_0_RQ_row_buffer_hit 797973
Channel_0_RQ_row_buffer_miss 2715233
Channel_0_WQ_row_buffer_hit 497123
Channel_0_WQ_row_buffer_miss 665907
Channel_0_WQ_full 0
Channel_0_dbus_congested 556953

avg_congested_cycle 4

DRAM_bw_pochs 3495022
DRAM_bw_level_0 3492777
DRAM_bw_level_1 2240
DRAM_bw_level_2 5
DRAM_bw_level_3 0
