*************************************************
   ChampSim Multicore Out-of-Order Simulator
   Last compiled: Dec 11 2024 17:59:53
*************************************************
parsing config file: /home/functionmain/桌面/Pythia/config/spp_dev2.ini

trace_0 /home/functionmain/桌面/Pythia/traces/437.leslie3d-232B.champsimtrace.xz
adding L2C_PREFETCHER: SPP_dev2
Initialize SIGNATURE TABLE
ST_SET: 1
ST_WAY: 256
ST_TAG_BIT: 16
ST_TAG_MASK: ffff

Initialize PATTERN TABLE
PT_SET: 512
PT_WAY: 4
SIG_DELTA_BIT: 7
C_SIG_BIT: 4
C_DELTA_BIT: 4

Initialize PREFETCH FILTER
FILTER_SET: 1024
fill_threshold: 90
pf_threshold: 40

Initialize SHIP state
warmup_instructions 100000000
simulation_instructions 500000000
champsim_seed 217
measure_ipc 0
measure_ipc_epoch 1000
measure_dram_bw 1
measure_dram_bw_epoch 256
measure_cache_acc 1
measure_cache_acc_epoch 1024
l1d_perfect 0
l2c_perfect 0
llc_perfect 0
l1d_semi_perfect 0
l2c_semi_perfect 0
llc_semi_perfect 0
semi_perfect_cache_page_buffer_size 64

num_cpus 1
cpu_freq 4000
dram_io_freq 600
page_size 4096
block_size 64
max_read_per_cycle 8
max_fill_per_cycle 1
dram_channels 1
log2_dram_channels 0
dram_ranks 1
dram_banks 8
dram_rows 65536
dram_columns 128
dram_row_size 8
dram_size 4096
dram_pages 1048576

fetch_width 6
decode_width 6
exec_width 4
lq_width 2
sq_width 2
retire_width 4
scheduler_size 128
branch_mispredict_penalty 20
rob_size 256
lq_size 72
sq_size 56
num_instr_destinations_sparc 4
num_instr_destinations 2
num_instr_sources 4

itlb_set 16
itlb_way 8
itlb_rq_size 16
itlb_wq_size 16
itlb_pq_size 0
itlb_mshr_size 8
itlb_latency 1

dtlb_set 16
dtlb_way 4
dtlb_rq_size 16
dtlb_wq_size 16
dtlb_pq_size 0
dtlb_mshr_size 8
dtlb_latency 1

stlb_set 128
stlb_way 12
stlb_rq_size 32
stlb_wq_size 32
stlb_pq_size 0
stlb_mshr_size 16
stlb_latency 8

l1i_size 32
l1i_set 64
l1i_way 8
l1i_rq_size 64
l1i_wq_size 64
l1i_pq_size 8
l1i_mshr_size 8
l1i_latency 1

l1d_size 32
l1d_set 64
l1d_way 8
l1d_rq_size 64
l1d_wq_size 64
l1d_pq_size 8
l1d_mshr_size 16
l1d_latency 4

l2c_size 256
l2c_set 512
l2c_way 8
l2c_rq_size 32
l2c_wq_size 32
l2c_pq_size 32
l2c_mshr_size 32
l2c_latency 10

llc_size 2048
llc_set 2048
llc_way 16
llc_rq_size 32
llc_wq_size 32
llc_pq_size 32
llc_mshr_size 64
llc_latency 20

dram_channel_width 8
dram_wq_size 64
dram_rq_size 64
tRP 15
tRCD 15
tCAS 12.5
dram_dbus_turn_around_time 30
dram_write_high_wm 56
dram_write_low_wm 48
min_dram_writes_per_switch 16
dram_mtps 600
dram_dbus_return_time 53


Heartbeat CPU  0 instructions:    1000000 cycles:     488292 heartbeat IPC: 2.04795 cumulative IPC: 2.04795 (Simulation time: 0 hr 0 min 1 sec) 
Heartbeat CPU  0 instructions:    2000001 cycles:     996509 heartbeat IPC: 1.96767 cumulative IPC: 2.00701 (Simulation time: 0 hr 0 min 3 sec) 
Heartbeat CPU  0 instructions:    3000003 cycles:    1555477 heartbeat IPC: 1.78901 cumulative IPC: 1.92867 (Simulation time: 0 hr 0 min 5 sec) 
Heartbeat CPU  0 instructions:    4000000 cycles:    2079999 heartbeat IPC: 1.90649 cumulative IPC: 1.92308 (Simulation time: 0 hr 0 min 7 sec) 
Heartbeat CPU  0 instructions:    5000002 cycles:    2568146 heartbeat IPC: 2.04857 cumulative IPC: 1.94693 (Simulation time: 0 hr 0 min 8 sec) 
Heartbeat CPU  0 instructions:    6000003 cycles:    3055689 heartbeat IPC: 2.05110 cumulative IPC: 1.96355 (Simulation time: 0 hr 0 min 10 sec) 
Heartbeat CPU  0 instructions:    7000001 cycles:    3543684 heartbeat IPC: 2.04920 cumulative IPC: 1.97535 (Simulation time: 0 hr 0 min 12 sec) 
Heartbeat CPU  0 instructions:    8000000 cycles:    4031856 heartbeat IPC: 2.04846 cumulative IPC: 1.98420 (Simulation time: 0 hr 0 min 14 sec) 
Heartbeat CPU  0 instructions:    9000000 cycles:    4520431 heartbeat IPC: 2.04677 cumulative IPC: 1.99096 (Simulation time: 0 hr 0 min 16 sec) 
Heartbeat CPU  0 instructions:   10000003 cycles:    5009067 heartbeat IPC: 2.04652 cumulative IPC: 1.99638 (Simulation time: 0 hr 0 min 17 sec) 
Heartbeat CPU  0 instructions:   11000000 cycles:    5497911 heartbeat IPC: 2.04564 cumulative IPC: 2.00076 (Simulation time: 0 hr 0 min 19 sec) 
Heartbeat CPU  0 instructions:   12000000 cycles:    5986365 heartbeat IPC: 2.04728 cumulative IPC: 2.00456 (Simulation time: 0 hr 0 min 21 sec) 
Heartbeat CPU  0 instructions:   13000001 cycles:    6532923 heartbeat IPC: 1.82963 cumulative IPC: 1.98992 (Simulation time: 0 hr 0 min 23 sec) 
Heartbeat CPU  0 instructions:   14000001 cycles:    7088131 heartbeat IPC: 1.80113 cumulative IPC: 1.97513 (Simulation time: 0 hr 0 min 24 sec) 
Heartbeat CPU  0 instructions:   15000000 cycles:    7576368 heartbeat IPC: 2.04818 cumulative IPC: 1.97984 (Simulation time: 0 hr 0 min 26 sec) 
Heartbeat CPU  0 instructions:   16000000 cycles:    8064651 heartbeat IPC: 2.04799 cumulative IPC: 1.98397 (Simulation time: 0 hr 0 min 28 sec) 
Heartbeat CPU  0 instructions:   17000003 cycles:    8552878 heartbeat IPC: 2.04823 cumulative IPC: 1.98764 (Simulation time: 0 hr 0 min 30 sec) 
Heartbeat CPU  0 instructions:   18000003 cycles:    9041142 heartbeat IPC: 2.04807 cumulative IPC: 1.99090 (Simulation time: 0 hr 0 min 31 sec) 
Heartbeat CPU  0 instructions:   19000001 cycles:    9529588 heartbeat IPC: 2.04731 cumulative IPC: 1.99379 (Simulation time: 0 hr 0 min 33 sec) 
Heartbeat CPU  0 instructions:   20000000 cycles:   10018459 heartbeat IPC: 2.04553 cumulative IPC: 1.99632 (Simulation time: 0 hr 0 min 35 sec) 
Heartbeat CPU  0 instructions:   21000000 cycles:   10507350 heartbeat IPC: 2.04545 cumulative IPC: 1.99860 (Simulation time: 0 hr 0 min 37 sec) 
Heartbeat CPU  0 instructions:   22000002 cycles:   10995679 heartbeat IPC: 2.04780 cumulative IPC: 2.00079 (Simulation time: 0 hr 0 min 38 sec) 
Heartbeat CPU  0 instructions:   23000002 cycles:   11510766 heartbeat IPC: 1.94142 cumulative IPC: 1.99813 (Simulation time: 0 hr 0 min 40 sec) 
Heartbeat CPU  0 instructions:   24000000 cycles:   12069379 heartbeat IPC: 1.79014 cumulative IPC: 1.98850 (Simulation time: 0 hr 0 min 42 sec) 
Heartbeat CPU  0 instructions:   25000001 cycles:   12584967 heartbeat IPC: 1.93954 cumulative IPC: 1.98650 (Simulation time: 0 hr 0 min 44 sec) 
Heartbeat CPU  0 instructions:   26000001 cycles:   13073523 heartbeat IPC: 2.04685 cumulative IPC: 1.98875 (Simulation time: 0 hr 0 min 46 sec) 
Heartbeat CPU  0 instructions:   27000000 cycles:   13561836 heartbeat IPC: 2.04786 cumulative IPC: 1.99088 (Simulation time: 0 hr 0 min 47 sec) 
Heartbeat CPU  0 instructions:   28000000 cycles:   14050725 heartbeat IPC: 2.04545 cumulative IPC: 1.99278 (Simulation time: 0 hr 0 min 49 sec) 
Heartbeat CPU  0 instructions:   29000002 cycles:   14539375 heartbeat IPC: 2.04646 cumulative IPC: 1.99458 (Simulation time: 0 hr 0 min 51 sec) 
Heartbeat CPU  0 instructions:   30000001 cycles:   15028141 heartbeat IPC: 2.04597 cumulative IPC: 1.99625 (Simulation time: 0 hr 0 min 53 sec) 
Heartbeat CPU  0 instructions:   31000001 cycles:   15516084 heartbeat IPC: 2.04942 cumulative IPC: 1.99793 (Simulation time: 0 hr 0 min 54 sec) 
Heartbeat CPU  0 instructions:   32000000 cycles:   16004161 heartbeat IPC: 2.04886 cumulative IPC: 1.99948 (Simulation time: 0 hr 0 min 56 sec) 
Heartbeat CPU  0 instructions:   33000002 cycles:   16492408 heartbeat IPC: 2.04815 cumulative IPC: 2.00092 (Simulation time: 0 hr 0 min 58 sec) 
Heartbeat CPU  0 instructions:   34000001 cycles:   17047330 heartbeat IPC: 1.80205 cumulative IPC: 1.99445 (Simulation time: 0 hr 1 min 0 sec) 
Heartbeat CPU  0 instructions:   35000001 cycles:   17593828 heartbeat IPC: 1.82983 cumulative IPC: 1.98933 (Simulation time: 0 hr 1 min 2 sec) 
Heartbeat CPU  0 instructions:   36000000 cycles:   18082164 heartbeat IPC: 2.04777 cumulative IPC: 1.99091 (Simulation time: 0 hr 1 min 3 sec) 
Heartbeat CPU  0 instructions:   37000003 cycles:   18571140 heartbeat IPC: 2.04510 cumulative IPC: 1.99234 (Simulation time: 0 hr 1 min 5 sec) 
Heartbeat CPU  0 instructions:   38000001 cycles:   19059793 heartbeat IPC: 2.04644 cumulative IPC: 1.99373 (Simulation time: 0 hr 1 min 7 sec) 
Heartbeat CPU  0 instructions:   39000002 cycles:   19548372 heartbeat IPC: 2.04675 cumulative IPC: 1.99505 (Simulation time: 0 hr 1 min 9 sec) 
Heartbeat CPU  0 instructions:   40000000 cycles:   20036326 heartbeat IPC: 2.04937 cumulative IPC: 1.99637 (Simulation time: 0 hr 1 min 10 sec) 
Heartbeat CPU  0 instructions:   41000001 cycles:   20524186 heartbeat IPC: 2.04977 cumulative IPC: 1.99764 (Simulation time: 0 hr 1 min 12 sec) 
Heartbeat CPU  0 instructions:   42000001 cycles:   21012354 heartbeat IPC: 2.04848 cumulative IPC: 1.99882 (Simulation time: 0 hr 1 min 14 sec) 
Heartbeat CPU  0 instructions:   43000001 cycles:   21500852 heartbeat IPC: 2.04709 cumulative IPC: 1.99992 (Simulation time: 0 hr 1 min 16 sec) 
Heartbeat CPU  0 instructions:   44000000 cycles:   22024665 heartbeat IPC: 1.90908 cumulative IPC: 1.99776 (Simulation time: 0 hr 1 min 17 sec) 
Heartbeat CPU  0 instructions:   45000000 cycles:   22583666 heartbeat IPC: 1.78891 cumulative IPC: 1.99259 (Simulation time: 0 hr 1 min 19 sec) 
Heartbeat CPU  0 instructions:   46000002 cycles:   23091756 heartbeat IPC: 1.96816 cumulative IPC: 1.99205 (Simulation time: 0 hr 1 min 21 sec) 
Heartbeat CPU  0 instructions:   47000002 cycles:   23580472 heartbeat IPC: 2.04618 cumulative IPC: 1.99317 (Simulation time: 0 hr 1 min 23 sec) 
Heartbeat CPU  0 instructions:   48000000 cycles:   24068447 heartbeat IPC: 2.04928 cumulative IPC: 1.99431 (Simulation time: 0 hr 1 min 24 sec) 
Heartbeat CPU  0 instructions:   49000002 cycles:   24556563 heartbeat IPC: 2.04870 cumulative IPC: 1.99539 (Simulation time: 0 hr 1 min 26 sec) 
Heartbeat CPU  0 instructions:   50000000 cycles:   25044905 heartbeat IPC: 2.04774 cumulative IPC: 1.99641 (Simulation time: 0 hr 1 min 28 sec) 
Heartbeat CPU  0 instructions:   51000002 cycles:   25533063 heartbeat IPC: 2.04852 cumulative IPC: 1.99741 (Simulation time: 0 hr 1 min 30 sec) 
Heartbeat CPU  0 instructions:   52000000 cycles:   26021557 heartbeat IPC: 2.04710 cumulative IPC: 1.99834 (Simulation time: 0 hr 1 min 32 sec) 
Heartbeat CPU  0 instructions:   53000000 cycles:   26509863 heartbeat IPC: 2.04790 cumulative IPC: 1.99926 (Simulation time: 0 hr 1 min 33 sec) 
Heartbeat CPU  0 instructions:   54000000 cycles:   27002472 heartbeat IPC: 2.03001 cumulative IPC: 1.99982 (Simulation time: 0 hr 1 min 35 sec) 
Heartbeat CPU  0 instructions:   55000002 cycles:   27561177 heartbeat IPC: 1.78986 cumulative IPC: 1.99556 (Simulation time: 0 hr 1 min 37 sec) 
Heartbeat CPU  0 instructions:   56000000 cycles:   28101250 heartbeat IPC: 1.85160 cumulative IPC: 1.99279 (Simulation time: 0 hr 1 min 39 sec) 
Heartbeat CPU  0 instructions:   57000000 cycles:   28589187 heartbeat IPC: 2.04944 cumulative IPC: 1.99376 (Simulation time: 0 hr 1 min 40 sec) 
Heartbeat CPU  0 instructions:   58000003 cycles:   29077053 heartbeat IPC: 2.04975 cumulative IPC: 1.99470 (Simulation time: 0 hr 1 min 42 sec) 
Heartbeat CPU  0 instructions:   59000001 cycles:   29565185 heartbeat IPC: 2.04862 cumulative IPC: 1.99559 (Simulation time: 0 hr 1 min 44 sec) 
Heartbeat CPU  0 instructions:   60000000 cycles:   30053494 heartbeat IPC: 2.04788 cumulative IPC: 1.99644 (Simulation time: 0 hr 1 min 46 sec) 
Heartbeat CPU  0 instructions:   61000000 cycles:   30541976 heartbeat IPC: 2.04716 cumulative IPC: 1.99725 (Simulation time: 0 hr 1 min 47 sec) 
Heartbeat CPU  0 instructions:   62000000 cycles:   31030871 heartbeat IPC: 2.04543 cumulative IPC: 1.99801 (Simulation time: 0 hr 1 min 49 sec) 
Heartbeat CPU  0 instructions:   63000002 cycles:   31519437 heartbeat IPC: 2.04681 cumulative IPC: 1.99877 (Simulation time: 0 hr 1 min 51 sec) 
Heartbeat CPU  0 instructions:   64000000 cycles:   32007866 heartbeat IPC: 2.04738 cumulative IPC: 1.99951 (Simulation time: 0 hr 1 min 53 sec) 
Heartbeat CPU  0 instructions:   65000000 cycles:   32538559 heartbeat IPC: 1.88433 cumulative IPC: 1.99763 (Simulation time: 0 hr 1 min 55 sec) 
Heartbeat CPU  0 instructions:   66000001 cycles:   33097062 heartbeat IPC: 1.79050 cumulative IPC: 1.99413 (Simulation time: 0 hr 1 min 56 sec) 
Heartbeat CPU  0 instructions:   67000000 cycles:   33597043 heartbeat IPC: 2.00007 cumulative IPC: 1.99422 (Simulation time: 0 hr 1 min 58 sec) 
Heartbeat CPU  0 instructions:   68000000 cycles:   34085266 heartbeat IPC: 2.04824 cumulative IPC: 1.99500 (Simulation time: 0 hr 2 min 0 sec) 
Heartbeat CPU  0 instructions:   69000001 cycles:   34573822 heartbeat IPC: 2.04685 cumulative IPC: 1.99573 (Simulation time: 0 hr 2 min 2 sec) 
Heartbeat CPU  0 instructions:   70000001 cycles:   35061977 heartbeat IPC: 2.04853 cumulative IPC: 1.99646 (Simulation time: 0 hr 2 min 3 sec) 
Heartbeat CPU  0 instructions:   71000003 cycles:   35550828 heartbeat IPC: 2.04562 cumulative IPC: 1.99714 (Simulation time: 0 hr 2 min 5 sec) 
Heartbeat CPU  0 instructions:   72000000 cycles:   36039593 heartbeat IPC: 2.04597 cumulative IPC: 1.99780 (Simulation time: 0 hr 2 min 7 sec) 
Heartbeat CPU  0 instructions:   73000001 cycles:   36528551 heartbeat IPC: 2.04517 cumulative IPC: 1.99844 (Simulation time: 0 hr 2 min 9 sec) 
Heartbeat CPU  0 instructions:   74000000 cycles:   37016626 heartbeat IPC: 2.04886 cumulative IPC: 1.99910 (Simulation time: 0 hr 2 min 10 sec) 
Heartbeat CPU  0 instructions:   75000001 cycles:   37516370 heartbeat IPC: 2.00103 cumulative IPC: 1.99913 (Simulation time: 0 hr 2 min 12 sec) 
Heartbeat CPU  0 instructions:   76000000 cycles:   38075017 heartbeat IPC: 1.79004 cumulative IPC: 1.99606 (Simulation time: 0 hr 2 min 14 sec) 
Heartbeat CPU  0 instructions:   77000002 cycles:   38605757 heartbeat IPC: 1.88417 cumulative IPC: 1.99452 (Simulation time: 0 hr 2 min 16 sec) 
Heartbeat CPU  0 instructions:   78000001 cycles:   39094060 heartbeat IPC: 2.04791 cumulative IPC: 1.99519 (Simulation time: 0 hr 2 min 17 sec) 
Heartbeat CPU  0 instructions:   79000001 cycles:   39582832 heartbeat IPC: 2.04594 cumulative IPC: 1.99581 (Simulation time: 0 hr 2 min 19 sec) 
Heartbeat CPU  0 instructions:   80000000 cycles:   40071410 heartbeat IPC: 2.04675 cumulative IPC: 1.99644 (Simulation time: 0 hr 2 min 21 sec) 
Heartbeat CPU  0 instructions:   81000003 cycles:   40560151 heartbeat IPC: 2.04608 cumulative IPC: 1.99703 (Simulation time: 0 hr 2 min 23 sec) 
Heartbeat CPU  0 instructions:   82000001 cycles:   41048348 heartbeat IPC: 2.04835 cumulative IPC: 1.99764 (Simulation time: 0 hr 2 min 25 sec) 
Heartbeat CPU  0 instructions:   83000000 cycles:   41536343 heartbeat IPC: 2.04920 cumulative IPC: 1.99825 (Simulation time: 0 hr 2 min 26 sec) 
Heartbeat CPU  0 instructions:   84000000 cycles:   42024462 heartbeat IPC: 2.04868 cumulative IPC: 1.99884 (Simulation time: 0 hr 2 min 28 sec) 
Heartbeat CPU  0 instructions:   85000002 cycles:   42512840 heartbeat IPC: 2.04760 cumulative IPC: 1.99940 (Simulation time: 0 hr 2 min 30 sec) 
Heartbeat CPU  0 instructions:   86000000 cycles:   43052983 heartbeat IPC: 1.85136 cumulative IPC: 1.99754 (Simulation time: 0 hr 2 min 32 sec) 
Heartbeat CPU  0 instructions:   87000002 cycles:   43611860 heartbeat IPC: 1.78931 cumulative IPC: 1.99487 (Simulation time: 0 hr 2 min 33 sec) 
Heartbeat CPU  0 instructions:   88000000 cycles:   44123901 heartbeat IPC: 1.95296 cumulative IPC: 1.99438 (Simulation time: 0 hr 2 min 35 sec) 
Heartbeat CPU  0 instructions:   89000002 cycles:   44651773 heartbeat IPC: 1.89440 cumulative IPC: 1.99320 (Simulation time: 0 hr 2 min 37 sec) 
Heartbeat CPU  0 instructions:   90000002 cycles:   45178926 heartbeat IPC: 1.89698 cumulative IPC: 1.99208 (Simulation time: 0 hr 2 min 39 sec) 
Heartbeat CPU  0 instructions:   91000003 cycles:   45706524 heartbeat IPC: 1.89538 cumulative IPC: 1.99096 (Simulation time: 0 hr 2 min 41 sec) 
Heartbeat CPU  0 instructions:   92000000 cycles:   46234206 heartbeat IPC: 1.89508 cumulative IPC: 1.98987 (Simulation time: 0 hr 2 min 42 sec) 
Heartbeat CPU  0 instructions:   93000001 cycles:   46761370 heartbeat IPC: 1.89694 cumulative IPC: 1.98882 (Simulation time: 0 hr 2 min 44 sec) 
Heartbeat CPU  0 instructions:   94000003 cycles:   47289651 heartbeat IPC: 1.89294 cumulative IPC: 1.98775 (Simulation time: 0 hr 2 min 46 sec) 
Heartbeat CPU  0 instructions:   95000003 cycles:   47816705 heartbeat IPC: 1.89734 cumulative IPC: 1.98675 (Simulation time: 0 hr 2 min 48 sec) 
Heartbeat CPU  0 instructions:   96000000 cycles:   48344180 heartbeat IPC: 1.89582 cumulative IPC: 1.98576 (Simulation time: 0 hr 2 min 50 sec) 
Heartbeat CPU  0 instructions:   97000003 cycles:   48872437 heartbeat IPC: 1.89302 cumulative IPC: 1.98476 (Simulation time: 0 hr 2 min 51 sec) 
Heartbeat CPU  0 instructions:   98000002 cycles:   49398983 heartbeat IPC: 1.89917 cumulative IPC: 1.98385 (Simulation time: 0 hr 2 min 53 sec) 
Heartbeat CPU  0 instructions:   99000002 cycles:   49926211 heartbeat IPC: 1.89671 cumulative IPC: 1.98293 (Simulation time: 0 hr 2 min 55 sec) 
Heartbeat CPU  0 instructions:  100000000 cycles:   50453611 heartbeat IPC: 1.89609 cumulative IPC: 1.98202 (Simulation time: 0 hr 2 min 57 sec) 

Warmup complete CPU  0 instructions:  100000001 cycles:   50453612 (Simulation time: 0 hr 2 min 57 sec) 

Heartbeat CPU  0 instructions:  101000002 cycles:   51473713 heartbeat IPC: 0.98030 cumulative IPC: 0.98030 (Simulation time: 0 hr 2 min 59 sec) 
Heartbeat CPU  0 instructions:  102000002 cycles:   52489886 heartbeat IPC: 0.98408 cumulative IPC: 0.98219 (Simulation time: 0 hr 3 min 1 sec) 
Heartbeat CPU  0 instructions:  103000000 cycles:   53510080 heartbeat IPC: 0.98020 cumulative IPC: 0.98152 (Simulation time: 0 hr 3 min 3 sec) 
Heartbeat CPU  0 instructions:  104000000 cycles:   54532040 heartbeat IPC: 0.97851 cumulative IPC: 0.98077 (Simulation time: 0 hr 3 min 6 sec) 
Heartbeat CPU  0 instructions:  105000002 cycles:   55554770 heartbeat IPC: 0.97778 cumulative IPC: 0.98017 (Simulation time: 0 hr 3 min 8 sec) 
Heartbeat CPU  0 instructions:  106000000 cycles:   56576553 heartbeat IPC: 0.97868 cumulative IPC: 0.97992 (Simulation time: 0 hr 3 min 10 sec) 
Heartbeat CPU  0 instructions:  107000003 cycles:   57600219 heartbeat IPC: 0.97688 cumulative IPC: 0.97949 (Simulation time: 0 hr 3 min 12 sec) 
Heartbeat CPU  0 instructions:  108000000 cycles:   58621751 heartbeat IPC: 0.97892 cumulative IPC: 0.97942 (Simulation time: 0 hr 3 min 15 sec) 
Heartbeat CPU  0 instructions:  109000002 cycles:   59686288 heartbeat IPC: 0.93938 cumulative IPC: 0.97480 (Simulation time: 0 hr 3 min 17 sec) 
Heartbeat CPU  0 instructions:  110000000 cycles:   60707399 heartbeat IPC: 0.97932 cumulative IPC: 0.97525 (Simulation time: 0 hr 3 min 19 sec) 
Heartbeat CPU  0 instructions:  111000000 cycles:   61727054 heartbeat IPC: 0.98072 cumulative IPC: 0.97574 (Simulation time: 0 hr 3 min 21 sec) 
Heartbeat CPU  0 instructions:  112000000 cycles:   62746865 heartbeat IPC: 0.98057 cumulative IPC: 0.97615 (Simulation time: 0 hr 3 min 23 sec) 
Heartbeat CPU  0 instructions:  113000001 cycles:   63770337 heartbeat IPC: 0.97707 cumulative IPC: 0.97622 (Simulation time: 0 hr 3 min 26 sec) 
Heartbeat CPU  0 instructions:  114000000 cycles:   64791406 heartbeat IPC: 0.97936 cumulative IPC: 0.97644 (Simulation time: 0 hr 3 min 28 sec) 
Heartbeat CPU  0 instructions:  115000001 cycles:   65813453 heartbeat IPC: 0.97843 cumulative IPC: 0.97657 (Simulation time: 0 hr 3 min 30 sec) 
Heartbeat CPU  0 instructions:  116000000 cycles:   66839465 heartbeat IPC: 0.97465 cumulative IPC: 0.97645 (Simulation time: 0 hr 3 min 32 sec) 
Heartbeat CPU  0 instructions:  117000003 cycles:   67863220 heartbeat IPC: 0.97680 cumulative IPC: 0.97647 (Simulation time: 0 hr 3 min 35 sec) 
Heartbeat CPU  0 instructions:  118000000 cycles:   68886362 heartbeat IPC: 0.97738 cumulative IPC: 0.97652 (Simulation time: 0 hr 3 min 37 sec) 
Heartbeat CPU  0 instructions:  119000002 cycles:   69944435 heartbeat IPC: 0.94512 cumulative IPC: 0.97482 (Simulation time: 0 hr 3 min 39 sec) 
Heartbeat CPU  0 instructions:  120000000 cycles:   70978929 heartbeat IPC: 0.96665 cumulative IPC: 0.97441 (Simulation time: 0 hr 3 min 41 sec) 
Heartbeat CPU  0 instructions:  121000003 cycles:   71997639 heartbeat IPC: 0.98164 cumulative IPC: 0.97475 (Simulation time: 0 hr 3 min 44 sec) 
Heartbeat CPU  0 instructions:  122000003 cycles:   73018300 heartbeat IPC: 0.97976 cumulative IPC: 0.97497 (Simulation time: 0 hr 3 min 46 sec) 
Heartbeat CPU  0 instructions:  123000000 cycles:   74037486 heartbeat IPC: 0.98117 cumulative IPC: 0.97524 (Simulation time: 0 hr 3 min 48 sec) 
Heartbeat CPU  0 instructions:  124000000 cycles:   75059094 heartbeat IPC: 0.97885 cumulative IPC: 0.97539 (Simulation time: 0 hr 3 min 50 sec) 
Heartbeat CPU  0 instructions:  125000003 cycles:   76080209 heartbeat IPC: 0.97932 cumulative IPC: 0.97555 (Simulation time: 0 hr 3 min 52 sec) 
Heartbeat CPU  0 instructions:  126000000 cycles:   77102559 heartbeat IPC: 0.97814 cumulative IPC: 0.97565 (Simulation time: 0 hr 3 min 55 sec) 
Heartbeat CPU  0 instructions:  127000000 cycles:   78124753 heartbeat IPC: 0.97829 cumulative IPC: 0.97575 (Simulation time: 0 hr 3 min 57 sec) 
Heartbeat CPU  0 instructions:  128000000 cycles:   79150539 heartbeat IPC: 0.97486 cumulative IPC: 0.97571 (Simulation time: 0 hr 3 min 59 sec) 
Heartbeat CPU  0 instructions:  129000002 cycles:   80185330 heartbeat IPC: 0.96638 cumulative IPC: 0.97539 (Simulation time: 0 hr 4 min 1 sec) 
Heartbeat CPU  0 instructions:  130000001 cycles:   81257805 heartbeat IPC: 0.93242 cumulative IPC: 0.97389 (Simulation time: 0 hr 4 min 4 sec) 
Heartbeat CPU  0 instructions:  131000002 cycles:   82278828 heartbeat IPC: 0.97941 cumulative IPC: 0.97407 (Simulation time: 0 hr 4 min 6 sec) 
Heartbeat CPU  0 instructions:  132000000 cycles:   83301281 heartbeat IPC: 0.97804 cumulative IPC: 0.97419 (Simulation time: 0 hr 4 min 8 sec) 
Heartbeat CPU  0 instructions:  133000000 cycles:   84321035 heartbeat IPC: 0.98063 cumulative IPC: 0.97439 (Simulation time: 0 hr 4 min 10 sec) 
Heartbeat CPU  0 instructions:  134000001 cycles:   85342653 heartbeat IPC: 0.97884 cumulative IPC: 0.97452 (Simulation time: 0 hr 4 min 13 sec) 
Heartbeat CPU  0 instructions:  135000002 cycles:   86365734 heartbeat IPC: 0.97744 cumulative IPC: 0.97460 (Simulation time: 0 hr 4 min 15 sec) 
Heartbeat CPU  0 instructions:  136000000 cycles:   87389635 heartbeat IPC: 0.97665 cumulative IPC: 0.97466 (Simulation time: 0 hr 4 min 17 sec) 
Heartbeat CPU  0 instructions:  137000001 cycles:   88411957 heartbeat IPC: 0.97817 cumulative IPC: 0.97475 (Simulation time: 0 hr 4 min 19 sec) 
Heartbeat CPU  0 instructions:  138000003 cycles:   89437022 heartbeat IPC: 0.97555 cumulative IPC: 0.97477 (Simulation time: 0 hr 4 min 21 sec) 
Heartbeat CPU  0 instructions:  139000000 cycles:   90457905 heartbeat IPC: 0.97954 cumulative IPC: 0.97490 (Simulation time: 0 hr 4 min 24 sec) 
Heartbeat CPU  0 instructions:  140000000 cycles:   91579534 heartbeat IPC: 0.89156 cumulative IPC: 0.97262 (Simulation time: 0 hr 4 min 26 sec) 
Heartbeat CPU  0 instructions:  141000001 cycles:   92665637 heartbeat IPC: 0.92072 cumulative IPC: 0.97129 (Simulation time: 0 hr 4 min 28 sec) 
Heartbeat CPU  0 instructions:  142000001 cycles:   93692637 heartbeat IPC: 0.97371 cumulative IPC: 0.97134 (Simulation time: 0 hr 4 min 30 sec) 
Heartbeat CPU  0 instructions:  143000000 cycles:   94690767 heartbeat IPC: 1.00187 cumulative IPC: 0.97203 (Simulation time: 0 hr 4 min 33 sec) 
Heartbeat CPU  0 instructions:  144000000 cycles:   95689518 heartbeat IPC: 1.00125 cumulative IPC: 0.97268 (Simulation time: 0 hr 4 min 35 sec) 
Heartbeat CPU  0 instructions:  145000001 cycles:   96716657 heartbeat IPC: 0.97358 cumulative IPC: 0.97270 (Simulation time: 0 hr 4 min 37 sec) 
Heartbeat CPU  0 instructions:  146000001 cycles:   97734511 heartbeat IPC: 0.98246 cumulative IPC: 0.97291 (Simulation time: 0 hr 4 min 39 sec) 
Heartbeat CPU  0 instructions:  147000002 cycles:   98765072 heartbeat IPC: 0.97035 cumulative IPC: 0.97285 (Simulation time: 0 hr 4 min 41 sec) 
Heartbeat CPU  0 instructions:  148000000 cycles:   99771773 heartbeat IPC: 0.99334 cumulative IPC: 0.97327 (Simulation time: 0 hr 4 min 43 sec) 
Heartbeat CPU  0 instructions:  149000000 cycles:  100788122 heartbeat IPC: 0.98391 cumulative IPC: 0.97349 (Simulation time: 0 hr 4 min 45 sec) 
Heartbeat CPU  0 instructions:  150000001 cycles:  101727777 heartbeat IPC: 1.06422 cumulative IPC: 0.97515 (Simulation time: 0 hr 4 min 47 sec) 
Heartbeat CPU  0 instructions:  151000002 cycles:  102706002 heartbeat IPC: 1.02226 cumulative IPC: 0.97603 (Simulation time: 0 hr 4 min 50 sec) 
Heartbeat CPU  0 instructions:  152000000 cycles:  103704787 heartbeat IPC: 1.00121 cumulative IPC: 0.97650 (Simulation time: 0 hr 4 min 52 sec) 
Heartbeat CPU  0 instructions:  153000002 cycles:  104689480 heartbeat IPC: 1.01555 cumulative IPC: 0.97721 (Simulation time: 0 hr 4 min 54 sec) 
Heartbeat CPU  0 instructions:  154000000 cycles:  105678722 heartbeat IPC: 1.01087 cumulative IPC: 0.97782 (Simulation time: 0 hr 4 min 56 sec) 
Heartbeat CPU  0 instructions:  155000003 cycles:  106730756 heartbeat IPC: 0.95054 cumulative IPC: 0.97731 (Simulation time: 0 hr 4 min 58 sec) 
Heartbeat CPU  0 instructions:  156000000 cycles:  107776160 heartbeat IPC: 0.95657 cumulative IPC: 0.97693 (Simulation time: 0 hr 5 min 0 sec) 
Heartbeat CPU  0 instructions:  157000003 cycles:  108784598 heartbeat IPC: 0.99164 cumulative IPC: 0.97718 (Simulation time: 0 hr 5 min 2 sec) 
Heartbeat CPU  0 instructions:  158000003 cycles:  109791473 heartbeat IPC: 0.99317 cumulative IPC: 0.97745 (Simulation time: 0 hr 5 min 4 sec) 
Heartbeat CPU  0 instructions:  159000003 cycles:  110808228 heartbeat IPC: 0.98352 cumulative IPC: 0.97756 (Simulation time: 0 hr 5 min 7 sec) 
Heartbeat CPU  0 instructions:  160000000 cycles:  111847153 heartbeat IPC: 0.96253 cumulative IPC: 0.97730 (Simulation time: 0 hr 5 min 9 sec) 
Heartbeat CPU  0 instructions:  161000001 cycles:  112893633 heartbeat IPC: 0.95559 cumulative IPC: 0.97694 (Simulation time: 0 hr 5 min 11 sec) 
Heartbeat CPU  0 instructions:  162000001 cycles:  114047000 heartbeat IPC: 0.86703 cumulative IPC: 0.97494 (Simulation time: 0 hr 5 min 13 sec) 
Heartbeat CPU  0 instructions:  163000002 cycles:  115318445 heartbeat IPC: 0.78651 cumulative IPC: 0.97125 (Simulation time: 0 hr 5 min 16 sec) 
Heartbeat CPU  0 instructions:  164000000 cycles:  116591141 heartbeat IPC: 0.78573 cumulative IPC: 0.96768 (Simulation time: 0 hr 5 min 18 sec) 
Heartbeat CPU  0 instructions:  165000000 cycles:  117878557 heartbeat IPC: 0.77675 cumulative IPC: 0.96403 (Simulation time: 0 hr 5 min 21 sec) 
Heartbeat CPU  0 instructions:  166000002 cycles:  119151094 heartbeat IPC: 0.78583 cumulative IPC: 0.96073 (Simulation time: 0 hr 5 min 23 sec) 
Heartbeat CPU  0 instructions:  167000002 cycles:  120385181 heartbeat IPC: 0.81032 cumulative IPC: 0.95808 (Simulation time: 0 hr 5 min 26 sec) 
Heartbeat CPU  0 instructions:  168000000 cycles:  121646242 heartbeat IPC: 0.79298 cumulative IPC: 0.95516 (Simulation time: 0 hr 5 min 28 sec) 
Heartbeat CPU  0 instructions:  169000002 cycles:  122928687 heartbeat IPC: 0.77976 cumulative IPC: 0.95205 (Simulation time: 0 hr 5 min 31 sec) 
Heartbeat CPU  0 instructions:  170000002 cycles:  124203336 heartbeat IPC: 0.78453 cumulative IPC: 0.94916 (Simulation time: 0 hr 5 min 33 sec) 
Heartbeat CPU  0 instructions:  171000003 cycles:  125442204 heartbeat IPC: 0.80719 cumulative IPC: 0.94681 (Simulation time: 0 hr 5 min 36 sec) 
Heartbeat CPU  0 instructions:  172000000 cycles:  126689963 heartbeat IPC: 0.80143 cumulative IPC: 0.94443 (Simulation time: 0 hr 5 min 38 sec) 
Heartbeat CPU  0 instructions:  173000003 cycles:  127961419 heartbeat IPC: 0.78650 cumulative IPC: 0.94184 (Simulation time: 0 hr 5 min 41 sec) 
Heartbeat CPU  0 instructions:  174000000 cycles:  129221326 heartbeat IPC: 0.79371 cumulative IPC: 0.93947 (Simulation time: 0 hr 5 min 43 sec) 
Heartbeat CPU  0 instructions:  175000000 cycles:  130464461 heartbeat IPC: 0.80442 cumulative IPC: 0.93737 (Simulation time: 0 hr 5 min 46 sec) 
Heartbeat CPU  0 instructions:  176000000 cycles:  131735354 heartbeat IPC: 0.78685 cumulative IPC: 0.93502 (Simulation time: 0 hr 5 min 48 sec) 
Heartbeat CPU  0 instructions:  177000003 cycles:  133010199 heartbeat IPC: 0.78441 cumulative IPC: 0.93269 (Simulation time: 0 hr 5 min 51 sec) 
Heartbeat CPU  0 instructions:  178000001 cycles:  134273249 heartbeat IPC: 0.79173 cumulative IPC: 0.93057 (Simulation time: 0 hr 5 min 53 sec) 
Heartbeat CPU  0 instructions:  179000000 cycles:  135555231 heartbeat IPC: 0.78004 cumulative IPC: 0.92830 (Simulation time: 0 hr 5 min 56 sec) 
Heartbeat CPU  0 instructions:  180000000 cycles:  136828883 heartbeat IPC: 0.78514 cumulative IPC: 0.92619 (Simulation time: 0 hr 5 min 58 sec) 
Heartbeat CPU  0 instructions:  181000000 cycles:  138109554 heartbeat IPC: 0.78084 cumulative IPC: 0.92407 (Simulation time: 0 hr 6 min 1 sec) 
Heartbeat CPU  0 instructions:  182000001 cycles:  139395484 heartbeat IPC: 0.77765 cumulative IPC: 0.92195 (Simulation time: 0 hr 6 min 3 sec) 
Heartbeat CPU  0 instructions:  183000003 cycles:  140664257 heartbeat IPC: 0.78816 cumulative IPC: 0.92007 (Simulation time: 0 hr 6 min 6 sec) 
Heartbeat CPU  0 instructions:  184000000 cycles:  141918397 heartbeat IPC: 0.79736 cumulative IPC: 0.91839 (Simulation time: 0 hr 6 min 8 sec) 
Heartbeat CPU  0 instructions:  185000000 cycles:  143186292 heartbeat IPC: 0.78871 cumulative IPC: 0.91661 (Simulation time: 0 hr 6 min 11 sec) 
Heartbeat CPU  0 instructions:  186000002 cycles:  144460450 heartbeat IPC: 0.78483 cumulative IPC: 0.91483 (Simulation time: 0 hr 6 min 13 sec) 
Heartbeat CPU  0 instructions:  187000001 cycles:  145745284 heartbeat IPC: 0.77831 cumulative IPC: 0.91299 (Simulation time: 0 hr 6 min 16 sec) 
Heartbeat CPU  0 instructions:  188000000 cycles:  147036583 heartbeat IPC: 0.77441 cumulative IPC: 0.91113 (Simulation time: 0 hr 6 min 18 sec) 
Heartbeat CPU  0 instructions:  189000001 cycles:  148342172 heartbeat IPC: 0.76594 cumulative IPC: 0.90920 (Simulation time: 0 hr 6 min 21 sec) 
Heartbeat CPU  0 instructions:  190000002 cycles:  149625575 heartbeat IPC: 0.77918 cumulative IPC: 0.90751 (Simulation time: 0 hr 6 min 23 sec) 
Heartbeat CPU  0 instructions:  191000001 cycles:  150912475 heartbeat IPC: 0.77706 cumulative IPC: 0.90584 (Simulation time: 0 hr 6 min 26 sec) 
Heartbeat CPU  0 instructions:  192000000 cycles:  152165294 heartbeat IPC: 0.79820 cumulative IPC: 0.90452 (Simulation time: 0 hr 6 min 28 sec) 
Heartbeat CPU  0 instructions:  193000003 cycles:  153419690 heartbeat IPC: 0.79720 cumulative IPC: 0.90321 (Simulation time: 0 hr 6 min 31 sec) 
Heartbeat CPU  0 instructions:  194000002 cycles:  154457999 heartbeat IPC: 0.96310 cumulative IPC: 0.90381 (Simulation time: 0 hr 6 min 33 sec) 
Heartbeat CPU  0 instructions:  195000000 cycles:  155368294 heartbeat IPC: 1.09854 cumulative IPC: 0.90550 (Simulation time: 0 hr 6 min 35 sec) 
Heartbeat CPU  0 instructions:  196000000 cycles:  156240604 heartbeat IPC: 1.14638 cumulative IPC: 0.90748 (Simulation time: 0 hr 6 min 37 sec) 
Heartbeat CPU  0 instructions:  197000003 cycles:  157131385 heartbeat IPC: 1.12261 cumulative IPC: 0.90928 (Simulation time: 0 hr 6 min 39 sec) 
Heartbeat CPU  0 instructions:  198000000 cycles:  158015747 heartbeat IPC: 1.13076 cumulative IPC: 0.91110 (Simulation time: 0 hr 6 min 41 sec) 
Heartbeat CPU  0 instructions:  199000000 cycles:  158924034 heartbeat IPC: 1.10097 cumulative IPC: 0.91269 (Simulation time: 0 hr 6 min 43 sec) 
Heartbeat CPU  0 instructions:  200000000 cycles:  159808888 heartbeat IPC: 1.13013 cumulative IPC: 0.91445 (Simulation time: 0 hr 6 min 45 sec) 
Heartbeat CPU  0 instructions:  201000002 cycles:  160677090 heartbeat IPC: 1.15181 cumulative IPC: 0.91632 (Simulation time: 0 hr 6 min 48 sec) 
Heartbeat CPU  0 instructions:  202000000 cycles:  161563875 heartbeat IPC: 1.12767 cumulative IPC: 0.91801 (Simulation time: 0 hr 6 min 50 sec) 
Heartbeat CPU  0 instructions:  203000001 cycles:  162454212 heartbeat IPC: 1.12317 cumulative IPC: 0.91964 (Simulation time: 0 hr 6 min 52 sec) 
Heartbeat CPU  0 instructions:  204000000 cycles:  163354837 heartbeat IPC: 1.11034 cumulative IPC: 0.92116 (Simulation time: 0 hr 6 min 54 sec) 
Heartbeat CPU  0 instructions:  205000002 cycles:  164247356 heartbeat IPC: 1.12043 cumulative IPC: 0.92272 (Simulation time: 0 hr 6 min 56 sec) 
Heartbeat CPU  0 instructions:  206000003 cycles:  165117261 heartbeat IPC: 1.14955 cumulative IPC: 0.92444 (Simulation time: 0 hr 6 min 58 sec) 
Heartbeat CPU  0 instructions:  207000001 cycles:  165997662 heartbeat IPC: 1.13584 cumulative IPC: 0.92605 (Simulation time: 0 hr 7 min 0 sec) 
Heartbeat CPU  0 instructions:  208000000 cycles:  166890240 heartbeat IPC: 1.12035 cumulative IPC: 0.92754 (Simulation time: 0 hr 7 min 2 sec) 
Heartbeat CPU  0 instructions:  209000001 cycles:  167781721 heartbeat IPC: 1.12173 cumulative IPC: 0.92902 (Simulation time: 0 hr 7 min 4 sec) 
Heartbeat CPU  0 instructions:  210000001 cycles:  168681340 heartbeat IPC: 1.11158 cumulative IPC: 0.93041 (Simulation time: 0 hr 7 min 6 sec) 
Heartbeat CPU  0 instructions:  211000002 cycles:  169554683 heartbeat IPC: 1.14503 cumulative IPC: 0.93198 (Simulation time: 0 hr 7 min 9 sec) 
Heartbeat CPU  0 instructions:  212000000 cycles:  170435209 heartbeat IPC: 1.13568 cumulative IPC: 0.93348 (Simulation time: 0 hr 7 min 11 sec) 
Heartbeat CPU  0 instructions:  213000003 cycles:  171322931 heartbeat IPC: 1.12648 cumulative IPC: 0.93489 (Simulation time: 0 hr 7 min 13 sec) 
Heartbeat CPU  0 instructions:  214000001 cycles:  172209043 heartbeat IPC: 1.12852 cumulative IPC: 0.93630 (Simulation time: 0 hr 7 min 15 sec) 
Heartbeat CPU  0 instructions:  215000002 cycles:  173109202 heartbeat IPC: 1.11092 cumulative IPC: 0.93758 (Simulation time: 0 hr 7 min 17 sec) 
Heartbeat CPU  0 instructions:  216000000 cycles:  173987215 heartbeat IPC: 1.13893 cumulative IPC: 0.93902 (Simulation time: 0 hr 7 min 19 sec) 
Heartbeat CPU  0 instructions:  217000002 cycles:  174868819 heartbeat IPC: 1.13430 cumulative IPC: 0.94040 (Simulation time: 0 hr 7 min 21 sec) 
Heartbeat CPU  0 instructions:  218000000 cycles:  175754674 heartbeat IPC: 1.12885 cumulative IPC: 0.94173 (Simulation time: 0 hr 7 min 23 sec) 
Heartbeat CPU  0 instructions:  219000003 cycles:  176645931 heartbeat IPC: 1.12201 cumulative IPC: 0.94301 (Simulation time: 0 hr 7 min 25 sec) 
Heartbeat CPU  0 instructions:  220000000 cycles:  177539739 heartbeat IPC: 1.11881 cumulative IPC: 0.94424 (Simulation time: 0 hr 7 min 27 sec) 
Heartbeat CPU  0 instructions:  221000002 cycles:  178430865 heartbeat IPC: 1.12218 cumulative IPC: 0.94548 (Simulation time: 0 hr 7 min 30 sec) 
Heartbeat CPU  0 instructions:  222000001 cycles:  179302834 heartbeat IPC: 1.14683 cumulative IPC: 0.94684 (Simulation time: 0 hr 7 min 32 sec) 
Heartbeat CPU  0 instructions:  223000000 cycles:  180186899 heartbeat IPC: 1.13114 cumulative IPC: 0.94810 (Simulation time: 0 hr 7 min 34 sec) 
Heartbeat CPU  0 instructions:  224000000 cycles:  181075791 heartbeat IPC: 1.12500 cumulative IPC: 0.94930 (Simulation time: 0 hr 7 min 36 sec) 
Heartbeat CPU  0 instructions:  225000001 cycles:  181963110 heartbeat IPC: 1.12699 cumulative IPC: 0.95050 (Simulation time: 0 hr 7 min 38 sec) 
Heartbeat CPU  0 instructions:  226000003 cycles:  182862479 heartbeat IPC: 1.11189 cumulative IPC: 0.95160 (Simulation time: 0 hr 7 min 40 sec) 
Heartbeat CPU  0 instructions:  227000001 cycles:  183738003 heartbeat IPC: 1.14217 cumulative IPC: 0.95285 (Simulation time: 0 hr 7 min 42 sec) 
Heartbeat CPU  0 instructions:  228000000 cycles:  184615452 heartbeat IPC: 1.13967 cumulative IPC: 0.95407 (Simulation time: 0 hr 7 min 44 sec) 
Heartbeat CPU  0 instructions:  229000002 cycles:  185504924 heartbeat IPC: 1.12426 cumulative IPC: 0.95519 (Simulation time: 0 hr 7 min 46 sec) 
Heartbeat CPU  0 instructions:  230000002 cycles:  186396901 heartbeat IPC: 1.12111 cumulative IPC: 0.95628 (Simulation time: 0 hr 7 min 48 sec) 
Heartbeat CPU  0 instructions:  231000001 cycles:  187291785 heartbeat IPC: 1.11746 cumulative IPC: 0.95734 (Simulation time: 0 hr 7 min 50 sec) 
Heartbeat CPU  0 instructions:  232000000 cycles:  188172546 heartbeat IPC: 1.13538 cumulative IPC: 0.95847 (Simulation time: 0 hr 7 min 53 sec) 
Heartbeat CPU  0 instructions:  233000000 cycles:  189052453 heartbeat IPC: 1.13648 cumulative IPC: 0.95960 (Simulation time: 0 hr 7 min 55 sec) 
Heartbeat CPU  0 instructions:  234000001 cycles:  189933992 heartbeat IPC: 1.13438 cumulative IPC: 0.96071 (Simulation time: 0 hr 7 min 57 sec) 
Heartbeat CPU  0 instructions:  235000003 cycles:  190826104 heartbeat IPC: 1.12094 cumulative IPC: 0.96173 (Simulation time: 0 hr 7 min 59 sec) 
Heartbeat CPU  0 instructions:  236000000 cycles:  191725964 heartbeat IPC: 1.11128 cumulative IPC: 0.96268 (Simulation time: 0 hr 8 min 1 sec) 
Heartbeat CPU  0 instructions:  237000000 cycles:  192604648 heartbeat IPC: 1.13807 cumulative IPC: 0.96376 (Simulation time: 0 hr 8 min 3 sec) 
Heartbeat CPU  0 instructions:  238000001 cycles:  193482452 heartbeat IPC: 1.13921 cumulative IPC: 0.96484 (Simulation time: 0 hr 8 min 5 sec) 
Heartbeat CPU  0 instructions:  239000003 cycles:  194363330 heartbeat IPC: 1.13523 cumulative IPC: 0.96588 (Simulation time: 0 hr 8 min 7 sec) 
Heartbeat CPU  0 instructions:  240000000 cycles:  195257559 heartbeat IPC: 1.11828 cumulative IPC: 0.96682 (Simulation time: 0 hr 8 min 9 sec) 
Heartbeat CPU  0 instructions:  241000000 cycles:  196160759 heartbeat IPC: 1.10717 cumulative IPC: 0.96769 (Simulation time: 0 hr 8 min 12 sec) 
Heartbeat CPU  0 instructions:  242000000 cycles:  197041762 heartbeat IPC: 1.13507 cumulative IPC: 0.96870 (Simulation time: 0 hr 8 min 14 sec) 
Heartbeat CPU  0 instructions:  243000003 cycles:  197915269 heartbeat IPC: 1.14481 cumulative IPC: 0.96974 (Simulation time: 0 hr 8 min 16 sec) 
Heartbeat CPU  0 instructions:  244000000 cycles:  198806048 heartbeat IPC: 1.12261 cumulative IPC: 0.97066 (Simulation time: 0 hr 8 min 18 sec) 
Heartbeat CPU  0 instructions:  245000000 cycles:  199691319 heartbeat IPC: 1.12960 cumulative IPC: 0.97160 (Simulation time: 0 hr 8 min 20 sec) 
Heartbeat CPU  0 instructions:  246000002 cycles:  200594180 heartbeat IPC: 1.10759 cumulative IPC: 0.97242 (Simulation time: 0 hr 8 min 22 sec) 
Heartbeat CPU  0 instructions:  247000000 cycles:  201480071 heartbeat IPC: 1.12880 cumulative IPC: 0.97334 (Simulation time: 0 hr 8 min 24 sec) 
Heartbeat CPU  0 instructions:  248000000 cycles:  202350060 heartbeat IPC: 1.14944 cumulative IPC: 0.97435 (Simulation time: 0 hr 8 min 26 sec) 
Heartbeat CPU  0 instructions:  249000000 cycles:  203245025 heartbeat IPC: 1.11736 cumulative IPC: 0.97519 (Simulation time: 0 hr 8 min 28 sec) 
Heartbeat CPU  0 instructions:  250000001 cycles:  204127229 heartbeat IPC: 1.13353 cumulative IPC: 0.97609 (Simulation time: 0 hr 8 min 30 sec) 
Heartbeat CPU  0 instructions:  251000003 cycles:  205029831 heartbeat IPC: 1.10791 cumulative IPC: 0.97686 (Simulation time: 0 hr 8 min 32 sec) 
Heartbeat CPU  0 instructions:  252000000 cycles:  205919297 heartbeat IPC: 1.12427 cumulative IPC: 0.97771 (Simulation time: 0 hr 8 min 35 sec) 
Heartbeat CPU  0 instructions:  253000000 cycles:  206794111 heartbeat IPC: 1.14310 cumulative IPC: 0.97863 (Simulation time: 0 hr 8 min 37 sec) 
Heartbeat CPU  0 instructions:  254000000 cycles:  207682177 heartbeat IPC: 1.12604 cumulative IPC: 0.97947 (Simulation time: 0 hr 8 min 39 sec) 
Heartbeat CPU  0 instructions:  255000003 cycles:  208566336 heartbeat IPC: 1.13102 cumulative IPC: 0.98031 (Simulation time: 0 hr 8 min 41 sec) 
Heartbeat CPU  0 instructions:  256000000 cycles:  209465077 heartbeat IPC: 1.11266 cumulative IPC: 0.98106 (Simulation time: 0 hr 8 min 43 sec) 
Heartbeat CPU  0 instructions:  257000003 cycles:  210361747 heartbeat IPC: 1.11524 cumulative IPC: 0.98181 (Simulation time: 0 hr 8 min 45 sec) 
Heartbeat CPU  0 instructions:  258000000 cycles:  211240716 heartbeat IPC: 1.13769 cumulative IPC: 0.98267 (Simulation time: 0 hr 8 min 47 sec) 
Heartbeat CPU  0 instructions:  259000003 cycles:  212127449 heartbeat IPC: 1.12774 cumulative IPC: 0.98346 (Simulation time: 0 hr 8 min 49 sec) 
Heartbeat CPU  0 instructions:  260000000 cycles:  213012991 heartbeat IPC: 1.12925 cumulative IPC: 0.98426 (Simulation time: 0 hr 8 min 51 sec) 
Heartbeat CPU  0 instructions:  261000001 cycles:  213905319 heartbeat IPC: 1.12067 cumulative IPC: 0.98500 (Simulation time: 0 hr 8 min 53 sec) 
Heartbeat CPU  0 instructions:  262000000 cycles:  214812864 heartbeat IPC: 1.10187 cumulative IPC: 0.98565 (Simulation time: 0 hr 8 min 56 sec) 
Heartbeat CPU  0 instructions:  263000000 cycles:  215686977 heartbeat IPC: 1.14402 cumulative IPC: 0.98648 (Simulation time: 0 hr 8 min 58 sec) 
Heartbeat CPU  0 instructions:  264000000 cycles:  216571808 heartbeat IPC: 1.13016 cumulative IPC: 0.98725 (Simulation time: 0 hr 9 min 0 sec) 
Heartbeat CPU  0 instructions:  265000000 cycles:  217463113 heartbeat IPC: 1.12195 cumulative IPC: 0.98797 (Simulation time: 0 hr 9 min 2 sec) 
Heartbeat CPU  0 instructions:  266000001 cycles:  218342025 heartbeat IPC: 1.13777 cumulative IPC: 0.98875 (Simulation time: 0 hr 9 min 4 sec) 
Heartbeat CPU  0 instructions:  267000000 cycles:  219258994 heartbeat IPC: 1.09055 cumulative IPC: 0.98930 (Simulation time: 0 hr 9 min 6 sec) 
Heartbeat CPU  0 instructions:  268000000 cycles:  220139458 heartbeat IPC: 1.13576 cumulative IPC: 0.99006 (Simulation time: 0 hr 9 min 8 sec) 
Heartbeat CPU  0 instructions:  269000003 cycles:  221018752 heartbeat IPC: 1.13728 cumulative IPC: 0.99082 (Simulation time: 0 hr 9 min 10 sec) 
Heartbeat CPU  0 instructions:  270000002 cycles:  221911484 heartbeat IPC: 1.12016 cumulative IPC: 0.99150 (Simulation time: 0 hr 9 min 12 sec) 
Heartbeat CPU  0 instructions:  271000000 cycles:  222789939 heartbeat IPC: 1.13836 cumulative IPC: 0.99225 (Simulation time: 0 hr 9 min 14 sec) 
Heartbeat CPU  0 instructions:  272000000 cycles:  223706242 heartbeat IPC: 1.09134 cumulative IPC: 0.99277 (Simulation time: 0 hr 9 min 17 sec) 
Heartbeat CPU  0 instructions:  273000002 cycles:  224588433 heartbeat IPC: 1.13354 cumulative IPC: 0.99348 (Simulation time: 0 hr 9 min 19 sec) 
Heartbeat CPU  0 instructions:  274000002 cycles:  225461974 heartbeat IPC: 1.14477 cumulative IPC: 0.99424 (Simulation time: 0 hr 9 min 21 sec) 
Heartbeat CPU  0 instructions:  275000001 cycles:  226357815 heartbeat IPC: 1.11627 cumulative IPC: 0.99486 (Simulation time: 0 hr 9 min 23 sec) 
Heartbeat CPU  0 instructions:  276000000 cycles:  227238071 heartbeat IPC: 1.13603 cumulative IPC: 0.99556 (Simulation time: 0 hr 9 min 25 sec) 
Heartbeat CPU  0 instructions:  277000003 cycles:  228144979 heartbeat IPC: 1.10265 cumulative IPC: 0.99611 (Simulation time: 0 hr 9 min 27 sec) 
Heartbeat CPU  0 instructions:  278000002 cycles:  229038319 heartbeat IPC: 1.11939 cumulative IPC: 0.99673 (Simulation time: 0 hr 9 min 29 sec) 
Heartbeat CPU  0 instructions:  279000003 cycles:  229905612 heartbeat IPC: 1.15301 cumulative IPC: 0.99748 (Simulation time: 0 hr 9 min 31 sec) 
Heartbeat CPU  0 instructions:  280000000 cycles:  230797038 heartbeat IPC: 1.12179 cumulative IPC: 0.99810 (Simulation time: 0 hr 9 min 33 sec) 
Heartbeat CPU  0 instructions:  281000002 cycles:  231681336 heartbeat IPC: 1.13084 cumulative IPC: 0.99874 (Simulation time: 0 hr 9 min 35 sec) 
Heartbeat CPU  0 instructions:  282000001 cycles:  232580194 heartbeat IPC: 1.11252 cumulative IPC: 0.99930 (Simulation time: 0 hr 9 min 37 sec) 
Heartbeat CPU  0 instructions:  283000003 cycles:  233478671 heartbeat IPC: 1.11300 cumulative IPC: 0.99986 (Simulation time: 0 hr 9 min 40 sec) 
Heartbeat CPU  0 instructions:  284000000 cycles:  234346746 heartbeat IPC: 1.15197 cumulative IPC: 1.00058 (Simulation time: 0 hr 9 min 42 sec) 
Heartbeat CPU  0 instructions:  285000002 cycles:  235239381 heartbeat IPC: 1.12028 cumulative IPC: 1.00116 (Simulation time: 0 hr 9 min 44 sec) 
Heartbeat CPU  0 instructions:  286000000 cycles:  236120261 heartbeat IPC: 1.13523 cumulative IPC: 1.00180 (Simulation time: 0 hr 9 min 46 sec) 
Heartbeat CPU  0 instructions:  287000001 cycles:  237011968 heartbeat IPC: 1.12145 cumulative IPC: 1.00237 (Simulation time: 0 hr 9 min 48 sec) 
Heartbeat CPU  0 instructions:  288000000 cycles:  237917699 heartbeat IPC: 1.10408 cumulative IPC: 1.00286 (Simulation time: 0 hr 9 min 50 sec) 
Heartbeat CPU  0 instructions:  289000000 cycles:  238791527 heartbeat IPC: 1.14439 cumulative IPC: 1.00352 (Simulation time: 0 hr 9 min 52 sec) 
Heartbeat CPU  0 instructions:  290000000 cycles:  239675823 heartbeat IPC: 1.13084 cumulative IPC: 1.00411 (Simulation time: 0 hr 9 min 54 sec) 
Heartbeat CPU  0 instructions:  291000002 cycles:  240559742 heartbeat IPC: 1.13133 cumulative IPC: 1.00470 (Simulation time: 0 hr 9 min 56 sec) 
Heartbeat CPU  0 instructions:  292000000 cycles:  241447099 heartbeat IPC: 1.12694 cumulative IPC: 1.00527 (Simulation time: 0 hr 9 min 58 sec) 
Heartbeat CPU  0 instructions:  293000001 cycles:  242352767 heartbeat IPC: 1.10416 cumulative IPC: 1.00574 (Simulation time: 0 hr 10 min 1 sec) 
Heartbeat CPU  0 instructions:  294000002 cycles:  243240337 heartbeat IPC: 1.12667 cumulative IPC: 1.00629 (Simulation time: 0 hr 10 min 3 sec) 
Heartbeat CPU  0 instructions:  295000003 cycles:  244111976 heartbeat IPC: 1.14727 cumulative IPC: 1.00693 (Simulation time: 0 hr 10 min 5 sec) 
Heartbeat CPU  0 instructions:  296000000 cycles:  245000403 heartbeat IPC: 1.12558 cumulative IPC: 1.00747 (Simulation time: 0 hr 10 min 7 sec) 
Heartbeat CPU  0 instructions:  297000003 cycles:  245887091 heartbeat IPC: 1.12780 cumulative IPC: 1.00802 (Simulation time: 0 hr 10 min 9 sec) 
Heartbeat CPU  0 instructions:  298000002 cycles:  246786838 heartbeat IPC: 1.11142 cumulative IPC: 1.00849 (Simulation time: 0 hr 10 min 11 sec) 
Heartbeat CPU  0 instructions:  299000003 cycles:  247678533 heartbeat IPC: 1.12146 cumulative IPC: 1.00900 (Simulation time: 0 hr 10 min 13 sec) 
Heartbeat CPU  0 instructions:  300000000 cycles:  248550379 heartbeat IPC: 1.14699 cumulative IPC: 1.00961 (Simulation time: 0 hr 10 min 15 sec) 
Heartbeat CPU  0 instructions:  301000000 cycles:  249436461 heartbeat IPC: 1.12856 cumulative IPC: 1.01014 (Simulation time: 0 hr 10 min 17 sec) 
Heartbeat CPU  0 instructions:  302000003 cycles:  250320952 heartbeat IPC: 1.13060 cumulative IPC: 1.01067 (Simulation time: 0 hr 10 min 19 sec) 
Heartbeat CPU  0 instructions:  303000002 cycles:  251220275 heartbeat IPC: 1.11195 cumulative IPC: 1.01112 (Simulation time: 0 hr 10 min 21 sec) 
Heartbeat CPU  0 instructions:  304000000 cycles:  252110100 heartbeat IPC: 1.12381 cumulative IPC: 1.01162 (Simulation time: 0 hr 10 min 24 sec) 
Heartbeat CPU  0 instructions:  305000001 cycles:  252983833 heartbeat IPC: 1.14452 cumulative IPC: 1.01219 (Simulation time: 0 hr 10 min 26 sec) 
Heartbeat CPU  0 instructions:  306000003 cycles:  253863335 heartbeat IPC: 1.13701 cumulative IPC: 1.01273 (Simulation time: 0 hr 10 min 28 sec) 
Heartbeat CPU  0 instructions:  307000000 cycles:  254745309 heartbeat IPC: 1.13382 cumulative IPC: 1.01326 (Simulation time: 0 hr 10 min 30 sec) 
Heartbeat CPU  0 instructions:  308000000 cycles:  255643324 heartbeat IPC: 1.11357 cumulative IPC: 1.01370 (Simulation time: 0 hr 10 min 32 sec) 
Heartbeat CPU  0 instructions:  309000000 cycles:  256539526 heartbeat IPC: 1.11582 cumulative IPC: 1.01414 (Simulation time: 0 hr 10 min 34 sec) 
Heartbeat CPU  0 instructions:  310000003 cycles:  257416037 heartbeat IPC: 1.14089 cumulative IPC: 1.01468 (Simulation time: 0 hr 10 min 36 sec) 
Heartbeat CPU  0 instructions:  311000001 cycles:  258289317 heartbeat IPC: 1.14511 cumulative IPC: 1.01522 (Simulation time: 0 hr 10 min 38 sec) 
Heartbeat CPU  0 instructions:  312000000 cycles:  259171487 heartbeat IPC: 1.13357 cumulative IPC: 1.01573 (Simulation time: 0 hr 10 min 40 sec) 
Heartbeat CPU  0 instructions:  313000001 cycles:  260063750 heartbeat IPC: 1.12075 cumulative IPC: 1.01617 (Simulation time: 0 hr 10 min 42 sec) 
Heartbeat CPU  0 instructions:  314000000 cycles:  260960329 heartbeat IPC: 1.11535 cumulative IPC: 1.01659 (Simulation time: 0 hr 10 min 44 sec) 
Heartbeat CPU  0 instructions:  315000000 cycles:  261840498 heartbeat IPC: 1.13615 cumulative IPC: 1.01709 (Simulation time: 0 hr 10 min 47 sec) 
Heartbeat CPU  0 instructions:  316000000 cycles:  262712721 heartbeat IPC: 1.14650 cumulative IPC: 1.01762 (Simulation time: 0 hr 10 min 49 sec) 
Heartbeat CPU  0 instructions:  317000000 cycles:  263601639 heartbeat IPC: 1.12496 cumulative IPC: 1.01807 (Simulation time: 0 hr 10 min 51 sec) 
Heartbeat CPU  0 instructions:  318000000 cycles:  264487998 heartbeat IPC: 1.12821 cumulative IPC: 1.01853 (Simulation time: 0 hr 10 min 53 sec) 
Heartbeat CPU  0 instructions:  319000001 cycles:  265387166 heartbeat IPC: 1.11214 cumulative IPC: 1.01892 (Simulation time: 0 hr 10 min 55 sec) 
Heartbeat CPU  0 instructions:  320000000 cycles:  266274811 heartbeat IPC: 1.12658 cumulative IPC: 1.01936 (Simulation time: 0 hr 10 min 57 sec) 
Heartbeat CPU  0 instructions:  321000003 cycles:  267145707 heartbeat IPC: 1.14825 cumulative IPC: 1.01988 (Simulation time: 0 hr 10 min 59 sec) 
Heartbeat CPU  0 instructions:  322000003 cycles:  268038449 heartbeat IPC: 1.12014 cumulative IPC: 1.02029 (Simulation time: 0 hr 11 min 1 sec) 
Heartbeat CPU  0 instructions:  323000003 cycles:  268923634 heartbeat IPC: 1.12971 cumulative IPC: 1.02074 (Simulation time: 0 hr 11 min 3 sec) 
Heartbeat CPU  0 instructions:  324000000 cycles:  269820385 heartbeat IPC: 1.11513 cumulative IPC: 1.02112 (Simulation time: 0 hr 11 min 5 sec) 
Heartbeat CPU  0 instructions:  325000000 cycles:  270706553 heartbeat IPC: 1.12845 cumulative IPC: 1.02155 (Simulation time: 0 hr 11 min 7 sec) 
Heartbeat CPU  0 instructions:  326000001 cycles:  271583348 heartbeat IPC: 1.14052 cumulative IPC: 1.02202 (Simulation time: 0 hr 11 min 10 sec) 
Heartbeat CPU  0 instructions:  327000001 cycles:  272468948 heartbeat IPC: 1.12918 cumulative IPC: 1.02245 (Simulation time: 0 hr 11 min 12 sec) 
Heartbeat CPU  0 instructions:  328000000 cycles:  273351279 heartbeat IPC: 1.13336 cumulative IPC: 1.02289 (Simulation time: 0 hr 11 min 14 sec) 
Heartbeat CPU  0 instructions:  329000000 cycles:  274252839 heartbeat IPC: 1.10919 cumulative IPC: 1.02324 (Simulation time: 0 hr 11 min 16 sec) 
Heartbeat CPU  0 instructions:  330000000 cycles:  275146812 heartbeat IPC: 1.11860 cumulative IPC: 1.02362 (Simulation time: 0 hr 11 min 18 sec) 
Heartbeat CPU  0 instructions:  331000003 cycles:  276022673 heartbeat IPC: 1.14174 cumulative IPC: 1.02408 (Simulation time: 0 hr 11 min 20 sec) 
Heartbeat CPU  0 instructions:  332000000 cycles:  276904618 heartbeat IPC: 1.13385 cumulative IPC: 1.02450 (Simulation time: 0 hr 11 min 22 sec) 
Heartbeat CPU  0 instructions:  333000002 cycles:  277782714 heartbeat IPC: 1.13883 cumulative IPC: 1.02495 (Simulation time: 0 hr 11 min 24 sec) 
Heartbeat CPU  0 instructions:  334000003 cycles:  278675994 heartbeat IPC: 1.11947 cumulative IPC: 1.02532 (Simulation time: 0 hr 11 min 26 sec) 
Heartbeat CPU  0 instructions:  335000000 cycles:  279578600 heartbeat IPC: 1.10790 cumulative IPC: 1.02564 (Simulation time: 0 hr 11 min 28 sec) 
Heartbeat CPU  0 instructions:  336000000 cycles:  280451950 heartbeat IPC: 1.14502 cumulative IPC: 1.02609 (Simulation time: 0 hr 11 min 30 sec) 
Heartbeat CPU  0 instructions:  337000001 cycles:  281334924 heartbeat IPC: 1.13254 cumulative IPC: 1.02650 (Simulation time: 0 hr 11 min 33 sec) 
Heartbeat CPU  0 instructions:  338000003 cycles:  282214321 heartbeat IPC: 1.13715 cumulative IPC: 1.02692 (Simulation time: 0 hr 11 min 35 sec) 
Heartbeat CPU  0 instructions:  339000000 cycles:  283103854 heartbeat IPC: 1.12418 cumulative IPC: 1.02729 (Simulation time: 0 hr 11 min 37 sec) 
Heartbeat CPU  0 instructions:  340000000 cycles:  284011765 heartbeat IPC: 1.10143 cumulative IPC: 1.02758 (Simulation time: 0 hr 11 min 39 sec) 
Heartbeat CPU  0 instructions:  341000002 cycles:  284890490 heartbeat IPC: 1.13801 cumulative IPC: 1.02800 (Simulation time: 0 hr 11 min 41 sec) 
Heartbeat CPU  0 instructions:  342000001 cycles:  285774749 heartbeat IPC: 1.13089 cumulative IPC: 1.02838 (Simulation time: 0 hr 11 min 43 sec) 
Heartbeat CPU  0 instructions:  343000001 cycles:  286657601 heartbeat IPC: 1.13269 cumulative IPC: 1.02877 (Simulation time: 0 hr 11 min 45 sec) 
Heartbeat CPU  0 instructions:  344000000 cycles:  287544628 heartbeat IPC: 1.12736 cumulative IPC: 1.02914 (Simulation time: 0 hr 11 min 47 sec) 
Heartbeat CPU  0 instructions:  345000001 cycles:  288455163 heartbeat IPC: 1.09826 cumulative IPC: 1.02940 (Simulation time: 0 hr 11 min 49 sec) 
Heartbeat CPU  0 instructions:  346000001 cycles:  289337984 heartbeat IPC: 1.13273 cumulative IPC: 1.02979 (Simulation time: 0 hr 11 min 51 sec) 
Heartbeat CPU  0 instructions:  347000003 cycles:  290361436 heartbeat IPC: 0.97709 cumulative IPC: 1.02956 (Simulation time: 0 hr 11 min 54 sec) 
Heartbeat CPU  0 instructions:  348000000 cycles:  291659468 heartbeat IPC: 0.77039 cumulative IPC: 1.02817 (Simulation time: 0 hr 11 min 56 sec) 
Heartbeat CPU  0 instructions:  349000002 cycles:  292990898 heartbeat IPC: 0.75107 cumulative IPC: 1.02665 (Simulation time: 0 hr 11 min 58 sec) 
Heartbeat CPU  0 instructions:  350000000 cycles:  294373865 heartbeat IPC: 0.72308 cumulative IPC: 1.02493 (Simulation time: 0 hr 12 min 1 sec) 
Heartbeat CPU  0 instructions:  351000002 cycles:  295752798 heartbeat IPC: 0.72520 cumulative IPC: 1.02324 (Simulation time: 0 hr 12 min 3 sec) 
Heartbeat CPU  0 instructions:  352000000 cycles:  297137772 heartbeat IPC: 0.72203 cumulative IPC: 1.02155 (Simulation time: 0 hr 12 min 5 sec) 
Heartbeat CPU  0 instructions:  353000000 cycles:  298529756 heartbeat IPC: 0.71840 cumulative IPC: 1.01985 (Simulation time: 0 hr 12 min 8 sec) 
Heartbeat CPU  0 instructions:  354000000 cycles:  299950079 heartbeat IPC: 0.70407 cumulative IPC: 1.01805 (Simulation time: 0 hr 12 min 10 sec) 
Heartbeat CPU  0 instructions:  355000003 cycles:  301314826 heartbeat IPC: 0.73274 cumulative IPC: 1.01650 (Simulation time: 0 hr 12 min 12 sec) 
Heartbeat CPU  0 instructions:  356000000 cycles:  302711692 heartbeat IPC: 0.71589 cumulative IPC: 1.01483 (Simulation time: 0 hr 12 min 15 sec) 
Heartbeat CPU  0 instructions:  357000000 cycles:  304113531 heartbeat IPC: 0.71335 cumulative IPC: 1.01317 (Simulation time: 0 hr 12 min 17 sec) 
Heartbeat CPU  0 instructions:  358000000 cycles:  305480893 heartbeat IPC: 0.73134 cumulative IPC: 1.01166 (Simulation time: 0 hr 12 min 19 sec) 
Heartbeat CPU  0 instructions:  359000000 cycles:  306873598 heartbeat IPC: 0.71803 cumulative IPC: 1.01006 (Simulation time: 0 hr 12 min 22 sec) 
Heartbeat CPU  0 instructions:  360000000 cycles:  308278336 heartbeat IPC: 0.71188 cumulative IPC: 1.00844 (Simulation time: 0 hr 12 min 24 sec) 
Heartbeat CPU  0 instructions:  361000000 cycles:  309663832 heartbeat IPC: 0.72176 cumulative IPC: 1.00690 (Simulation time: 0 hr 12 min 26 sec) 
Heartbeat CPU  0 instructions:  362000001 cycles:  311034316 heartbeat IPC: 0.72967 cumulative IPC: 1.00545 (Simulation time: 0 hr 12 min 29 sec) 
Heartbeat CPU  0 instructions:  363000003 cycles:  312418325 heartbeat IPC: 0.72254 cumulative IPC: 1.00395 (Simulation time: 0 hr 12 min 31 sec) 
Heartbeat CPU  0 instructions:  364000000 cycles:  313811461 heartbeat IPC: 0.71780 cumulative IPC: 1.00244 (Simulation time: 0 hr 12 min 33 sec) 
Heartbeat CPU  0 instructions:  365000000 cycles:  315218750 heartbeat IPC: 0.71059 cumulative IPC: 1.00089 (Simulation time: 0 hr 12 min 36 sec) 
Heartbeat CPU  0 instructions:  366000000 cycles:  316612047 heartbeat IPC: 0.71772 cumulative IPC: 0.99940 (Simulation time: 0 hr 12 min 38 sec) 
Heartbeat CPU  0 instructions:  367000001 cycles:  318005865 heartbeat IPC: 0.71745 cumulative IPC: 0.99794 (Simulation time: 0 hr 12 min 40 sec) 
Heartbeat CPU  0 instructions:  368000000 cycles:  319408048 heartbeat IPC: 0.71317 cumulative IPC: 0.99645 (Simulation time: 0 hr 12 min 43 sec) 
Heartbeat CPU  0 instructions:  369000000 cycles:  320792142 heartbeat IPC: 0.72249 cumulative IPC: 0.99505 (Simulation time: 0 hr 12 min 45 sec) 
Heartbeat CPU  0 instructions:  370000002 cycles:  322183183 heartbeat IPC: 0.71889 cumulative IPC: 0.99363 (Simulation time: 0 hr 12 min 48 sec) 
Heartbeat CPU  0 instructions:  371000002 cycles:  323580963 heartbeat IPC: 0.71542 cumulative IPC: 0.99221 (Simulation time: 0 hr 12 min 50 sec) 
Heartbeat CPU  0 instructions:  372000000 cycles:  324958609 heartbeat IPC: 0.72587 cumulative IPC: 0.99087 (Simulation time: 0 hr 12 min 52 sec) 
Heartbeat CPU  0 instructions:  373000002 cycles:  326343977 heartbeat IPC: 0.72183 cumulative IPC: 0.98952 (Simulation time: 0 hr 12 min 55 sec) 
Heartbeat CPU  0 instructions:  374000003 cycles:  327732912 heartbeat IPC: 0.71998 cumulative IPC: 0.98817 (Simulation time: 0 hr 12 min 57 sec) 
Heartbeat CPU  0 instructions:  375000003 cycles:  329138969 heartbeat IPC: 0.71121 cumulative IPC: 0.98678 (Simulation time: 0 hr 12 min 59 sec) 
Heartbeat CPU  0 instructions:  376000000 cycles:  330560909 heartbeat IPC: 0.70326 cumulative IPC: 0.98534 (Simulation time: 0 hr 13 min 2 sec) 
Heartbeat CPU  0 instructions:  377000003 cycles:  331938021 heartbeat IPC: 0.72616 cumulative IPC: 0.98407 (Simulation time: 0 hr 13 min 4 sec) 
Heartbeat CPU  0 instructions:  378000003 cycles:  333338316 heartbeat IPC: 0.71414 cumulative IPC: 0.98273 (Simulation time: 0 hr 13 min 6 sec) 
Heartbeat CPU  0 instructions:  379000003 cycles:  334718336 heartbeat IPC: 0.72463 cumulative IPC: 0.98148 (Simulation time: 0 hr 13 min 9 sec) 
Heartbeat CPU  0 instructions:  380000000 cycles:  336140262 heartbeat IPC: 0.70327 cumulative IPC: 0.98009 (Simulation time: 0 hr 13 min 11 sec) 
Heartbeat CPU  0 instructions:  381000002 cycles:  337521291 heartbeat IPC: 0.72410 cumulative IPC: 0.97886 (Simulation time: 0 hr 13 min 13 sec) 
Heartbeat CPU  0 instructions:  382000001 cycles:  338902089 heartbeat IPC: 0.72422 cumulative IPC: 0.97764 (Simulation time: 0 hr 13 min 16 sec) 
Heartbeat CPU  0 instructions:  383000000 cycles:  340288038 heartbeat IPC: 0.72153 cumulative IPC: 0.97642 (Simulation time: 0 hr 13 min 18 sec) 
Heartbeat CPU  0 instructions:  384000000 cycles:  341688438 heartbeat IPC: 0.71408 cumulative IPC: 0.97516 (Simulation time: 0 hr 13 min 20 sec) 
Heartbeat CPU  0 instructions:  385000000 cycles:  343082406 heartbeat IPC: 0.71738 cumulative IPC: 0.97393 (Simulation time: 0 hr 13 min 23 sec) 
Heartbeat CPU  0 instructions:  386000001 cycles:  344493010 heartbeat IPC: 0.70892 cumulative IPC: 0.97266 (Simulation time: 0 hr 13 min 25 sec) 
Heartbeat CPU  0 instructions:  387000003 cycles:  345873371 heartbeat IPC: 0.72445 cumulative IPC: 0.97150 (Simulation time: 0 hr 13 min 28 sec) 
Heartbeat CPU  0 instructions:  388000000 cycles:  347244676 heartbeat IPC: 0.72923 cumulative IPC: 0.97038 (Simulation time: 0 hr 13 min 30 sec) 
Heartbeat CPU  0 instructions:  389000001 cycles:  348660699 heartbeat IPC: 0.70620 cumulative IPC: 0.96913 (Simulation time: 0 hr 13 min 32 sec) 
Heartbeat CPU  0 instructions:  390000000 cycles:  350045208 heartbeat IPC: 0.72228 cumulative IPC: 0.96798 (Simulation time: 0 hr 13 min 35 sec) 
Heartbeat CPU  0 instructions:  391000000 cycles:  351420258 heartbeat IPC: 0.72725 cumulative IPC: 0.96688 (Simulation time: 0 hr 13 min 37 sec) 
Heartbeat CPU  0 instructions:  392000000 cycles:  352812313 heartbeat IPC: 0.71836 cumulative IPC: 0.96574 (Simulation time: 0 hr 13 min 39 sec) 
Heartbeat CPU  0 instructions:  393000000 cycles:  354721035 heartbeat IPC: 0.52391 cumulative IPC: 0.96297 (Simulation time: 0 hr 13 min 42 sec) 
Heartbeat CPU  0 instructions:  394000001 cycles:  359053507 heartbeat IPC: 0.23082 cumulative IPC: 0.95269 (Simulation time: 0 hr 13 min 46 sec) 
Heartbeat CPU  0 instructions:  395000000 cycles:  362146037 heartbeat IPC: 0.32336 cumulative IPC: 0.94645 (Simulation time: 0 hr 13 min 49 sec) 
Heartbeat CPU  0 instructions:  396000000 cycles:  363196172 heartbeat IPC: 0.95226 cumulative IPC: 0.94647 (Simulation time: 0 hr 13 min 52 sec) 
Heartbeat CPU  0 instructions:  397000000 cycles:  364378264 heartbeat IPC: 0.84596 cumulative IPC: 0.94609 (Simulation time: 0 hr 13 min 54 sec) 
Heartbeat CPU  0 instructions:  398000001 cycles:  365583320 heartbeat IPC: 0.82984 cumulative IPC: 0.94564 (Simulation time: 0 hr 13 min 57 sec) 
Heartbeat CPU  0 instructions:  399000002 cycles:  366829749 heartbeat IPC: 0.80229 cumulative IPC: 0.94508 (Simulation time: 0 hr 13 min 59 sec) 
Heartbeat CPU  0 instructions:  400000000 cycles:  367933912 heartbeat IPC: 0.90566 cumulative IPC: 0.94494 (Simulation time: 0 hr 14 min 1 sec) 
Heartbeat CPU  0 instructions:  401000003 cycles:  368986807 heartbeat IPC: 0.94977 cumulative IPC: 0.94496 (Simulation time: 0 hr 14 min 4 sec) 
Heartbeat CPU  0 instructions:  402000002 cycles:  370150510 heartbeat IPC: 0.85932 cumulative IPC: 0.94464 (Simulation time: 0 hr 14 min 6 sec) 
Heartbeat CPU  0 instructions:  403000002 cycles:  371304024 heartbeat IPC: 0.86692 cumulative IPC: 0.94437 (Simulation time: 0 hr 14 min 8 sec) 
Heartbeat CPU  0 instructions:  404000000 cycles:  372459878 heartbeat IPC: 0.86516 cumulative IPC: 0.94408 (Simulation time: 0 hr 14 min 11 sec) 
Heartbeat CPU  0 instructions:  405000000 cycles:  373562399 heartbeat IPC: 0.90701 cumulative IPC: 0.94395 (Simulation time: 0 hr 14 min 13 sec) 
Heartbeat CPU  0 instructions:  406000000 cycles:  374657290 heartbeat IPC: 0.91333 cumulative IPC: 0.94385 (Simulation time: 0 hr 14 min 16 sec) 
Heartbeat CPU  0 instructions:  407000000 cycles:  375757353 heartbeat IPC: 0.90904 cumulative IPC: 0.94373 (Simulation time: 0 hr 14 min 18 sec) 
Heartbeat CPU  0 instructions:  408000000 cycles:  376979655 heartbeat IPC: 0.81813 cumulative IPC: 0.94326 (Simulation time: 0 hr 14 min 20 sec) 
Heartbeat CPU  0 instructions:  409000001 cycles:  378438021 heartbeat IPC: 0.68570 cumulative IPC: 0.94212 (Simulation time: 0 hr 14 min 23 sec) 
Heartbeat CPU  0 instructions:  410000003 cycles:  379520732 heartbeat IPC: 0.92361 cumulative IPC: 0.94206 (Simulation time: 0 hr 14 min 25 sec) 
Heartbeat CPU  0 instructions:  411000002 cycles:  380626246 heartbeat IPC: 0.90456 cumulative IPC: 0.94193 (Simulation time: 0 hr 14 min 27 sec) 
Heartbeat CPU  0 instructions:  412000000 cycles:  381455144 heartbeat IPC: 1.20642 cumulative IPC: 0.94259 (Simulation time: 0 hr 14 min 29 sec) 
Heartbeat CPU  0 instructions:  413000003 cycles:  382277376 heartbeat IPC: 1.21621 cumulative IPC: 0.94327 (Simulation time: 0 hr 14 min 31 sec) 
Heartbeat CPU  0 instructions:  414000000 cycles:  383097630 heartbeat IPC: 1.21913 cumulative IPC: 0.94395 (Simulation time: 0 hr 14 min 33 sec) 
Heartbeat CPU  0 instructions:  415000002 cycles:  383919009 heartbeat IPC: 1.21747 cumulative IPC: 0.94463 (Simulation time: 0 hr 14 min 35 sec) 
Heartbeat CPU  0 instructions:  416000000 cycles:  384740864 heartbeat IPC: 1.21676 cumulative IPC: 0.94529 (Simulation time: 0 hr 14 min 37 sec) 
Heartbeat CPU  0 instructions:  417000000 cycles:  385563919 heartbeat IPC: 1.21499 cumulative IPC: 0.94596 (Simulation time: 0 hr 14 min 39 sec) 
Heartbeat CPU  0 instructions:  418000001 cycles:  386387233 heartbeat IPC: 1.21460 cumulative IPC: 0.94662 (Simulation time: 0 hr 14 min 41 sec) 
Heartbeat CPU  0 instructions:  419000003 cycles:  387208709 heartbeat IPC: 1.21732 cumulative IPC: 0.94728 (Simulation time: 0 hr 14 min 43 sec) 
Heartbeat CPU  0 instructions:  420000000 cycles:  388030556 heartbeat IPC: 1.21677 cumulative IPC: 0.94793 (Simulation time: 0 hr 14 min 45 sec) 
Heartbeat CPU  0 instructions:  421000001 cycles:  388853482 heartbeat IPC: 1.21518 cumulative IPC: 0.94858 (Simulation time: 0 hr 14 min 47 sec) 
Heartbeat CPU  0 instructions:  422000000 cycles:  389678466 heartbeat IPC: 1.21214 cumulative IPC: 0.94922 (Simulation time: 0 hr 14 min 50 sec) 
Heartbeat CPU  0 instructions:  423000002 cycles:  390500650 heartbeat IPC: 1.21628 cumulative IPC: 0.94987 (Simulation time: 0 hr 14 min 52 sec) 
Heartbeat CPU  0 instructions:  424000000 cycles:  391326004 heartbeat IPC: 1.21160 cumulative IPC: 0.95050 (Simulation time: 0 hr 14 min 54 sec) 
Heartbeat CPU  0 instructions:  425000000 cycles:  392153091 heartbeat IPC: 1.20906 cumulative IPC: 0.95113 (Simulation time: 0 hr 14 min 56 sec) 
Heartbeat CPU  0 instructions:  426000003 cycles:  392981168 heartbeat IPC: 1.20762 cumulative IPC: 0.95175 (Simulation time: 0 hr 14 min 58 sec) 
Heartbeat CPU  0 instructions:  427000003 cycles:  393808567 heartbeat IPC: 1.20861 cumulative IPC: 0.95237 (Simulation time: 0 hr 15 min 0 sec) 
Heartbeat CPU  0 instructions:  428000000 cycles:  394637243 heartbeat IPC: 1.20674 cumulative IPC: 0.95298 (Simulation time: 0 hr 15 min 2 sec) 
Heartbeat CPU  0 instructions:  429000002 cycles:  395463426 heartbeat IPC: 1.21039 cumulative IPC: 0.95360 (Simulation time: 0 hr 15 min 4 sec) 
Heartbeat CPU  0 instructions:  430000002 cycles:  396290459 heartbeat IPC: 1.20914 cumulative IPC: 0.95421 (Simulation time: 0 hr 15 min 6 sec) 
Heartbeat CPU  0 instructions:  431000003 cycles:  397117542 heartbeat IPC: 1.20907 cumulative IPC: 0.95482 (Simulation time: 0 hr 15 min 8 sec) 
Heartbeat CPU  0 instructions:  432000000 cycles:  397945911 heartbeat IPC: 1.20719 cumulative IPC: 0.95542 (Simulation time: 0 hr 15 min 10 sec) 
Heartbeat CPU  0 instructions:  433000001 cycles:  398773465 heartbeat IPC: 1.20838 cumulative IPC: 0.95602 (Simulation time: 0 hr 15 min 12 sec) 
Heartbeat CPU  0 instructions:  434000001 cycles:  399600920 heartbeat IPC: 1.20852 cumulative IPC: 0.95662 (Simulation time: 0 hr 15 min 14 sec) 
Heartbeat CPU  0 instructions:  435000003 cycles:  400426513 heartbeat IPC: 1.21125 cumulative IPC: 0.95722 (Simulation time: 0 hr 15 min 16 sec) 
Heartbeat CPU  0 instructions:  436000000 cycles:  401252815 heartbeat IPC: 1.21021 cumulative IPC: 0.95781 (Simulation time: 0 hr 15 min 18 sec) 
Heartbeat CPU  0 instructions:  437000002 cycles:  402079990 heartbeat IPC: 1.20894 cumulative IPC: 0.95840 (Simulation time: 0 hr 15 min 21 sec) 
Heartbeat CPU  0 instructions:  438000000 cycles:  402908383 heartbeat IPC: 1.20715 cumulative IPC: 0.95899 (Simulation time: 0 hr 15 min 23 sec) 
Heartbeat CPU  0 instructions:  439000003 cycles:  403735055 heartbeat IPC: 1.20967 cumulative IPC: 0.95957 (Simulation time: 0 hr 15 min 25 sec) 
Heartbeat CPU  0 instructions:  440000000 cycles:  404561192 heartbeat IPC: 1.21045 cumulative IPC: 0.96016 (Simulation time: 0 hr 15 min 27 sec) 
Heartbeat CPU  0 instructions:  441000000 cycles:  405390526 heartbeat IPC: 1.20579 cumulative IPC: 0.96073 (Simulation time: 0 hr 15 min 29 sec) 
Heartbeat CPU  0 instructions:  442000003 cycles:  406217524 heartbeat IPC: 1.20920 cumulative IPC: 0.96131 (Simulation time: 0 hr 15 min 31 sec) 
Heartbeat CPU  0 instructions:  443000002 cycles:  407047987 heartbeat IPC: 1.20415 cumulative IPC: 0.96188 (Simulation time: 0 hr 15 min 33 sec) 
Heartbeat CPU  0 instructions:  444000000 cycles:  407875956 heartbeat IPC: 1.20777 cumulative IPC: 0.96245 (Simulation time: 0 hr 15 min 35 sec) 
Heartbeat CPU  0 instructions:  445000003 cycles:  408703025 heartbeat IPC: 1.20909 cumulative IPC: 0.96302 (Simulation time: 0 hr 15 min 37 sec) 
Heartbeat CPU  0 instructions:  446000002 cycles:  409529749 heartbeat IPC: 1.20959 cumulative IPC: 0.96358 (Simulation time: 0 hr 15 min 39 sec) 
Heartbeat CPU  0 instructions:  447000000 cycles:  410357055 heartbeat IPC: 1.20874 cumulative IPC: 0.96415 (Simulation time: 0 hr 15 min 41 sec) 
Heartbeat CPU  0 instructions:  448000000 cycles:  411185763 heartbeat IPC: 1.20670 cumulative IPC: 0.96470 (Simulation time: 0 hr 15 min 43 sec) 
Heartbeat CPU  0 instructions:  449000003 cycles:  412013846 heartbeat IPC: 1.20761 cumulative IPC: 0.96526 (Simulation time: 0 hr 15 min 45 sec) 
Heartbeat CPU  0 instructions:  450000001 cycles:  412841365 heartbeat IPC: 1.20843 cumulative IPC: 0.96582 (Simulation time: 0 hr 15 min 47 sec) 
Heartbeat CPU  0 instructions:  451000003 cycles:  413669642 heartbeat IPC: 1.20733 cumulative IPC: 0.96637 (Simulation time: 0 hr 15 min 49 sec) 
Heartbeat CPU  0 instructions:  452000000 cycles:  414495979 heartbeat IPC: 1.21016 cumulative IPC: 0.96692 (Simulation time: 0 hr 15 min 51 sec) 
Heartbeat CPU  0 instructions:  453000000 cycles:  415322851 heartbeat IPC: 1.20938 cumulative IPC: 0.96747 (Simulation time: 0 hr 15 min 54 sec) 
Heartbeat CPU  0 instructions:  454000000 cycles:  416150005 heartbeat IPC: 1.20896 cumulative IPC: 0.96802 (Simulation time: 0 hr 15 min 56 sec) 
Heartbeat CPU  0 instructions:  455000002 cycles:  416976541 heartbeat IPC: 1.20987 cumulative IPC: 0.96856 (Simulation time: 0 hr 15 min 58 sec) 
Heartbeat CPU  0 instructions:  456000000 cycles:  417804608 heartbeat IPC: 1.20763 cumulative IPC: 0.96910 (Simulation time: 0 hr 16 min 0 sec) 
Heartbeat CPU  0 instructions:  457000000 cycles:  418633302 heartbeat IPC: 1.20672 cumulative IPC: 0.96964 (Simulation time: 0 hr 16 min 2 sec) 
Heartbeat CPU  0 instructions:  458000002 cycles:  419461355 heartbeat IPC: 1.20765 cumulative IPC: 0.97017 (Simulation time: 0 hr 16 min 4 sec) 
Heartbeat CPU  0 instructions:  459000001 cycles:  420291503 heartbeat IPC: 1.20460 cumulative IPC: 0.97070 (Simulation time: 0 hr 16 min 6 sec) 
Heartbeat CPU  0 instructions:  460000000 cycles:  421119558 heartbeat IPC: 1.20765 cumulative IPC: 0.97122 (Simulation time: 0 hr 16 min 8 sec) 
Heartbeat CPU  0 instructions:  461000003 cycles:  421949420 heartbeat IPC: 1.20502 cumulative IPC: 0.97175 (Simulation time: 0 hr 16 min 10 sec) 
Heartbeat CPU  0 instructions:  462000002 cycles:  422777985 heartbeat IPC: 1.20690 cumulative IPC: 0.97227 (Simulation time: 0 hr 16 min 12 sec) 
Heartbeat CPU  0 instructions:  463000002 cycles:  423604405 heartbeat IPC: 1.21004 cumulative IPC: 0.97280 (Simulation time: 0 hr 16 min 14 sec) 
Heartbeat CPU  0 instructions:  464000000 cycles:  424432380 heartbeat IPC: 1.20776 cumulative IPC: 0.97332 (Simulation time: 0 hr 16 min 16 sec) 
Heartbeat CPU  0 instructions:  465000001 cycles:  425262458 heartbeat IPC: 1.20471 cumulative IPC: 0.97383 (Simulation time: 0 hr 16 min 18 sec) 
Heartbeat CPU  0 instructions:  466000001 cycles:  426089285 heartbeat IPC: 1.20944 cumulative IPC: 0.97435 (Simulation time: 0 hr 16 min 20 sec) 
Heartbeat CPU  0 instructions:  467000001 cycles:  426916126 heartbeat IPC: 1.20942 cumulative IPC: 0.97486 (Simulation time: 0 hr 16 min 22 sec) 
Heartbeat CPU  0 instructions:  468000000 cycles:  427743132 heartbeat IPC: 1.20918 cumulative IPC: 0.97538 (Simulation time: 0 hr 16 min 24 sec) 
Heartbeat CPU  0 instructions:  469000000 cycles:  428573447 heartbeat IPC: 1.20436 cumulative IPC: 0.97588 (Simulation time: 0 hr 16 min 26 sec) 
Heartbeat CPU  0 instructions:  470000003 cycles:  429401774 heartbeat IPC: 1.20726 cumulative IPC: 0.97639 (Simulation time: 0 hr 16 min 29 sec) 
Heartbeat CPU  0 instructions:  471000002 cycles:  430228760 heartbeat IPC: 1.20921 cumulative IPC: 0.97689 (Simulation time: 0 hr 16 min 31 sec) 
Heartbeat CPU  0 instructions:  472000000 cycles:  431058455 heartbeat IPC: 1.20526 cumulative IPC: 0.97739 (Simulation time: 0 hr 16 min 33 sec) 
Heartbeat CPU  0 instructions:  473000001 cycles:  431886523 heartbeat IPC: 1.20763 cumulative IPC: 0.97789 (Simulation time: 0 hr 16 min 35 sec) 
Heartbeat CPU  0 instructions:  474000002 cycles:  432712218 heartbeat IPC: 1.21110 cumulative IPC: 0.97840 (Simulation time: 0 hr 16 min 37 sec) 
Heartbeat CPU  0 instructions:  475000003 cycles:  433542350 heartbeat IPC: 1.20463 cumulative IPC: 0.97889 (Simulation time: 0 hr 16 min 39 sec) 
Heartbeat CPU  0 instructions:  476000000 cycles:  434370235 heartbeat IPC: 1.20789 cumulative IPC: 0.97938 (Simulation time: 0 hr 16 min 41 sec) 
Heartbeat CPU  0 instructions:  477000002 cycles:  435198634 heartbeat IPC: 1.20715 cumulative IPC: 0.97987 (Simulation time: 0 hr 16 min 43 sec) 
Heartbeat CPU  0 instructions:  478000002 cycles:  436028130 heartbeat IPC: 1.20555 cumulative IPC: 0.98036 (Simulation time: 0 hr 16 min 45 sec) 
Heartbeat CPU  0 instructions:  479000002 cycles:  436856831 heartbeat IPC: 1.20671 cumulative IPC: 0.98084 (Simulation time: 0 hr 16 min 47 sec) 
Heartbeat CPU  0 instructions:  480000000 cycles:  437683804 heartbeat IPC: 1.20923 cumulative IPC: 0.98133 (Simulation time: 0 hr 16 min 49 sec) 
Heartbeat CPU  0 instructions:  481000001 cycles:  438513826 heartbeat IPC: 1.20479 cumulative IPC: 0.98181 (Simulation time: 0 hr 16 min 51 sec) 
Heartbeat CPU  0 instructions:  482000000 cycles:  439640877 heartbeat IPC: 0.88727 cumulative IPC: 0.98153 (Simulation time: 0 hr 16 min 53 sec) 
Heartbeat CPU  0 instructions:  483000003 cycles:  440802307 heartbeat IPC: 0.86101 cumulative IPC: 0.98117 (Simulation time: 0 hr 16 min 56 sec) 
Heartbeat CPU  0 instructions:  484000000 cycles:  441877668 heartbeat IPC: 0.92992 cumulative IPC: 0.98103 (Simulation time: 0 hr 16 min 58 sec) 
Heartbeat CPU  0 instructions:  485000003 cycles:  442938408 heartbeat IPC: 0.94274 cumulative IPC: 0.98093 (Simulation time: 0 hr 17 min 0 sec) 
Heartbeat CPU  0 instructions:  486000002 cycles:  443950207 heartbeat IPC: 0.98834 cumulative IPC: 0.98095 (Simulation time: 0 hr 17 min 2 sec) 
Heartbeat CPU  0 instructions:  487000001 cycles:  444948278 heartbeat IPC: 1.00193 cumulative IPC: 0.98100 (Simulation time: 0 hr 17 min 4 sec) 
Heartbeat CPU  0 instructions:  488000000 cycles:  446013825 heartbeat IPC: 0.93848 cumulative IPC: 0.98089 (Simulation time: 0 hr 17 min 6 sec) 
Heartbeat CPU  0 instructions:  489000001 cycles:  447047112 heartbeat IPC: 0.96779 cumulative IPC: 0.98085 (Simulation time: 0 hr 17 min 8 sec) 
Heartbeat CPU  0 instructions:  490000001 cycles:  448092898 heartbeat IPC: 0.95622 cumulative IPC: 0.98079 (Simulation time: 0 hr 17 min 10 sec) 
Heartbeat CPU  0 instructions:  491000003 cycles:  449135193 heartbeat IPC: 0.95942 cumulative IPC: 0.98073 (Simulation time: 0 hr 17 min 12 sec) 
Heartbeat CPU  0 instructions:  492000000 cycles:  450164126 heartbeat IPC: 0.97188 cumulative IPC: 0.98071 (Simulation time: 0 hr 17 min 15 sec) 
Heartbeat CPU  0 instructions:  493000002 cycles:  451121102 heartbeat IPC: 1.04496 cumulative IPC: 0.98086 (Simulation time: 0 hr 17 min 17 sec) 
Heartbeat CPU  0 instructions:  494000001 cycles:  452103076 heartbeat IPC: 1.01836 cumulative IPC: 0.98095 (Simulation time: 0 hr 17 min 19 sec) 
Heartbeat CPU  0 instructions:  495000000 cycles:  453129413 heartbeat IPC: 0.97434 cumulative IPC: 0.98094 (Simulation time: 0 hr 17 min 21 sec) 
Heartbeat CPU  0 instructions:  496000000 cycles:  454130637 heartbeat IPC: 0.99878 cumulative IPC: 0.98098 (Simulation time: 0 hr 17 min 23 sec) 
Heartbeat CPU  0 instructions:  497000000 cycles:  455146840 heartbeat IPC: 0.98406 cumulative IPC: 0.98099 (Simulation time: 0 hr 17 min 25 sec) 
Heartbeat CPU  0 instructions:  498000001 cycles:  456164291 heartbeat IPC: 0.98285 cumulative IPC: 0.98099 (Simulation time: 0 hr 17 min 27 sec) 
Heartbeat CPU  0 instructions:  499000001 cycles:  457208115 heartbeat IPC: 0.95802 cumulative IPC: 0.98094 (Simulation time: 0 hr 17 min 29 sec) 
Heartbeat CPU  0 instructions:  500000000 cycles:  458230611 heartbeat IPC: 0.97800 cumulative IPC: 0.98093 (Simulation time: 0 hr 17 min 32 sec) 
Heartbeat CPU  0 instructions:  501000002 cycles:  459277318 heartbeat IPC: 0.95538 cumulative IPC: 0.98086 (Simulation time: 0 hr 17 min 34 sec) 
Heartbeat CPU  0 instructions:  502000003 cycles:  460288066 heartbeat IPC: 0.98937 cumulative IPC: 0.98088 (Simulation time: 0 hr 17 min 36 sec) 
Heartbeat CPU  0 instructions:  503000000 cycles:  461255937 heartbeat IPC: 1.03319 cumulative IPC: 0.98101 (Simulation time: 0 hr 17 min 38 sec) 
Heartbeat CPU  0 instructions:  504000000 cycles:  462260949 heartbeat IPC: 0.99501 cumulative IPC: 0.98104 (Simulation time: 0 hr 17 min 40 sec) 
Heartbeat CPU  0 instructions:  505000003 cycles:  463329386 heartbeat IPC: 0.93595 cumulative IPC: 0.98092 (Simulation time: 0 hr 17 min 42 sec) 
Heartbeat CPU  0 instructions:  506000002 cycles:  464364297 heartbeat IPC: 0.96627 cumulative IPC: 0.98089 (Simulation time: 0 hr 17 min 44 sec) 
Heartbeat CPU  0 instructions:  507000000 cycles:  465399950 heartbeat IPC: 0.96557 cumulative IPC: 0.98085 (Simulation time: 0 hr 17 min 46 sec) 
Heartbeat CPU  0 instructions:  508000000 cycles:  466529941 heartbeat IPC: 0.88496 cumulative IPC: 0.98059 (Simulation time: 0 hr 17 min 49 sec) 
Heartbeat CPU  0 instructions:  509000002 cycles:  467750489 heartbeat IPC: 0.81931 cumulative IPC: 0.98012 (Simulation time: 0 hr 17 min 51 sec) 
Heartbeat CPU  0 instructions:  510000002 cycles:  468997016 heartbeat IPC: 0.80223 cumulative IPC: 0.97959 (Simulation time: 0 hr 17 min 54 sec) 
Heartbeat CPU  0 instructions:  511000003 cycles:  470239792 heartbeat IPC: 0.80465 cumulative IPC: 0.97907 (Simulation time: 0 hr 17 min 56 sec) 
Heartbeat CPU  0 instructions:  512000000 cycles:  471488087 heartbeat IPC: 0.80109 cumulative IPC: 0.97854 (Simulation time: 0 hr 17 min 59 sec) 
Heartbeat CPU  0 instructions:  513000003 cycles:  472721876 heartbeat IPC: 0.81051 cumulative IPC: 0.97805 (Simulation time: 0 hr 18 min 1 sec) 
Heartbeat CPU  0 instructions:  514000003 cycles:  473948123 heartbeat IPC: 0.81550 cumulative IPC: 0.97758 (Simulation time: 0 hr 18 min 4 sec) 
Heartbeat CPU  0 instructions:  515000000 cycles:  475233313 heartbeat IPC: 0.77809 cumulative IPC: 0.97698 (Simulation time: 0 hr 18 min 6 sec) 
Heartbeat CPU  0 instructions:  516000000 cycles:  476503827 heartbeat IPC: 0.78708 cumulative IPC: 0.97641 (Simulation time: 0 hr 18 min 9 sec) 
Heartbeat CPU  0 instructions:  517000001 cycles:  477717306 heartbeat IPC: 0.82408 cumulative IPC: 0.97598 (Simulation time: 0 hr 18 min 12 sec) 
Heartbeat CPU  0 instructions:  518000002 cycles:  478928913 heartbeat IPC: 0.82535 cumulative IPC: 0.97555 (Simulation time: 0 hr 18 min 14 sec) 
Heartbeat CPU  0 instructions:  519000000 cycles:  480199448 heartbeat IPC: 0.78707 cumulative IPC: 0.97499 (Simulation time: 0 hr 18 min 17 sec) 
Heartbeat CPU  0 instructions:  520000000 cycles:  481473402 heartbeat IPC: 0.78496 cumulative IPC: 0.97443 (Simulation time: 0 hr 18 min 19 sec) 
Heartbeat CPU  0 instructions:  521000003 cycles:  482704310 heartbeat IPC: 0.81241 cumulative IPC: 0.97397 (Simulation time: 0 hr 18 min 22 sec) 
Heartbeat CPU  0 instructions:  522000002 cycles:  483916214 heartbeat IPC: 0.82515 cumulative IPC: 0.97356 (Simulation time: 0 hr 18 min 24 sec) 
Heartbeat CPU  0 instructions:  523000001 cycles:  485179703 heartbeat IPC: 0.79146 cumulative IPC: 0.97303 (Simulation time: 0 hr 18 min 27 sec) 
Heartbeat CPU  0 instructions:  524000000 cycles:  486446031 heartbeat IPC: 0.78968 cumulative IPC: 0.97249 (Simulation time: 0 hr 18 min 29 sec) 
Heartbeat CPU  0 instructions:  525000000 cycles:  487685883 heartbeat IPC: 0.80655 cumulative IPC: 0.97202 (Simulation time: 0 hr 18 min 32 sec) 
Heartbeat CPU  0 instructions:  526000001 cycles:  488954051 heartbeat IPC: 0.78854 cumulative IPC: 0.97149 (Simulation time: 0 hr 18 min 34 sec) 
Heartbeat CPU  0 instructions:  527000000 cycles:  490234103 heartbeat IPC: 0.78122 cumulative IPC: 0.97094 (Simulation time: 0 hr 18 min 37 sec) 
Heartbeat CPU  0 instructions:  528000000 cycles:  491468314 heartbeat IPC: 0.81023 cumulative IPC: 0.97049 (Simulation time: 0 hr 18 min 39 sec) 
Heartbeat CPU  0 instructions:  529000002 cycles:  492730173 heartbeat IPC: 0.79248 cumulative IPC: 0.96998 (Simulation time: 0 hr 18 min 42 sec) 
[...]
Heartbeat CPU  0 instructions:  550000002 cycles:  517009366 heartbeat IPC: 1.14976 cumulative IPC: 0.96451 (Simulation time: 0 hr 19 min 33 sec) 
Heartbeat CPU  0 instructions:  551000001 cycles:  517871348 heartbeat IPC: 1.16012 cumulative IPC: 0.96488 (Simulation time: 0 hr 19 min 35 sec) 
Heartbeat CPU  0 instructions:  552000000 cycles:  518732857 heartbeat IPC: 1.16075 cumulative IPC: 0.96524 (Simulation time: 0 hr 19 min 37 sec) 
Heartbeat CPU  0 instructions:  553000000 cycles:  519597090 heartbeat IPC: 1.15710 cumulative IPC: 0.96559 (Simulation time: 0 hr 19 min 39 sec) 
Heartbeat CPU  0 instructions:  554000001 cycles:  520463290 heartbeat IPC: 1.15447 cumulative IPC: 0.96594 (Simulation time: 0 hr 19 min 41 sec) 
Heartbeat CPU  0 instructions:  555000001 cycles:  521329108 heartbeat IPC: 1.15498 cumulative IPC: 0.96629 (Simulation time: 0 hr 19 min 43 sec) 
Heartbeat CPU  0 instructions:  556000000 cycles:  522198100 heartbeat IPC: 1.15076 cumulative IPC: 0.96662 (Simulation time: 0 hr 19 min 45 sec) 
Heartbeat CPU  0 instructions:  557000002 cycles:  523078131 heartbeat IPC: 1.13633 cumulative IPC: 0.96694 (Simulation time: 0 hr 19 min 47 sec) 
Heartbeat CPU  0 instructions:  558000003 cycles:  523942047 heartbeat IPC: 1.15752 cumulative IPC: 0.96729 (Simulation time: 0 hr 19 min 49 sec) 
Heartbeat CPU  0 instructions:  559000002 cycles:  524805336 heartbeat IPC: 1.15836 cumulative IPC: 0.96764 (Simulation time: 0 hr 19 min 52 sec) 
Heartbeat CPU  0 instructions:  560000000 cycles:  525663069 heartbeat IPC: 1.16586 cumulative IPC: 0.96799 (Simulation time: 0 hr 19 min 54 sec) 
Heartbeat CPU  0 instructions:  561000002 cycles:  526523199 heartbeat IPC: 1.16262 cumulative IPC: 0.96835 (Simulation time: 0 hr 19 min 56 sec) 
Heartbeat CPU  0 instructions:  562000002 cycles:  527386760 heartbeat IPC: 1.15800 cumulative IPC: 0.96869 (Simulation time: 0 hr 19 min 58 sec) 
Heartbeat CPU  0 instructions:  563000001 cycles:  528245392 heartbeat IPC: 1.16464 cumulative IPC: 0.96904 (Simulation time: 0 hr 20 min 0 sec) 
Heartbeat CPU  0 instructions:  564000000 cycles:  529110428 heartbeat IPC: 1.15602 cumulative IPC: 0.96938 (Simulation time: 0 hr 20 min 2 sec) 
Heartbeat CPU  0 instructions:  565000003 cycles:  529974803 heartbeat IPC: 1.15691 cumulative IPC: 0.96972 (Simulation time: 0 hr 20 min 4 sec) 
Heartbeat CPU  0 instructions:  566000002 cycles:  530831716 heartbeat IPC: 1.16698 cumulative IPC: 0.97007 (Simulation time: 0 hr 20 min 6 sec) 
Heartbeat CPU  0 instructions:  567000001 cycles:  531716725 heartbeat IPC: 1.12993 cumulative IPC: 0.97036 (Simulation time: 0 hr 20 min 9 sec) 
Heartbeat CPU  0 instructions:  568000000 cycles:  532568314 heartbeat IPC: 1.17427 cumulative IPC: 0.97072 (Simulation time: 0 hr 20 min 11 sec) 
Heartbeat CPU  0 instructions:  569000001 cycles:  533435220 heartbeat IPC: 1.15353 cumulative IPC: 0.97105 (Simulation time: 0 hr 20 min 13 sec) 
Heartbeat CPU  0 instructions:  570000001 cycles:  534296877 heartbeat IPC: 1.16055 cumulative IPC: 0.97139 (Simulation time: 0 hr 20 min 15 sec) 
Heartbeat CPU  0 instructions:  571000003 cycles:  535161214 heartbeat IPC: 1.15696 cumulative IPC: 0.97172 (Simulation time: 0 hr 20 min 17 sec) 
Heartbeat CPU  0 instructions:  572000000 cycles:  536021753 heartbeat IPC: 1.16206 cumulative IPC: 0.97206 (Simulation time: 0 hr 20 min 19 sec) 
Heartbeat CPU  0 instructions:  573000001 cycles:  536886669 heartbeat IPC: 1.15618 cumulative IPC: 0.97238 (Simulation time: 0 hr 20 min 21 sec) 
Heartbeat CPU  0 instructions:  574000003 cycles:  537741405 heartbeat IPC: 1.16995 cumulative IPC: 0.97273 (Simulation time: 0 hr 20 min 23 sec) 
Heartbeat CPU  0 instructions:  575000000 cycles:  538603956 heartbeat IPC: 1.15935 cumulative IPC: 0.97306 (Simulation time: 0 hr 20 min 25 sec) 
Heartbeat CPU  0 instructions:  576000000 cycles:  539467834 heartbeat IPC: 1.15757 cumulative IPC: 0.97339 (Simulation time: 0 hr 20 min 28 sec) 
Heartbeat CPU  0 instructions:  577000002 cycles:  540343593 heartbeat IPC: 1.14187 cumulative IPC: 0.97369 (Simulation time: 0 hr 20 min 30 sec) 
Heartbeat CPU  0 instructions:  578000003 cycles:  541207312 heartbeat IPC: 1.15779 cumulative IPC: 0.97401 (Simulation time: 0 hr 20 min 32 sec) 
Heartbeat CPU  0 instructions:  579000000 cycles:  542066551 heartbeat IPC: 1.16382 cumulative IPC: 0.97434 (Simulation time: 0 hr 20 min 34 sec) 
Heartbeat CPU  0 instructions:  580000000 cycles:  542930778 heartbeat IPC: 1.15710 cumulative IPC: 0.97466 (Simulation time: 0 hr 20 min 36 sec) 
Heartbeat CPU  0 instructions:  581000002 cycles:  543788701 heartbeat IPC: 1.16561 cumulative IPC: 0.97500 (Simulation time: 0 hr 20 min 38 sec) 
Heartbeat CPU  0 instructions:  582000000 cycles:  544652050 heartbeat IPC: 1.15828 cumulative IPC: 0.97532 (Simulation time: 0 hr 20 min 40 sec) 
Heartbeat CPU  0 instructions:  583000000 cycles:  545508870 heartbeat IPC: 1.16711 cumulative IPC: 0.97565 (Simulation time: 0 hr 20 min 42 sec) 
Heartbeat CPU  0 instructions:  584000000 cycles:  546371270 heartbeat IPC: 1.15955 cumulative IPC: 0.97597 (Simulation time: 0 hr 20 min 44 sec) 
Heartbeat CPU  0 instructions:  585000001 cycles:  547230760 heartbeat IPC: 1.16348 cumulative IPC: 0.97629 (Simulation time: 0 hr 20 min 47 sec) 
Heartbeat CPU  0 instructions:  586000000 cycles:  548089549 heartbeat IPC: 1.16443 cumulative IPC: 0.97662 (Simulation time: 0 hr 20 min 49 sec) 
Heartbeat CPU  0 instructions:  587000000 cycles:  548946613 heartbeat IPC: 1.16677 cumulative IPC: 0.97694 (Simulation time: 0 hr 20 min 51 sec) 
Heartbeat CPU  0 instructions:  588000000 cycles:  549822847 heartbeat IPC: 1.14125 cumulative IPC: 0.97723 (Simulation time: 0 hr 20 min 53 sec) 
Heartbeat CPU  0 instructions:  589000001 cycles:  550682933 heartbeat IPC: 1.16268 cumulative IPC: 0.97755 (Simulation time: 0 hr 20 min 55 sec) 
Heartbeat CPU  0 instructions:  590000003 cycles:  551543477 heartbeat IPC: 1.16206 cumulative IPC: 0.97787 (Simulation time: 0 hr 20 min 57 sec) 
Heartbeat CPU  0 instructions:  591000002 cycles:  552398987 heartbeat IPC: 1.16889 cumulative IPC: 0.97819 (Simulation time: 0 hr 20 min 59 sec) 
Heartbeat CPU  0 instructions:  592000000 cycles:  553263874 heartbeat IPC: 1.15622 cumulative IPC: 0.97850 (Simulation time: 0 hr 21 min 1 sec) 
Heartbeat CPU  0 instructions:  593000000 cycles:  554123395 heartbeat IPC: 1.16344 cumulative IPC: 0.97882 (Simulation time: 0 hr 21 min 4 sec) 
Heartbeat CPU  0 instructions:  594000003 cycles:  554981154 heartbeat IPC: 1.16583 cumulative IPC: 0.97913 (Simulation time: 0 hr 21 min 6 sec) 
Heartbeat CPU  0 instructions:  595000000 cycles:  555841150 heartbeat IPC: 1.16279 cumulative IPC: 0.97945 (Simulation time: 0 hr 21 min 8 sec) 
Heartbeat CPU  0 instructions:  596000000 cycles:  556697621 heartbeat IPC: 1.16758 cumulative IPC: 0.97976 (Simulation time: 0 hr 21 min 10 sec) 
Heartbeat CPU  0 instructions:  597000001 cycles:  557557560 heartbeat IPC: 1.16287 cumulative IPC: 0.98008 (Simulation time: 0 hr 21 min 12 sec) 
Heartbeat CPU  0 instructions:  598000002 cycles:  558436851 heartbeat IPC: 1.13728 cumulative IPC: 0.98035 (Simulation time: 0 hr 21 min 14 sec) 
Heartbeat CPU  0 instructions:  599000000 cycles:  559294012 heartbeat IPC: 1.16664 cumulative IPC: 0.98066 (Simulation time: 0 hr 21 min 16 sec) 
Heartbeat CPU  0 instructions:  600000000 cycles:  560151459 heartbeat IPC: 1.16625 cumulative IPC: 0.98097 (Simulation time: 0 hr 21 min 18 sec) 
Finished CPU 0 instructions: 500000002 cycles: 509697861 cumulative IPC: 0.98097 (Simulation time: 0 hr 21 min 18 sec) 

ChampSim completed all CPUs

[ROI Statistics]
Core_0_instructions 500000002
Core_0_cycles 509697861
Core_0_IPC 0.98097

Core_0_branch_prediction_accuracy 99.14567
Core_0_branch_MPKI 0.22121
Core_0_average_ROB_occupancy_at_mispredict 245.20120

Core_0_L1D_total_access 144031299
Core_0_L1D_total_hit 138324177
Core_0_L1D_total_miss 5707122
Core_0_L1D_loads 131396344
Core_0_L1D_load_hit 127100138
Core_0_L1D_load_miss 4296206
Core_0_L1D_RFOs 12634955
Core_0_L1D_RFO_hit 11224039
Core_0_L1D_RFO_miss 1410916
Core_0_L1D_prefetches 0
Core_0_L1D_prefetch_hit 0
Core_0_L1D_prefetch_miss 0
Core_0_L1D_writebacks 0
Core_0_L1D_writeback_hit 0
Core_0_L1D_writeback_miss 0
Core_0_L1D_prefetch_requested 0
Core_0_L1D_prefetch_dropped 0
Core_0_L1D_prefetch_issued 0
Core_0_L1D_prefetch_filled 0
Core_0_L1D_prefetch_useful 0
Core_0_L1D_prefetch_useless 0
Core_0_L1D_prefetch_late 0
Core_0_L1D_average_miss_latency 132.92006

Core_0_L1D_rq_access 194152093
Core_0_L1D_rq_forward 0
Core_0_L1D_rq_merged 61394301
Core_0_L1D_rq_to_cache 132757792
Core_0_L1D_rq_full 0

Core_0_L1D_wq_access 17666329
Core_0_L1D_wq_forward 0
Core_0_L1D_wq_merged 4324
Core_0_L1D_wq_to_cache 17662005
Core_0_L1D_wq_full 16421

Core_0_L1D_pq_access 0
Core_0_L1D_pq_forward 0
Core_0_L1D_pq_merged 0
Core_0_L1D_pq_to_cache 0
Core_0_L1D_pq_full 0

Core_0_L1D_acc_epochs 540889
Core_0_L1D_acc_level_0 540889
Core_0_L1D_acc_level_1 0
Core_0_L1D_acc_level_2 0
Core_0_L1D_acc_level_3 0
Core_0_L1D_acc_level_4 0
Core_0_L1D_acc_level_5 0
Core_0_L1D_acc_level_6 0
Core_0_L1D_acc_level_7 0
Core_0_L1D_acc_level_8 0
Core_0_L1D_acc_level_9 0

Core_0_L1I_total_access 115178884
Core_0_L1I_total_hit 115178078
Core_0_L1I_total_miss 806
Core_0_L1I_loads 115178884
Core_0_L1I_load_hit 115178078
Core_0_L1I_load_miss 806
Core_0_L1I_RFOs 0
Core_0_L1I_RFO_hit 0
Core_0_L1I_RFO_miss 0
Core_0_L1I_prefetches 0
Core_0_L1I_prefetch_hit 0
Core_0_L1I_prefetch_miss 0
Core_0_L1I_writebacks 0
Core_0_L1I_writeback_hit 0
Core_0_L1I_writeback_miss 0
Core_0_L1I_prefetch_requested 0
Core_0_L1I_prefetch_dropped 0
Core_0_L1I_prefetch_issued 0
Core_0_L1I_prefetch_filled 0
Core_0_L1I_prefetch_useful 0
Core_0_L1I_prefetch_useless 0
Core_0_L1I_prefetch_late 0
Core_0_L1I_average_miss_latency 308.58313

Core_0_L1I_rq_access 500000001
Core_0_L1I_rq_forward 0
Core_0_L1I_rq_merged 384820157
Core_0_L1I_rq_to_cache 115179844
Core_0_L1I_rq_full 0

Core_0_L1I_wq_access 0
Core_0_L1I_wq_forward 0
Core_0_L1I_wq_merged 0
Core_0_L1I_wq_to_cache 0
Core_0_L1I_wq_full 0

Core_0_L1I_pq_access 0
Core_0_L1I_pq_forward 0
Core_0_L1I_pq_merged 0
Core_0_L1I_pq_to_cache 0
Core_0_L1I_pq_full 0

Core_0_L1I_acc_epochs 540889
Core_0_L1I_acc_level_0 540889
Core_0_L1I_acc_level_1 0
Core_0_L1I_acc_level_2 0
Core_0_L1I_acc_level_3 0
Core_0_L1I_acc_level_4 0
Core_0_L1I_acc_level_5 0
Core_0_L1I_acc_level_6 0
Core_0_L1I_acc_level_7 0
Core_0_L1I_acc_level_8 0
Core_0_L1I_acc_level_9 0

Core_0_L2C_total_access 11280123
Core_0_L2C_total_hit 6983960
Core_0_L2C_total_miss 4296163
Core_0_L2C_loads 4296977
Core_0_L2C_load_hit 3069909
Core_0_L2C_load_miss 1227068
Core_0_L2C_RFOs 1410608
Core_0_L2C_RFO_hit 419704
Core_0_L2C_RFO_miss 990904
Core_0_L2C_prefetches 3727136
Core_0_L2C_prefetch_hit 1650770
Core_0_L2C_prefetch_miss 2076366
Core_0_L2C_writebacks 1845402
Core_0_L2C_writeback_hit 1843577
Core_0_L2C_writeback_miss 1825
Core_0_L2C_prefetch_requested 24256697
Core_0_L2C_prefetch_dropped 15044
Core_0_L2C_prefetch_issued 24241653
Core_0_L2C_prefetch_filled 2534547
Core_0_L2C_prefetch_useful 2507536
Core_0_L2C_prefetch_useless 26983
Core_0_L2C_prefetch_late 61957
Core_0_L2C_average_miss_latency 178.30010

Core_0_L2C_rq_access 5707928
Core_0_L2C_rq_forward 0
Core_0_L2C_rq_merged 0
Core_0_L2C_rq_to_cache 5707585
Core_0_L2C_rq_full 0

Core_0_L2C_wq_access 1845402
Core_0_L2C_wq_forward 392
Core_0_L2C_wq_merged 0
Core_0_L2C_wq_to_cache 1845402
Core_0_L2C_wq_full 0

Core_0_L2C_pq_access 24241653
Core_0_L2C_pq_forward 0
Core_0_L2C_pq_merged 120380
Core_0_L2C_pq_to_cache 24121224
Core_0_L2C_pq_full 0

Core_0_L2C_acc_epochs 540889
Core_0_L2C_acc_level_0 32529
Core_0_L2C_acc_level_1 11905
Core_0_L2C_acc_level_2 13623
Core_0_L2C_acc_level_3 9919
Core_0_L2C_acc_level_4 25569
Core_0_L2C_acc_level_5 22096
Core_0_L2C_acc_level_6 17150
Core_0_L2C_acc_level_7 34585
Core_0_L2C_acc_level_8 64044
Core_0_L2C_acc_level_9 309469

Core_0_LLC_total_access 19596748
Core_0_LLC_total_hit 15324291
Core_0_LLC_total_miss 4272457
Core_0_LLC_loads 1165124
Core_0_LLC_load_hit 1065906
Core_0_LLC_load_miss 99218
Core_0_LLC_RFOs 990895
Core_0_LLC_RFO_hit 95435
Core_0_LLC_RFO_miss 895460
Core_0_LLC_prefetches 16123095
Core_0_LLC_prefetch_hit 13559392
Core_0_LLC_prefetch_miss 2563703
Core_0_LLC_writebacks 1317634
Core_0_LLC_writeback_hit 603558
Core_0_LLC_writeback_miss 714076
Core_0_LLC_prefetch_requested 0
Core_0_LLC_prefetch_dropped 0
Core_0_LLC_prefetch_issued 0
Core_0_LLC_prefetch_filled 3156710
Core_0_LLC_prefetch_useful 1090673
Core_0_LLC_prefetch_useless 2045690
Core_0_LLC_prefetch_late 17643
Core_0_LLC_average_miss_latency 420.76586

Core_0_LLC_rq_access 2156020
Core_0_LLC_rq_forward 0
Core_0_LLC_rq_merged 0
Core_0_LLC_rq_to_cache 2156019
Core_0_LLC_rq_full 0

Core_0_LLC_wq_access 1317634
Core_0_LLC_wq_forward 5
Core_0_LLC_wq_merged 0
Core_0_LLC_wq_to_cache 1317634
Core_0_LLC_wq_full 0

Core_0_LLC_pq_access 21824441
Core_0_LLC_pq_forward 0
Core_0_LLC_pq_merged 96516
Core_0_LLC_pq_to_cache 21727921
Core_0_LLC_pq_full 0

Core_0_LLC_acc_epochs 547023
Core_0_LLC_acc_level_0 72221
Core_0_LLC_acc_level_1 71749
Core_0_LLC_acc_level_2 127067
Core_0_LLC_acc_level_3 90622
Core_0_LLC_acc_level_4 50657
Core_0_LLC_acc_level_5 41446
Core_0_LLC_acc_level_6 27433
Core_0_LLC_acc_level_7 17295
Core_0_LLC_acc_level_8 11387
Core_0_LLC_acc_level_9 37146

Core_0_major_page_fault 0
Core_0_minor_page_fault 19646

spp.pref.total 24256697
spp.pref.at_L2 2869037
spp.pref.at_LLC 21387660

spp.depth.max 11
spp.depth.min 0
spp.depth.avg 5

spp.breadth.max 2
spp.breadth.min 0
spp.breadth.avg 0

delta_1 23286486
delta_16 969118
delta_-15 713495
delta_32 182433
delta_-47 180640
delta_31 50397
delta_-31 48882
delta_-30 30136
delta_15 23754
delta_-1 19580
delta_2 11749
delta_-8 3820
delta_3 3057
delta_-2 2837
delta_-16 2356
delta_4 2305
delta_-3 1637
delta_-10 1511
delta_63 1338
delta_25 1313
delta_-41 1017
delta_-45 1013
delta_46 987
delta_-18 981
delta_-5 843
delta_47 800
delta_22 789
delta_-29 749
delta_5 742
delta_57 639
delta_-6 613
delta_-43 577
delta_-9 506
delta_-32 445
delta_48 422
delta_19 421
delta_62 404
delta_-61 382
delta_-44 301
delta_35 299
delta_-38 282
delta_13 247
delta_-55 241
delta_17 213
delta_-14 212
delta_-11 211
delta_-19 197
delta_45 193
delta_-13 190
delta_14 185
delta_29 181
delta_61 177
delta_-46 173
delta_-12 161
delta_-7 155
delta_-35 141
delta_-60 127
delta_41 120
delta_9 119
delta_34 118
delta_8 117
delta_-23 105
delta_-34 102
delta_-4 90
delta_-40 87
delta_39 77
delta_-42 70
delta_50 65
delta_10 53
delta_-37 47
delta_23 45
delta_30 35
delta_-22 34
delta_21 30
delta_42 30
delta_53 18
delta_-48 17
delta_12 17
delta_20 6
delta_6 5
delta_-51 5
delta_36 4
delta_-28 2
delta_-21 2

depth_1_delta_1 4364373
depth_1_delta_16 286132
depth_1_delta_-15 216962
depth_1_delta_32 52078
depth_1_delta_-47 48934
depth_1_delta_31 27832
depth_1_delta_-31 17738
depth_1_delta_-30 15291
depth_1_delta_-1 14986
depth_1_delta_15 8788
depth_1_delta_2 6778
depth_1_delta_-8 2864
depth_1_delta_3 2619
depth_1_delta_-2 2188
depth_1_delta_4 2166
depth_1_delta_-16 2135
depth_1_delta_25 1297
depth_1_delta_63 1294
depth_1_delta_-10 1272
depth_1_delta_-3 1251
depth_1_delta_-45 1001
depth_1_delta_46 822
depth_1_delta_-41 813
depth_1_delta_47 787
depth_1_delta_5 699
depth_1_delta_-29 675
depth_1_delta_-18 606
depth_1_delta_-6 569
depth_1_delta_57 545
depth_1_delta_-5 518
depth_1_delta_-9 490
depth_1_delta_22 460
depth_1_delta_-43 440
depth_1_delta_48 420
depth_1_delta_19 412
depth_1_delta_62 400
depth_1_delta_-61 323
depth_1_delta_-32 309
depth_1_delta_-44 256
depth_1_delta_35 216
depth_1_delta_-11 208
depth_1_delta_13 207
depth_1_delta_17 204
depth_1_delta_-14 200
depth_1_delta_-19 197
depth_1_delta_45 190
depth_1_delta_29 180
depth_1_delta_-38 174
depth_1_delta_-13 174
depth_1_delta_-46 173
depth_1_delta_-55 169
depth_1_delta_61 163
depth_1_delta_-12 153
depth_1_delta_-7 153
depth_1_delta_14 147
depth_1_delta_-35 137
depth_1_delta_-60 127
depth_1_delta_9 119
depth_1_delta_34 118
depth_1_delta_41 107
depth_1_delta_8 104
depth_1_delta_-34 102
depth_1_delta_-23 99
depth_1_delta_-4 90
depth_1_delta_39 77
depth_1_delta_-40 75
depth_1_delta_-42 67
depth_1_delta_50 65
depth_1_delta_10 53
depth_1_delta_-37 47
depth_1_delta_23 45
depth_1_delta_30 32
depth_1_delta_42 30
depth_1_delta_21 30
depth_1_delta_53 18
depth_1_delta_-22 18
depth_1_delta_-48 17
depth_1_delta_12 16
depth_1_delta_20 6
depth_1_delta_6 5
depth_1_delta_-51 5
depth_1_delta_36 4
depth_1_delta_-28 2
depth_1_delta_-21 2
depth_2_delta_1 4085416
depth_2_delta_16 246972
depth_2_delta_-15 180967
depth_2_delta_32 46772
depth_2_delta_-47 45382
depth_2_delta_-31 13799
depth_2_delta_31 13215
depth_2_delta_15 9760
depth_2_delta_-30 9202
depth_2_delta_2 4881
depth_2_delta_-1 3506
depth_2_delta_-8 810
depth_2_delta_-2 572
depth_2_delta_3 398
depth_2_delta_-18 373
depth_2_delta_22 327
depth_2_delta_-3 305
depth_2_delta_-5 290
depth_2_delta_-10 237
depth_2_delta_-16 219
depth_2_delta_-41 194
depth_2_delta_46 158
depth_2_delta_4 138
depth_2_delta_-43 137
depth_2_delta_-32 135
depth_2_delta_-38 108
depth_2_delta_35 83
depth_2_delta_57 82
depth_2_delta_-55 72
depth_2_delta_-29 68
depth_2_delta_-61 59
depth_2_delta_-6 44
depth_2_delta_63 44
depth_2_delta_-44 43
depth_2_delta_5 42
depth_2_delta_13 40
depth_2_delta_14 34
depth_2_delta_25 16
depth_2_delta_-22 16
depth_2_delta_-13 16
depth_2_delta_-9 15
depth_2_delta_61 14
depth_2_delta_47 13
depth_2_delta_41 13
depth_2_delta_-40 12
depth_2_delta_-14 12
depth_2_delta_-45 12
depth_2_delta_8 11
depth_2_delta_17 9
depth_2_delta_19 9
depth_2_delta_-12 8
depth_2_delta_-23 6
depth_2_delta_-42 3
depth_2_delta_-35 3
depth_2_delta_62 3
depth_2_delta_45 3
depth_2_delta_30 3
depth_2_delta_-11 3
depth_2_delta_-7 2
depth_2_delta_48 2
depth_2_delta_29 1
depth_2_delta_12 1
depth_3_delta_1 3807126
depth_3_delta_16 199069
depth_3_delta_-15 138773
depth_3_delta_32 40206
depth_3_delta_-47 40005
depth_3_delta_-31 10115
depth_3_delta_31 6839
depth_3_delta_-30 3832
depth_3_delta_15 3758
depth_3_delta_-1 1083
depth_3_delta_-8 145
depth_3_delta_-3 81
depth_3_delta_-2 77
depth_3_delta_2 65
depth_3_delta_3 36
depth_3_delta_-5 34
depth_3_delta_57 12
depth_3_delta_-41 10
depth_3_delta_46 7
depth_3_delta_-29 6
depth_3_delta_14 4
depth_3_delta_22 2
depth_3_delta_-18 2
depth_3_delta_-44 2
depth_3_delta_8 2
depth_3_delta_-16 2
depth_3_delta_-10 2
depth_3_delta_-32 1
depth_3_delta_5 1
depth_3_delta_4 1
depth_3_delta_-35 1
depth_3_delta_-9 1
depth_3_delta_62 1
depth_4_delta_1 3504878
depth_4_delta_16 149651
depth_4_delta_-15 105345
depth_4_delta_-47 32745
depth_4_delta_32 30130
depth_4_delta_-31 4251
depth_4_delta_31 2208
depth_4_delta_-30 1656
depth_4_delta_15 1341
depth_4_delta_2 22
depth_4_delta_-1 5
depth_4_delta_3 4
depth_4_delta_-5 1
depth_4_delta_-8 1
depth_5_delta_1 2888134
depth_5_delta_16 68543
depth_5_delta_-15 55139
depth_5_delta_-47 12257
depth_5_delta_32 11931
depth_5_delta_-31 2187
depth_5_delta_31 299
depth_5_delta_-30 155
depth_5_delta_15 107
depth_5_delta_2 3
depth_6_delta_1 1998629
depth_6_delta_16 16854
depth_6_delta_-15 14257
depth_6_delta_-47 1276
depth_6_delta_32 1257
depth_6_delta_-31 740
depth_6_delta_31 4
depth_7_delta_1 1301272
depth_7_delta_-15 1793
depth_7_delta_16 1669
depth_7_delta_32 59
depth_7_delta_-31 52
depth_7_delta_-47 41
depth_8_delta_1 808616
depth_8_delta_-15 198
depth_8_delta_16 176
depth_9_delta_1 426439
depth_9_delta_-15 54
depth_9_delta_16 45
depth_10_delta_1 101425
depth_10_delta_16 7
depth_10_delta_-15 7
depth_11_delta_1 178

Channel_0_RQ_row_buffer_hit 805946
Channel_0_RQ_row_buffer_miss 2752412
Channel_0_WQ_row_buffer_hit 355682
Channel_0_WQ_row_buffer_miss 828349
Channel_0_WQ_full 0
Channel_0_dbus_congested 3518787

avg_congested_cycle 46

DRAM_bw_pochs 2188092
DRAM_bw_level_0 915536
DRAM_bw_level_1 302354
DRAM_bw_level_2 288747
DRAM_bw_level_3 681455
