*************************************************
   ChampSim Multicore Out-of-Order Simulator
   Last compiled: Dec 11 2024 17:59:53
*************************************************
parsing config file: /home/functionmain/桌面/Pythia/config/spp_dev2.ini

trace_0 /home/functionmain/桌面/Pythia/traces/437.leslie3d-232B.champsimtrace.xz
adding L2C_PREFETCHER: SPP_dev2
Initialize SIGNATURE TABLE
ST_SET: 1
ST_WAY: 256
ST_TAG_BIT: 16
ST_TAG_MASK: ffff

Initialize PATTERN TABLE
PT_SET: 512
PT_WAY: 4
SIG_DELTA_BIT: 7
C_SIG_BIT: 4
C_DELTA_BIT: 4

Initialize PREFETCH FILTER
FILTER_SET: 1024
fill_threshold: 90
pf_threshold: 40

Initialize SHIP state
warmup_instructions 100000000
simulation_instructions 500000000
champsim_seed 217
measure_ipc 0
measure_ipc_epoch 1000
measure_dram_bw 1
measure_dram_bw_epoch 256
measure_cache_acc 1
measure_cache_acc_epoch 1024
l1d_perfect 0
l2c_perfect 0
llc_perfect 0
l1d_semi_perfect 0
l2c_semi_perfect 0
llc_semi_perfect 0
semi_perfect_cache_page_buffer_size 64

num_cpus 1
cpu_freq 4000
dram_io_freq 9600
page_size 4096
block_size 64
max_read_per_cycle 8
max_fill_per_cycle 1
dram_channels 1
log2_dram_channels 0
dram_ranks 1
dram_banks 8
dram_rows 65536
dram_columns 128
dram_row_size 8
dram_size 4096
dram_pages 1048576

fetch_width 6
decode_width 6
exec_width 4
lq_width 2
sq_width 2
retire_width 4
scheduler_size 128
branch_mispredict_penalty 20
rob_size 256
lq_size 72
sq_size 56
num_instr_destinations_sparc 4
num_instr_destinations 2
num_instr_sources 4

itlb_set 16
itlb_way 8
itlb_rq_size 16
itlb_wq_size 16
itlb_pq_size 0
itlb_mshr_size 8
itlb_latency 1

dtlb_set 16
dtlb_way 4
dtlb_rq_size 16
dtlb_wq_size 16
dtlb_pq_size 0
dtlb_mshr_size 8
dtlb_latency 1

stlb_set 128
stlb_way 12
stlb_rq_size 32
stlb_wq_size 32
stlb_pq_size 0
stlb_mshr_size 16
stlb_latency 8

l1i_size 32
l1i_set 64
l1i_way 8
l1i_rq_size 64
l1i_wq_size 64
l1i_pq_size 8
l1i_mshr_size 8
l1i_latency 1

l1d_size 32
l1d_set 64
l1d_way 8
l1d_rq_size 64
l1d_wq_size 64
l1d_pq_size 8
l1d_mshr_size 16
l1d_latency 4

l2c_size 256
l2c_set 512
l2c_way 8
l2c_rq_size 32
l2c_wq_size 32
l2c_pq_size 32
l2c_mshr_size 32
l2c_latency 10

llc_size 2048
llc_set 2048
llc_way 16
llc_rq_size 32
llc_wq_size 32
llc_pq_size 32
llc_mshr_size 64
llc_latency 20

dram_channel_width 8
dram_wq_size 64
dram_rq_size 64
tRP 15
tRCD 15
tCAS 12.5
dram_dbus_turn_around_time 30
dram_write_high_wm 56
dram_write_low_wm 48
min_dram_writes_per_switch 16
dram_mtps 9600
dram_dbus_return_time 3


Heartbeat CPU  0 instructions:    1000000 cycles:     488292 heartbeat IPC: 2.04795 cumulative IPC: 2.04795 (Simulation time: 0 hr 0 min 2 sec) 
Heartbeat CPU  0 instructions:    2000001 cycles:     996509 heartbeat IPC: 1.96767 cumulative IPC: 2.00701 (Simulation time: 0 hr 0 min 3 sec) 
Heartbeat CPU  0 instructions:    3000003 cycles:    1555477 heartbeat IPC: 1.78901 cumulative IPC: 1.92867 (Simulation time: 0 hr 0 min 5 sec) 
Heartbeat CPU  0 instructions:    4000000 cycles:    2079999 heartbeat IPC: 1.90649 cumulative IPC: 1.92308 (Simulation time: 0 hr 0 min 7 sec) 
Heartbeat CPU  0 instructions:    5000002 cycles:    2568146 heartbeat IPC: 2.04857 cumulative IPC: 1.94693 (Simulation time: 0 hr 0 min 9 sec) 
Heartbeat CPU  0 instructions:    6000003 cycles:    3055689 heartbeat IPC: 2.05110 cumulative IPC: 1.96355 (Simulation time: 0 hr 0 min 10 sec) 
Heartbeat CPU  0 instructions:    7000001 cycles:    3543684 heartbeat IPC: 2.04920 cumulative IPC: 1.97535 (Simulation time: 0 hr 0 min 12 sec) 
Heartbeat CPU  0 instructions:    8000000 cycles:    4031856 heartbeat IPC: 2.04846 cumulative IPC: 1.98420 (Simulation time: 0 hr 0 min 14 sec) 
Heartbeat CPU  0 instructions:    9000000 cycles:    4520431 heartbeat IPC: 2.04677 cumulative IPC: 1.99096 (Simulation time: 0 hr 0 min 16 sec) 
Heartbeat CPU  0 instructions:   10000003 cycles:    5009067 heartbeat IPC: 2.04652 cumulative IPC: 1.99638 (Simulation time: 0 hr 0 min 18 sec) 
Heartbeat CPU  0 instructions:   11000000 cycles:    5497911 heartbeat IPC: 2.04564 cumulative IPC: 2.00076 (Simulation time: 0 hr 0 min 19 sec) 
Heartbeat CPU  0 instructions:   12000000 cycles:    5986365 heartbeat IPC: 2.04728 cumulative IPC: 2.00456 (Simulation time: 0 hr 0 min 21 sec) 
Heartbeat CPU  0 instructions:   13000001 cycles:    6532923 heartbeat IPC: 1.82963 cumulative IPC: 1.98992 (Simulation time: 0 hr 0 min 23 sec) 
Heartbeat CPU  0 instructions:   14000001 cycles:    7088131 heartbeat IPC: 1.80113 cumulative IPC: 1.97513 (Simulation time: 0 hr 0 min 25 sec) 
Heartbeat CPU  0 instructions:   15000000 cycles:    7576368 heartbeat IPC: 2.04818 cumulative IPC: 1.97984 (Simulation time: 0 hr 0 min 26 sec) 
Heartbeat CPU  0 instructions:   16000000 cycles:    8064651 heartbeat IPC: 2.04799 cumulative IPC: 1.98397 (Simulation time: 0 hr 0 min 28 sec) 
Heartbeat CPU  0 instructions:   17000003 cycles:    8552878 heartbeat IPC: 2.04823 cumulative IPC: 1.98764 (Simulation time: 0 hr 0 min 30 sec) 
Heartbeat CPU  0 instructions:   18000003 cycles:    9041142 heartbeat IPC: 2.04807 cumulative IPC: 1.99090 (Simulation time: 0 hr 0 min 32 sec) 
Heartbeat CPU  0 instructions:   19000001 cycles:    9529588 heartbeat IPC: 2.04731 cumulative IPC: 1.99379 (Simulation time: 0 hr 0 min 33 sec) 
Heartbeat CPU  0 instructions:   20000000 cycles:   10018459 heartbeat IPC: 2.04553 cumulative IPC: 1.99632 (Simulation time: 0 hr 0 min 35 sec) 
Heartbeat CPU  0 instructions:   21000000 cycles:   10507350 heartbeat IPC: 2.04545 cumulative IPC: 1.99860 (Simulation time: 0 hr 0 min 37 sec) 
Heartbeat CPU  0 instructions:   22000002 cycles:   10995679 heartbeat IPC: 2.04780 cumulative IPC: 2.00079 (Simulation time: 0 hr 0 min 39 sec) 
Heartbeat CPU  0 instructions:   23000002 cycles:   11510766 heartbeat IPC: 1.94142 cumulative IPC: 1.99813 (Simulation time: 0 hr 0 min 40 sec) 
Heartbeat CPU  0 instructions:   24000000 cycles:   12069379 heartbeat IPC: 1.79014 cumulative IPC: 1.98850 (Simulation time: 0 hr 0 min 42 sec) 
Heartbeat CPU  0 instructions:   25000001 cycles:   12584967 heartbeat IPC: 1.93954 cumulative IPC: 1.98650 (Simulation time: 0 hr 0 min 44 sec) 
Heartbeat CPU  0 instructions:   26000001 cycles:   13073523 heartbeat IPC: 2.04685 cumulative IPC: 1.98875 (Simulation time: 0 hr 0 min 46 sec) 
Heartbeat CPU  0 instructions:   27000000 cycles:   13561836 heartbeat IPC: 2.04786 cumulative IPC: 1.99088 (Simulation time: 0 hr 0 min 47 sec) 
Heartbeat CPU  0 instructions:   28000000 cycles:   14050725 heartbeat IPC: 2.04545 cumulative IPC: 1.99278 (Simulation time: 0 hr 0 min 49 sec) 
Heartbeat CPU  0 instructions:   29000002 cycles:   14539375 heartbeat IPC: 2.04646 cumulative IPC: 1.99458 (Simulation time: 0 hr 0 min 51 sec) 
Heartbeat CPU  0 instructions:   30000001 cycles:   15028141 heartbeat IPC: 2.04597 cumulative IPC: 1.99625 (Simulation time: 0 hr 0 min 53 sec) 
Heartbeat CPU  0 instructions:   31000001 cycles:   15516084 heartbeat IPC: 2.04942 cumulative IPC: 1.99793 (Simulation time: 0 hr 0 min 54 sec) 
Heartbeat CPU  0 instructions:   32000000 cycles:   16004161 heartbeat IPC: 2.04886 cumulative IPC: 1.99948 (Simulation time: 0 hr 0 min 56 sec) 
Heartbeat CPU  0 instructions:   33000002 cycles:   16492408 heartbeat IPC: 2.04815 cumulative IPC: 2.00092 (Simulation time: 0 hr 0 min 58 sec) 
Heartbeat CPU  0 instructions:   34000001 cycles:   17047330 heartbeat IPC: 1.80205 cumulative IPC: 1.99445 (Simulation time: 0 hr 1 min 0 sec) 
Heartbeat CPU  0 instructions:   35000001 cycles:   17593828 heartbeat IPC: 1.82983 cumulative IPC: 1.98933 (Simulation time: 0 hr 1 min 1 sec) 
Heartbeat CPU  0 instructions:   36000000 cycles:   18082164 heartbeat IPC: 2.04777 cumulative IPC: 1.99091 (Simulation time: 0 hr 1 min 3 sec) 
Heartbeat CPU  0 instructions:   37000003 cycles:   18571140 heartbeat IPC: 2.04510 cumulative IPC: 1.99234 (Simulation time: 0 hr 1 min 5 sec) 
Heartbeat CPU  0 instructions:   38000001 cycles:   19059793 heartbeat IPC: 2.04644 cumulative IPC: 1.99373 (Simulation time: 0 hr 1 min 7 sec) 
Heartbeat CPU  0 instructions:   39000002 cycles:   19548372 heartbeat IPC: 2.04675 cumulative IPC: 1.99505 (Simulation time: 0 hr 1 min 8 sec) 
Heartbeat CPU  0 instructions:   40000000 cycles:   20036326 heartbeat IPC: 2.04937 cumulative IPC: 1.99637 (Simulation time: 0 hr 1 min 10 sec) 
Heartbeat CPU  0 instructions:   41000001 cycles:   20524186 heartbeat IPC: 2.04977 cumulative IPC: 1.99764 (Simulation time: 0 hr 1 min 12 sec) 
Heartbeat CPU  0 instructions:   42000001 cycles:   21012354 heartbeat IPC: 2.04848 cumulative IPC: 1.99882 (Simulation time: 0 hr 1 min 14 sec) 
Heartbeat CPU  0 instructions:   43000001 cycles:   21500852 heartbeat IPC: 2.04709 cumulative IPC: 1.99992 (Simulation time: 0 hr 1 min 15 sec) 
Heartbeat CPU  0 instructions:   44000000 cycles:   22024665 heartbeat IPC: 1.90908 cumulative IPC: 1.99776 (Simulation time: 0 hr 1 min 17 sec) 
Heartbeat CPU  0 instructions:   45000000 cycles:   22583666 heartbeat IPC: 1.78891 cumulative IPC: 1.99259 (Simulation time: 0 hr 1 min 19 sec) 
Heartbeat CPU  0 instructions:   46000002 cycles:   23091756 heartbeat IPC: 1.96816 cumulative IPC: 1.99205 (Simulation time: 0 hr 1 min 21 sec) 
Heartbeat CPU  0 instructions:   47000002 cycles:   23580472 heartbeat IPC: 2.04618 cumulative IPC: 1.99317 (Simulation time: 0 hr 1 min 22 sec) 
Heartbeat CPU  0 instructions:   48000000 cycles:   24068447 heartbeat IPC: 2.04928 cumulative IPC: 1.99431 (Simulation time: 0 hr 1 min 24 sec) 
Heartbeat CPU  0 instructions:   49000002 cycles:   24556563 heartbeat IPC: 2.04870 cumulative IPC: 1.99539 (Simulation time: 0 hr 1 min 26 sec) 
Heartbeat CPU  0 instructions:   50000000 cycles:   25044905 heartbeat IPC: 2.04774 cumulative IPC: 1.99641 (Simulation time: 0 hr 1 min 28 sec) 
Heartbeat CPU  0 instructions:   51000002 cycles:   25533063 heartbeat IPC: 2.04852 cumulative IPC: 1.99741 (Simulation time: 0 hr 1 min 29 sec) 
Heartbeat CPU  0 instructions:   52000000 cycles:   26021557 heartbeat IPC: 2.04710 cumulative IPC: 1.99834 (Simulation time: 0 hr 1 min 31 sec) 
Heartbeat CPU  0 instructions:   53000000 cycles:   26509863 heartbeat IPC: 2.04790 cumulative IPC: 1.99926 (Simulation time: 0 hr 1 min 33 sec) 
Heartbeat CPU  0 instructions:   54000000 cycles:   27002472 heartbeat IPC: 2.03001 cumulative IPC: 1.99982 (Simulation time: 0 hr 1 min 35 sec) 
Heartbeat CPU  0 instructions:   55000002 cycles:   27561177 heartbeat IPC: 1.78986 cumulative IPC: 1.99556 (Simulation time: 0 hr 1 min 36 sec) 
Heartbeat CPU  0 instructions:   56000000 cycles:   28101250 heartbeat IPC: 1.85160 cumulative IPC: 1.99279 (Simulation time: 0 hr 1 min 38 sec) 
Heartbeat CPU  0 instructions:   57000000 cycles:   28589187 heartbeat IPC: 2.04944 cumulative IPC: 1.99376 (Simulation time: 0 hr 1 min 40 sec) 
Heartbeat CPU  0 instructions:   58000003 cycles:   29077053 heartbeat IPC: 2.04975 cumulative IPC: 1.99470 (Simulation time: 0 hr 1 min 42 sec) 
Heartbeat CPU  0 instructions:   59000001 cycles:   29565185 heartbeat IPC: 2.04862 cumulative IPC: 1.99559 (Simulation time: 0 hr 1 min 43 sec) 
Heartbeat CPU  0 instructions:   60000000 cycles:   30053494 heartbeat IPC: 2.04788 cumulative IPC: 1.99644 (Simulation time: 0 hr 1 min 45 sec) 
Heartbeat CPU  0 instructions:   61000000 cycles:   30541976 heartbeat IPC: 2.04716 cumulative IPC: 1.99725 (Simulation time: 0 hr 1 min 47 sec) 
Heartbeat CPU  0 instructions:   62000000 cycles:   31030871 heartbeat IPC: 2.04543 cumulative IPC: 1.99801 (Simulation time: 0 hr 1 min 49 sec) 
Heartbeat CPU  0 instructions:   63000002 cycles:   31519437 heartbeat IPC: 2.04681 cumulative IPC: 1.99877 (Simulation time: 0 hr 1 min 50 sec) 
Heartbeat CPU  0 instructions:   64000000 cycles:   32007866 heartbeat IPC: 2.04738 cumulative IPC: 1.99951 (Simulation time: 0 hr 1 min 52 sec) 
Heartbeat CPU  0 instructions:   65000000 cycles:   32538559 heartbeat IPC: 1.88433 cumulative IPC: 1.99763 (Simulation time: 0 hr 1 min 54 sec) 
Heartbeat CPU  0 instructions:   66000001 cycles:   33097062 heartbeat IPC: 1.79050 cumulative IPC: 1.99413 (Simulation time: 0 hr 1 min 56 sec) 
Heartbeat CPU  0 instructions:   67000000 cycles:   33597043 heartbeat IPC: 2.00007 cumulative IPC: 1.99422 (Simulation time: 0 hr 1 min 57 sec) 
Heartbeat CPU  0 instructions:   68000000 cycles:   34085266 heartbeat IPC: 2.04824 cumulative IPC: 1.99500 (Simulation time: 0 hr 1 min 59 sec) 
Heartbeat CPU  0 instructions:   69000001 cycles:   34573822 heartbeat IPC: 2.04685 cumulative IPC: 1.99573 (Simulation time: 0 hr 2 min 1 sec) 
Heartbeat CPU  0 instructions:   70000001 cycles:   35061977 heartbeat IPC: 2.04853 cumulative IPC: 1.99646 (Simulation time: 0 hr 2 min 3 sec) 
Heartbeat CPU  0 instructions:   71000003 cycles:   35550828 heartbeat IPC: 2.04562 cumulative IPC: 1.99714 (Simulation time: 0 hr 2 min 4 sec) 
Heartbeat CPU  0 instructions:   72000000 cycles:   36039593 heartbeat IPC: 2.04597 cumulative IPC: 1.99780 (Simulation time: 0 hr 2 min 6 sec) 
Heartbeat CPU  0 instructions:   73000001 cycles:   36528551 heartbeat IPC: 2.04517 cumulative IPC: 1.99844 (Simulation time: 0 hr 2 min 8 sec) 
Heartbeat CPU  0 instructions:   74000000 cycles:   37016626 heartbeat IPC: 2.04886 cumulative IPC: 1.99910 (Simulation time: 0 hr 2 min 10 sec) 
Heartbeat CPU  0 instructions:   75000001 cycles:   37516370 heartbeat IPC: 2.00103 cumulative IPC: 1.99913 (Simulation time: 0 hr 2 min 11 sec) 
Heartbeat CPU  0 instructions:   76000000 cycles:   38075017 heartbeat IPC: 1.79004 cumulative IPC: 1.99606 (Simulation time: 0 hr 2 min 13 sec) 
Heartbeat CPU  0 instructions:   77000002 cycles:   38605757 heartbeat IPC: 1.88417 cumulative IPC: 1.99452 (Simulation time: 0 hr 2 min 15 sec) 
Heartbeat CPU  0 instructions:   78000001 cycles:   39094060 heartbeat IPC: 2.04791 cumulative IPC: 1.99519 (Simulation time: 0 hr 2 min 17 sec) 
Heartbeat CPU  0 instructions:   79000001 cycles:   39582832 heartbeat IPC: 2.04594 cumulative IPC: 1.99581 (Simulation time: 0 hr 2 min 18 sec) 
Heartbeat CPU  0 instructions:   80000000 cycles:   40071410 heartbeat IPC: 2.04675 cumulative IPC: 1.99644 (Simulation time: 0 hr 2 min 20 sec) 
Heartbeat CPU  0 instructions:   81000003 cycles:   40560151 heartbeat IPC: 2.04608 cumulative IPC: 1.99703 (Simulation time: 0 hr 2 min 22 sec) 
Heartbeat CPU  0 instructions:   82000001 cycles:   41048348 heartbeat IPC: 2.04835 cumulative IPC: 1.99764 (Simulation time: 0 hr 2 min 24 sec) 
Heartbeat CPU  0 instructions:   83000000 cycles:   41536343 heartbeat IPC: 2.04920 cumulative IPC: 1.99825 (Simulation time: 0 hr 2 min 26 sec) 
Heartbeat CPU  0 instructions:   84000000 cycles:   42024462 heartbeat IPC: 2.04868 cumulative IPC: 1.99884 (Simulation time: 0 hr 2 min 27 sec) 
Heartbeat CPU  0 instructions:   85000002 cycles:   42512840 heartbeat IPC: 2.04760 cumulative IPC: 1.99940 (Simulation time: 0 hr 2 min 29 sec) 
Heartbeat CPU  0 instructions:   86000000 cycles:   43052983 heartbeat IPC: 1.85136 cumulative IPC: 1.99754 (Simulation time: 0 hr 2 min 31 sec) 
Heartbeat CPU  0 instructions:   87000002 cycles:   43611860 heartbeat IPC: 1.78931 cumulative IPC: 1.99487 (Simulation time: 0 hr 2 min 32 sec) 
Heartbeat CPU  0 instructions:   88000000 cycles:   44123901 heartbeat IPC: 1.95296 cumulative IPC: 1.99438 (Simulation time: 0 hr 2 min 34 sec) 
Heartbeat CPU  0 instructions:   89000002 cycles:   44651773 heartbeat IPC: 1.89440 cumulative IPC: 1.99320 (Simulation time: 0 hr 2 min 36 sec) 
Heartbeat CPU  0 instructions:   90000002 cycles:   45178926 heartbeat IPC: 1.89698 cumulative IPC: 1.99208 (Simulation time: 0 hr 2 min 38 sec) 
Heartbeat CPU  0 instructions:   91000003 cycles:   45706524 heartbeat IPC: 1.89538 cumulative IPC: 1.99096 (Simulation time: 0 hr 2 min 40 sec) 
Heartbeat CPU  0 instructions:   92000000 cycles:   46234206 heartbeat IPC: 1.89508 cumulative IPC: 1.98987 (Simulation time: 0 hr 2 min 41 sec) 
Heartbeat CPU  0 instructions:   93000001 cycles:   46761370 heartbeat IPC: 1.89694 cumulative IPC: 1.98882 (Simulation time: 0 hr 2 min 43 sec) 
Heartbeat CPU  0 instructions:   94000003 cycles:   47289651 heartbeat IPC: 1.89294 cumulative IPC: 1.98775 (Simulation time: 0 hr 2 min 45 sec) 
Heartbeat CPU  0 instructions:   95000003 cycles:   47816705 heartbeat IPC: 1.89734 cumulative IPC: 1.98675 (Simulation time: 0 hr 2 min 47 sec) 
Heartbeat CPU  0 instructions:   96000000 cycles:   48344180 heartbeat IPC: 1.89582 cumulative IPC: 1.98576 (Simulation time: 0 hr 2 min 48 sec) 
Heartbeat CPU  0 instructions:   97000003 cycles:   48872437 heartbeat IPC: 1.89302 cumulative IPC: 1.98476 (Simulation time: 0 hr 2 min 50 sec) 
Heartbeat CPU  0 instructions:   98000002 cycles:   49398983 heartbeat IPC: 1.89917 cumulative IPC: 1.98385 (Simulation time: 0 hr 2 min 52 sec) 
Heartbeat CPU  0 instructions:   99000002 cycles:   49926211 heartbeat IPC: 1.89671 cumulative IPC: 1.98293 (Simulation time: 0 hr 2 min 54 sec) 
Heartbeat CPU  0 instructions:  100000000 cycles:   50453611 heartbeat IPC: 1.89609 cumulative IPC: 1.98202 (Simulation time: 0 hr 2 min 56 sec) 

Warmup complete CPU  0 instructions:  100000001 cycles:   50453612 (Simulation time: 0 hr 2 min 56 sec) 

Heartbeat CPU  0 instructions:  101000002 cycles:   51471976 heartbeat IPC: 0.98197 cumulative IPC: 0.98197 (Simulation time: 0 hr 2 min 58 sec) 
Heartbeat CPU  0 instructions:  102000002 cycles:   52488013 heartbeat IPC: 0.98422 cumulative IPC: 0.98309 (Simulation time: 0 hr 3 min 0 sec) 
Heartbeat CPU  0 instructions:  103000000 cycles:   53508125 heartbeat IPC: 0.98028 cumulative IPC: 0.98215 (Simulation time: 0 hr 3 min 2 sec) 
Heartbeat CPU  0 instructions:  104000000 cycles:   54529858 heartbeat IPC: 0.97873 cumulative IPC: 0.98129 (Simulation time: 0 hr 3 min 4 sec) 
Heartbeat CPU  0 instructions:  105000002 cycles:   55552493 heartbeat IPC: 0.97787 cumulative IPC: 0.98061 (Simulation time: 0 hr 3 min 7 sec) 
Heartbeat CPU  0 instructions:  106000000 cycles:   56574161 heartbeat IPC: 0.97879 cumulative IPC: 0.98030 (Simulation time: 0 hr 3 min 9 sec) 
Heartbeat CPU  0 instructions:  107000003 cycles:   57597488 heartbeat IPC: 0.97721 cumulative IPC: 0.97986 (Simulation time: 0 hr 3 min 11 sec) 
Heartbeat CPU  0 instructions:  108000000 cycles:   58618677 heartbeat IPC: 0.97925 cumulative IPC: 0.97978 (Simulation time: 0 hr 3 min 13 sec) 
Heartbeat CPU  0 instructions:  109000002 cycles:   59648484 heartbeat IPC: 0.97106 cumulative IPC: 0.97881 (Simulation time: 0 hr 3 min 15 sec) 
Heartbeat CPU  0 instructions:  110000000 cycles:   60668982 heartbeat IPC: 0.97991 cumulative IPC: 0.97892 (Simulation time: 0 hr 3 min 18 sec) 
Heartbeat CPU  0 instructions:  111000000 cycles:   61687757 heartbeat IPC: 0.98157 cumulative IPC: 0.97916 (Simulation time: 0 hr 3 min 20 sec) 
Heartbeat CPU  0 instructions:  112000000 cycles:   62706369 heartbeat IPC: 0.98173 cumulative IPC: 0.97937 (Simulation time: 0 hr 3 min 22 sec) 
Heartbeat CPU  0 instructions:  113000001 cycles:   63728960 heartbeat IPC: 0.97791 cumulative IPC: 0.97926 (Simulation time: 0 hr 3 min 24 sec) 
Heartbeat CPU  0 instructions:  114000000 cycles:   64749907 heartbeat IPC: 0.97948 cumulative IPC: 0.97927 (Simulation time: 0 hr 3 min 26 sec) 
Heartbeat CPU  0 instructions:  115000001 cycles:   65771260 heartbeat IPC: 0.97909 cumulative IPC: 0.97926 (Simulation time: 0 hr 3 min 28 sec) 
Heartbeat CPU  0 instructions:  116000000 cycles:   66797247 heartbeat IPC: 0.97467 cumulative IPC: 0.97897 (Simulation time: 0 hr 3 min 31 sec) 
Heartbeat CPU  0 instructions:  117000003 cycles:   67820878 heartbeat IPC: 0.97692 cumulative IPC: 0.97885 (Simulation time: 0 hr 3 min 33 sec) 
Heartbeat CPU  0 instructions:  118000000 cycles:   68843528 heartbeat IPC: 0.97785 cumulative IPC: 0.97880 (Simulation time: 0 hr 3 min 35 sec) 
Heartbeat CPU  0 instructions:  119000002 cycles:   69877235 heartbeat IPC: 0.96739 cumulative IPC: 0.97819 (Simulation time: 0 hr 3 min 37 sec) 
Heartbeat CPU  0 instructions:  120000000 cycles:   70902827 heartbeat IPC: 0.97504 cumulative IPC: 0.97803 (Simulation time: 0 hr 3 min 39 sec) 
Heartbeat CPU  0 instructions:  121000003 cycles:   71921388 heartbeat IPC: 0.98178 cumulative IPC: 0.97821 (Simulation time: 0 hr 3 min 42 sec) 
Heartbeat CPU  0 instructions:  122000003 cycles:   72941717 heartbeat IPC: 0.98008 cumulative IPC: 0.97830 (Simulation time: 0 hr 3 min 44 sec) 
Heartbeat CPU  0 instructions:  123000000 cycles:   73960575 heartbeat IPC: 0.98149 cumulative IPC: 0.97843 (Simulation time: 0 hr 3 min 46 sec) 
Heartbeat CPU  0 instructions:  124000000 cycles:   74981741 heartbeat IPC: 0.97927 cumulative IPC: 0.97847 (Simulation time: 0 hr 3 min 48 sec) 
Heartbeat CPU  0 instructions:  125000003 cycles:   76002174 heartbeat IPC: 0.97998 cumulative IPC: 0.97853 (Simulation time: 0 hr 3 min 50 sec) 
Heartbeat CPU  0 instructions:  126000000 cycles:   77024503 heartbeat IPC: 0.97816 cumulative IPC: 0.97851 (Simulation time: 0 hr 3 min 52 sec) 
Heartbeat CPU  0 instructions:  127000000 cycles:   78046208 heartbeat IPC: 0.97876 cumulative IPC: 0.97852 (Simulation time: 0 hr 3 min 55 sec) 
Heartbeat CPU  0 instructions:  128000000 cycles:   79071838 heartbeat IPC: 0.97501 cumulative IPC: 0.97840 (Simulation time: 0 hr 3 min 57 sec) 
Heartbeat CPU  0 instructions:  129000002 cycles:   80096949 heartbeat IPC: 0.97551 cumulative IPC: 0.97830 (Simulation time: 0 hr 3 min 59 sec) 
Heartbeat CPU  0 instructions:  130000001 cycles:   81128128 heartbeat IPC: 0.96976 cumulative IPC: 0.97801 (Simulation time: 0 hr 4 min 1 sec) 
Heartbeat CPU  0 instructions:  131000002 cycles:   82148852 heartbeat IPC: 0.97970 cumulative IPC: 0.97806 (Simulation time: 0 hr 4 min 3 sec) 
Heartbeat CPU  0 instructions:  132000000 cycles:   83169532 heartbeat IPC: 0.97974 cumulative IPC: 0.97812 (Simulation time: 0 hr 4 min 6 sec) 
Heartbeat CPU  0 instructions:  133000000 cycles:   84187985 heartbeat IPC: 0.98188 cumulative IPC: 0.97823 (Simulation time: 0 hr 4 min 8 sec) 
Heartbeat CPU  0 instructions:  134000001 cycles:   85208748 heartbeat IPC: 0.97966 cumulative IPC: 0.97827 (Simulation time: 0 hr 4 min 10 sec) 
Heartbeat CPU  0 instructions:  135000002 cycles:   86231569 heartbeat IPC: 0.97769 cumulative IPC: 0.97826 (Simulation time: 0 hr 4 min 12 sec) 
Heartbeat CPU  0 instructions:  136000000 cycles:   87255526 heartbeat IPC: 0.97660 cumulative IPC: 0.97821 (Simulation time: 0 hr 4 min 14 sec) 
Heartbeat CPU  0 instructions:  137000001 cycles:   88277628 heartbeat IPC: 0.97838 cumulative IPC: 0.97821 (Simulation time: 0 hr 4 min 17 sec) 
Heartbeat CPU  0 instructions:  138000003 cycles:   89302817 heartbeat IPC: 0.97543 cumulative IPC: 0.97814 (Simulation time: 0 hr 4 min 19 sec) 
Heartbeat CPU  0 instructions:  139000000 cycles:   90323524 heartbeat IPC: 0.97971 cumulative IPC: 0.97818 (Simulation time: 0 hr 4 min 21 sec) 
Heartbeat CPU  0 instructions:  140000000 cycles:   91289748 heartbeat IPC: 1.03496 cumulative IPC: 0.97952 (Simulation time: 0 hr 4 min 23 sec) 
Heartbeat CPU  0 instructions:  141000001 cycles:   92213865 heartbeat IPC: 1.08212 cumulative IPC: 0.98179 (Simulation time: 0 hr 4 min 25 sec) 
Heartbeat CPU  0 instructions:  142000001 cycles:   93134477 heartbeat IPC: 1.08623 cumulative IPC: 0.98405 (Simulation time: 0 hr 4 min 27 sec) 
Heartbeat CPU  0 instructions:  143000000 cycles:   94058748 heartbeat IPC: 1.08193 cumulative IPC: 0.98612 (Simulation time: 0 hr 4 min 30 sec) 
Heartbeat CPU  0 instructions:  144000000 cycles:   94983887 heartbeat IPC: 1.08092 cumulative IPC: 0.98809 (Simulation time: 0 hr 4 min 32 sec) 
Heartbeat CPU  0 instructions:  145000001 cycles:   95913820 heartbeat IPC: 1.07535 cumulative IPC: 0.98988 (Simulation time: 0 hr 4 min 34 sec) 
Heartbeat CPU  0 instructions:  146000001 cycles:   96840384 heartbeat IPC: 1.07926 cumulative IPC: 0.99166 (Simulation time: 0 hr 4 min 36 sec) 
Heartbeat CPU  0 instructions:  147000000 cycles:   97754083 heartbeat IPC: 1.09445 cumulative IPC: 0.99365 (Simulation time: 0 hr 4 min 38 sec) 
Heartbeat CPU  0 instructions:  148000000 cycles:   98633196 heartbeat IPC: 1.13751 cumulative IPC: 0.99627 (Simulation time: 0 hr 4 min 40 sec) 
Heartbeat CPU  0 instructions:  149000000 cycles:   99510795 heartbeat IPC: 1.13947 cumulative IPC: 0.99883 (Simulation time: 0 hr 4 min 42 sec) 
Heartbeat CPU  0 instructions:  150000001 cycles:  100388593 heartbeat IPC: 1.13922 cumulative IPC: 1.00130 (Simulation time: 0 hr 4 min 44 sec) 
Heartbeat CPU  0 instructions:  151000002 cycles:  101265518 heartbeat IPC: 1.14035 cumulative IPC: 1.00370 (Simulation time: 0 hr 4 min 46 sec) 
Heartbeat CPU  0 instructions:  152000000 cycles:  102142559 heartbeat IPC: 1.14020 cumulative IPC: 1.00602 (Simulation time: 0 hr 4 min 48 sec) 
Heartbeat CPU  0 instructions:  153000002 cycles:  103020484 heartbeat IPC: 1.13905 cumulative IPC: 1.00824 (Simulation time: 0 hr 4 min 50 sec) 
Heartbeat CPU  0 instructions:  154000000 cycles:  103901596 heartbeat IPC: 1.13493 cumulative IPC: 1.01033 (Simulation time: 0 hr 4 min 52 sec) 
Heartbeat CPU  0 instructions:  155000003 cycles:  104792840 heartbeat IPC: 1.12203 cumulative IPC: 1.01216 (Simulation time: 0 hr 4 min 54 sec) 
Heartbeat CPU  0 instructions:  156000000 cycles:  105688390 heartbeat IPC: 1.11663 cumulative IPC: 1.01385 (Simulation time: 0 hr 4 min 56 sec) 
Heartbeat CPU  0 instructions:  157000003 cycles:  106578295 heartbeat IPC: 1.12372 cumulative IPC: 1.01560 (Simulation time: 0 hr 4 min 58 sec) 
Heartbeat CPU  0 instructions:  158000003 cycles:  107467867 heartbeat IPC: 1.12414 cumulative IPC: 1.01729 (Simulation time: 0 hr 5 min 0 sec) 
Heartbeat CPU  0 instructions:  159000003 cycles:  108357552 heartbeat IPC: 1.12399 cumulative IPC: 1.01893 (Simulation time: 0 hr 5 min 2 sec) 
Heartbeat CPU  0 instructions:  160000000 cycles:  109249473 heartbeat IPC: 1.12117 cumulative IPC: 1.02048 (Simulation time: 0 hr 5 min 4 sec) 
Heartbeat CPU  0 instructions:  161000001 cycles:  110141758 heartbeat IPC: 1.12072 cumulative IPC: 1.02198 (Simulation time: 0 hr 5 min 6 sec) 
Heartbeat CPU  0 instructions:  162000001 cycles:  111166855 heartbeat IPC: 0.97552 cumulative IPC: 1.02119 (Simulation time: 0 hr 5 min 8 sec) 
Heartbeat CPU  0 instructions:  163000002 cycles:  112306364 heartbeat IPC: 0.87757 cumulative IPC: 1.01855 (Simulation time: 0 hr 5 min 11 sec) 
Heartbeat CPU  0 instructions:  164000000 cycles:  113447261 heartbeat IPC: 0.87650 cumulative IPC: 1.01598 (Simulation time: 0 hr 5 min 13 sec) 
Heartbeat CPU  0 instructions:  165000000 cycles:  114609909 heartbeat IPC: 0.86011 cumulative IPC: 1.01315 (Simulation time: 0 hr 5 min 16 sec) 
Heartbeat CPU  0 instructions:  166000002 cycles:  115753255 heartbeat IPC: 0.87463 cumulative IPC: 1.01073 (Simulation time: 0 hr 5 min 18 sec) 
Heartbeat CPU  0 instructions:  167000002 cycles:  116867777 heartbeat IPC: 0.89725 cumulative IPC: 1.00882 (Simulation time: 0 hr 5 min 21 sec) 
Heartbeat CPU  0 instructions:  168000000 cycles:  118007931 heartbeat IPC: 0.87707 cumulative IPC: 1.00660 (Simulation time: 0 hr 5 min 23 sec) 
Heartbeat CPU  0 instructions:  169000002 cycles:  119151901 heartbeat IPC: 0.87415 cumulative IPC: 1.00439 (Simulation time: 0 hr 5 min 25 sec) 
Heartbeat CPU  0 instructions:  170000002 cycles:  120306713 heartbeat IPC: 0.86594 cumulative IPC: 1.00210 (Simulation time: 0 hr 5 min 28 sec) 
Heartbeat CPU  0 instructions:  171000003 cycles:  121427001 heartbeat IPC: 0.89263 cumulative IPC: 1.00037 (Simulation time: 0 hr 5 min 30 sec) 
Heartbeat CPU  0 instructions:  172000000 cycles:  122550289 heartbeat IPC: 0.89024 cumulative IPC: 0.99866 (Simulation time: 0 hr 5 min 33 sec) 
Heartbeat CPU  0 instructions:  173000003 cycles:  123684445 heartbeat IPC: 0.88172 cumulative IPC: 0.99685 (Simulation time: 0 hr 5 min 35 sec) 
Heartbeat CPU  0 instructions:  174000000 cycles:  124811501 heartbeat IPC: 0.88726 cumulative IPC: 0.99519 (Simulation time: 0 hr 5 min 37 sec) 
Heartbeat CPU  0 instructions:  175000000 cycles:  125930129 heartbeat IPC: 0.89395 cumulative IPC: 0.99369 (Simulation time: 0 hr 5 min 40 sec) 
Heartbeat CPU  0 instructions:  176000000 cycles:  127064604 heartbeat IPC: 0.88147 cumulative IPC: 0.99202 (Simulation time: 0 hr 5 min 42 sec) 
Heartbeat CPU  0 instructions:  177000003 cycles:  128182270 heartbeat IPC: 0.89472 cumulative IPC: 0.99063 (Simulation time: 0 hr 5 min 45 sec) 
Heartbeat CPU  0 instructions:  178000001 cycles:  129309122 heartbeat IPC: 0.88743 cumulative IPC: 0.98915 (Simulation time: 0 hr 5 min 47 sec) 
Heartbeat CPU  0 instructions:  179000000 cycles:  130451708 heartbeat IPC: 0.87521 cumulative IPC: 0.98752 (Simulation time: 0 hr 5 min 50 sec) 
Heartbeat CPU  0 instructions:  180000000 cycles:  131581287 heartbeat IPC: 0.88529 cumulative IPC: 0.98610 (Simulation time: 0 hr 5 min 52 sec) 
Heartbeat CPU  0 instructions:  181000000 cycles:  132736494 heartbeat IPC: 0.86565 cumulative IPC: 0.98441 (Simulation time: 0 hr 5 min 54 sec) 
Heartbeat CPU  0 instructions:  182000001 cycles:  133879281 heartbeat IPC: 0.87505 cumulative IPC: 0.98291 (Simulation time: 0 hr 5 min 57 sec) 
Heartbeat CPU  0 instructions:  183000003 cycles:  135004134 heartbeat IPC: 0.88901 cumulative IPC: 0.98166 (Simulation time: 0 hr 5 min 59 sec) 
Heartbeat CPU  0 instructions:  184000000 cycles:  136124353 heartbeat IPC: 0.89268 cumulative IPC: 0.98050 (Simulation time: 0 hr 6 min 2 sec) 
Heartbeat CPU  0 instructions:  185000000 cycles:  137252864 heartbeat IPC: 0.88612 cumulative IPC: 0.97927 (Simulation time: 0 hr 6 min 4 sec) 
Heartbeat CPU  0 instructions:  186000002 cycles:  138377445 heartbeat IPC: 0.88922 cumulative IPC: 0.97812 (Simulation time: 0 hr 6 min 6 sec) 
Heartbeat CPU  0 instructions:  187000001 cycles:  139518980 heartbeat IPC: 0.87601 cumulative IPC: 0.97681 (Simulation time: 0 hr 6 min 9 sec) 
Heartbeat CPU  0 instructions:  188000000 cycles:  140662044 heartbeat IPC: 0.87484 cumulative IPC: 0.97552 (Simulation time: 0 hr 6 min 11 sec) 
Heartbeat CPU  0 instructions:  189000001 cycles:  141819214 heartbeat IPC: 0.86418 cumulative IPC: 0.97411 (Simulation time: 0 hr 6 min 14 sec) 
Heartbeat CPU  0 instructions:  190000002 cycles:  142957218 heartbeat IPC: 0.87873 cumulative IPC: 0.97294 (Simulation time: 0 hr 6 min 16 sec) 
Heartbeat CPU  0 instructions:  191000001 cycles:  144098149 heartbeat IPC: 0.87648 cumulative IPC: 0.97176 (Simulation time: 0 hr 6 min 19 sec) 
Heartbeat CPU  0 instructions:  192000000 cycles:  145234464 heartbeat IPC: 0.88004 cumulative IPC: 0.97066 (Simulation time: 0 hr 6 min 21 sec) 
Heartbeat CPU  0 instructions:  193000003 cycles:  146372059 heartbeat IPC: 0.87905 cumulative IPC: 0.96957 (Simulation time: 0 hr 6 min 23 sec) 
Heartbeat CPU  0 instructions:  194000002 cycles:  147369691 heartbeat IPC: 1.00237 cumulative IPC: 0.96991 (Simulation time: 0 hr 6 min 26 sec) 
Heartbeat CPU  0 instructions:  195000000 cycles:  148271897 heartbeat IPC: 1.10839 cumulative IPC: 0.97119 (Simulation time: 0 hr 6 min 28 sec) 
Heartbeat CPU  0 instructions:  196000000 cycles:  149143055 heartbeat IPC: 1.14790 cumulative IPC: 0.97275 (Simulation time: 0 hr 6 min 30 sec) 
Heartbeat CPU  0 instructions:  197000003 cycles:  150029271 heartbeat IPC: 1.12840 cumulative IPC: 0.97413 (Simulation time: 0 hr 6 min 32 sec) 
Heartbeat CPU  0 instructions:  198000000 cycles:  150911561 heartbeat IPC: 1.13341 cumulative IPC: 0.97553 (Simulation time: 0 hr 6 min 34 sec) 
Heartbeat CPU  0 instructions:  199000000 cycles:  151810312 heartbeat IPC: 1.11266 cumulative IPC: 0.97675 (Simulation time: 0 hr 6 min 36 sec) 
Heartbeat CPU  0 instructions:  200000000 cycles:  152689370 heartbeat IPC: 1.13758 cumulative IPC: 0.97813 (Simulation time: 0 hr 6 min 38 sec) 
Heartbeat CPU  0 instructions:  201000002 cycles:  153557245 heartbeat IPC: 1.15224 cumulative IPC: 0.97960 (Simulation time: 0 hr 6 min 40 sec) 
Heartbeat CPU  0 instructions:  202000000 cycles:  154441636 heartbeat IPC: 1.13072 cumulative IPC: 0.98088 (Simulation time: 0 hr 6 min 42 sec) 
Heartbeat CPU  0 instructions:  203000001 cycles:  155328420 heartbeat IPC: 1.12767 cumulative IPC: 0.98212 (Simulation time: 0 hr 6 min 44 sec) 
Heartbeat CPU  0 instructions:  204000000 cycles:  156222430 heartbeat IPC: 1.11855 cumulative IPC: 0.98328 (Simulation time: 0 hr 6 min 46 sec) 
Heartbeat CPU  0 instructions:  205000002 cycles:  157110308 heartbeat IPC: 1.12628 cumulative IPC: 0.98447 (Simulation time: 0 hr 6 min 48 sec) 
Heartbeat CPU  0 instructions:  206000003 cycles:  157978153 heartbeat IPC: 1.15228 cumulative IPC: 0.98582 (Simulation time: 0 hr 6 min 50 sec) 
Heartbeat CPU  0 instructions:  207000001 cycles:  158855178 heartbeat IPC: 1.14022 cumulative IPC: 0.98707 (Simulation time: 0 hr 6 min 52 sec) 
Heartbeat CPU  0 instructions:  208000000 cycles:  159747708 heartbeat IPC: 1.12041 cumulative IPC: 0.98816 (Simulation time: 0 hr 6 min 54 sec) 
Heartbeat CPU  0 instructions:  209000001 cycles:  160635293 heartbeat IPC: 1.12665 cumulative IPC: 0.98928 (Simulation time: 0 hr 6 min 57 sec) 
Heartbeat CPU  0 instructions:  210000003 cycles:  161527978 heartbeat IPC: 1.12022 cumulative IPC: 0.99033 (Simulation time: 0 hr 6 min 59 sec) 
Heartbeat CPU  0 instructions:  211000002 cycles:  162398354 heartbeat IPC: 1.14893 cumulative IPC: 0.99156 (Simulation time: 0 hr 7 min 1 sec) 
Heartbeat CPU  0 instructions:  212000000 cycles:  163277829 heartbeat IPC: 1.13704 cumulative IPC: 0.99269 (Simulation time: 0 hr 7 min 3 sec) 
Heartbeat CPU  0 instructions:  213000003 cycles:  164163470 heartbeat IPC: 1.12913 cumulative IPC: 0.99376 (Simulation time: 0 hr 7 min 5 sec) 
Heartbeat CPU  0 instructions:  214000001 cycles:  165049206 heartbeat IPC: 1.12900 cumulative IPC: 0.99480 (Simulation time: 0 hr 7 min 7 sec) 
Heartbeat CPU  0 instructions:  215000002 cycles:  165944637 heartbeat IPC: 1.11678 cumulative IPC: 0.99575 (Simulation time: 0 hr 7 min 9 sec) 
Heartbeat CPU  0 instructions:  216000000 cycles:  166820054 heartbeat IPC: 1.14231 cumulative IPC: 0.99685 (Simulation time: 0 hr 7 min 11 sec) 
Heartbeat CPU  0 instructions:  217000002 cycles:  167699264 heartbeat IPC: 1.13739 cumulative IPC: 0.99790 (Simulation time: 0 hr 7 min 13 sec) 
Heartbeat CPU  0 instructions:  218000000 cycles:  168581049 heartbeat IPC: 1.13406 cumulative IPC: 0.99892 (Simulation time: 0 hr 7 min 15 sec) 
Heartbeat CPU  0 instructions:  219000003 cycles:  169467836 heartbeat IPC: 1.12767 cumulative IPC: 0.99988 (Simulation time: 0 hr 7 min 17 sec) 
Heartbeat CPU  0 instructions:  220000000 cycles:  170356962 heartbeat IPC: 1.12470 cumulative IPC: 1.00081 (Simulation time: 0 hr 7 min 19 sec) 
Heartbeat CPU  0 instructions:  221000002 cycles:  171245269 heartbeat IPC: 1.12574 cumulative IPC: 1.00172 (Simulation time: 0 hr 7 min 21 sec) 
Heartbeat CPU  0 instructions:  222000001 cycles:  172116114 heartbeat IPC: 1.14831 cumulative IPC: 1.00277 (Simulation time: 0 hr 7 min 23 sec) 
Heartbeat CPU  0 instructions:  223000000 cycles:  172997696 heartbeat IPC: 1.13432 cumulative IPC: 1.00372 (Simulation time: 0 hr 7 min 26 sec) 
Heartbeat CPU  0 instructions:  224000000 cycles:  173882172 heartbeat IPC: 1.13061 cumulative IPC: 1.00463 (Simulation time: 0 hr 7 min 28 sec) 
Heartbeat CPU  0 instructions:  225000001 cycles:  174766505 heartbeat IPC: 1.13080 cumulative IPC: 1.00553 (Simulation time: 0 hr 7 min 30 sec) 
Heartbeat CPU  0 instructions:  226000003 cycles:  175659429 heartbeat IPC: 1.11992 cumulative IPC: 1.00634 (Simulation time: 0 hr 7 min 32 sec) 
Heartbeat CPU  0 instructions:  227000001 cycles:  176533114 heartbeat IPC: 1.14457 cumulative IPC: 1.00730 (Simulation time: 0 hr 7 min 34 sec) 
Heartbeat CPU  0 instructions:  228000000 cycles:  177411723 heartbeat IPC: 1.13816 cumulative IPC: 1.00821 (Simulation time: 0 hr 7 min 36 sec) 
Heartbeat CPU  0 instructions:  229000002 cycles:  178296737 heartbeat IPC: 1.12993 cumulative IPC: 1.00905 (Simulation time: 0 hr 7 min 38 sec) 
Heartbeat CPU  0 instructions:  230000002 cycles:  179185948 heartbeat IPC: 1.12459 cumulative IPC: 1.00985 (Simulation time: 0 hr 7 min 40 sec) 
Heartbeat CPU  0 instructions:  231000001 cycles:  180077130 heartbeat IPC: 1.12210 cumulative IPC: 1.01062 (Simulation time: 0 hr 7 min 42 sec) 
Heartbeat CPU  0 instructions:  232000000 cycles:  180954840 heartbeat IPC: 1.13933 cumulative IPC: 1.01148 (Simulation time: 0 hr 7 min 44 sec) 
Heartbeat CPU  0 instructions:  233000000 cycles:  181831701 heartbeat IPC: 1.14043 cumulative IPC: 1.01235 (Simulation time: 0 hr 7 min 46 sec) 
Heartbeat CPU  0 instructions:  234000001 cycles:  182712085 heartbeat IPC: 1.13587 cumulative IPC: 1.01317 (Simulation time: 0 hr 7 min 48 sec) 
Heartbeat CPU  0 instructions:  235000003 cycles:  183602654 heartbeat IPC: 1.12288 cumulative IPC: 1.01390 (Simulation time: 0 hr 7 min 50 sec) 
Heartbeat CPU  0 instructions:  236000000 cycles:  184496733 heartbeat IPC: 1.11847 cumulative IPC: 1.01460 (Simulation time: 0 hr 7 min 52 sec) 
Heartbeat CPU  0 instructions:  237000000 cycles:  185373697 heartbeat IPC: 1.14030 cumulative IPC: 1.01542 (Simulation time: 0 hr 7 min 54 sec) 
Heartbeat CPU  0 instructions:  238000001 cycles:  186249125 heartbeat IPC: 1.14230 cumulative IPC: 1.01623 (Simulation time: 0 hr 7 min 56 sec) 
Heartbeat CPU  0 instructions:  239000003 cycles:  187125338 heartbeat IPC: 1.14128 cumulative IPC: 1.01704 (Simulation time: 0 hr 7 min 59 sec) 
Heartbeat CPU  0 instructions:  240000000 cycles:  188015538 heartbeat IPC: 1.12334 cumulative IPC: 1.01772 (Simulation time: 0 hr 8 min 1 sec) 
Heartbeat CPU  0 instructions:  241000000 cycles:  188911806 heartbeat IPC: 1.11574 cumulative IPC: 1.01836 (Simulation time: 0 hr 8 min 3 sec) 
Heartbeat CPU  0 instructions:  242000000 cycles:  189791800 heartbeat IPC: 1.13637 cumulative IPC: 1.01910 (Simulation time: 0 hr 8 min 5 sec) 
Heartbeat CPU  0 instructions:  243000003 cycles:  190664604 heartbeat IPC: 1.14574 cumulative IPC: 1.01989 (Simulation time: 0 hr 8 min 7 sec) 
Heartbeat CPU  0 instructions:  244000000 cycles:  191554563 heartbeat IPC: 1.12364 cumulative IPC: 1.02055 (Simulation time: 0 hr 8 min 9 sec) 
Heartbeat CPU  0 instructions:  245000000 cycles:  192434587 heartbeat IPC: 1.13633 cumulative IPC: 1.02126 (Simulation time: 0 hr 8 min 11 sec) 
Heartbeat CPU  0 instructions:  246000002 cycles:  193328806 heartbeat IPC: 1.11830 cumulative IPC: 1.02187 (Simulation time: 0 hr 8 min 13 sec) 
Heartbeat CPU  0 instructions:  247000000 cycles:  194210876 heartbeat IPC: 1.13369 cumulative IPC: 1.02256 (Simulation time: 0 hr 8 min 15 sec) 
Heartbeat CPU  0 instructions:  248000000 cycles:  195079613 heartbeat IPC: 1.15110 cumulative IPC: 1.02333 (Simulation time: 0 hr 8 min 17 sec) 
Heartbeat CPU  0 instructions:  249000000 cycles:  195973997 heartbeat IPC: 1.11809 cumulative IPC: 1.02391 (Simulation time: 0 hr 8 min 19 sec) 
Heartbeat CPU  0 instructions:  250000001 cycles:  196851658 heartbeat IPC: 1.13939 cumulative IPC: 1.02460 (Simulation time: 0 hr 8 min 21 sec) 
Heartbeat CPU  0 instructions:  251000003 cycles:  197746643 heartbeat IPC: 1.11734 cumulative IPC: 1.02517 (Simulation time: 0 hr 8 min 23 sec) 
Heartbeat CPU  0 instructions:  252000000 cycles:  198630560 heartbeat IPC: 1.13132 cumulative IPC: 1.02580 (Simulation time: 0 hr 8 min 26 sec) 
Heartbeat CPU  0 instructions:  253000000 cycles:  199505804 heartbeat IPC: 1.14254 cumulative IPC: 1.02649 (Simulation time: 0 hr 8 min 28 sec) 
Heartbeat CPU  0 instructions:  254000000 cycles:  200391415 heartbeat IPC: 1.12916 cumulative IPC: 1.02709 (Simulation time: 0 hr 8 min 30 sec) 
Heartbeat CPU  0 instructions:  255000003 cycles:  201272179 heartbeat IPC: 1.13538 cumulative IPC: 1.02772 (Simulation time: 0 hr 8 min 32 sec) 
Heartbeat CPU  0 instructions:  256000000 cycles:  202162460 heartbeat IPC: 1.12324 cumulative IPC: 1.02829 (Simulation time: 0 hr 8 min 34 sec) 
Heartbeat CPU  0 instructions:  257000003 cycles:  203054094 heartbeat IPC: 1.12154 cumulative IPC: 1.02883 (Simulation time: 0 hr 8 min 36 sec) 
Heartbeat CPU  0 instructions:  258000000 cycles:  203930588 heartbeat IPC: 1.14091 cumulative IPC: 1.02947 (Simulation time: 0 hr 8 min 38 sec) 
Heartbeat CPU  0 instructions:  259000003 cycles:  204813434 heartbeat IPC: 1.13270 cumulative IPC: 1.03006 (Simulation time: 0 hr 8 min 40 sec) 
Heartbeat CPU  0 instructions:  260000000 cycles:  205691812 heartbeat IPC: 1.13846 cumulative IPC: 1.03067 (Simulation time: 0 hr 8 min 42 sec) 
Heartbeat CPU  0 instructions:  261000001 cycles:  206580007 heartbeat IPC: 1.12588 cumulative IPC: 1.03122 (Simulation time: 0 hr 8 min 44 sec) 
Heartbeat CPU  0 instructions:  262000000 cycles:  207481763 heartbeat IPC: 1.10895 cumulative IPC: 1.03166 (Simulation time: 0 hr 8 min 46 sec) 
Heartbeat CPU  0 instructions:  263000000 cycles:  208354441 heartbeat IPC: 1.14590 cumulative IPC: 1.03229 (Simulation time: 0 hr 8 min 48 sec) 
Heartbeat CPU  0 instructions:  264000000 cycles:  209236650 heartbeat IPC: 1.13352 cumulative IPC: 1.03286 (Simulation time: 0 hr 8 min 50 sec) 
Heartbeat CPU  0 instructions:  265000002 cycles:  210121242 heartbeat IPC: 1.13047 cumulative IPC: 1.03340 (Simulation time: 0 hr 8 min 52 sec) 
Heartbeat CPU  0 instructions:  266000001 cycles:  210997997 heartbeat IPC: 1.14057 cumulative IPC: 1.03398 (Simulation time: 0 hr 8 min 54 sec) 
Heartbeat CPU  0 instructions:  267000000 cycles:  211903063 heartbeat IPC: 1.10489 cumulative IPC: 1.03438 (Simulation time: 0 hr 8 min 56 sec) 
Heartbeat CPU  0 instructions:  268000000 cycles:  212781498 heartbeat IPC: 1.13839 cumulative IPC: 1.03494 (Simulation time: 0 hr 8 min 59 sec) 
Heartbeat CPU  0 instructions:  269000003 cycles:  213657796 heartbeat IPC: 1.14117 cumulative IPC: 1.03551 (Simulation time: 0 hr 9 min 1 sec) 
Heartbeat CPU  0 instructions:  270000002 cycles:  214545500 heartbeat IPC: 1.12650 cumulative IPC: 1.03600 (Simulation time: 0 hr 9 min 3 sec) 
Heartbeat CPU  0 instructions:  271000000 cycles:  215422061 heartbeat IPC: 1.14082 cumulative IPC: 1.03656 (Simulation time: 0 hr 9 min 5 sec) 
Heartbeat CPU  0 instructions:  272000000 cycles:  216326265 heartbeat IPC: 1.10595 cumulative IPC: 1.03694 (Simulation time: 0 hr 9 min 7 sec) 
Heartbeat CPU  0 instructions:  273000002 cycles:  217206356 heartbeat IPC: 1.13625 cumulative IPC: 1.03746 (Simulation time: 0 hr 9 min 9 sec) 
Heartbeat CPU  0 instructions:  274000002 cycles:  218077930 heartbeat IPC: 1.14735 cumulative IPC: 1.03804 (Simulation time: 0 hr 9 min 11 sec) 
Heartbeat CPU  0 instructions:  275000001 cycles:  218969848 heartbeat IPC: 1.12118 cumulative IPC: 1.03848 (Simulation time: 0 hr 9 min 13 sec) 
Heartbeat CPU  0 instructions:  276000000 cycles:  219849091 heartbeat IPC: 1.13734 cumulative IPC: 1.03899 (Simulation time: 0 hr 9 min 15 sec) 
Heartbeat CPU  0 instructions:  277000003 cycles:  220747077 heartbeat IPC: 1.11361 cumulative IPC: 1.03938 (Simulation time: 0 hr 9 min 17 sec) 
Heartbeat CPU  0 instructions:  278000002 cycles:  221634178 heartbeat IPC: 1.12727 cumulative IPC: 1.03984 (Simulation time: 0 hr 9 min 19 sec) 
Heartbeat CPU  0 instructions:  279000003 cycles:  222500810 heartbeat IPC: 1.15389 cumulative IPC: 1.04041 (Simulation time: 0 hr 9 min 21 sec) 
Heartbeat CPU  0 instructions:  280000000 cycles:  223387810 heartbeat IPC: 1.12739 cumulative IPC: 1.04086 (Simulation time: 0 hr 9 min 23 sec) 
Heartbeat CPU  0 instructions:  281000002 cycles:  224269502 heartbeat IPC: 1.13419 cumulative IPC: 1.04133 (Simulation time: 0 hr 9 min 26 sec) 
Heartbeat CPU  0 instructions:  282000001 cycles:  225161886 heartbeat IPC: 1.12059 cumulative IPC: 1.04174 (Simulation time: 0 hr 9 min 28 sec) 
Heartbeat CPU  0 instructions:  283000003 cycles:  226052843 heartbeat IPC: 1.12239 cumulative IPC: 1.04215 (Simulation time: 0 hr 9 min 30 sec) 
Heartbeat CPU  0 instructions:  284000000 cycles:  226920350 heartbeat IPC: 1.15272 cumulative IPC: 1.04269 (Simulation time: 0 hr 9 min 32 sec) 
Heartbeat CPU  0 instructions:  285000002 cycles:  227809237 heartbeat IPC: 1.12500 cumulative IPC: 1.04310 (Simulation time: 0 hr 9 min 34 sec) 
Heartbeat CPU  0 instructions:  286000000 cycles:  228689056 heartbeat IPC: 1.13660 cumulative IPC: 1.04356 (Simulation time: 0 hr 9 min 36 sec) 
Heartbeat CPU  0 instructions:  287000001 cycles:  229579037 heartbeat IPC: 1.12362 cumulative IPC: 1.04396 (Simulation time: 0 hr 9 min 38 sec) 
Heartbeat CPU  0 instructions:  288000000 cycles:  230475085 heartbeat IPC: 1.11601 cumulative IPC: 1.04432 (Simulation time: 0 hr 9 min 40 sec) 
Heartbeat CPU  0 instructions:  289000000 cycles:  231343938 heartbeat IPC: 1.15094 cumulative IPC: 1.04483 (Simulation time: 0 hr 9 min 42 sec) 
Heartbeat CPU  0 instructions:  290000000 cycles:  232226192 heartbeat IPC: 1.13346 cumulative IPC: 1.04526 (Simulation time: 0 hr 9 min 44 sec) 
Heartbeat CPU  0 instructions:  291000002 cycles:  233107590 heartbeat IPC: 1.13456 cumulative IPC: 1.04569 (Simulation time: 0 hr 9 min 46 sec) 
Heartbeat CPU  0 instructions:  292000000 cycles:  233990474 heartbeat IPC: 1.13265 cumulative IPC: 1.04611 (Simulation time: 0 hr 9 min 48 sec) 
Heartbeat CPU  0 instructions:  293000001 cycles:  234887249 heartbeat IPC: 1.11511 cumulative IPC: 1.04645 (Simulation time: 0 hr 9 min 50 sec) 
Heartbeat CPU  0 instructions:  294000002 cycles:  235772337 heartbeat IPC: 1.12983 cumulative IPC: 1.04685 (Simulation time: 0 hr 9 min 52 sec) 
Heartbeat CPU  0 instructions:  295000003 cycles:  236643485 heartbeat IPC: 1.14791 cumulative IPC: 1.04732 (Simulation time: 0 hr 9 min 54 sec) 
Heartbeat CPU  0 instructions:  296000000 cycles:  237528290 heartbeat IPC: 1.13019 cumulative IPC: 1.04771 (Simulation time: 0 hr 9 min 57 sec) 
Heartbeat CPU  0 instructions:  297000003 cycles:  238411599 heartbeat IPC: 1.13211 cumulative IPC: 1.04811 (Simulation time: 0 hr 9 min 59 sec) 
Heartbeat CPU  0 instructions:  298000002 cycles:  239305607 heartbeat IPC: 1.11856 cumulative IPC: 1.04844 (Simulation time: 0 hr 10 min 1 sec) 
Heartbeat CPU  0 instructions:  299000003 cycles:  240193477 heartbeat IPC: 1.12629 cumulative IPC: 1.04880 (Simulation time: 0 hr 10 min 3 sec) 
Heartbeat CPU  0 instructions:  300000000 cycles:  241063717 heartbeat IPC: 1.14910 cumulative IPC: 1.04926 (Simulation time: 0 hr 10 min 5 sec) 
Heartbeat CPU  0 instructions:  301000000 cycles:  241945911 heartbeat IPC: 1.13354 cumulative IPC: 1.04965 (Simulation time: 0 hr 10 min 7 sec) 
Heartbeat CPU  0 instructions:  302000003 cycles:  242827699 heartbeat IPC: 1.13406 cumulative IPC: 1.05004 (Simulation time: 0 hr 10 min 9 sec) 
Heartbeat CPU  0 instructions:  303000002 cycles:  243722968 heartbeat IPC: 1.11698 cumulative IPC: 1.05035 (Simulation time: 0 hr 10 min 11 sec) 
Heartbeat CPU  0 instructions:  304000000 cycles:  244609303 heartbeat IPC: 1.12824 cumulative IPC: 1.05070 (Simulation time: 0 hr 10 min 13 sec) 
Heartbeat CPU  0 instructions:  305000001 cycles:  245481425 heartbeat IPC: 1.14663 cumulative IPC: 1.05113 (Simulation time: 0 hr 10 min 15 sec) 
Heartbeat CPU  0 instructions:  306000003 cycles:  246359123 heartbeat IPC: 1.13935 cumulative IPC: 1.05153 (Simulation time: 0 hr 10 min 17 sec) 
Heartbeat CPU  0 instructions:  307000000 cycles:  247237107 heartbeat IPC: 1.13897 cumulative IPC: 1.05192 (Simulation time: 0 hr 10 min 19 sec) 
Heartbeat CPU  0 instructions:  308000000 cycles:  248128917 heartbeat IPC: 1.12132 cumulative IPC: 1.05223 (Simulation time: 0 hr 10 min 21 sec) 
Heartbeat CPU  0 instructions:  309000000 cycles:  249019593 heartbeat IPC: 1.12274 cumulative IPC: 1.05255 (Simulation time: 0 hr 10 min 23 sec) 
Heartbeat CPU  0 instructions:  310000003 cycles:  249894655 heartbeat IPC: 1.14278 cumulative IPC: 1.05294 (Simulation time: 0 hr 10 min 26 sec) 
Heartbeat CPU  0 instructions:  311000001 cycles:  250767287 heartbeat IPC: 1.14596 cumulative IPC: 1.05335 (Simulation time: 0 hr 10 min 28 sec) 
Heartbeat CPU  0 instructions:  312000000 cycles:  251647006 heartbeat IPC: 1.13673 cumulative IPC: 1.05371 (Simulation time: 0 hr 10 min 30 sec) 
Heartbeat CPU  0 instructions:  313000001 cycles:  252537119 heartbeat IPC: 1.12345 cumulative IPC: 1.05402 (Simulation time: 0 hr 10 min 32 sec) 
Heartbeat CPU  0 instructions:  314000000 cycles:  253429738 heartbeat IPC: 1.12030 cumulative IPC: 1.05431 (Simulation time: 0 hr 10 min 34 sec) 
Heartbeat CPU  0 instructions:  315000000 cycles:  254306956 heartbeat IPC: 1.13997 cumulative IPC: 1.05468 (Simulation time: 0 hr 10 min 36 sec) 
Heartbeat CPU  0 instructions:  316000000 cycles:  255176068 heartbeat IPC: 1.15060 cumulative IPC: 1.05509 (Simulation time: 0 hr 10 min 38 sec) 
Heartbeat CPU  0 instructions:  317000000 cycles:  256063551 heartbeat IPC: 1.12678 cumulative IPC: 1.05540 (Simulation time: 0 hr 10 min 40 sec) 
Heartbeat CPU  0 instructions:  318000000 cycles:  256946478 heartbeat IPC: 1.13260 cumulative IPC: 1.05573 (Simulation time: 0 hr 10 min 42 sec) 
Heartbeat CPU  0 instructions:  319000001 cycles:  257839688 heartbeat IPC: 1.11956 cumulative IPC: 1.05600 (Simulation time: 0 hr 10 min 44 sec) 
Heartbeat CPU  0 instructions:  320000000 cycles:  258723468 heartbeat IPC: 1.13150 cumulative IPC: 1.05632 (Simulation time: 0 hr 10 min 46 sec) 
Heartbeat CPU  0 instructions:  321000003 cycles:  259594115 heartbeat IPC: 1.14857 cumulative IPC: 1.05671 (Simulation time: 0 hr 10 min 48 sec) 
Heartbeat CPU  0 instructions:  322000003 cycles:  260480246 heartbeat IPC: 1.12850 cumulative IPC: 1.05701 (Simulation time: 0 hr 10 min 50 sec) 
Heartbeat CPU  0 instructions:  323000003 cycles:  261363174 heartbeat IPC: 1.13260 cumulative IPC: 1.05733 (Simulation time: 0 hr 10 min 53 sec) 
Heartbeat CPU  0 instructions:  324000000 cycles:  262257385 heartbeat IPC: 1.11830 cumulative IPC: 1.05758 (Simulation time: 0 hr 10 min 55 sec) 
Heartbeat CPU  0 instructions:  325000000 cycles:  263141002 heartbeat IPC: 1.13171 cumulative IPC: 1.05789 (Simulation time: 0 hr 10 min 57 sec) 
Heartbeat CPU  0 instructions:  326000001 cycles:  264014948 heartbeat IPC: 1.14424 cumulative IPC: 1.05824 (Simulation time: 0 hr 10 min 59 sec) 
Heartbeat CPU  0 instructions:  327000001 cycles:  264898819 heartbeat IPC: 1.13139 cumulative IPC: 1.05855 (Simulation time: 0 hr 11 min 1 sec) 
Heartbeat CPU  0 instructions:  328000000 cycles:  265776500 heartbeat IPC: 1.13936 cumulative IPC: 1.05887 (Simulation time: 0 hr 11 min 3 sec) 
Heartbeat CPU  0 instructions:  329000000 cycles:  266669997 heartbeat IPC: 1.11920 cumulative IPC: 1.05912 (Simulation time: 0 hr 11 min 5 sec) 
Heartbeat CPU  0 instructions:  330000000 cycles:  267558120 heartbeat IPC: 1.12597 cumulative IPC: 1.05940 (Simulation time: 0 hr 11 min 7 sec) 
Heartbeat CPU  0 instructions:  331000003 cycles:  268432498 heartbeat IPC: 1.14367 cumulative IPC: 1.05974 (Simulation time: 0 hr 11 min 9 sec) 
Heartbeat CPU  0 instructions:  332000000 cycles:  269315308 heartbeat IPC: 1.13274 cumulative IPC: 1.06003 (Simulation time: 0 hr 11 min 11 sec) 
Heartbeat CPU  0 instructions:  333000002 cycles:  270191415 heartbeat IPC: 1.14142 cumulative IPC: 1.06035 (Simulation time: 0 hr 11 min 13 sec) 
Heartbeat CPU  0 instructions:  334000003 cycles:  271079932 heartbeat IPC: 1.12547 cumulative IPC: 1.06062 (Simulation time: 0 hr 11 min 15 sec) 
Heartbeat CPU  0 instructions:  335000000 cycles:  271976535 heartbeat IPC: 1.11532 cumulative IPC: 1.06084 (Simulation time: 0 hr 11 min 17 sec) 
Heartbeat CPU  0 instructions:  336000000 cycles:  272849708 heartbeat IPC: 1.14525 cumulative IPC: 1.06117 (Simulation time: 0 hr 11 min 19 sec) 
Heartbeat CPU  0 instructions:  337000001 cycles:  273728418 heartbeat IPC: 1.13803 cumulative IPC: 1.06147 (Simulation time: 0 hr 11 min 21 sec) 
Heartbeat CPU  0 instructions:  338000003 cycles:  274604662 heartbeat IPC: 1.14124 cumulative IPC: 1.06178 (Simulation time: 0 hr 11 min 24 sec) 
Heartbeat CPU  0 instructions:  339000000 cycles:  275491663 heartbeat IPC: 1.12739 cumulative IPC: 1.06204 (Simulation time: 0 hr 11 min 26 sec) 
Heartbeat CPU  0 instructions:  340000000 cycles:  276391500 heartbeat IPC: 1.11131 cumulative IPC: 1.06224 (Simulation time: 0 hr 11 min 28 sec) 
Heartbeat CPU  0 instructions:  341000002 cycles:  277266538 heartbeat IPC: 1.14281 cumulative IPC: 1.06255 (Simulation time: 0 hr 11 min 30 sec) 
Heartbeat CPU  0 instructions:  342000001 cycles:  278147772 heartbeat IPC: 1.13477 cumulative IPC: 1.06283 (Simulation time: 0 hr 11 min 32 sec) 
Heartbeat CPU  0 instructions:  343000001 cycles:  279026523 heartbeat IPC: 1.13798 cumulative IPC: 1.06312 (Simulation time: 0 hr 11 min 34 sec) 
Heartbeat CPU  0 instructions:  344000000 cycles:  279911601 heartbeat IPC: 1.12984 cumulative IPC: 1.06338 (Simulation time: 0 hr 11 min 36 sec) 
Heartbeat CPU  0 instructions:  345000001 cycles:  280810001 heartbeat IPC: 1.11309 cumulative IPC: 1.06357 (Simulation time: 0 hr 11 min 38 sec) 
Heartbeat CPU  0 instructions:  346000001 cycles:  281690538 heartbeat IPC: 1.13567 cumulative IPC: 1.06384 (Simulation time: 0 hr 11 min 40 sec) 
Heartbeat CPU  0 instructions:  347000003 cycles:  282664250 heartbeat IPC: 1.02700 cumulative IPC: 1.06369 (Simulation time: 0 hr 11 min 42 sec) 
Heartbeat CPU  0 instructions:  348000000 cycles:  283813825 heartbeat IPC: 0.86988 cumulative IPC: 1.06273 (Simulation time: 0 hr 11 min 44 sec) 
Heartbeat CPU  0 instructions:  349000002 cycles:  284962651 heartbeat IPC: 0.87046 cumulative IPC: 1.06179 (Simulation time: 0 hr 11 min 47 sec) 
Heartbeat CPU  0 instructions:  350000000 cycles:  286120591 heartbeat IPC: 0.86360 cumulative IPC: 1.06082 (Simulation time: 0 hr 11 min 49 sec) 
Heartbeat CPU  0 instructions:  351000002 cycles:  287267371 heartbeat IPC: 0.87201 cumulative IPC: 1.05990 (Simulation time: 0 hr 11 min 51 sec) 
Heartbeat CPU  0 instructions:  352000000 cycles:  288421662 heartbeat IPC: 0.86633 cumulative IPC: 1.05897 (Simulation time: 0 hr 11 min 53 sec) 
Heartbeat CPU  0 instructions:  353000000 cycles:  289577558 heartbeat IPC: 0.86513 cumulative IPC: 1.05803 (Simulation time: 0 hr 11 min 55 sec) 
Heartbeat CPU  0 instructions:  354000000 cycles:  290733122 heartbeat IPC: 0.86538 cumulative IPC: 1.05710 (Simulation time: 0 hr 11 min 58 sec) 
Heartbeat CPU  0 instructions:  355000003 cycles:  291882048 heartbeat IPC: 0.87038 cumulative IPC: 1.05621 (Simulation time: 0 hr 12 min 0 sec) 
Heartbeat CPU  0 instructions:  356000000 cycles:  293032879 heartbeat IPC: 0.86893 cumulative IPC: 1.05533 (Simulation time: 0 hr 12 min 2 sec) 
Heartbeat CPU  0 instructions:  357000000 cycles:  294183405 heartbeat IPC: 0.86917 cumulative IPC: 1.05445 (Simulation time: 0 hr 12 min 4 sec) 
Heartbeat CPU  0 instructions:  358000000 cycles:  295333148 heartbeat IPC: 0.86976 cumulative IPC: 1.05358 (Simulation time: 0 hr 12 min 6 sec) 
Heartbeat CPU  0 instructions:  359000000 cycles:  296480479 heartbeat IPC: 0.87159 cumulative IPC: 1.05273 (Simulation time: 0 hr 12 min 8 sec) 
Heartbeat CPU  0 instructions:  360000000 cycles:  297633215 heartbeat IPC: 0.86750 cumulative IPC: 1.05187 (Simulation time: 0 hr 12 min 11 sec) 
Heartbeat CPU  0 instructions:  361000000 cycles:  298778763 heartbeat IPC: 0.87294 cumulative IPC: 1.05104 (Simulation time: 0 hr 12 min 13 sec) 
Heartbeat CPU  0 instructions:  362000001 cycles:  299930543 heartbeat IPC: 0.86822 cumulative IPC: 1.05020 (Simulation time: 0 hr 12 min 15 sec) 
Heartbeat CPU  0 instructions:  363000003 cycles:  301085011 heartbeat IPC: 0.86620 cumulative IPC: 1.04935 (Simulation time: 0 hr 12 min 17 sec) 
Heartbeat CPU  0 instructions:  364000000 cycles:  302234167 heartbeat IPC: 0.87020 cumulative IPC: 1.04853 (Simulation time: 0 hr 12 min 19 sec) 
Heartbeat CPU  0 instructions:  365000000 cycles:  303386389 heartbeat IPC: 0.86789 cumulative IPC: 1.04771 (Simulation time: 0 hr 12 min 22 sec) 
Heartbeat CPU  0 instructions:  366000000 cycles:  304540606 heartbeat IPC: 0.86639 cumulative IPC: 1.04689 (Simulation time: 0 hr 12 min 24 sec) 
Heartbeat CPU  0 instructions:  367000001 cycles:  305689155 heartbeat IPC: 0.87066 cumulative IPC: 1.04609 (Simulation time: 0 hr 12 min 26 sec) 
Heartbeat CPU  0 instructions:  368000000 cycles:  306842551 heartbeat IPC: 0.86700 cumulative IPC: 1.04529 (Simulation time: 0 hr 12 min 28 sec) 
Heartbeat CPU  0 instructions:  369000000 cycles:  307993426 heartbeat IPC: 0.86890 cumulative IPC: 1.04450 (Simulation time: 0 hr 12 min 30 sec) 
Heartbeat CPU  0 instructions:  370000002 cycles:  309145109 heartbeat IPC: 0.86830 cumulative IPC: 1.04371 (Simulation time: 0 hr 12 min 33 sec) 
Heartbeat CPU  0 instructions:  371000002 cycles:  310299612 heartbeat IPC: 0.86617 cumulative IPC: 1.04293 (Simulation time: 0 hr 12 min 35 sec) 
Heartbeat CPU  0 instructions:  372000000 cycles:  311451558 heartbeat IPC: 0.86809 cumulative IPC: 1.04215 (Simulation time: 0 hr 12 min 37 sec) 
Heartbeat CPU  0 instructions:  373000002 cycles:  312604988 heartbeat IPC: 0.86698 cumulative IPC: 1.04138 (Simulation time: 0 hr 12 min 39 sec) 
Heartbeat CPU  0 instructions:  374000003 cycles:  313756440 heartbeat IPC: 0.86847 cumulative IPC: 1.04063 (Simulation time: 0 hr 12 min 41 sec) 
Heartbeat CPU  0 instructions:  375000003 cycles:  314904159 heartbeat IPC: 0.87129 cumulative IPC: 1.03989 (Simulation time: 0 hr 12 min 43 sec) 
Heartbeat CPU  0 instructions:  376000000 cycles:  316060191 heartbeat IPC: 0.86503 cumulative IPC: 1.03913 (Simulation time: 0 hr 12 min 46 sec) 
Heartbeat CPU  0 instructions:  377000003 cycles:  317212157 heartbeat IPC: 0.86808 cumulative IPC: 1.03839 (Simulation time: 0 hr 12 min 48 sec) 
Heartbeat CPU  0 instructions:  378000003 cycles:  318362727 heartbeat IPC: 0.86913 cumulative IPC: 1.03767 (Simulation time: 0 hr 12 min 50 sec) 
Heartbeat CPU  0 instructions:  379000003 cycles:  319514515 heartbeat IPC: 0.86822 cumulative IPC: 1.03694 (Simulation time: 0 hr 12 min 52 sec) 
Heartbeat CPU  0 instructions:  380000000 cycles:  320675075 heartbeat IPC: 0.86165 cumulative IPC: 1.03619 (Simulation time: 0 hr 12 min 54 sec) 
Heartbeat CPU  0 instructions:  381000002 cycles:  321829318 heartbeat IPC: 0.86637 cumulative IPC: 1.03546 (Simulation time: 0 hr 12 min 56 sec) 
Heartbeat CPU  0 instructions:  382000001 cycles:  322973514 heartbeat IPC: 0.87398 cumulative IPC: 1.03479 (Simulation time: 0 hr 12 min 59 sec) 
Heartbeat CPU  0 instructions:  383000000 cycles:  324128852 heartbeat IPC: 0.86555 cumulative IPC: 1.03407 (Simulation time: 0 hr 13 min 1 sec) 
Heartbeat CPU  0 instructions:  384000000 cycles:  325282202 heartbeat IPC: 0.86704 cumulative IPC: 1.03337 (Simulation time: 0 hr 13 min 3 sec) 
Heartbeat CPU  0 instructions:  385000000 cycles:  326430604 heartbeat IPC: 0.87078 cumulative IPC: 1.03269 (Simulation time: 0 hr 13 min 5 sec) 
Heartbeat CPU  0 instructions:  386000001 cycles:  327587751 heartbeat IPC: 0.86420 cumulative IPC: 1.03199 (Simulation time: 0 hr 13 min 7 sec) 
Heartbeat CPU  0 instructions:  387000003 cycles:  328738579 heartbeat IPC: 0.86894 cumulative IPC: 1.03132 (Simulation time: 0 hr 13 min 10 sec) 
Heartbeat CPU  0 instructions:  388000000 cycles:  329884360 heartbeat IPC: 0.87276 cumulative IPC: 1.03067 (Simulation time: 0 hr 13 min 12 sec) 
Heartbeat CPU  0 instructions:  389000001 cycles:  331045537 heartbeat IPC: 0.86120 cumulative IPC: 1.02997 (Simulation time: 0 hr 13 min 14 sec) 
Heartbeat CPU  0 instructions:  390000000 cycles:  332198248 heartbeat IPC: 0.86752 cumulative IPC: 1.02930 (Simulation time: 0 hr 13 min 16 sec) 
Heartbeat CPU  0 instructions:  391000000 cycles:  333340803 heartbeat IPC: 0.87523 cumulative IPC: 1.02868 (Simulation time: 0 hr 13 min 18 sec) 
Heartbeat CPU  0 instructions:  392000000 cycles:  334499836 heartbeat IPC: 0.86279 cumulative IPC: 1.02800 (Simulation time: 0 hr 13 min 21 sec) 
Heartbeat CPU  0 instructions:  393000002 cycles:  335971034 heartbeat IPC: 0.67972 cumulative IPC: 1.02621 (Simulation time: 0 hr 13 min 23 sec) 
Heartbeat CPU  0 instructions:  394000001 cycles:  338782363 heartbeat IPC: 0.35570 cumulative IPC: 1.01967 (Simulation time: 0 hr 13 min 26 sec) 
Heartbeat CPU  0 instructions:  395000000 cycles:  340897842 heartbeat IPC: 0.47271 cumulative IPC: 1.01569 (Simulation time: 0 hr 13 min 29 sec) 
Heartbeat CPU  0 instructions:  396000000 cycles:  341647712 heartbeat IPC: 1.33356 cumulative IPC: 1.01650 (Simulation time: 0 hr 13 min 31 sec) 
Heartbeat CPU  0 instructions:  397000000 cycles:  342409044 heartbeat IPC: 1.31349 cumulative IPC: 1.01728 (Simulation time: 0 hr 13 min 33 sec) 
Heartbeat CPU  0 instructions:  398000001 cycles:  343171440 heartbeat IPC: 1.31166 cumulative IPC: 1.01805 (Simulation time: 0 hr 13 min 36 sec) 
Heartbeat CPU  0 instructions:  399000002 cycles:  343939929 heartbeat IPC: 1.30126 cumulative IPC: 1.01879 (Simulation time: 0 hr 13 min 38 sec) 
Heartbeat CPU  0 instructions:  400000000 cycles:  344702750 heartbeat IPC: 1.31092 cumulative IPC: 1.01954 (Simulation time: 0 hr 13 min 40 sec) 
Heartbeat CPU  0 instructions:  401000003 cycles:  345456370 heartbeat IPC: 1.32693 cumulative IPC: 1.02033 (Simulation time: 0 hr 13 min 42 sec) 
Heartbeat CPU  0 instructions:  402000002 cycles:  346230709 heartbeat IPC: 1.29142 cumulative IPC: 1.02104 (Simulation time: 0 hr 13 min 44 sec) 
Heartbeat CPU  0 instructions:  403000002 cycles:  347012722 heartbeat IPC: 1.27875 cumulative IPC: 1.02172 (Simulation time: 0 hr 13 min 46 sec) 
Heartbeat CPU  0 instructions:  404000000 cycles:  347794789 heartbeat IPC: 1.27866 cumulative IPC: 1.02239 (Simulation time: 0 hr 13 min 48 sec) 
Heartbeat CPU  0 instructions:  405000000 cycles:  348578939 heartbeat IPC: 1.27527 cumulative IPC: 1.02306 (Simulation time: 0 hr 13 min 50 sec) 
Heartbeat CPU  0 instructions:  406000000 cycles:  349360783 heartbeat IPC: 1.27903 cumulative IPC: 1.02373 (Simulation time: 0 hr 13 min 52 sec) 
Heartbeat CPU  0 instructions:  407000000 cycles:  350142052 heartbeat IPC: 1.27997 cumulative IPC: 1.02440 (Simulation time: 0 hr 13 min 55 sec) 
Heartbeat CPU  0 instructions:  408000000 cycles:  350965617 heartbeat IPC: 1.21423 cumulative IPC: 1.02492 (Simulation time: 0 hr 13 min 57 sec) 
Heartbeat CPU  0 instructions:  409000001 cycles:  351886308 heartbeat IPC: 1.08614 cumulative IPC: 1.02510 (Simulation time: 0 hr 13 min 59 sec) 
Heartbeat CPU  0 instructions:  410000003 cycles:  352780436 heartbeat IPC: 1.11841 cumulative IPC: 1.02538 (Simulation time: 0 hr 14 min 1 sec) 
Heartbeat CPU  0 instructions:  411000002 cycles:  353734038 heartbeat IPC: 1.04865 cumulative IPC: 1.02545 (Simulation time: 0 hr 14 min 3 sec) 
Heartbeat CPU  0 instructions:  412000000 cycles:  354563133 heartbeat IPC: 1.20613 cumulative IPC: 1.02595 (Simulation time: 0 hr 14 min 5 sec) 
Heartbeat CPU  0 instructions:  413000003 cycles:  355386090 heartbeat IPC: 1.21513 cumulative IPC: 1.02646 (Simulation time: 0 hr 14 min 7 sec) 
Heartbeat CPU  0 instructions:  414000002 cycles:  356205867 heartbeat IPC: 1.21984 cumulative IPC: 1.02698 (Simulation time: 0 hr 14 min 9 sec) 
Heartbeat CPU  0 instructions:  415000002 cycles:  357027041 heartbeat IPC: 1.21777 cumulative IPC: 1.02749 (Simulation time: 0 hr 14 min 11 sec) 
Heartbeat CPU  0 instructions:  416000000 cycles:  357848916 heartbeat IPC: 1.21673 cumulative IPC: 1.02799 (Simulation time: 0 hr 14 min 13 sec) 
Heartbeat CPU  0 instructions:  417000000 cycles:  358672658 heartbeat IPC: 1.21397 cumulative IPC: 1.02849 (Simulation time: 0 hr 14 min 15 sec) 
Heartbeat CPU  0 instructions:  418000001 cycles:  359495681 heartbeat IPC: 1.21503 cumulative IPC: 1.02899 (Simulation time: 0 hr 14 min 17 sec) 
Heartbeat CPU  0 instructions:  419000003 cycles:  360316782 heartbeat IPC: 1.21788 cumulative IPC: 1.02949 (Simulation time: 0 hr 14 min 19 sec) 
Heartbeat CPU  0 instructions:  420000000 cycles:  361138244 heartbeat IPC: 1.21734 cumulative IPC: 1.02998 (Simulation time: 0 hr 14 min 21 sec) 
Heartbeat CPU  0 instructions:  421000001 cycles:  361960994 heartbeat IPC: 1.21544 cumulative IPC: 1.03047 (Simulation time: 0 hr 14 min 23 sec) 
Heartbeat CPU  0 instructions:  422000000 cycles:  362785049 heartbeat IPC: 1.21351 cumulative IPC: 1.03096 (Simulation time: 0 hr 14 min 25 sec) 
Heartbeat CPU  0 instructions:  423000002 cycles:  363606804 heartbeat IPC: 1.21691 cumulative IPC: 1.03144 (Simulation time: 0 hr 14 min 27 sec) 
Heartbeat CPU  0 instructions:  424000000 cycles:  364432214 heartbeat IPC: 1.21152 cumulative IPC: 1.03192 (Simulation time: 0 hr 14 min 29 sec) 
Heartbeat CPU  0 instructions:  425000000 cycles:  365258596 heartbeat IPC: 1.21009 cumulative IPC: 1.03239 (Simulation time: 0 hr 14 min 31 sec) 
Heartbeat CPU  0 instructions:  426000003 cycles:  366086301 heartbeat IPC: 1.20816 cumulative IPC: 1.03285 (Simulation time: 0 hr 14 min 33 sec) 
Heartbeat CPU  0 instructions:  427000003 cycles:  366913535 heartbeat IPC: 1.20885 cumulative IPC: 1.03331 (Simulation time: 0 hr 14 min 35 sec) 
Heartbeat CPU  0 instructions:  428000000 cycles:  367741592 heartbeat IPC: 1.20764 cumulative IPC: 1.03376 (Simulation time: 0 hr 14 min 37 sec) 
Heartbeat CPU  0 instructions:  429000002 cycles:  368566404 heartbeat IPC: 1.21240 cumulative IPC: 1.03422 (Simulation time: 0 hr 14 min 39 sec) 
Heartbeat CPU  0 instructions:  430000002 cycles:  369393186 heartbeat IPC: 1.20951 cumulative IPC: 1.03468 (Simulation time: 0 hr 14 min 41 sec) 
Heartbeat CPU  0 instructions:  431000003 cycles:  370220441 heartbeat IPC: 1.20882 cumulative IPC: 1.03513 (Simulation time: 0 hr 14 min 43 sec) 
Heartbeat CPU  0 instructions:  432000000 cycles:  371048019 heartbeat IPC: 1.20834 cumulative IPC: 1.03558 (Simulation time: 0 hr 14 min 45 sec) 
Heartbeat CPU  0 instructions:  433000001 cycles:  371873918 heartbeat IPC: 1.21080 cumulative IPC: 1.03603 (Simulation time: 0 hr 14 min 47 sec) 
Heartbeat CPU  0 instructions:  434000001 cycles:  372700993 heartbeat IPC: 1.20908 cumulative IPC: 1.03647 (Simulation time: 0 hr 14 min 49 sec) 
Heartbeat CPU  0 instructions:  435000003 cycles:  373525993 heartbeat IPC: 1.21212 cumulative IPC: 1.03692 (Simulation time: 0 hr 14 min 51 sec) 
Heartbeat CPU  0 instructions:  436000000 cycles:  374351850 heartbeat IPC: 1.21086 cumulative IPC: 1.03736 (Simulation time: 0 hr 14 min 53 sec) 
Heartbeat CPU  0 instructions:  437000002 cycles:  375179387 heartbeat IPC: 1.20841 cumulative IPC: 1.03780 (Simulation time: 0 hr 14 min 55 sec) 
Heartbeat CPU  0 instructions:  438000000 cycles:  376006418 heartbeat IPC: 1.20914 cumulative IPC: 1.03823 (Simulation time: 0 hr 14 min 57 sec) 
Heartbeat CPU  0 instructions:  439000003 cycles:  376832730 heartbeat IPC: 1.21020 cumulative IPC: 1.03867 (Simulation time: 0 hr 14 min 59 sec) 
Heartbeat CPU  0 instructions:  440000000 cycles:  377658499 heartbeat IPC: 1.21099 cumulative IPC: 1.03910 (Simulation time: 0 hr 15 min 1 sec) 
Heartbeat CPU  0 instructions:  441000000 cycles:  378486712 heartbeat IPC: 1.20742 cumulative IPC: 1.03953 (Simulation time: 0 hr 15 min 3 sec) 
Heartbeat CPU  0 instructions:  442000003 cycles:  379313302 heartbeat IPC: 1.20979 cumulative IPC: 1.03996 (Simulation time: 0 hr 15 min 5 sec) 
Heartbeat CPU  0 instructions:  443000002 cycles:  380143265 heartbeat IPC: 1.20487 cumulative IPC: 1.04037 (Simulation time: 0 hr 15 min 7 sec) 
Heartbeat CPU  0 instructions:  444000000 cycles:  380970466 heartbeat IPC: 1.20889 cumulative IPC: 1.04079 (Simulation time: 0 hr 15 min 9 sec) 
Heartbeat CPU  0 instructions:  445000003 cycles:  381796960 heartbeat IPC: 1.20993 cumulative IPC: 1.04122 (Simulation time: 0 hr 15 min 11 sec) 
Heartbeat CPU  0 instructions:  446000002 cycles:  382623690 heartbeat IPC: 1.20958 cumulative IPC: 1.04164 (Simulation time: 0 hr 15 min 13 sec) 
Heartbeat CPU  0 instructions:  447000000 cycles:  383450844 heartbeat IPC: 1.20896 cumulative IPC: 1.04205 (Simulation time: 0 hr 15 min 15 sec) 
Heartbeat CPU  0 instructions:  448000000 cycles:  384278455 heartbeat IPC: 1.20830 cumulative IPC: 1.04246 (Simulation time: 0 hr 15 min 17 sec) 
Heartbeat CPU  0 instructions:  449000003 cycles:  385105790 heartbeat IPC: 1.20870 cumulative IPC: 1.04287 (Simulation time: 0 hr 15 min 19 sec) 
Heartbeat CPU  0 instructions:  450000001 cycles:  385932883 heartbeat IPC: 1.20905 cumulative IPC: 1.04328 (Simulation time: 0 hr 15 min 21 sec) 
Heartbeat CPU  0 instructions:  451000003 cycles:  386760609 heartbeat IPC: 1.20813 cumulative IPC: 1.04369 (Simulation time: 0 hr 15 min 23 sec) 
Heartbeat CPU  0 instructions:  452000000 cycles:  387585432 heartbeat IPC: 1.21238 cumulative IPC: 1.04410 (Simulation time: 0 hr 15 min 25 sec) 
Heartbeat CPU  0 instructions:  453000000 cycles:  388411760 heartbeat IPC: 1.21017 cumulative IPC: 1.04451 (Simulation time: 0 hr 15 min 27 sec) 
Heartbeat CPU  0 instructions:  454000000 cycles:  389237904 heartbeat IPC: 1.21044 cumulative IPC: 1.04491 (Simulation time: 0 hr 15 min 29 sec) 
Heartbeat CPU  0 instructions:  455000002 cycles:  390063519 heartbeat IPC: 1.21122 cumulative IPC: 1.04532 (Simulation time: 0 hr 15 min 31 sec) 
Heartbeat CPU  0 instructions:  456000000 cycles:  390890498 heartbeat IPC: 1.20922 cumulative IPC: 1.04572 (Simulation time: 0 hr 15 min 33 sec) 
Heartbeat CPU  0 instructions:  457000000 cycles:  391719480 heartbeat IPC: 1.20630 cumulative IPC: 1.04611 (Simulation time: 0 hr 15 min 35 sec) 
Heartbeat CPU  0 instructions:  458000002 cycles:  392546918 heartbeat IPC: 1.20855 cumulative IPC: 1.04650 (Simulation time: 0 hr 15 min 37 sec) 
Heartbeat CPU  0 instructions:  459000001 cycles:  393376169 heartbeat IPC: 1.20591 cumulative IPC: 1.04688 (Simulation time: 0 hr 15 min 39 sec) 
Heartbeat CPU  0 instructions:  460000000 cycles:  394203725 heartbeat IPC: 1.20838 cumulative IPC: 1.04727 (Simulation time: 0 hr 15 min 41 sec) 
Heartbeat CPU  0 instructions:  461000003 cycles:  395031558 heartbeat IPC: 1.20798 cumulative IPC: 1.04766 (Simulation time: 0 hr 15 min 43 sec) 
Heartbeat CPU  0 instructions:  462000002 cycles:  395859565 heartbeat IPC: 1.20772 cumulative IPC: 1.04804 (Simulation time: 0 hr 15 min 45 sec) 
Heartbeat CPU  0 instructions:  463000002 cycles:  396687543 heartbeat IPC: 1.20776 cumulative IPC: 1.04842 (Simulation time: 0 hr 15 min 47 sec) 
Heartbeat CPU  0 instructions:  464000000 cycles:  397514730 heartbeat IPC: 1.20891 cumulative IPC: 1.04881 (Simulation time: 0 hr 15 min 49 sec) 
Heartbeat CPU  0 instructions:  465000001 cycles:  398343835 heartbeat IPC: 1.20612 cumulative IPC: 1.04918 (Simulation time: 0 hr 15 min 51 sec) 
Heartbeat CPU  0 instructions:  466000001 cycles:  399169884 heartbeat IPC: 1.21058 cumulative IPC: 1.04956 (Simulation time: 0 hr 15 min 54 sec) 
Heartbeat CPU  0 instructions:  467000001 cycles:  399994931 heartbeat IPC: 1.21205 cumulative IPC: 1.04995 (Simulation time: 0 hr 15 min 56 sec) 
Heartbeat CPU  0 instructions:  468000000 cycles:  400821448 heartbeat IPC: 1.20990 cumulative IPC: 1.05032 (Simulation time: 0 hr 15 min 58 sec) 
Heartbeat CPU  0 instructions:  469000000 cycles:  401649873 heartbeat IPC: 1.20711 cumulative IPC: 1.05069 (Simulation time: 0 hr 16 min 0 sec) 
Heartbeat CPU  0 instructions:  470000003 cycles:  402476469 heartbeat IPC: 1.20978 cumulative IPC: 1.05107 (Simulation time: 0 hr 16 min 2 sec) 
Heartbeat CPU  0 instructions:  471000002 cycles:  403302322 heartbeat IPC: 1.21087 cumulative IPC: 1.05144 (Simulation time: 0 hr 16 min 4 sec) 
Heartbeat CPU  0 instructions:  472000000 cycles:  404130609 heartbeat IPC: 1.20731 cumulative IPC: 1.05181 (Simulation time: 0 hr 16 min 6 sec) 
Heartbeat CPU  0 instructions:  473000002 cycles:  404958335 heartbeat IPC: 1.20813 cumulative IPC: 1.05217 (Simulation time: 0 hr 16 min 8 sec) 
Heartbeat CPU  0 instructions:  474000002 cycles:  405785307 heartbeat IPC: 1.20923 cumulative IPC: 1.05254 (Simulation time: 0 hr 16 min 10 sec) 
Heartbeat CPU  0 instructions:  475000003 cycles:  406612161 heartbeat IPC: 1.20940 cumulative IPC: 1.05290 (Simulation time: 0 hr 16 min 12 sec) 
Heartbeat CPU  0 instructions:  476000000 cycles:  407440471 heartbeat IPC: 1.20727 cumulative IPC: 1.05326 (Simulation time: 0 hr 16 min 14 sec) 
Heartbeat CPU  0 instructions:  477000002 cycles:  408268168 heartbeat IPC: 1.20817 cumulative IPC: 1.05362 (Simulation time: 0 hr 16 min 16 sec) 
Heartbeat CPU  0 instructions:  478000002 cycles:  409096875 heartbeat IPC: 1.20670 cumulative IPC: 1.05397 (Simulation time: 0 hr 16 min 18 sec) 
Heartbeat CPU  0 instructions:  479000002 cycles:  409924525 heartbeat IPC: 1.20824 cumulative IPC: 1.05433 (Simulation time: 0 hr 16 min 20 sec) 
Heartbeat CPU  0 instructions:  480000000 cycles:  410751308 heartbeat IPC: 1.20950 cumulative IPC: 1.05468 (Simulation time: 0 hr 16 min 22 sec) 
Heartbeat CPU  0 instructions:  481000001 cycles:  411580101 heartbeat IPC: 1.20658 cumulative IPC: 1.05503 (Simulation time: 0 hr 16 min 24 sec) 
Heartbeat CPU  0 instructions:  482000000 cycles:  412453041 heartbeat IPC: 1.14555 cumulative IPC: 1.05525 (Simulation time: 0 hr 16 min 26 sec) 
Heartbeat CPU  0 instructions:  483000003 cycles:  413360768 heartbeat IPC: 1.10166 cumulative IPC: 1.05537 (Simulation time: 0 hr 16 min 28 sec) 
Heartbeat CPU  0 instructions:  484000000 cycles:  414268288 heartbeat IPC: 1.10190 cumulative IPC: 1.05548 (Simulation time: 0 hr 16 min 30 sec) 
Heartbeat CPU  0 instructions:  485000003 cycles:  415173761 heartbeat IPC: 1.10440 cumulative IPC: 1.05560 (Simulation time: 0 hr 16 min 32 sec) 
Heartbeat CPU  0 instructions:  486000002 cycles:  416075891 heartbeat IPC: 1.10849 cumulative IPC: 1.05573 (Simulation time: 0 hr 16 min 34 sec) 
Heartbeat CPU  0 instructions:  487000001 cycles:  416975199 heartbeat IPC: 1.11196 cumulative IPC: 1.05587 (Simulation time: 0 hr 16 min 36 sec) 
Heartbeat CPU  0 instructions:  488000000 cycles:  417875838 heartbeat IPC: 1.11032 cumulative IPC: 1.05601 (Simulation time: 0 hr 16 min 38 sec) 
Heartbeat CPU  0 instructions:  489000001 cycles:  418781809 heartbeat IPC: 1.10379 cumulative IPC: 1.05612 (Simulation time: 0 hr 16 min 40 sec) 
Heartbeat CPU  0 instructions:  490000001 cycles:  419689570 heartbeat IPC: 1.10161 cumulative IPC: 1.05624 (Simulation time: 0 hr 16 min 42 sec) 
Heartbeat CPU  0 instructions:  491000000 cycles:  420577343 heartbeat IPC: 1.12641 cumulative IPC: 1.05640 (Simulation time: 0 hr 16 min 44 sec) 
Heartbeat CPU  0 instructions:  492000000 cycles:  421466814 heartbeat IPC: 1.12426 cumulative IPC: 1.05657 (Simulation time: 0 hr 16 min 46 sec) 
Heartbeat CPU  0 instructions:  493000002 cycles:  422354909 heartbeat IPC: 1.12601 cumulative IPC: 1.05673 (Simulation time: 0 hr 16 min 48 sec) 
Heartbeat CPU  0 instructions:  494000001 cycles:  423238666 heartbeat IPC: 1.13153 cumulative IPC: 1.05691 (Simulation time: 0 hr 16 min 50 sec) 
Heartbeat CPU  0 instructions:  495000001 cycles:  424125483 heartbeat IPC: 1.12763 cumulative IPC: 1.05708 (Simulation time: 0 hr 16 min 52 sec) 
Heartbeat CPU  0 instructions:  496000000 cycles:  425010815 heartbeat IPC: 1.12952 cumulative IPC: 1.05725 (Simulation time: 0 hr 16 min 54 sec) 
Heartbeat CPU  0 instructions:  497000000 cycles:  425895681 heartbeat IPC: 1.13011 cumulative IPC: 1.05742 (Simulation time: 0 hr 16 min 56 sec) 
Heartbeat CPU  0 instructions:  498000001 cycles:  426783429 heartbeat IPC: 1.12645 cumulative IPC: 1.05758 (Simulation time: 0 hr 16 min 58 sec) 
Heartbeat CPU  0 instructions:  499000001 cycles:  427675531 heartbeat IPC: 1.12095 cumulative IPC: 1.05773 (Simulation time: 0 hr 17 min 0 sec) 
Heartbeat CPU  0 instructions:  500000000 cycles:  428567895 heartbeat IPC: 1.12062 cumulative IPC: 1.05788 (Simulation time: 0 hr 17 min 2 sec) 
Heartbeat CPU  0 instructions:  501000002 cycles:  429456699 heartbeat IPC: 1.12511 cumulative IPC: 1.05804 (Simulation time: 0 hr 17 min 4 sec) 
Heartbeat CPU  0 instructions:  502000003 cycles:  430345844 heartbeat IPC: 1.12468 cumulative IPC: 1.05819 (Simulation time: 0 hr 17 min 6 sec) 
Heartbeat CPU  0 instructions:  503000003 cycles:  431228657 heartbeat IPC: 1.13274 cumulative IPC: 1.05837 (Simulation time: 0 hr 17 min 8 sec) 
Heartbeat CPU  0 instructions:  504000000 cycles:  432118150 heartbeat IPC: 1.12423 cumulative IPC: 1.05852 (Simulation time: 0 hr 17 min 10 sec) 
Heartbeat CPU  0 instructions:  505000003 cycles:  433006186 heartbeat IPC: 1.12608 cumulative IPC: 1.05868 (Simulation time: 0 hr 17 min 12 sec) 
Heartbeat CPU  0 instructions:  506000002 cycles:  433892822 heartbeat IPC: 1.12786 cumulative IPC: 1.05884 (Simulation time: 0 hr 17 min 14 sec) 
Heartbeat CPU  0 instructions:  507000000 cycles:  434782568 heartbeat IPC: 1.12391 cumulative IPC: 1.05899 (Simulation time: 0 hr 17 min 16 sec) 
Heartbeat CPU  0 instructions:  508000000 cycles:  435776006 heartbeat IPC: 1.00661 cumulative IPC: 1.05885 (Simulation time: 0 hr 17 min 18 sec) 
Heartbeat CPU  0 instructions:  509000002 cycles:  436882337 heartbeat IPC: 0.90389 cumulative IPC: 1.05841 (Simulation time: 0 hr 17 min 20 sec) 
Heartbeat CPU  0 instructions:  510000002 cycles:  438008400 heartbeat IPC: 0.88805 cumulative IPC: 1.05791 (Simulation time: 0 hr 17 min 23 sec) 
Heartbeat CPU  0 instructions:  511000003 cycles:  439131873 heartbeat IPC: 0.89010 cumulative IPC: 1.05743 (Simulation time: 0 hr 17 min 25 sec) 
Heartbeat CPU  0 instructions:  512000000 cycles:  440256200 heartbeat IPC: 0.88942 cumulative IPC: 1.05695 (Simulation time: 0 hr 17 min 28 sec) 
Heartbeat CPU  0 instructions:  513000003 cycles:  441369278 heartbeat IPC: 0.89841 cumulative IPC: 1.05649 (Simulation time: 0 hr 17 min 30 sec) 
Heartbeat CPU  0 instructions:  514000003 cycles:  442481921 heartbeat IPC: 0.89876 cumulative IPC: 1.05605 (Simulation time: 0 hr 17 min 33 sec) 
Heartbeat CPU  0 instructions:  515000000 cycles:  443646061 heartbeat IPC: 0.85900 cumulative IPC: 1.05546 (Simulation time: 0 hr 17 min 35 sec) 
Heartbeat CPU  0 instructions:  516000000 cycles:  444790145 heartbeat IPC: 0.87406 cumulative IPC: 1.05494 (Simulation time: 0 hr 17 min 37 sec) 
Heartbeat CPU  0 instructions:  517000001 cycles:  445886738 heartbeat IPC: 0.91192 cumulative IPC: 1.05454 (Simulation time: 0 hr 17 min 40 sec) 
Heartbeat CPU  0 instructions:  518000002 cycles:  446979087 heartbeat IPC: 0.91546 cumulative IPC: 1.05416 (Simulation time: 0 hr 17 min 42 sec) 
Heartbeat CPU  0 instructions:  519000000 cycles:  448119217 heartbeat IPC: 0.87709 cumulative IPC: 1.05365 (Simulation time: 0 hr 17 min 45 sec) 
Heartbeat CPU  0 instructions:  520000000 cycles:  449261808 heartbeat IPC: 0.87520 cumulative IPC: 1.05314 (Simulation time: 0 hr 17 min 47 sec) 
Heartbeat CPU  0 instructions:  521000003 cycles:  450365692 heartbeat IPC: 0.90589 cumulative IPC: 1.05273 (Simulation time: 0 hr 17 min 50 sec) 
Heartbeat CPU  0 instructions:  522000002 cycles:  451456567 heartbeat IPC: 0.91669 cumulative IPC: 1.05236 (Simulation time: 0 hr 17 min 52 sec) 
Heartbeat CPU  0 instructions:  523000001 cycles:  452546482 heartbeat IPC: 0.91750 cumulative IPC: 1.05200 (Simulation time: 0 hr 17 min 54 sec) 
Heartbeat CPU  0 instructions:  524000000 cycles:  453639116 heartbeat IPC: 0.91522 cumulative IPC: 1.05163 (Simulation time: 0 hr 17 min 57 sec) 
Heartbeat CPU  0 instructions:  525000000 cycles:  454732727 heartbeat IPC: 0.91440 cumulative IPC: 1.05125 (Simulation time: 0 hr 17 min 59 sec) 
Heartbeat CPU  0 instructions:  526000001 cycles:  455857508 heartbeat IPC: 0.88906 cumulative IPC: 1.05080 (Simulation time: 0 hr 18 min 2 sec) 
Heartbeat CPU  0 instructions:  527000001 cycles:  457014479 heartbeat IPC: 0.86433 cumulative IPC: 1.05027 (Simulation time: 0 hr 18 min 4 sec) 
Heartbeat CPU  0 instructions:  528000000 cycles:  458142016 heartbeat IPC: 0.88689 cumulative IPC: 1.04982 (Simulation time: 0 hr 18 min 7 sec) 
Heartbeat CPU  0 instructions:  529000002 cycles:  459248661 heartbeat IPC: 0.90363 cumulative IPC: 1.04943 (Simulation time: 0 hr 18 min 9 sec) 
[...]
Heartbeat CPU  0 instructions:  549000000 cycles:  480474964 heartbeat IPC: 1.16515 cumulative IPC: 1.04413 (Simulation time: 0 hr 18 min 57 sec) 
Heartbeat CPU  0 instructions:  550000002 cycles:  481335395 heartbeat IPC: 1.16221 cumulative IPC: 1.04437 (Simulation time: 0 hr 18 min 59 sec) 
Heartbeat CPU  0 instructions:  551000001 cycles:  482189191 heartbeat IPC: 1.17124 cumulative IPC: 1.04462 (Simulation time: 0 hr 19 min 1 sec) 
Heartbeat CPU  0 instructions:  552000000 cycles:  483046537 heartbeat IPC: 1.16639 cumulative IPC: 1.04486 (Simulation time: 0 hr 19 min 3 sec) 
Heartbeat CPU  0 instructions:  553000003 cycles:  483899241 heartbeat IPC: 1.17274 cumulative IPC: 1.04511 (Simulation time: 0 hr 19 min 5 sec) 
Heartbeat CPU  0 instructions:  554000001 cycles:  484757426 heartbeat IPC: 1.16525 cumulative IPC: 1.04535 (Simulation time: 0 hr 19 min 7 sec) 
Heartbeat CPU  0 instructions:  555000001 cycles:  485612817 heartbeat IPC: 1.16906 cumulative IPC: 1.04559 (Simulation time: 0 hr 19 min 9 sec) 
Heartbeat CPU  0 instructions:  556000000 cycles:  486472229 heartbeat IPC: 1.16359 cumulative IPC: 1.04583 (Simulation time: 0 hr 19 min 11 sec) 
Heartbeat CPU  0 instructions:  557000002 cycles:  487338644 heartbeat IPC: 1.15418 cumulative IPC: 1.04604 (Simulation time: 0 hr 19 min 13 sec) 
Heartbeat CPU  0 instructions:  558000003 cycles:  488193958 heartbeat IPC: 1.16916 cumulative IPC: 1.04628 (Simulation time: 0 hr 19 min 15 sec) 
Heartbeat CPU  0 instructions:  559000002 cycles:  489048783 heartbeat IPC: 1.16983 cumulative IPC: 1.04652 (Simulation time: 0 hr 19 min 17 sec) 
Heartbeat CPU  0 instructions:  560000000 cycles:  489900805 heartbeat IPC: 1.17368 cumulative IPC: 1.04677 (Simulation time: 0 hr 19 min 20 sec) 
Heartbeat CPU  0 instructions:  561000002 cycles:  490753937 heartbeat IPC: 1.17215 cumulative IPC: 1.04701 (Simulation time: 0 hr 19 min 22 sec) 
Heartbeat CPU  0 instructions:  562000002 cycles:  491607686 heartbeat IPC: 1.17130 cumulative IPC: 1.04725 (Simulation time: 0 hr 19 min 24 sec) 
Heartbeat CPU  0 instructions:  563000001 cycles:  492456859 heartbeat IPC: 1.17762 cumulative IPC: 1.04750 (Simulation time: 0 hr 19 min 26 sec) 
Heartbeat CPU  0 instructions:  564000000 cycles:  493312515 heartbeat IPC: 1.16869 cumulative IPC: 1.04774 (Simulation time: 0 hr 19 min 28 sec) 
Heartbeat CPU  0 instructions:  565000003 cycles:  494169497 heartbeat IPC: 1.16689 cumulative IPC: 1.04797 (Simulation time: 0 hr 19 min 30 sec) 
Heartbeat CPU  0 instructions:  566000002 cycles:  495019163 heartbeat IPC: 1.17693 cumulative IPC: 1.04821 (Simulation time: 0 hr 19 min 32 sec) 
Heartbeat CPU  0 instructions:  567000001 cycles:  495892294 heartbeat IPC: 1.14530 cumulative IPC: 1.04840 (Simulation time: 0 hr 19 min 34 sec) 
Heartbeat CPU  0 instructions:  568000000 cycles:  496740445 heartbeat IPC: 1.17903 cumulative IPC: 1.04865 (Simulation time: 0 hr 19 min 36 sec) 
Heartbeat CPU  0 instructions:  569000001 cycles:  497594909 heartbeat IPC: 1.17033 cumulative IPC: 1.04889 (Simulation time: 0 hr 19 min 38 sec) 
Heartbeat CPU  0 instructions:  570000001 cycles:  498449796 heartbeat IPC: 1.16975 cumulative IPC: 1.04912 (Simulation time: 0 hr 19 min 40 sec) 
Heartbeat CPU  0 instructions:  571000003 cycles:  499305550 heartbeat IPC: 1.16856 cumulative IPC: 1.04934 (Simulation time: 0 hr 19 min 43 sec) 
Heartbeat CPU  0 instructions:  572000000 cycles:  500155874 heartbeat IPC: 1.17602 cumulative IPC: 1.04958 (Simulation time: 0 hr 19 min 45 sec) 
Heartbeat CPU  0 instructions:  573000001 cycles:  501009172 heartbeat IPC: 1.17192 cumulative IPC: 1.04982 (Simulation time: 0 hr 19 min 47 sec) 
Heartbeat CPU  0 instructions:  574000003 cycles:  501858101 heartbeat IPC: 1.17796 cumulative IPC: 1.05006 (Simulation time: 0 hr 19 min 49 sec) 
Heartbeat CPU  0 instructions:  575000000 cycles:  502714012 heartbeat IPC: 1.16834 cumulative IPC: 1.05028 (Simulation time: 0 hr 19 min 51 sec) 
Heartbeat CPU  0 instructions:  576000000 cycles:  503566567 heartbeat IPC: 1.17294 cumulative IPC: 1.05051 (Simulation time: 0 hr 19 min 53 sec) 
Heartbeat CPU  0 instructions:  577000002 cycles:  504428765 heartbeat IPC: 1.15983 cumulative IPC: 1.05072 (Simulation time: 0 hr 19 min 55 sec) 
Heartbeat CPU  0 instructions:  578000003 cycles:  505281496 heartbeat IPC: 1.17270 cumulative IPC: 1.05095 (Simulation time: 0 hr 19 min 57 sec) 
Heartbeat CPU  0 instructions:  579000000 cycles:  506133283 heartbeat IPC: 1.17400 cumulative IPC: 1.05118 (Simulation time: 0 hr 19 min 59 sec) 
Heartbeat CPU  0 instructions:  580000000 cycles:  506984300 heartbeat IPC: 1.17506 cumulative IPC: 1.05141 (Simulation time: 0 hr 20 min 1 sec) 
Heartbeat CPU  0 instructions:  581000002 cycles:  507832448 heartbeat IPC: 1.17904 cumulative IPC: 1.05164 (Simulation time: 0 hr 20 min 3 sec) 
Heartbeat CPU  0 instructions:  582000000 cycles:  508688189 heartbeat IPC: 1.16858 cumulative IPC: 1.05186 (Simulation time: 0 hr 20 min 6 sec) 
Heartbeat CPU  0 instructions:  583000000 cycles:  509536403 heartbeat IPC: 1.17895 cumulative IPC: 1.05210 (Simulation time: 0 hr 20 min 8 sec) 
Heartbeat CPU  0 instructions:  584000000 cycles:  510386037 heartbeat IPC: 1.17698 cumulative IPC: 1.05233 (Simulation time: 0 hr 20 min 10 sec) 
Heartbeat CPU  0 instructions:  585000001 cycles:  511235551 heartbeat IPC: 1.17714 cumulative IPC: 1.05256 (Simulation time: 0 hr 20 min 12 sec) 
Heartbeat CPU  0 instructions:  586000000 cycles:  512085851 heartbeat IPC: 1.17605 cumulative IPC: 1.05279 (Simulation time: 0 hr 20 min 14 sec) 
Heartbeat CPU  0 instructions:  587000000 cycles:  512934320 heartbeat IPC: 1.17859 cumulative IPC: 1.05302 (Simulation time: 0 hr 20 min 16 sec) 
Heartbeat CPU  0 instructions:  588000000 cycles:  513797302 heartbeat IPC: 1.15877 cumulative IPC: 1.05321 (Simulation time: 0 hr 20 min 18 sec) 
Heartbeat CPU  0 instructions:  589000001 cycles:  514648528 heartbeat IPC: 1.17478 cumulative IPC: 1.05344 (Simulation time: 0 hr 20 min 20 sec) 
Heartbeat CPU  0 instructions:  590000003 cycles:  515497638 heartbeat IPC: 1.17771 cumulative IPC: 1.05366 (Simulation time: 0 hr 20 min 22 sec) 
Heartbeat CPU  0 instructions:  591000002 cycles:  516344506 heartbeat IPC: 1.18082 cumulative IPC: 1.05389 (Simulation time: 0 hr 20 min 24 sec) 
Heartbeat CPU  0 instructions:  592000000 cycles:  517196018 heartbeat IPC: 1.17438 cumulative IPC: 1.05411 (Simulation time: 0 hr 20 min 26 sec) 
Heartbeat CPU  0 instructions:  593000000 cycles:  518046512 heartbeat IPC: 1.17579 cumulative IPC: 1.05434 (Simulation time: 0 hr 20 min 29 sec) 
Heartbeat CPU  0 instructions:  594000003 cycles:  518893901 heartbeat IPC: 1.18010 cumulative IPC: 1.05456 (Simulation time: 0 hr 20 min 31 sec) 
Heartbeat CPU  0 instructions:  595000000 cycles:  519744038 heartbeat IPC: 1.17628 cumulative IPC: 1.05478 (Simulation time: 0 hr 20 min 33 sec) 
Heartbeat CPU  0 instructions:  596000000 cycles:  520591245 heartbeat IPC: 1.18035 cumulative IPC: 1.05501 (Simulation time: 0 hr 20 min 35 sec) 
Heartbeat CPU  0 instructions:  597000001 cycles:  521441493 heartbeat IPC: 1.17613 cumulative IPC: 1.05523 (Simulation time: 0 hr 20 min 37 sec) 
Heartbeat CPU  0 instructions:  598000002 cycles:  522303361 heartbeat IPC: 1.16027 cumulative IPC: 1.05542 (Simulation time: 0 hr 20 min 39 sec) 
Heartbeat CPU  0 instructions:  599000000 cycles:  523151257 heartbeat IPC: 1.17939 cumulative IPC: 1.05564 (Simulation time: 0 hr 20 min 41 sec) 
Heartbeat CPU  0 instructions:  600000000 cycles:  524000255 heartbeat IPC: 1.17786 cumulative IPC: 1.05586 (Simulation time: 0 hr 20 min 43 sec) 
Finished CPU 0 instructions: 500000002 cycles: 473546657 cumulative IPC: 1.05586 (Simulation time: 0 hr 20 min 43 sec) 

ChampSim completed all CPUs

[ROI Statistics]
Core_0_instructions 500000002
Core_0_cycles 473546657
Core_0_IPC 1.05586

Core_0_branch_prediction_accuracy 99.14567
Core_0_branch_MPKI 0.22121
Core_0_average_ROB_occupancy_at_mispredict 245.20042

Core_0_L1D_total_access 144508305
Core_0_L1D_total_hit 138801191
Core_0_L1D_total_miss 5707114
Core_0_L1D_loads 131503122
Core_0_L1D_load_hit 127206928
Core_0_L1D_load_miss 4296194
Core_0_L1D_RFOs 13005183
Core_0_L1D_RFO_hit 11594263
Core_0_L1D_RFO_miss 1410920
Core_0_L1D_prefetches 0
Core_0_L1D_prefetch_hit 0
Core_0_L1D_prefetch_miss 0
Core_0_L1D_writebacks 0
Core_0_L1D_writeback_hit 0
Core_0_L1D_writeback_miss 0
Core_0_L1D_prefetch_requested 0
Core_0_L1D_prefetch_dropped 0
Core_0_L1D_prefetch_issued 0
Core_0_L1D_prefetch_filled 0
Core_0_L1D_prefetch_useful 0
Core_0_L1D_prefetch_useless 0
Core_0_L1D_prefetch_late 0
Core_0_L1D_average_miss_latency 67.50841

Core_0_L1D_rq_access 194149188
Core_0_L1D_rq_forward 0
Core_0_L1D_rq_merged 61363903
Core_0_L1D_rq_to_cache 132785285
Core_0_L1D_rq_full 0

Core_0_L1D_wq_access 17666329
Core_0_L1D_wq_forward 0
Core_0_L1D_wq_merged 2612
Core_0_L1D_wq_to_cache 17663717
Core_0_L1D_wq_full 0

Core_0_L1D_pq_access 0
Core_0_L1D_pq_forward 0
Core_0_L1D_pq_merged 0
Core_0_L1D_pq_to_cache 0
Core_0_L1D_pq_full 0

Core_0_L1D_acc_epochs 505585
Core_0_L1D_acc_level_0 505585
Core_0_L1D_acc_level_1 0
Core_0_L1D_acc_level_2 0
Core_0_L1D_acc_level_3 0
Core_0_L1D_acc_level_4 0
Core_0_L1D_acc_level_5 0
Core_0_L1D_acc_level_6 0
Core_0_L1D_acc_level_7 0
Core_0_L1D_acc_level_8 0
Core_0_L1D_acc_level_9 0

Core_0_L1I_total_access 115126061
Core_0_L1I_total_hit 115125255
Core_0_L1I_total_miss 806
Core_0_L1I_loads 115126061
Core_0_L1I_load_hit 115125255
Core_0_L1I_load_miss 806
Core_0_L1I_RFOs 0
Core_0_L1I_RFO_hit 0
Core_0_L1I_RFO_miss 0
Core_0_L1I_prefetches 0
Core_0_L1I_prefetch_hit 0
Core_0_L1I_prefetch_miss 0
Core_0_L1I_writebacks 0
Core_0_L1I_writeback_hit 0
Core_0_L1I_writeback_miss 0
Core_0_L1I_prefetch_requested 0
Core_0_L1I_prefetch_dropped 0
Core_0_L1I_prefetch_issued 0
Core_0_L1I_prefetch_filled 0
Core_0_L1I_prefetch_useful 0
Core_0_L1I_prefetch_useless 0
Core_0_L1I_prefetch_late 0
Core_0_L1I_average_miss_latency 145.64764

Core_0_L1I_rq_access 500000001
Core_0_L1I_rq_forward 0
Core_0_L1I_rq_merged 384873057
Core_0_L1I_rq_to_cache 115126944
Core_0_L1I_rq_full 0

Core_0_L1I_wq_access 0
Core_0_L1I_wq_forward 0
Core_0_L1I_wq_merged 0
Core_0_L1I_wq_to_cache 0
Core_0_L1I_wq_full 0

Core_0_L1I_pq_access 0
Core_0_L1I_pq_forward 0
Core_0_L1I_pq_merged 0
Core_0_L1I_pq_to_cache 0
Core_0_L1I_pq_full 0

Core_0_L1I_acc_epochs 505585
Core_0_L1I_acc_level_0 505585
Core_0_L1I_acc_level_1 0
Core_0_L1I_acc_level_2 0
Core_0_L1I_acc_level_3 0
Core_0_L1I_acc_level_4 0
Core_0_L1I_acc_level_5 0
Core_0_L1I_acc_level_6 0
Core_0_L1I_acc_level_7 0
Core_0_L1I_acc_level_8 0
Core_0_L1I_acc_level_9 0

Core_0_L2C_total_access 11312105
Core_0_L2C_total_hit 7013469
Core_0_L2C_total_miss 4298636
Core_0_L2C_loads 4296962
Core_0_L2C_load_hit 3105516
Core_0_L2C_load_miss 1191446
Core_0_L2C_RFOs 1410606
Core_0_L2C_RFO_hit 419788
Core_0_L2C_RFO_miss 990818
Core_0_L2C_prefetches 3759133
Core_0_L2C_prefetch_hit 1644596
Core_0_L2C_prefetch_miss 2114537
Core_0_L2C_writebacks 1845404
Core_0_L2C_writeback_hit 1843569
Core_0_L2C_writeback_miss 1835
Core_0_L2C_prefetch_requested 24239853
Core_0_L2C_prefetch_dropped 23504
Core_0_L2C_prefetch_issued 24216349
Core_0_L2C_prefetch_filled 2572718
Core_0_L2C_prefetch_useful 2543285
Core_0_L2C_prefetch_useless 29410
Core_0_L2C_prefetch_late 39943
Core_0_L2C_average_miss_latency 88.17430

Core_0_L2C_rq_access 5707920
Core_0_L2C_rq_forward 0
Core_0_L2C_rq_merged 0
Core_0_L2C_rq_to_cache 5707568
Core_0_L2C_rq_full 0

Core_0_L2C_wq_access 1845404
Core_0_L2C_wq_forward 408
Core_0_L2C_wq_merged 0
Core_0_L2C_wq_to_cache 1845404
Core_0_L2C_wq_full 0

Core_0_L2C_pq_access 24216349
Core_0_L2C_pq_forward 0
Core_0_L2C_pq_merged 134194
Core_0_L2C_pq_to_cache 24082099
Core_0_L2C_pq_full 0

Core_0_L2C_acc_epochs 505585
Core_0_L2C_acc_level_0 30151
Core_0_L2C_acc_level_1 9687
Core_0_L2C_acc_level_2 10188
Core_0_L2C_acc_level_3 6812
Core_0_L2C_acc_level_4 15819
Core_0_L2C_acc_level_5 17560
Core_0_L2C_acc_level_6 12447
Core_0_L2C_acc_level_7 24560
Core_0_L2C_acc_level_8 53041
Core_0_L2C_acc_level_9 325320

Core_0_LLC_total_access 20505600
Core_0_LLC_total_hit 16236684
Core_0_LLC_total_miss 4268916
Core_0_LLC_loads 1151510
Core_0_LLC_load_hit 1064184
Core_0_LLC_load_miss 87326
Core_0_LLC_RFOs 990816
Core_0_LLC_RFO_hit 95331
Core_0_LLC_RFO_miss 895485
Core_0_LLC_prefetches 17045642
Core_0_LLC_prefetch_hit 14472294
Core_0_LLC_prefetch_miss 2573348
Core_0_LLC_writebacks 1317632
Core_0_LLC_writeback_hit 604875
Core_0_LLC_writeback_miss 712757
Core_0_LLC_prefetch_requested 0
Core_0_LLC_prefetch_dropped 0
Core_0_LLC_prefetch_issued 0
Core_0_LLC_prefetch_filled 3166355
Core_0_LLC_prefetch_useful 1089395
Core_0_LLC_prefetch_useless 2056611
Core_0_LLC_prefetch_late 4070
Core_0_LLC_average_miss_latency 186.97136

Core_0_LLC_rq_access 2142326
Core_0_LLC_rq_forward 0
Core_0_LLC_rq_merged 0
Core_0_LLC_rq_to_cache 2142326
Core_0_LLC_rq_full 0

Core_0_LLC_wq_access 1317632
Core_0_LLC_wq_forward 1
Core_0_LLC_wq_merged 0
Core_0_LLC_wq_to_cache 1317632
Core_0_LLC_wq_full 0

Core_0_LLC_pq_access 21789292
Core_0_LLC_pq_forward 0
Core_0_LLC_pq_merged 95745
Core_0_LLC_pq_to_cache 21693546
Core_0_LLC_pq_full 0

Core_0_LLC_acc_epochs 511720
Core_0_LLC_acc_level_0 67838
Core_0_LLC_acc_level_1 63852
Core_0_LLC_acc_level_2 135000
Core_0_LLC_acc_level_3 84047
Core_0_LLC_acc_level_4 42459
Core_0_LLC_acc_level_5 36569
Core_0_LLC_acc_level_6 23438
Core_0_LLC_acc_level_7 15841
Core_0_LLC_acc_level_8 10255
Core_0_LLC_acc_level_9 32421

Core_0_major_page_fault 0
Core_0_minor_page_fault 19646

spp.pref.total 24239853
spp.pref.at_L2 2889226
spp.pref.at_LLC 21350627

spp.depth.max 11
spp.depth.min 0
spp.depth.avg 5

spp.breadth.max 2
spp.breadth.min 0
spp.breadth.avg 0

delta_1 23272711
delta_16 968161
delta_-15 713866
delta_32 182888
delta_-47 181139
delta_31 49370
delta_-31 48982
delta_-30 30073
delta_15 21597
delta_-1 16386
delta_2 5970
delta_-8 3816
delta_3 3149
delta_-2 2846
delta_-16 2356
delta_4 2192
delta_-10 1516
delta_-3 1513
delta_63 1328
delta_25 1317
delta_-41 1038
delta_-45 1024
delta_-18 986
delta_46 967
delta_-5 813
delta_47 803
delta_22 796
delta_-29 748
delta_5 746
delta_57 649
delta_-43 609
delta_-6 578
delta_-9 530
delta_-32 435
delta_48 423
delta_19 420
delta_62 404
delta_-61 392
delta_-44 299
delta_35 297
delta_-38 288
delta_13 243
delta_-55 239
delta_-11 231
delta_17 213
delta_-14 203
delta_45 193
delta_-12 191
delta_29 179
delta_61 178
delta_-19 178
delta_-13 177
delta_14 176
delta_-46 172
delta_-35 141
delta_-60 132
delta_34 126
delta_-7 122
delta_8 115
delta_41 104
delta_-23 100
delta_9 99
delta_-34 94
delta_-40 82
delta_-42 79
delta_39 71
delta_-4 57
delta_-37 47
delta_10 47
delta_50 46
delta_23 45
delta_30 35
delta_42 33
delta_21 31
delta_-22 30
delta_53 18
delta_12 16
delta_-48 15
delta_6 14
delta_-51 10
delta_36 4
delta_20 4
delta_-28 2
delta_-21 1
delta_11 1

depth_1_delta_1 4360751
depth_1_delta_16 286501
depth_1_delta_-15 217404
depth_1_delta_32 52026
depth_1_delta_-47 48882
depth_1_delta_31 27636
depth_1_delta_-31 17744
depth_1_delta_-30 15287
depth_1_delta_-1 12081
depth_1_delta_15 8788
depth_1_delta_2 3886
depth_1_delta_-8 2858
depth_1_delta_3 2633
depth_1_delta_-2 2206
depth_1_delta_-16 2135
depth_1_delta_4 2062
depth_1_delta_25 1301
depth_1_delta_63 1294
depth_1_delta_-10 1274
depth_1_delta_-3 1216
depth_1_delta_-45 1016
depth_1_delta_-41 806
depth_1_delta_46 803
depth_1_delta_47 786
depth_1_delta_5 706
depth_1_delta_-29 675
depth_1_delta_-18 603
depth_1_delta_57 542
depth_1_delta_-6 535
depth_1_delta_-9 515
depth_1_delta_-5 474
depth_1_delta_-43 468
depth_1_delta_22 445
depth_1_delta_48 421
depth_1_delta_19 411
depth_1_delta_62 399
depth_1_delta_-61 332
depth_1_delta_-32 290
depth_1_delta_-44 257
depth_1_delta_-11 226
depth_1_delta_13 210
depth_1_delta_35 208
depth_1_delta_17 204
depth_1_delta_45 193
depth_1_delta_-14 187
depth_1_delta_29 179
depth_1_delta_-19 178
depth_1_delta_-38 177
depth_1_delta_-46 172
depth_1_delta_-55 171
depth_1_delta_-13 169
depth_1_delta_-12 167
depth_1_delta_61 164
depth_1_delta_14 140
depth_1_delta_-35 137
depth_1_delta_-60 132
depth_1_delta_34 126
depth_1_delta_-7 121
depth_1_delta_8 103
depth_1_delta_9 99
depth_1_delta_41 95
depth_1_delta_-34 94
depth_1_delta_-23 92
depth_1_delta_-42 77
depth_1_delta_-40 72
depth_1_delta_39 71
depth_1_delta_-4 57
depth_1_delta_-37 47
depth_1_delta_10 47
depth_1_delta_50 46
depth_1_delta_23 45
depth_1_delta_42 33
depth_1_delta_30 32
depth_1_delta_21 31
depth_1_delta_53 18
depth_1_delta_-22 18
depth_1_delta_12 16
depth_1_delta_-48 15
depth_1_delta_6 14
depth_1_delta_-51 9
depth_1_delta_36 4
depth_1_delta_20 4
depth_1_delta_-28 2
depth_1_delta_-21 1
depth_1_delta_11 1
depth_2_delta_1 4088082
depth_2_delta_16 245570
depth_2_delta_-15 181320
depth_2_delta_32 46767
depth_2_delta_-47 45380
depth_2_delta_-31 13874
depth_2_delta_31 12227
depth_2_delta_-30 9111
depth_2_delta_15 7533
depth_2_delta_-1 3451
depth_2_delta_2 2004
depth_2_delta_-8 812
depth_2_delta_-2 561
depth_2_delta_3 451
depth_2_delta_-18 379
depth_2_delta_22 349
depth_2_delta_-5 295
depth_2_delta_-3 250
depth_2_delta_-10 240
depth_2_delta_-16 219
depth_2_delta_-41 216
depth_2_delta_46 157
depth_2_delta_-32 145
depth_2_delta_-43 141
depth_2_delta_4 129
depth_2_delta_-38 111
depth_2_delta_57 92
depth_2_delta_35 89
depth_2_delta_-55 68
depth_2_delta_-29 67
depth_2_delta_-61 60
depth_2_delta_-6 43
depth_2_delta_-44 40
depth_2_delta_5 40
depth_2_delta_14 33
depth_2_delta_13 33
depth_2_delta_63 33
depth_2_delta_-12 24
depth_2_delta_47 17
depth_2_delta_25 16
depth_2_delta_-14 16
depth_2_delta_-9 15
depth_2_delta_61 14
depth_2_delta_-22 12
depth_2_delta_-40 10
depth_2_delta_8 10
depth_2_delta_19 9
depth_2_delta_17 9
depth_2_delta_41 9
depth_2_delta_-13 8
depth_2_delta_-23 8
depth_2_delta_-45 8
depth_2_delta_-11 5
depth_2_delta_62 4
depth_2_delta_-35 3
depth_2_delta_30 3
depth_2_delta_-42 2
depth_2_delta_48 2
depth_2_delta_-7 1
depth_2_delta_-51 1
depth_3_delta_1 3802299
depth_3_delta_16 199198
depth_3_delta_-15 138815
depth_3_delta_32 40300
depth_3_delta_-47 40075
depth_3_delta_-31 10139
depth_3_delta_31 6863
depth_3_delta_15 3813
depth_3_delta_-30 3759
depth_3_delta_-1 849
depth_3_delta_-8 146
depth_3_delta_-2 75
depth_3_delta_2 61
depth_3_delta_3 60
depth_3_delta_-3 47
depth_3_delta_-5 44
depth_3_delta_-41 16
depth_3_delta_57 15
depth_3_delta_46 7
depth_3_delta_-29 6
depth_3_delta_-18 4
depth_3_delta_14 3
depth_3_delta_8 2
depth_3_delta_22 2
depth_3_delta_-10 2
depth_3_delta_-44 2
depth_3_delta_-16 2
depth_3_delta_4 1
depth_3_delta_63 1
depth_3_delta_-35 1
depth_3_delta_62 1
depth_4_delta_1 3506992
depth_4_delta_16 149739
depth_4_delta_-15 105207
depth_4_delta_-47 32888
depth_4_delta_32 30220
depth_4_delta_-31 4250
depth_4_delta_31 2342
depth_4_delta_-30 1763
depth_4_delta_15 1327
depth_4_delta_2 17
depth_4_delta_-1 5
depth_4_delta_3 5
depth_4_delta_-2 4
depth_5_delta_1 2892749
depth_5_delta_16 68506
depth_5_delta_-15 54957
depth_5_delta_-47 12599
depth_5_delta_32 12280
depth_5_delta_-31 2182
depth_5_delta_31 298
depth_5_delta_-30 153
depth_5_delta_15 136
depth_5_delta_2 2
depth_6_delta_1 2000692
depth_6_delta_16 16763
depth_6_delta_-15 14097
depth_6_delta_-47 1278
depth_6_delta_32 1239
depth_6_delta_-31 741
depth_6_delta_31 4
depth_7_delta_1 1301660
depth_7_delta_-15 1808
depth_7_delta_16 1659
depth_7_delta_32 56
depth_7_delta_-31 52
depth_7_delta_-47 37
depth_8_delta_1 795077
depth_8_delta_-15 197
depth_8_delta_16 173
depth_9_delta_1 424107
depth_9_delta_-15 54
depth_9_delta_16 45
depth_10_delta_1 100121
depth_10_delta_16 7
depth_10_delta_-15 7
depth_11_delta_1 181

Channel_0_RQ_row_buffer_hit 803870
Channel_0_RQ_row_buffer_miss 2752276
Channel_0_WQ_row_buffer_hit 290347
Channel_0_WQ_row_buffer_miss 893448
Channel_0_WQ_full 128
Channel_0_dbus_congested 1139527

avg_congested_cycle 1

DRAM_bw_pochs 2046877
DRAM_bw_level_0 2044755
DRAM_bw_level_1 2072
DRAM_bw_level_2 50
DRAM_bw_level_3 0
