*************************************************
   ChampSim Multicore Out-of-Order Simulator
   Last compiled: Dec 11 2024 17:59:53
*************************************************
parsing config file: /home/functionmain/桌面/Pythia/config/mlop.ini

trace_0 /home/functionmain/桌面/Pythia/traces/437.leslie3d-232B.champsimtrace.xz
adding L2C_PREFETCHER: MLOP
Initialize SHIP state
warmup_instructions 100000000
simulation_instructions 500000000
champsim_seed 217
measure_ipc 0
measure_ipc_epoch 1000
measure_dram_bw 1
measure_dram_bw_epoch 256
measure_cache_acc 1
measure_cache_acc_epoch 1024
l1d_perfect 0
l2c_perfect 0
llc_perfect 0
l1d_semi_perfect 0
l2c_semi_perfect 0
llc_semi_perfect 0
semi_perfect_cache_page_buffer_size 64

num_cpus 1
cpu_freq 4000
dram_io_freq 150
page_size 4096
block_size 64
max_read_per_cycle 8
max_fill_per_cycle 1
dram_channels 1
log2_dram_channels 0
dram_ranks 1
dram_banks 8
dram_rows 65536
dram_columns 128
dram_row_size 8
dram_size 4096
dram_pages 1048576

fetch_width 6
decode_width 6
exec_width 4
lq_width 2
sq_width 2
retire_width 4
scheduler_size 128
branch_mispredict_penalty 20
rob_size 256
lq_size 72
sq_size 56
num_instr_destinations_sparc 4
num_instr_destinations 2
num_instr_sources 4

itlb_set 16
itlb_way 8
itlb_rq_size 16
itlb_wq_size 16
itlb_pq_size 0
itlb_mshr_size 8
itlb_latency 1

dtlb_set 16
dtlb_way 4
dtlb_rq_size 16
dtlb_wq_size 16
dtlb_pq_size 0
dtlb_mshr_size 8
dtlb_latency 1

stlb_set 128
stlb_way 12
stlb_rq_size 32
stlb_wq_size 32
stlb_pq_size 0
stlb_mshr_size 16
stlb_latency 8

l1i_size 32
l1i_set 64
l1i_way 8
l1i_rq_size 64
l1i_wq_size 64
l1i_pq_size 8
l1i_mshr_size 8
l1i_latency 1

l1d_size 32
l1d_set 64
l1d_way 8
l1d_rq_size 64
l1d_wq_size 64
l1d_pq_size 8
l1d_mshr_size 16
l1d_latency 4

l2c_size 256
l2c_set 512
l2c_way 8
l2c_rq_size 32
l2c_wq_size 32
l2c_pq_size 32
l2c_mshr_size 32
l2c_latency 10

llc_size 2048
llc_set 2048
llc_way 16
llc_rq_size 32
llc_wq_size 32
llc_pq_size 32
llc_mshr_size 64
llc_latency 20

dram_channel_width 8
dram_wq_size 64
dram_rq_size 64
tRP 15
tRCD 15
tCAS 12.5
dram_dbus_turn_around_time 30
dram_write_high_wm 56
dram_write_low_wm 48
min_dram_writes_per_switch 16
dram_mtps 150
dram_dbus_return_time 213

mlop_pref_degree 16
mlop_num_updates 500
mlop_l1d_thresh 2
mlop_l2c_thresh 0.75
mlop_llc_thresh 0.3
mlop_debug_level 0
mlop_blocks_in_cache 4096
mlop_blocks_in_zone 64
mlop_amt_size 2048
mlop_PF_DEGREE 16
mlop_NUM_UPDATES 500
mlop_L1D_THRESH 1000
mlop_L2C_THRESH 375
mlop_LLC_THRESH 150
mlop_ORIGIN 63
mlop_MAX_OFFSET 63
mlop_MIN_OFFSET -63
mlop_ORIGIN 63
mlop_NUM_OFFSETS 127


Heartbeat CPU  0 instructions:    1000000 cycles:     488288 heartbeat IPC: 2.04797 cumulative IPC: 2.04797 (Simulation time: 0 hr 0 min 2 sec) 
Heartbeat CPU  0 instructions:    2000001 cycles:     996675 heartbeat IPC: 1.96701 cumulative IPC: 2.00667 (Simulation time: 0 hr 0 min 4 sec) 
Heartbeat CPU  0 instructions:    3000003 cycles:    1556166 heartbeat IPC: 1.78734 cumulative IPC: 1.92782 (Simulation time: 0 hr 0 min 5 sec) 
Heartbeat CPU  0 instructions:    4000000 cycles:    2081042 heartbeat IPC: 1.90521 cumulative IPC: 1.92211 (Simulation time: 0 hr 0 min 7 sec) 
Heartbeat CPU  0 instructions:    5000002 cycles:    2569271 heartbeat IPC: 2.04822 cumulative IPC: 1.94608 (Simulation time: 0 hr 0 min 9 sec) 
Heartbeat CPU  0 instructions:    6000003 cycles:    3056921 heartbeat IPC: 2.05065 cumulative IPC: 1.96276 (Simulation time: 0 hr 0 min 11 sec) 
Heartbeat CPU  0 instructions:    7000001 cycles:    3544966 heartbeat IPC: 2.04899 cumulative IPC: 1.97463 (Simulation time: 0 hr 0 min 13 sec) 
Heartbeat CPU  0 instructions:    8000000 cycles:    4033134 heartbeat IPC: 2.04847 cumulative IPC: 1.98357 (Simulation time: 0 hr 0 min 15 sec) 
Heartbeat CPU  0 instructions:    9000000 cycles:    4521746 heartbeat IPC: 2.04661 cumulative IPC: 1.99038 (Simulation time: 0 hr 0 min 17 sec) 
Heartbeat CPU  0 instructions:   10000003 cycles:    5010483 heartbeat IPC: 2.04610 cumulative IPC: 1.99582 (Simulation time: 0 hr 0 min 19 sec) 
Heartbeat CPU  0 instructions:   11000000 cycles:    5499319 heartbeat IPC: 2.04567 cumulative IPC: 2.00025 (Simulation time: 0 hr 0 min 20 sec) 
Heartbeat CPU  0 instructions:   12000000 cycles:    5987802 heartbeat IPC: 2.04715 cumulative IPC: 2.00407 (Simulation time: 0 hr 0 min 22 sec) 
Heartbeat CPU  0 instructions:   13000001 cycles:    6534669 heartbeat IPC: 1.82860 cumulative IPC: 1.98939 (Simulation time: 0 hr 0 min 24 sec) 
Heartbeat CPU  0 instructions:   14000001 cycles:    7090455 heartbeat IPC: 1.79925 cumulative IPC: 1.97449 (Simulation time: 0 hr 0 min 26 sec) 
Heartbeat CPU  0 instructions:   15000000 cycles:    7578702 heartbeat IPC: 2.04814 cumulative IPC: 1.97923 (Simulation time: 0 hr 0 min 28 sec) 
Heartbeat CPU  0 instructions:   16000000 cycles:    8067029 heartbeat IPC: 2.04781 cumulative IPC: 1.98338 (Simulation time: 0 hr 0 min 30 sec) 
Heartbeat CPU  0 instructions:   17000003 cycles:    8555367 heartbeat IPC: 2.04777 cumulative IPC: 1.98706 (Simulation time: 0 hr 0 min 32 sec) 
Heartbeat CPU  0 instructions:   18000003 cycles:    9043730 heartbeat IPC: 2.04766 cumulative IPC: 1.99033 (Simulation time: 0 hr 0 min 34 sec) 
Heartbeat CPU  0 instructions:   19000001 cycles:    9532157 heartbeat IPC: 2.04738 cumulative IPC: 1.99325 (Simulation time: 0 hr 0 min 35 sec) 
Heartbeat CPU  0 instructions:   20000000 cycles:   10021110 heartbeat IPC: 2.04518 cumulative IPC: 1.99579 (Simulation time: 0 hr 0 min 37 sec) 
Heartbeat CPU  0 instructions:   21000000 cycles:   10510101 heartbeat IPC: 2.04503 cumulative IPC: 1.99808 (Simulation time: 0 hr 0 min 39 sec) 
Heartbeat CPU  0 instructions:   22000002 cycles:   10998530 heartbeat IPC: 2.04738 cumulative IPC: 2.00027 (Simulation time: 0 hr 0 min 41 sec) 
Heartbeat CPU  0 instructions:   23000002 cycles:   11513857 heartbeat IPC: 1.94052 cumulative IPC: 1.99759 (Simulation time: 0 hr 0 min 43 sec) 
Heartbeat CPU  0 instructions:   24000000 cycles:   12072931 heartbeat IPC: 1.78867 cumulative IPC: 1.98792 (Simulation time: 0 hr 0 min 45 sec) 
Heartbeat CPU  0 instructions:   25000001 cycles:   12588700 heartbeat IPC: 1.93885 cumulative IPC: 1.98591 (Simulation time: 0 hr 0 min 47 sec) 
Heartbeat CPU  0 instructions:   26000001 cycles:   13077393 heartbeat IPC: 2.04627 cumulative IPC: 1.98816 (Simulation time: 0 hr 0 min 49 sec) 
Heartbeat CPU  0 instructions:   27000000 cycles:   13565970 heartbeat IPC: 2.04676 cumulative IPC: 1.99027 (Simulation time: 0 hr 0 min 50 sec) 
Heartbeat CPU  0 instructions:   28000000 cycles:   14054882 heartbeat IPC: 2.04536 cumulative IPC: 1.99219 (Simulation time: 0 hr 0 min 52 sec) 
Heartbeat CPU  0 instructions:   29000002 cycles:   14543481 heartbeat IPC: 2.04667 cumulative IPC: 1.99402 (Simulation time: 0 hr 0 min 54 sec) 
Heartbeat CPU  0 instructions:   30000001 cycles:   15032337 heartbeat IPC: 2.04559 cumulative IPC: 1.99570 (Simulation time: 0 hr 0 min 56 sec) 
Heartbeat CPU  0 instructions:   31000001 cycles:   15520436 heartbeat IPC: 2.04876 cumulative IPC: 1.99737 (Simulation time: 0 hr 0 min 58 sec) 
Heartbeat CPU  0 instructions:   32000000 cycles:   16008621 heartbeat IPC: 2.04840 cumulative IPC: 1.99892 (Simulation time: 0 hr 1 min 0 sec) 
Heartbeat CPU  0 instructions:   33000002 cycles:   16496942 heartbeat IPC: 2.04784 cumulative IPC: 2.00037 (Simulation time: 0 hr 1 min 2 sec) 
Heartbeat CPU  0 instructions:   34000001 cycles:   17052146 heartbeat IPC: 1.80114 cumulative IPC: 1.99388 (Simulation time: 0 hr 1 min 4 sec) 
Heartbeat CPU  0 instructions:   35000001 cycles:   17599029 heartbeat IPC: 1.82854 cumulative IPC: 1.98875 (Simulation time: 0 hr 1 min 5 sec) 
Heartbeat CPU  0 instructions:   36000000 cycles:   18087444 heartbeat IPC: 2.04744 cumulative IPC: 1.99033 (Simulation time: 0 hr 1 min 7 sec) 
Heartbeat CPU  0 instructions:   37000003 cycles:   18576545 heartbeat IPC: 2.04457 cumulative IPC: 1.99176 (Simulation time: 0 hr 1 min 9 sec) 
Heartbeat CPU  0 instructions:   38000001 cycles:   19065292 heartbeat IPC: 2.04604 cumulative IPC: 1.99315 (Simulation time: 0 hr 1 min 11 sec) 
Heartbeat CPU  0 instructions:   39000002 cycles:   19553964 heartbeat IPC: 2.04636 cumulative IPC: 1.99448 (Simulation time: 0 hr 1 min 13 sec) 
Heartbeat CPU  0 instructions:   40000000 cycles:   20041919 heartbeat IPC: 2.04937 cumulative IPC: 1.99582 (Simulation time: 0 hr 1 min 15 sec) 
Heartbeat CPU  0 instructions:   41000001 cycles:   20529862 heartbeat IPC: 2.04942 cumulative IPC: 1.99709 (Simulation time: 0 hr 1 min 17 sec) 
Heartbeat CPU  0 instructions:   42000001 cycles:   21018077 heartbeat IPC: 2.04828 cumulative IPC: 1.99828 (Simulation time: 0 hr 1 min 19 sec) 
Heartbeat CPU  0 instructions:   43000001 cycles:   21506646 heartbeat IPC: 2.04679 cumulative IPC: 1.99938 (Simulation time: 0 hr 1 min 20 sec) 
Heartbeat CPU  0 instructions:   44000000 cycles:   22030835 heartbeat IPC: 1.90771 cumulative IPC: 1.99720 (Simulation time: 0 hr 1 min 22 sec) 
Heartbeat CPU  0 instructions:   45000000 cycles:   22590424 heartbeat IPC: 1.78703 cumulative IPC: 1.99199 (Simulation time: 0 hr 1 min 24 sec) 
Heartbeat CPU  0 instructions:   46000002 cycles:   23098703 heartbeat IPC: 1.96743 cumulative IPC: 1.99145 (Simulation time: 0 hr 1 min 26 sec) 
Heartbeat CPU  0 instructions:   47000002 cycles:   23587404 heartbeat IPC: 2.04624 cumulative IPC: 1.99259 (Simulation time: 0 hr 1 min 28 sec) 
Heartbeat CPU  0 instructions:   48000000 cycles:   24075591 heartbeat IPC: 2.04839 cumulative IPC: 1.99372 (Simulation time: 0 hr 1 min 30 sec) 
Heartbeat CPU  0 instructions:   49000002 cycles:   24563697 heartbeat IPC: 2.04874 cumulative IPC: 1.99481 (Simulation time: 0 hr 1 min 32 sec) 
Heartbeat CPU  0 instructions:   50000000 cycles:   25052135 heartbeat IPC: 2.04734 cumulative IPC: 1.99584 (Simulation time: 0 hr 1 min 34 sec) 
Heartbeat CPU  0 instructions:   51000002 cycles:   25540405 heartbeat IPC: 2.04805 cumulative IPC: 1.99684 (Simulation time: 0 hr 1 min 36 sec) 
Heartbeat CPU  0 instructions:   52000000 cycles:   26028872 heartbeat IPC: 2.04722 cumulative IPC: 1.99778 (Simulation time: 0 hr 1 min 37 sec) 
Heartbeat CPU  0 instructions:   53000000 cycles:   26517202 heartbeat IPC: 2.04780 cumulative IPC: 1.99870 (Simulation time: 0 hr 1 min 39 sec) 
Heartbeat CPU  0 instructions:   54000000 cycles:   27009857 heartbeat IPC: 2.02982 cumulative IPC: 1.99927 (Simulation time: 0 hr 1 min 41 sec) 
Heartbeat CPU  0 instructions:   55000002 cycles:   27568986 heartbeat IPC: 1.78850 cumulative IPC: 1.99500 (Simulation time: 0 hr 1 min 43 sec) 
Heartbeat CPU  0 instructions:   56000000 cycles:   28109398 heartbeat IPC: 1.85044 cumulative IPC: 1.99222 (Simulation time: 0 hr 1 min 45 sec) 
Heartbeat CPU  0 instructions:   57000000 cycles:   28597440 heartbeat IPC: 2.04900 cumulative IPC: 1.99319 (Simulation time: 0 hr 1 min 47 sec) 
Heartbeat CPU  0 instructions:   58000003 cycles:   29085336 heartbeat IPC: 2.04962 cumulative IPC: 1.99413 (Simulation time: 0 hr 1 min 49 sec) 
Heartbeat CPU  0 instructions:   59000001 cycles:   29573424 heartbeat IPC: 2.04881 cumulative IPC: 1.99503 (Simulation time: 0 hr 1 min 51 sec) 
Heartbeat CPU  0 instructions:   60000000 cycles:   30061851 heartbeat IPC: 2.04739 cumulative IPC: 1.99589 (Simulation time: 0 hr 1 min 52 sec) 
Heartbeat CPU  0 instructions:   61000000 cycles:   30550475 heartbeat IPC: 2.04656 cumulative IPC: 1.99670 (Simulation time: 0 hr 1 min 54 sec) 
Heartbeat CPU  0 instructions:   62000000 cycles:   31039387 heartbeat IPC: 2.04536 cumulative IPC: 1.99746 (Simulation time: 0 hr 1 min 56 sec) 
Heartbeat CPU  0 instructions:   63000002 cycles:   31528021 heartbeat IPC: 2.04653 cumulative IPC: 1.99822 (Simulation time: 0 hr 1 min 58 sec) 
Heartbeat CPU  0 instructions:   64000000 cycles:   32016574 heartbeat IPC: 2.04686 cumulative IPC: 1.99896 (Simulation time: 0 hr 2 min 0 sec) 
Heartbeat CPU  0 instructions:   65000000 cycles:   32547689 heartbeat IPC: 1.88283 cumulative IPC: 1.99707 (Simulation time: 0 hr 2 min 2 sec) 
Heartbeat CPU  0 instructions:   66000001 cycles:   33106838 heartbeat IPC: 1.78843 cumulative IPC: 1.99355 (Simulation time: 0 hr 2 min 4 sec) 
Heartbeat CPU  0 instructions:   67000000 cycles:   33607087 heartbeat IPC: 1.99900 cumulative IPC: 1.99363 (Simulation time: 0 hr 2 min 6 sec) 
Heartbeat CPU  0 instructions:   68000000 cycles:   34095388 heartbeat IPC: 2.04792 cumulative IPC: 1.99440 (Simulation time: 0 hr 2 min 7 sec) 
Heartbeat CPU  0 instructions:   69000001 cycles:   34583956 heartbeat IPC: 2.04680 cumulative IPC: 1.99514 (Simulation time: 0 hr 2 min 9 sec) 
Heartbeat CPU  0 instructions:   70000001 cycles:   35072161 heartbeat IPC: 2.04832 cumulative IPC: 1.99589 (Simulation time: 0 hr 2 min 11 sec) 
Heartbeat CPU  0 instructions:   71000003 cycles:   35561014 heartbeat IPC: 2.04561 cumulative IPC: 1.99657 (Simulation time: 0 hr 2 min 13 sec) 
Heartbeat CPU  0 instructions:   72000000 cycles:   36049936 heartbeat IPC: 2.04531 cumulative IPC: 1.99723 (Simulation time: 0 hr 2 min 15 sec) 
Heartbeat CPU  0 instructions:   73000001 cycles:   36538848 heartbeat IPC: 2.04536 cumulative IPC: 1.99787 (Simulation time: 0 hr 2 min 17 sec) 
Heartbeat CPU  0 instructions:   74000000 cycles:   37026981 heartbeat IPC: 2.04862 cumulative IPC: 1.99854 (Simulation time: 0 hr 2 min 19 sec) 
Heartbeat CPU  0 instructions:   75000001 cycles:   37526740 heartbeat IPC: 2.00097 cumulative IPC: 1.99857 (Simulation time: 0 hr 2 min 21 sec) 
Heartbeat CPU  0 instructions:   76000000 cycles:   38085864 heartbeat IPC: 1.78851 cumulative IPC: 1.99549 (Simulation time: 0 hr 2 min 22 sec) 
Heartbeat CPU  0 instructions:   77000002 cycles:   38616954 heartbeat IPC: 1.88292 cumulative IPC: 1.99394 (Simulation time: 0 hr 2 min 24 sec) 
Heartbeat CPU  0 instructions:   78000001 cycles:   39105449 heartbeat IPC: 2.04710 cumulative IPC: 1.99461 (Simulation time: 0 hr 2 min 26 sec) 
Heartbeat CPU  0 instructions:   79000001 cycles:   39594385 heartbeat IPC: 2.04526 cumulative IPC: 1.99523 (Simulation time: 0 hr 2 min 28 sec) 
Heartbeat CPU  0 instructions:   80000000 cycles:   40083053 heartbeat IPC: 2.04638 cumulative IPC: 1.99586 (Simulation time: 0 hr 2 min 30 sec) 
Heartbeat CPU  0 instructions:   81000003 cycles:   40571885 heartbeat IPC: 2.04570 cumulative IPC: 1.99646 (Simulation time: 0 hr 2 min 32 sec) 
Heartbeat CPU  0 instructions:   82000001 cycles:   41060215 heartbeat IPC: 2.04779 cumulative IPC: 1.99707 (Simulation time: 0 hr 2 min 34 sec) 
Heartbeat CPU  0 instructions:   83000000 cycles:   41548314 heartbeat IPC: 2.04876 cumulative IPC: 1.99767 (Simulation time: 0 hr 2 min 36 sec) 
Heartbeat CPU  0 instructions:   84000000 cycles:   42036496 heartbeat IPC: 2.04842 cumulative IPC: 1.99826 (Simulation time: 0 hr 2 min 38 sec) 
Heartbeat CPU  0 instructions:   85000002 cycles:   42524882 heartbeat IPC: 2.04756 cumulative IPC: 1.99883 (Simulation time: 0 hr 2 min 39 sec) 
Heartbeat CPU  0 instructions:   86000000 cycles:   43065366 heartbeat IPC: 1.85019 cumulative IPC: 1.99696 (Simulation time: 0 hr 2 min 41 sec) 
Heartbeat CPU  0 instructions:   87000002 cycles:   43624648 heartbeat IPC: 1.78801 cumulative IPC: 1.99429 (Simulation time: 0 hr 2 min 43 sec) 
Heartbeat CPU  0 instructions:   88000000 cycles:   44136235 heartbeat IPC: 1.95470 cumulative IPC: 1.99383 (Simulation time: 0 hr 2 min 45 sec) 
Heartbeat CPU  0 instructions:   89000002 cycles:   44663721 heartbeat IPC: 1.89579 cumulative IPC: 1.99267 (Simulation time: 0 hr 2 min 47 sec) 
Heartbeat CPU  0 instructions:   90000002 cycles:   45190620 heartbeat IPC: 1.89790 cumulative IPC: 1.99156 (Simulation time: 0 hr 2 min 49 sec) 
Heartbeat CPU  0 instructions:   91000003 cycles:   45718002 heartbeat IPC: 1.89616 cumulative IPC: 1.99046 (Simulation time: 0 hr 2 min 51 sec) 
Heartbeat CPU  0 instructions:   92000000 cycles:   46244778 heartbeat IPC: 1.89833 cumulative IPC: 1.98941 (Simulation time: 0 hr 2 min 53 sec) 
Heartbeat CPU  0 instructions:   93000001 cycles:   46771862 heartbeat IPC: 1.89723 cumulative IPC: 1.98837 (Simulation time: 0 hr 2 min 55 sec) 
Heartbeat CPU  0 instructions:   94000003 cycles:   47300151 heartbeat IPC: 1.89291 cumulative IPC: 1.98731 (Simulation time: 0 hr 2 min 56 sec) 
Heartbeat CPU  0 instructions:   95000001 cycles:   47827281 heartbeat IPC: 1.89706 cumulative IPC: 1.98631 (Simulation time: 0 hr 2 min 58 sec) 
Heartbeat CPU  0 instructions:   96000000 cycles:   48354384 heartbeat IPC: 1.89716 cumulative IPC: 1.98534 (Simulation time: 0 hr 3 min 0 sec) 
Heartbeat CPU  0 instructions:   97000003 cycles:   48882507 heartbeat IPC: 1.89350 cumulative IPC: 1.98435 (Simulation time: 0 hr 3 min 2 sec) 
Heartbeat CPU  0 instructions:   98000002 cycles:   49409033 heartbeat IPC: 1.89924 cumulative IPC: 1.98344 (Simulation time: 0 hr 3 min 4 sec) 
Heartbeat CPU  0 instructions:   99000002 cycles:   49935817 heartbeat IPC: 1.89831 cumulative IPC: 1.98254 (Simulation time: 0 hr 3 min 6 sec) 
Heartbeat CPU  0 instructions:  100000000 cycles:   50463074 heartbeat IPC: 1.89660 cumulative IPC: 1.98165 (Simulation time: 0 hr 3 min 8 sec) 

Warmup complete CPU  0 instructions:  100000001 cycles:   50463075 (Simulation time: 0 hr 3 min 8 sec) 

Heartbeat CPU  0 instructions:  101000002 cycles:   52279056 heartbeat IPC: 0.55067 cumulative IPC: 0.55067 (Simulation time: 0 hr 3 min 11 sec) 
Heartbeat CPU  0 instructions:  102000002 cycles:   54110492 heartbeat IPC: 0.54602 cumulative IPC: 0.54833 (Simulation time: 0 hr 3 min 14 sec) 
Heartbeat CPU  0 instructions:  103000000 cycles:   55771521 heartbeat IPC: 0.60204 cumulative IPC: 0.56514 (Simulation time: 0 hr 3 min 16 sec) 
Heartbeat CPU  0 instructions:  104000000 cycles:   57622395 heartbeat IPC: 0.54029 cumulative IPC: 0.55871 (Simulation time: 0 hr 3 min 19 sec) 
Heartbeat CPU  0 instructions:  105000002 cycles:   59362972 heartbeat IPC: 0.57452 cumulative IPC: 0.56180 (Simulation time: 0 hr 3 min 22 sec) 
Heartbeat CPU  0 instructions:  106000000 cycles:   61214065 heartbeat IPC: 0.54022 cumulative IPC: 0.55809 (Simulation time: 0 hr 3 min 25 sec) 
Heartbeat CPU  0 instructions:  107000003 cycles:   63072222 heartbeat IPC: 0.53817 cumulative IPC: 0.55515 (Simulation time: 0 hr 3 min 28 sec) 
Heartbeat CPU  0 instructions:  108000000 cycles:   64835702 heartbeat IPC: 0.56706 cumulative IPC: 0.55661 (Simulation time: 0 hr 3 min 31 sec) 
Heartbeat CPU  0 instructions:  109000002 cycles:   67675459 heartbeat IPC: 0.35214 cumulative IPC: 0.52288 (Simulation time: 0 hr 3 min 34 sec) 
Heartbeat CPU  0 instructions:  110000000 cycles:   69422189 heartbeat IPC: 0.57250 cumulative IPC: 0.52745 (Simulation time: 0 hr 3 min 37 sec) 
Heartbeat CPU  0 instructions:  111000000 cycles:   70970925 heartbeat IPC: 0.64569 cumulative IPC: 0.53638 (Simulation time: 0 hr 3 min 40 sec) 
Heartbeat CPU  0 instructions:  112000000 cycles:   72562698 heartbeat IPC: 0.62823 cumulative IPC: 0.54300 (Simulation time: 0 hr 3 min 43 sec) 
Heartbeat CPU  0 instructions:  113000001 cycles:   74113645 heartbeat IPC: 0.64477 cumulative IPC: 0.54967 (Simulation time: 0 hr 3 min 45 sec) 
Heartbeat CPU  0 instructions:  114000002 cycles:   75878525 heartbeat IPC: 0.56661 cumulative IPC: 0.55085 (Simulation time: 0 hr 3 min 48 sec) 
Heartbeat CPU  0 instructions:  115000001 cycles:   77588025 heartbeat IPC: 0.58497 cumulative IPC: 0.55300 (Simulation time: 0 hr 3 min 51 sec) 
Heartbeat CPU  0 instructions:  116000000 cycles:   79415591 heartbeat IPC: 0.54718 cumulative IPC: 0.55263 (Simulation time: 0 hr 3 min 54 sec) 
Heartbeat CPU  0 instructions:  117000003 cycles:   81293464 heartbeat IPC: 0.53252 cumulative IPC: 0.55140 (Simulation time: 0 hr 3 min 57 sec) 
Heartbeat CPU  0 instructions:  118000000 cycles:   83216304 heartbeat IPC: 0.52006 cumulative IPC: 0.54956 (Simulation time: 0 hr 4 min 0 sec) 
Heartbeat CPU  0 instructions:  119000002 cycles:   85858650 heartbeat IPC: 0.37845 cumulative IPC: 0.53679 (Simulation time: 0 hr 4 min 3 sec) 
Heartbeat CPU  0 instructions:  120000000 cycles:   88045849 heartbeat IPC: 0.45720 cumulative IPC: 0.53216 (Simulation time: 0 hr 4 min 6 sec) 
Heartbeat CPU  0 instructions:  121000003 cycles:   89585198 heartbeat IPC: 0.64963 cumulative IPC: 0.53678 (Simulation time: 0 hr 4 min 9 sec) 
Heartbeat CPU  0 instructions:  122000003 cycles:   91219143 heartbeat IPC: 0.61202 cumulative IPC: 0.53980 (Simulation time: 0 hr 4 min 12 sec) 
Heartbeat CPU  0 instructions:  123000000 cycles:   92818049 heartbeat IPC: 0.62543 cumulative IPC: 0.54303 (Simulation time: 0 hr 4 min 14 sec) 
Heartbeat CPU  0 instructions:  124000000 cycles:   94676997 heartbeat IPC: 0.53794 cumulative IPC: 0.54282 (Simulation time: 0 hr 4 min 17 sec) 
Heartbeat CPU  0 instructions:  125000003 cycles:   96552174 heartbeat IPC: 0.53328 cumulative IPC: 0.54243 (Simulation time: 0 hr 4 min 20 sec) 
Heartbeat CPU  0 instructions:  126000000 cycles:   98274018 heartbeat IPC: 0.58077 cumulative IPC: 0.54381 (Simulation time: 0 hr 4 min 23 sec) 
Heartbeat CPU  0 instructions:  127000000 cycles:  100098364 heartbeat IPC: 0.54814 cumulative IPC: 0.54397 (Simulation time: 0 hr 4 min 26 sec) 
Heartbeat CPU  0 instructions:  128000000 cycles:  101940411 heartbeat IPC: 0.54287 cumulative IPC: 0.54393 (Simulation time: 0 hr 4 min 29 sec) 
Heartbeat CPU  0 instructions:  129000002 cycles:  103852805 heartbeat IPC: 0.52291 cumulative IPC: 0.54318 (Simulation time: 0 hr 4 min 31 sec) 
Heartbeat CPU  0 instructions:  130000001 cycles:  106766927 heartbeat IPC: 0.34316 cumulative IPC: 0.53282 (Simulation time: 0 hr 4 min 35 sec) 
Heartbeat CPU  0 instructions:  131000002 cycles:  108421447 heartbeat IPC: 0.60441 cumulative IPC: 0.53487 (Simulation time: 0 hr 4 min 38 sec) 
Heartbeat CPU  0 instructions:  132000000 cycles:  110139531 heartbeat IPC: 0.58204 cumulative IPC: 0.53622 (Simulation time: 0 hr 4 min 41 sec) 
Heartbeat CPU  0 instructions:  133000000 cycles:  112386900 heartbeat IPC: 0.44496 cumulative IPC: 0.53291 (Simulation time: 0 hr 4 min 44 sec) 
Heartbeat CPU  0 instructions:  134000001 cycles:  114080999 heartbeat IPC: 0.59028 cumulative IPC: 0.53444 (Simulation time: 0 hr 4 min 46 sec) 
Heartbeat CPU  0 instructions:  135000002 cycles:  115836010 heartbeat IPC: 0.56980 cumulative IPC: 0.53539 (Simulation time: 0 hr 4 min 49 sec) 
Heartbeat CPU  0 instructions:  136000000 cycles:  117612663 heartbeat IPC: 0.56286 cumulative IPC: 0.53612 (Simulation time: 0 hr 4 min 52 sec) 
Heartbeat CPU  0 instructions:  137000001 cycles:  119320237 heartbeat IPC: 0.58563 cumulative IPC: 0.53734 (Simulation time: 0 hr 4 min 55 sec) 
Heartbeat CPU  0 instructions:  138000003 cycles:  121115312 heartbeat IPC: 0.55708 cumulative IPC: 0.53785 (Simulation time: 0 hr 4 min 58 sec) 
Heartbeat CPU  0 instructions:  139000000 cycles:  122941496 heartbeat IPC: 0.54759 cumulative IPC: 0.53809 (Simulation time: 0 hr 5 min 1 sec) 
Heartbeat CPU  0 instructions:  140000000 cycles:  125968574 heartbeat IPC: 0.33035 cumulative IPC: 0.52976 (Simulation time: 0 hr 5 min 4 sec) 
Heartbeat CPU  0 instructions:  141000001 cycles:  129472322 heartbeat IPC: 0.28541 cumulative IPC: 0.51893 (Simulation time: 0 hr 5 min 8 sec) 
Heartbeat CPU  0 instructions:  142000001 cycles:  132481088 heartbeat IPC: 0.33236 cumulative IPC: 0.51208 (Simulation time: 0 hr 5 min 11 sec) 
Heartbeat CPU  0 instructions:  143000000 cycles:  135181510 heartbeat IPC: 0.37031 cumulative IPC: 0.50756 (Simulation time: 0 hr 5 min 14 sec) 
Heartbeat CPU  0 instructions:  144000000 cycles:  137947059 heartbeat IPC: 0.36159 cumulative IPC: 0.50295 (Simulation time: 0 hr 5 min 17 sec) 
Heartbeat CPU  0 instructions:  145000001 cycles:  140720799 heartbeat IPC: 0.36052 cumulative IPC: 0.49857 (Simulation time: 0 hr 5 min 20 sec) 
Heartbeat CPU  0 instructions:  146000001 cycles:  143467946 heartbeat IPC: 0.36401 cumulative IPC: 0.49460 (Simulation time: 0 hr 5 min 24 sec) 
Heartbeat CPU  0 instructions:  147000002 cycles:  146387002 heartbeat IPC: 0.34258 cumulative IPC: 0.48997 (Simulation time: 0 hr 5 min 27 sec) 
Heartbeat CPU  0 instructions:  148000000 cycles:  149639366 heartbeat IPC: 0.30747 cumulative IPC: 0.48399 (Simulation time: 0 hr 5 min 30 sec) 
Heartbeat CPU  0 instructions:  149000000 cycles:  152996756 heartbeat IPC: 0.29785 cumulative IPC: 0.47789 (Simulation time: 0 hr 5 min 33 sec) 
Heartbeat CPU  0 instructions:  150000001 cycles:  156172330 heartbeat IPC: 0.31490 cumulative IPC: 0.47300 (Simulation time: 0 hr 5 min 37 sec) 
Heartbeat CPU  0 instructions:  151000002 cycles:  159618203 heartbeat IPC: 0.29020 cumulative IPC: 0.46722 (Simulation time: 0 hr 5 min 40 sec) 
Heartbeat CPU  0 instructions:  152000000 cycles:  162912484 heartbeat IPC: 0.30356 cumulative IPC: 0.46243 (Simulation time: 0 hr 5 min 43 sec) 
Heartbeat CPU  0 instructions:  153000002 cycles:  166239723 heartbeat IPC: 0.30055 cumulative IPC: 0.45778 (Simulation time: 0 hr 5 min 46 sec) 
Heartbeat CPU  0 instructions:  154000000 cycles:  169441768 heartbeat IPC: 0.31230 cumulative IPC: 0.45386 (Simulation time: 0 hr 5 min 50 sec) 
Heartbeat CPU  0 instructions:  155000003 cycles:  173045962 heartbeat IPC: 0.27746 cumulative IPC: 0.44868 (Simulation time: 0 hr 5 min 53 sec) 
Heartbeat CPU  0 instructions:  156000000 cycles:  176756880 heartbeat IPC: 0.26947 cumulative IPC: 0.44341 (Simulation time: 0 hr 5 min 56 sec) 
Heartbeat CPU  0 instructions:  157000003 cycles:  180055434 heartbeat IPC: 0.30316 cumulative IPC: 0.43984 (Simulation time: 0 hr 6 min 0 sec) 
Heartbeat CPU  0 instructions:  158000003 cycles:  183661145 heartbeat IPC: 0.27734 cumulative IPC: 0.43544 (Simulation time: 0 hr 6 min 3 sec) 
Heartbeat CPU  0 instructions:  159000003 cycles:  187151751 heartbeat IPC: 0.28648 cumulative IPC: 0.43164 (Simulation time: 0 hr 6 min 7 sec) 
Heartbeat CPU  0 instructions:  160000000 cycles:  190661933 heartbeat IPC: 0.28488 cumulative IPC: 0.42796 (Simulation time: 0 hr 6 min 10 sec) 
Heartbeat CPU  0 instructions:  161000001 cycles:  193901952 heartbeat IPC: 0.30864 cumulative IPC: 0.42527 (Simulation time: 0 hr 6 min 13 sec) 
Heartbeat CPU  0 instructions:  162000001 cycles:  197049153 heartbeat IPC: 0.31774 cumulative IPC: 0.42296 (Simulation time: 0 hr 6 min 17 sec) 
Heartbeat CPU  0 instructions:  163000002 cycles:  199743394 heartbeat IPC: 0.37116 cumulative IPC: 0.42202 (Simulation time: 0 hr 6 min 20 sec) 
Heartbeat CPU  0 instructions:  164000000 cycles:  202455581 heartbeat IPC: 0.36871 cumulative IPC: 0.42107 (Simulation time: 0 hr 6 min 23 sec) 
Heartbeat CPU  0 instructions:  165000000 cycles:  205144819 heartbeat IPC: 0.37185 cumulative IPC: 0.42022 (Simulation time: 0 hr 6 min 27 sec) 
Heartbeat CPU  0 instructions:  166000002 cycles:  207885827 heartbeat IPC: 0.36483 cumulative IPC: 0.41925 (Simulation time: 0 hr 6 min 30 sec) 
Heartbeat CPU  0 instructions:  167000002 cycles:  210578228 heartbeat IPC: 0.37142 cumulative IPC: 0.41845 (Simulation time: 0 hr 6 min 34 sec) 
Heartbeat CPU  0 instructions:  168000000 cycles:  213198818 heartbeat IPC: 0.38159 cumulative IPC: 0.41786 (Simulation time: 0 hr 6 min 37 sec) 
Heartbeat CPU  0 instructions:  169000002 cycles:  215723618 heartbeat IPC: 0.39607 cumulative IPC: 0.41752 (Simulation time: 0 hr 6 min 40 sec) 
Heartbeat CPU  0 instructions:  170000002 cycles:  218254773 heartbeat IPC: 0.39508 cumulative IPC: 0.41718 (Simulation time: 0 hr 6 min 44 sec) 
Heartbeat CPU  0 instructions:  171000003 cycles:  220841057 heartbeat IPC: 0.38666 cumulative IPC: 0.41672 (Simulation time: 0 hr 6 min 47 sec) 
Heartbeat CPU  0 instructions:  172000000 cycles:  223394810 heartbeat IPC: 0.39158 cumulative IPC: 0.41635 (Simulation time: 0 hr 6 min 50 sec) 
Heartbeat CPU  0 instructions:  173000003 cycles:  225987629 heartbeat IPC: 0.38568 cumulative IPC: 0.41590 (Simulation time: 0 hr 6 min 54 sec) 
Heartbeat CPU  0 instructions:  174000000 cycles:  228448315 heartbeat IPC: 0.40639 cumulative IPC: 0.41576 (Simulation time: 0 hr 6 min 57 sec) 
Heartbeat CPU  0 instructions:  175000000 cycles:  230965324 heartbeat IPC: 0.39730 cumulative IPC: 0.41551 (Simulation time: 0 hr 7 min 0 sec) 
Heartbeat CPU  0 instructions:  176000000 cycles:  233570468 heartbeat IPC: 0.38386 cumulative IPC: 0.41506 (Simulation time: 0 hr 7 min 3 sec) 
Heartbeat CPU  0 instructions:  177000003 cycles:  236147056 heartbeat IPC: 0.38811 cumulative IPC: 0.41468 (Simulation time: 0 hr 7 min 7 sec) 
Heartbeat CPU  0 instructions:  178000001 cycles:  238697186 heartbeat IPC: 0.39214 cumulative IPC: 0.41438 (Simulation time: 0 hr 7 min 10 sec) 
Heartbeat CPU  0 instructions:  179000000 cycles:  241316293 heartbeat IPC: 0.38181 cumulative IPC: 0.41393 (Simulation time: 0 hr 7 min 13 sec) 
Heartbeat CPU  0 instructions:  180000000 cycles:  243889564 heartbeat IPC: 0.38861 cumulative IPC: 0.41359 (Simulation time: 0 hr 7 min 16 sec) 
Heartbeat CPU  0 instructions:  181000000 cycles:  246494907 heartbeat IPC: 0.38383 cumulative IPC: 0.41320 (Simulation time: 0 hr 7 min 20 sec) 
Heartbeat CPU  0 instructions:  182000001 cycles:  249080223 heartbeat IPC: 0.38680 cumulative IPC: 0.41285 (Simulation time: 0 hr 7 min 23 sec) 
Heartbeat CPU  0 instructions:  183000003 cycles:  251683929 heartbeat IPC: 0.38407 cumulative IPC: 0.41248 (Simulation time: 0 hr 7 min 26 sec) 
Heartbeat CPU  0 instructions:  184000000 cycles:  254269213 heartbeat IPC: 0.38680 cumulative IPC: 0.41216 (Simulation time: 0 hr 7 min 30 sec) 
Heartbeat CPU  0 instructions:  185000000 cycles:  256872963 heartbeat IPC: 0.38406 cumulative IPC: 0.41180 (Simulation time: 0 hr 7 min 33 sec) 
Heartbeat CPU  0 instructions:  186000002 cycles:  259448438 heartbeat IPC: 0.38828 cumulative IPC: 0.41151 (Simulation time: 0 hr 7 min 36 sec) 
Heartbeat CPU  0 instructions:  187000001 cycles:  262060545 heartbeat IPC: 0.38283 cumulative IPC: 0.41116 (Simulation time: 0 hr 7 min 39 sec) 
Heartbeat CPU  0 instructions:  188000000 cycles:  264664585 heartbeat IPC: 0.38402 cumulative IPC: 0.41083 (Simulation time: 0 hr 7 min 43 sec) 
Heartbeat CPU  0 instructions:  189000001 cycles:  267330537 heartbeat IPC: 0.37510 cumulative IPC: 0.41039 (Simulation time: 0 hr 7 min 46 sec) 
Heartbeat CPU  0 instructions:  190000002 cycles:  269949301 heartbeat IPC: 0.38186 cumulative IPC: 0.41005 (Simulation time: 0 hr 7 min 49 sec) 
Heartbeat CPU  0 instructions:  191000001 cycles:  272553941 heartbeat IPC: 0.38393 cumulative IPC: 0.40974 (Simulation time: 0 hr 7 min 53 sec) 
Heartbeat CPU  0 instructions:  192000000 cycles:  275133467 heartbeat IPC: 0.38767 cumulative IPC: 0.40949 (Simulation time: 0 hr 7 min 56 sec) 
Heartbeat CPU  0 instructions:  193000003 cycles:  277711969 heartbeat IPC: 0.38782 cumulative IPC: 0.40924 (Simulation time: 0 hr 7 min 59 sec) 
Heartbeat CPU  0 instructions:  194000002 cycles:  280321413 heartbeat IPC: 0.38322 cumulative IPC: 0.40895 (Simulation time: 0 hr 8 min 3 sec) 
Heartbeat CPU  0 instructions:  195000000 cycles:  282554459 heartbeat IPC: 0.44782 cumulative IPC: 0.40932 (Simulation time: 0 hr 8 min 6 sec) 
Heartbeat CPU  0 instructions:  196000000 cycles:  284191273 heartbeat IPC: 0.61094 cumulative IPC: 0.41073 (Simulation time: 0 hr 8 min 8 sec) 
Heartbeat CPU  0 instructions:  197000003 cycles:  285740853 heartbeat IPC: 0.64534 cumulative IPC: 0.41228 (Simulation time: 0 hr 8 min 11 sec) 
Heartbeat CPU  0 instructions:  198000000 cycles:  286784444 heartbeat IPC: 0.95823 cumulative IPC: 0.41469 (Simulation time: 0 hr 8 min 13 sec) 
Heartbeat CPU  0 instructions:  199000000 cycles:  288148245 heartbeat IPC: 0.73324 cumulative IPC: 0.41652 (Simulation time: 0 hr 8 min 16 sec) 
Heartbeat CPU  0 instructions:  200000000 cycles:  289523617 heartbeat IPC: 0.72708 cumulative IPC: 0.41830 (Simulation time: 0 hr 8 min 19 sec) 
Heartbeat CPU  0 instructions:  201000002 cycles:  290856053 heartbeat IPC: 0.75051 cumulative IPC: 0.42015 (Simulation time: 0 hr 8 min 21 sec) 
Heartbeat CPU  0 instructions:  202000000 cycles:  292344867 heartbeat IPC: 0.67167 cumulative IPC: 0.42169 (Simulation time: 0 hr 8 min 24 sec) 
Heartbeat CPU  0 instructions:  203000001 cycles:  293417307 heartbeat IPC: 0.93245 cumulative IPC: 0.42395 (Simulation time: 0 hr 8 min 26 sec) 
Heartbeat CPU  0 instructions:  204000000 cycles:  294653743 heartbeat IPC: 0.80878 cumulative IPC: 0.42590 (Simulation time: 0 hr 8 min 29 sec) 
Heartbeat CPU  0 instructions:  205000002 cycles:  296009003 heartbeat IPC: 0.73787 cumulative IPC: 0.42762 (Simulation time: 0 hr 8 min 31 sec) 
Heartbeat CPU  0 instructions:  206000003 cycles:  297115890 heartbeat IPC: 0.90344 cumulative IPC: 0.42975 (Simulation time: 0 hr 8 min 34 sec) 
Heartbeat CPU  0 instructions:  207000001 cycles:  298325015 heartbeat IPC: 0.82704 cumulative IPC: 0.43169 (Simulation time: 0 hr 8 min 36 sec) 
Heartbeat CPU  0 instructions:  208000000 cycles:  299598353 heartbeat IPC: 0.78534 cumulative IPC: 0.43350 (Simulation time: 0 hr 8 min 39 sec) 
Heartbeat CPU  0 instructions:  209000001 cycles:  300742344 heartbeat IPC: 0.87413 cumulative IPC: 0.43551 (Simulation time: 0 hr 8 min 41 sec) 
Heartbeat CPU  0 instructions:  210000003 cycles:  302059877 heartbeat IPC: 0.75900 cumulative IPC: 0.43721 (Simulation time: 0 hr 8 min 44 sec) 
Heartbeat CPU  0 instructions:  211000002 cycles:  303301688 heartbeat IPC: 0.80527 cumulative IPC: 0.43902 (Simulation time: 0 hr 8 min 46 sec) 
Heartbeat CPU  0 instructions:  212000000 cycles:  304484202 heartbeat IPC: 0.84565 cumulative IPC: 0.44091 (Simulation time: 0 hr 8 min 48 sec) 
Heartbeat CPU  0 instructions:  213000003 cycles:  305732554 heartbeat IPC: 0.80106 cumulative IPC: 0.44267 (Simulation time: 0 hr 8 min 51 sec) 
Heartbeat CPU  0 instructions:  214000000 cycles:  306921252 heartbeat IPC: 0.84125 cumulative IPC: 0.44452 (Simulation time: 0 hr 8 min 53 sec) 
Heartbeat CPU  0 instructions:  215000002 cycles:  308241327 heartbeat IPC: 0.75753 cumulative IPC: 0.44612 (Simulation time: 0 hr 8 min 56 sec) 
Heartbeat CPU  0 instructions:  216000000 cycles:  309362366 heartbeat IPC: 0.89203 cumulative IPC: 0.44805 (Simulation time: 0 hr 8 min 58 sec) 
Heartbeat CPU  0 instructions:  217000002 cycles:  310556996 heartbeat IPC: 0.83708 cumulative IPC: 0.44984 (Simulation time: 0 hr 9 min 1 sec) 
Heartbeat CPU  0 instructions:  218000000 cycles:  311977734 heartbeat IPC: 0.70386 cumulative IPC: 0.45122 (Simulation time: 0 hr 9 min 3 sec) 
Heartbeat CPU  0 instructions:  219000003 cycles:  313129646 heartbeat IPC: 0.86812 cumulative IPC: 0.45305 (Simulation time: 0 hr 9 min 6 sec) 
Heartbeat CPU  0 instructions:  220000000 cycles:  314413852 heartbeat IPC: 0.77869 cumulative IPC: 0.45463 (Simulation time: 0 hr 9 min 8 sec) 
Heartbeat CPU  0 instructions:  221000002 cycles:  315586074 heartbeat IPC: 0.85308 cumulative IPC: 0.45639 (Simulation time: 0 hr 9 min 11 sec) 
Heartbeat CPU  0 instructions:  222000001 cycles:  316839483 heartbeat IPC: 0.79782 cumulative IPC: 0.45800 (Simulation time: 0 hr 9 min 13 sec) 
Heartbeat CPU  0 instructions:  223000000 cycles:  318194607 heartbeat IPC: 0.73794 cumulative IPC: 0.45942 (Simulation time: 0 hr 9 min 16 sec) 
Heartbeat CPU  0 instructions:  224000000 cycles:  319393374 heartbeat IPC: 0.83419 cumulative IPC: 0.46109 (Simulation time: 0 hr 9 min 18 sec) 
Heartbeat CPU  0 instructions:  225000001 cycles:  320562931 heartbeat IPC: 0.85503 cumulative IPC: 0.46279 (Simulation time: 0 hr 9 min 21 sec) 
Heartbeat CPU  0 instructions:  226000003 cycles:  321786839 heartbeat IPC: 0.81706 cumulative IPC: 0.46439 (Simulation time: 0 hr 9 min 23 sec) 
Heartbeat CPU  0 instructions:  227000001 cycles:  323021655 heartbeat IPC: 0.80984 cumulative IPC: 0.46595 (Simulation time: 0 hr 9 min 26 sec) 
Heartbeat CPU  0 instructions:  228000000 cycles:  324395141 heartbeat IPC: 0.72807 cumulative IPC: 0.46727 (Simulation time: 0 hr 9 min 28 sec) 
Heartbeat CPU  0 instructions:  229000002 cycles:  325633099 heartbeat IPC: 0.80778 cumulative IPC: 0.46880 (Simulation time: 0 hr 9 min 31 sec) 
Heartbeat CPU  0 instructions:  230000002 cycles:  326665981 heartbeat IPC: 0.96816 cumulative IPC: 0.47067 (Simulation time: 0 hr 9 min 33 sec) 
Heartbeat CPU  0 instructions:  231000001 cycles:  327986358 heartbeat IPC: 0.75736 cumulative IPC: 0.47203 (Simulation time: 0 hr 9 min 36 sec) 
Heartbeat CPU  0 instructions:  232000000 cycles:  329264491 heartbeat IPC: 0.78239 cumulative IPC: 0.47346 (Simulation time: 0 hr 9 min 38 sec) 
Heartbeat CPU  0 instructions:  233000000 cycles:  330632120 heartbeat IPC: 0.73119 cumulative IPC: 0.47471 (Simulation time: 0 hr 9 min 41 sec) 
Heartbeat CPU  0 instructions:  234000001 cycles:  331870382 heartbeat IPC: 0.80758 cumulative IPC: 0.47618 (Simulation time: 0 hr 9 min 43 sec) 
Heartbeat CPU  0 instructions:  235000003 cycles:  332838796 heartbeat IPC: 1.03262 cumulative IPC: 0.47809 (Simulation time: 0 hr 9 min 46 sec) 
Heartbeat CPU  0 instructions:  236000000 cycles:  334195252 heartbeat IPC: 0.73721 cumulative IPC: 0.47933 (Simulation time: 0 hr 9 min 48 sec) 
Heartbeat CPU  0 instructions:  237000000 cycles:  335348144 heartbeat IPC: 0.86738 cumulative IPC: 0.48090 (Simulation time: 0 hr 9 min 50 sec) 
Heartbeat CPU  0 instructions:  238000001 cycles:  336685565 heartbeat IPC: 0.74771 cumulative IPC: 0.48214 (Simulation time: 0 hr 9 min 53 sec) 
Heartbeat CPU  0 instructions:  239000003 cycles:  337905666 heartbeat IPC: 0.81961 cumulative IPC: 0.48357 (Simulation time: 0 hr 9 min 56 sec) 
Heartbeat CPU  0 instructions:  240000000 cycles:  338989588 heartbeat IPC: 0.92257 cumulative IPC: 0.48522 (Simulation time: 0 hr 9 min 58 sec) 
Heartbeat CPU  0 instructions:  241000000 cycles:  340311770 heartbeat IPC: 0.75633 cumulative IPC: 0.48646 (Simulation time: 0 hr 10 min 0 sec) 
Heartbeat CPU  0 instructions:  242000000 cycles:  341525295 heartbeat IPC: 0.82405 cumulative IPC: 0.48787 (Simulation time: 0 hr 10 min 3 sec) 
Heartbeat CPU  0 instructions:  243000003 cycles:  342809038 heartbeat IPC: 0.77897 cumulative IPC: 0.48915 (Simulation time: 0 hr 10 min 5 sec) 
Heartbeat CPU  0 instructions:  244000000 cycles:  344088997 heartbeat IPC: 0.78127 cumulative IPC: 0.49042 (Simulation time: 0 hr 10 min 8 sec) 
Heartbeat CPU  0 instructions:  245000000 cycles:  345195868 heartbeat IPC: 0.90345 cumulative IPC: 0.49197 (Simulation time: 0 hr 10 min 10 sec) 
Heartbeat CPU  0 instructions:  246000002 cycles:  346493706 heartbeat IPC: 0.77051 cumulative IPC: 0.49319 (Simulation time: 0 hr 10 min 13 sec) 
Heartbeat CPU  0 instructions:  247000000 cycles:  347704028 heartbeat IPC: 0.82622 cumulative IPC: 0.49455 (Simulation time: 0 hr 10 min 15 sec) 
Heartbeat CPU  0 instructions:  248000000 cycles:  348903088 heartbeat IPC: 0.83399 cumulative IPC: 0.49591 (Simulation time: 0 hr 10 min 18 sec) 
Heartbeat CPU  0 instructions:  249000000 cycles:  350261886 heartbeat IPC: 0.73594 cumulative IPC: 0.49700 (Simulation time: 0 hr 10 min 20 sec) 
Heartbeat CPU  0 instructions:  250000001 cycles:  351339112 heartbeat IPC: 0.92831 cumulative IPC: 0.49854 (Simulation time: 0 hr 10 min 23 sec) 
Heartbeat CPU  0 instructions:  251000003 cycles:  352585453 heartbeat IPC: 0.80235 cumulative IPC: 0.49980 (Simulation time: 0 hr 10 min 25 sec) 
Heartbeat CPU  0 instructions:  252000000 cycles:  353813800 heartbeat IPC: 0.81410 cumulative IPC: 0.50107 (Simulation time: 0 hr 10 min 28 sec) 
Heartbeat CPU  0 instructions:  253000000 cycles:  354911371 heartbeat IPC: 0.91110 cumulative IPC: 0.50255 (Simulation time: 0 hr 10 min 30 sec) 
Heartbeat CPU  0 instructions:  254000000 cycles:  356352114 heartbeat IPC: 0.69409 cumulative IPC: 0.50345 (Simulation time: 0 hr 10 min 33 sec) 
Heartbeat CPU  0 instructions:  255000003 cycles:  357578586 heartbeat IPC: 0.81535 cumulative IPC: 0.50470 (Simulation time: 0 hr 10 min 35 sec) 
Heartbeat CPU  0 instructions:  256000000 cycles:  358840725 heartbeat IPC: 0.79230 cumulative IPC: 0.50587 (Simulation time: 0 hr 10 min 38 sec) 
Heartbeat CPU  0 instructions:  257000003 cycles:  360043972 heartbeat IPC: 0.83109 cumulative IPC: 0.50714 (Simulation time: 0 hr 10 min 40 sec) 
Heartbeat CPU  0 instructions:  258000000 cycles:  361072856 heartbeat IPC: 0.97192 cumulative IPC: 0.50868 (Simulation time: 0 hr 10 min 42 sec) 
Heartbeat CPU  0 instructions:  259000003 cycles:  362587570 heartbeat IPC: 0.66019 cumulative IPC: 0.50941 (Simulation time: 0 hr 10 min 45 sec) 
Heartbeat CPU  0 instructions:  260000000 cycles:  363752402 heartbeat IPC: 0.85849 cumulative IPC: 0.51071 (Simulation time: 0 hr 10 min 47 sec) 
Heartbeat CPU  0 instructions:  261000001 cycles:  364923836 heartbeat IPC: 0.85366 cumulative IPC: 0.51199 (Simulation time: 0 hr 10 min 50 sec) 
Heartbeat CPU  0 instructions:  262000000 cycles:  366075707 heartbeat IPC: 0.86815 cumulative IPC: 0.51329 (Simulation time: 0 hr 10 min 52 sec) 
Heartbeat CPU  0 instructions:  263000000 cycles:  367206635 heartbeat IPC: 0.88423 cumulative IPC: 0.51461 (Simulation time: 0 hr 10 min 55 sec) 
Heartbeat CPU  0 instructions:  264000000 cycles:  368553578 heartbeat IPC: 0.74242 cumulative IPC: 0.51558 (Simulation time: 0 hr 10 min 57 sec) 
Heartbeat CPU  0 instructions:  265000002 cycles:  369879679 heartbeat IPC: 0.75409 cumulative IPC: 0.51657 (Simulation time: 0 hr 11 min 0 sec) 
Heartbeat CPU  0 instructions:  266000001 cycles:  370976513 heartbeat IPC: 0.91171 cumulative IPC: 0.51792 (Simulation time: 0 hr 11 min 2 sec) 
Heartbeat CPU  0 instructions:  267000000 cycles:  372161497 heartbeat IPC: 0.84389 cumulative IPC: 0.51912 (Simulation time: 0 hr 11 min 5 sec) 
Heartbeat CPU  0 instructions:  268000000 cycles:  373511386 heartbeat IPC: 0.74080 cumulative IPC: 0.52005 (Simulation time: 0 hr 11 min 7 sec) 
Heartbeat CPU  0 instructions:  269000003 cycles:  374724373 heartbeat IPC: 0.82441 cumulative IPC: 0.52118 (Simulation time: 0 hr 11 min 10 sec) 
Heartbeat CPU  0 instructions:  270000002 cycles:  376188274 heartbeat IPC: 0.68311 cumulative IPC: 0.52191 (Simulation time: 0 hr 11 min 12 sec) 
Heartbeat CPU  0 instructions:  271000000 cycles:  377171057 heartbeat IPC: 1.01752 cumulative IPC: 0.52340 (Simulation time: 0 hr 11 min 15 sec) 
Heartbeat CPU  0 instructions:  272000000 cycles:  378441900 heartbeat IPC: 0.78688 cumulative IPC: 0.52442 (Simulation time: 0 hr 11 min 17 sec) 
Heartbeat CPU  0 instructions:  273000002 cycles:  379745474 heartbeat IPC: 0.76712 cumulative IPC: 0.52538 (Simulation time: 0 hr 11 min 20 sec) 
Heartbeat CPU  0 instructions:  274000002 cycles:  380911957 heartbeat IPC: 0.85728 cumulative IPC: 0.52656 (Simulation time: 0 hr 11 min 22 sec) 
Heartbeat CPU  0 instructions:  275000001 cycles:  382404353 heartbeat IPC: 0.67006 cumulative IPC: 0.52720 (Simulation time: 0 hr 11 min 25 sec) 
Heartbeat CPU  0 instructions:  276000000 cycles:  383410965 heartbeat IPC: 0.99343 cumulative IPC: 0.52861 (Simulation time: 0 hr 11 min 27 sec) 
Heartbeat CPU  0 instructions:  277000003 cycles:  384698420 heartbeat IPC: 0.77673 cumulative IPC: 0.52957 (Simulation time: 0 hr 11 min 30 sec) 
Heartbeat CPU  0 instructions:  278000002 cycles:  385932809 heartbeat IPC: 0.81012 cumulative IPC: 0.53060 (Simulation time: 0 hr 11 min 32 sec) 
Heartbeat CPU  0 instructions:  279000003 cycles:  387172512 heartbeat IPC: 0.80665 cumulative IPC: 0.53162 (Simulation time: 0 hr 11 min 35 sec) 
Heartbeat CPU  0 instructions:  280000000 cycles:  388484980 heartbeat IPC: 0.76192 cumulative IPC: 0.53251 (Simulation time: 0 hr 11 min 37 sec) 
Heartbeat CPU  0 instructions:  281000002 cycles:  389604419 heartbeat IPC: 0.89331 cumulative IPC: 0.53370 (Simulation time: 0 hr 11 min 40 sec) 
Heartbeat CPU  0 instructions:  282000001 cycles:  390887212 heartbeat IPC: 0.77955 cumulative IPC: 0.53463 (Simulation time: 0 hr 11 min 42 sec) 
Heartbeat CPU  0 instructions:  283000002 cycles:  392180461 heartbeat IPC: 0.77325 cumulative IPC: 0.53553 (Simulation time: 0 hr 11 min 44 sec) 
Heartbeat CPU  0 instructions:  284000000 cycles:  393286912 heartbeat IPC: 0.90379 cumulative IPC: 0.53672 (Simulation time: 0 hr 11 min 47 sec) 
Heartbeat CPU  0 instructions:  285000002 cycles:  394570469 heartbeat IPC: 0.77909 cumulative IPC: 0.53762 (Simulation time: 0 hr 11 min 49 sec) 
Heartbeat CPU  0 instructions:  286000000 cycles:  395865945 heartbeat IPC: 0.77192 cumulative IPC: 0.53850 (Simulation time: 0 hr 11 min 52 sec) 
Heartbeat CPU  0 instructions:  287000001 cycles:  397040630 heartbeat IPC: 0.85129 cumulative IPC: 0.53956 (Simulation time: 0 hr 11 min 54 sec) 
Heartbeat CPU  0 instructions:  288000000 cycles:  398418421 heartbeat IPC: 0.72580 cumulative IPC: 0.54030 (Simulation time: 0 hr 11 min 57 sec) 
Heartbeat CPU  0 instructions:  289000000 cycles:  399526068 heartbeat IPC: 0.90281 cumulative IPC: 0.54145 (Simulation time: 0 hr 11 min 59 sec) 
Heartbeat CPU  0 instructions:  290000000 cycles:  400812864 heartbeat IPC: 0.77712 cumulative IPC: 0.54232 (Simulation time: 0 hr 12 min 2 sec) 
Heartbeat CPU  0 instructions:  291000002 cycles:  402093118 heartbeat IPC: 0.78110 cumulative IPC: 0.54318 (Simulation time: 0 hr 12 min 4 sec) 
Heartbeat CPU  0 instructions:  292000000 cycles:  403203497 heartbeat IPC: 0.90059 cumulative IPC: 0.54431 (Simulation time: 0 hr 12 min 7 sec) 
Heartbeat CPU  0 instructions:  293000001 cycles:  404610256 heartbeat IPC: 0.71085 cumulative IPC: 0.54497 (Simulation time: 0 hr 12 min 9 sec) 
Heartbeat CPU  0 instructions:  294000002 cycles:  405686341 heartbeat IPC: 0.92930 cumulative IPC: 0.54614 (Simulation time: 0 hr 12 min 12 sec) 
Heartbeat CPU  0 instructions:  295000003 cycles:  406973564 heartbeat IPC: 0.77687 cumulative IPC: 0.54697 (Simulation time: 0 hr 12 min 14 sec) 
Heartbeat CPU  0 instructions:  296000000 cycles:  408377863 heartbeat IPC: 0.71210 cumulative IPC: 0.54762 (Simulation time: 0 hr 12 min 17 sec) 
Heartbeat CPU  0 instructions:  297000001 cycles:  409513385 heartbeat IPC: 0.88065 cumulative IPC: 0.54867 (Simulation time: 0 hr 12 min 19 sec) 
Heartbeat CPU  0 instructions:  298000002 cycles:  410657608 heartbeat IPC: 0.87396 cumulative IPC: 0.54970 (Simulation time: 0 hr 12 min 22 sec) 
Heartbeat CPU  0 instructions:  299000003 cycles:  411805938 heartbeat IPC: 0.87083 cumulative IPC: 0.55072 (Simulation time: 0 hr 12 min 24 sec) 
Heartbeat CPU  0 instructions:  300000000 cycles:  413153849 heartbeat IPC: 0.74189 cumulative IPC: 0.55143 (Simulation time: 0 hr 12 min 27 sec) 
Heartbeat CPU  0 instructions:  301000000 cycles:  414421780 heartbeat IPC: 0.78869 cumulative IPC: 0.55226 (Simulation time: 0 hr 12 min 29 sec) 
Heartbeat CPU  0 instructions:  302000003 cycles:  415598492 heartbeat IPC: 0.84983 cumulative IPC: 0.55322 (Simulation time: 0 hr 12 min 31 sec) 
Heartbeat CPU  0 instructions:  303000002 cycles:  416678599 heartbeat IPC: 0.92583 cumulative IPC: 0.55432 (Simulation time: 0 hr 12 min 34 sec) 
Heartbeat CPU  0 instructions:  304000000 cycles:  418053296 heartbeat IPC: 0.72743 cumulative IPC: 0.55497 (Simulation time: 0 hr 12 min 36 sec) 
Heartbeat CPU  0 instructions:  305000001 cycles:  419282171 heartbeat IPC: 0.81375 cumulative IPC: 0.55583 (Simulation time: 0 hr 12 min 39 sec) 
Heartbeat CPU  0 instructions:  306000003 cycles:  420641999 heartbeat IPC: 0.73539 cumulative IPC: 0.55649 (Simulation time: 0 hr 12 min 42 sec) 
Heartbeat CPU  0 instructions:  307000000 cycles:  421857396 heartbeat IPC: 0.82277 cumulative IPC: 0.55736 (Simulation time: 0 hr 12 min 44 sec) 
Heartbeat CPU  0 instructions:  308000000 cycles:  422866145 heartbeat IPC: 0.99133 cumulative IPC: 0.55853 (Simulation time: 0 hr 12 min 46 sec) 
Heartbeat CPU  0 instructions:  309000000 cycles:  424154680 heartbeat IPC: 0.77608 cumulative IPC: 0.55928 (Simulation time: 0 hr 12 min 49 sec) 
Heartbeat CPU  0 instructions:  310000003 cycles:  425404236 heartbeat IPC: 0.80029 cumulative IPC: 0.56009 (Simulation time: 0 hr 12 min 51 sec) 
Heartbeat CPU  0 instructions:  311000001 cycles:  426700294 heartbeat IPC: 0.77157 cumulative IPC: 0.56082 (Simulation time: 0 hr 12 min 54 sec) 
Heartbeat CPU  0 instructions:  312000000 cycles:  427853300 heartbeat IPC: 0.86730 cumulative IPC: 0.56175 (Simulation time: 0 hr 12 min 56 sec) 
Heartbeat CPU  0 instructions:  313000001 cycles:  429014012 heartbeat IPC: 0.86154 cumulative IPC: 0.56267 (Simulation time: 0 hr 12 min 59 sec) 
Heartbeat CPU  0 instructions:  314000000 cycles:  430306118 heartbeat IPC: 0.77393 cumulative IPC: 0.56339 (Simulation time: 0 hr 13 min 1 sec) 
Heartbeat CPU  0 instructions:  315000000 cycles:  431609676 heartbeat IPC: 0.76713 cumulative IPC: 0.56409 (Simulation time: 0 hr 13 min 4 sec) 
Heartbeat CPU  0 instructions:  316000000 cycles:  432871660 heartbeat IPC: 0.79240 cumulative IPC: 0.56484 (Simulation time: 0 hr 13 min 6 sec) 
Heartbeat CPU  0 instructions:  317000000 cycles:  434076531 heartbeat IPC: 0.82996 cumulative IPC: 0.56567 (Simulation time: 0 hr 13 min 9 sec) 
Heartbeat CPU  0 instructions:  318000000 cycles:  435206061 heartbeat IPC: 0.88532 cumulative IPC: 0.56661 (Simulation time: 0 hr 13 min 11 sec) 
Heartbeat CPU  0 instructions:  319000001 cycles:  436447356 heartbeat IPC: 0.80561 cumulative IPC: 0.56738 (Simulation time: 0 hr 13 min 14 sec) 
Heartbeat CPU  0 instructions:  320000000 cycles:  437690412 heartbeat IPC: 0.80447 cumulative IPC: 0.56814 (Simulation time: 0 hr 13 min 16 sec) 
Heartbeat CPU  0 instructions:  321000003 cycles:  439004833 heartbeat IPC: 0.76079 cumulative IPC: 0.56879 (Simulation time: 0 hr 13 min 19 sec) 
Heartbeat CPU  0 instructions:  322000003 cycles:  440266416 heartbeat IPC: 0.79265 cumulative IPC: 0.56952 (Simulation time: 0 hr 13 min 21 sec) 
Heartbeat CPU  0 instructions:  323000003 cycles:  441471640 heartbeat IPC: 0.82972 cumulative IPC: 0.57032 (Simulation time: 0 hr 13 min 24 sec) 
Heartbeat CPU  0 instructions:  324000000 cycles:  442628891 heartbeat IPC: 0.86411 cumulative IPC: 0.57119 (Simulation time: 0 hr 13 min 26 sec) 
Heartbeat CPU  0 instructions:  325000000 cycles:  443855785 heartbeat IPC: 0.81507 cumulative IPC: 0.57195 (Simulation time: 0 hr 13 min 29 sec) 
Heartbeat CPU  0 instructions:  326000001 cycles:  445000118 heartbeat IPC: 0.87387 cumulative IPC: 0.57282 (Simulation time: 0 hr 13 min 31 sec) 
Heartbeat CPU  0 instructions:  327000001 cycles:  446381007 heartbeat IPC: 0.72417 cumulative IPC: 0.57335 (Simulation time: 0 hr 13 min 34 sec) 
Heartbeat CPU  0 instructions:  328000000 cycles:  447512383 heartbeat IPC: 0.88388 cumulative IPC: 0.57424 (Simulation time: 0 hr 13 min 36 sec) 
Heartbeat CPU  0 instructions:  329000000 cycles:  448744866 heartbeat IPC: 0.81137 cumulative IPC: 0.57497 (Simulation time: 0 hr 13 min 38 sec) 
Heartbeat CPU  0 instructions:  330000000 cycles:  449957586 heartbeat IPC: 0.82459 cumulative IPC: 0.57573 (Simulation time: 0 hr 13 min 41 sec) 
Heartbeat CPU  0 instructions:  331000003 cycles:  451096578 heartbeat IPC: 0.87797 cumulative IPC: 0.57659 (Simulation time: 0 hr 13 min 43 sec) 
Heartbeat CPU  0 instructions:  332000000 cycles:  452544376 heartbeat IPC: 0.69070 cumulative IPC: 0.57700 (Simulation time: 0 hr 13 min 46 sec) 
Heartbeat CPU  0 instructions:  333000002 cycles:  453667093 heartbeat IPC: 0.89070 cumulative IPC: 0.57787 (Simulation time: 0 hr 13 min 48 sec) 
Heartbeat CPU  0 instructions:  334000003 cycles:  454904034 heartbeat IPC: 0.80845 cumulative IPC: 0.57858 (Simulation time: 0 hr 13 min 51 sec) 
Heartbeat CPU  0 instructions:  335000000 cycles:  456038334 heartbeat IPC: 0.88160 cumulative IPC: 0.57942 (Simulation time: 0 hr 13 min 53 sec) 
Heartbeat CPU  0 instructions:  336000000 cycles:  457243072 heartbeat IPC: 0.83006 cumulative IPC: 0.58017 (Simulation time: 0 hr 13 min 56 sec) 
Heartbeat CPU  0 instructions:  337000001 cycles:  458703774 heartbeat IPC: 0.68460 cumulative IPC: 0.58054 (Simulation time: 0 hr 13 min 58 sec) 
Heartbeat CPU  0 instructions:  338000003 cycles:  459922590 heartbeat IPC: 0.82047 cumulative IPC: 0.58125 (Simulation time: 0 hr 14 min 1 sec) 
Heartbeat CPU  0 instructions:  339000000 cycles:  461075541 heartbeat IPC: 0.86734 cumulative IPC: 0.58206 (Simulation time: 0 hr 14 min 3 sec) 
Heartbeat CPU  0 instructions:  340000000 cycles:  462333092 heartbeat IPC: 0.79520 cumulative IPC: 0.58271 (Simulation time: 0 hr 14 min 6 sec) 
Heartbeat CPU  0 instructions:  341000002 cycles:  463449476 heartbeat IPC: 0.89575 cumulative IPC: 0.58355 (Simulation time: 0 hr 14 min 8 sec) 
Heartbeat CPU  0 instructions:  342000002 cycles:  464894061 heartbeat IPC: 0.69224 cumulative IPC: 0.58393 (Simulation time: 0 hr 14 min 11 sec) 
Heartbeat CPU  0 instructions:  343000001 cycles:  466175862 heartbeat IPC: 0.78015 cumulative IPC: 0.58454 (Simulation time: 0 hr 14 min 13 sec) 
Heartbeat CPU  0 instructions:  344000000 cycles:  467159134 heartbeat IPC: 1.01701 cumulative IPC: 0.58556 (Simulation time: 0 hr 14 min 15 sec) 
Heartbeat CPU  0 instructions:  345000001 cycles:  468411878 heartbeat IPC: 0.79825 cumulative IPC: 0.58620 (Simulation time: 0 hr 14 min 18 sec) 
Heartbeat CPU  0 instructions:  346000001 cycles:  469593932 heartbeat IPC: 0.84599 cumulative IPC: 0.58693 (Simulation time: 0 hr 14 min 20 sec) 
Heartbeat CPU  0 instructions:  347000003 cycles:  471680130 heartbeat IPC: 0.47934 cumulative IPC: 0.58640 (Simulation time: 0 hr 14 min 23 sec) 
Heartbeat CPU  0 instructions:  348000000 cycles:  475330620 heartbeat IPC: 0.27394 cumulative IPC: 0.58371 (Simulation time: 0 hr 14 min 27 sec) 
Heartbeat CPU  0 instructions:  349000002 cycles:  478983328 heartbeat IPC: 0.27377 cumulative IPC: 0.58107 (Simulation time: 0 hr 14 min 30 sec) 
Heartbeat CPU  0 instructions:  350000000 cycles:  482739875 heartbeat IPC: 0.26620 cumulative IPC: 0.57833 (Simulation time: 0 hr 14 min 34 sec) 
Heartbeat CPU  0 instructions:  351000002 cycles:  486564597 heartbeat IPC: 0.26146 cumulative IPC: 0.57555 (Simulation time: 0 hr 14 min 38 sec) 
Heartbeat CPU  0 instructions:  352000000 cycles:  490410780 heartbeat IPC: 0.26000 cumulative IPC: 0.57280 (Simulation time: 0 hr 14 min 42 sec) 
Heartbeat CPU  0 instructions:  353000000 cycles:  494409955 heartbeat IPC: 0.25005 cumulative IPC: 0.56989 (Simulation time: 0 hr 14 min 46 sec) 
Heartbeat CPU  0 instructions:  354000000 cycles:  498647147 heartbeat IPC: 0.23601 cumulative IPC: 0.56673 (Simulation time: 0 hr 14 min 50 sec) 
Heartbeat CPU  0 instructions:  355000003 cycles:  502773491 heartbeat IPC: 0.24235 cumulative IPC: 0.56377 (Simulation time: 0 hr 14 min 53 sec) 
Heartbeat CPU  0 instructions:  356000000 cycles:  506943575 heartbeat IPC: 0.23980 cumulative IPC: 0.56081 (Simulation time: 0 hr 14 min 57 sec) 
Heartbeat CPU  0 instructions:  357000000 cycles:  511253124 heartbeat IPC: 0.23204 cumulative IPC: 0.55774 (Simulation time: 0 hr 15 min 1 sec) 
Heartbeat CPU  0 instructions:  358000000 cycles:  515356822 heartbeat IPC: 0.24368 cumulative IPC: 0.55497 (Simulation time: 0 hr 15 min 5 sec) 
Heartbeat CPU  0 instructions:  359000000 cycles:  519530677 heartbeat IPC: 0.23959 cumulative IPC: 0.55216 (Simulation time: 0 hr 15 min 9 sec) 
Heartbeat CPU  0 instructions:  360000000 cycles:  523838273 heartbeat IPC: 0.23215 cumulative IPC: 0.54925 (Simulation time: 0 hr 15 min 13 sec) 
Heartbeat CPU  0 instructions:  361000000 cycles:  528022789 heartbeat IPC: 0.23898 cumulative IPC: 0.54653 (Simulation time: 0 hr 15 min 17 sec) 
Heartbeat CPU  0 instructions:  362000001 cycles:  532161492 heartbeat IPC: 0.24162 cumulative IPC: 0.54391 (Simulation time: 0 hr 15 min 21 sec) 
Heartbeat CPU  0 instructions:  363000003 cycles:  536447996 heartbeat IPC: 0.23329 cumulative IPC: 0.54117 (Simulation time: 0 hr 15 min 25 sec) 
Heartbeat CPU  0 instructions:  364000000 cycles:  540700785 heartbeat IPC: 0.23514 cumulative IPC: 0.53851 (Simulation time: 0 hr 15 min 29 sec) 
Heartbeat CPU  0 instructions:  365000000 cycles:  544911561 heartbeat IPC: 0.23749 cumulative IPC: 0.53595 (Simulation time: 0 hr 15 min 33 sec) 
Heartbeat CPU  0 instructions:  366000000 cycles:  549194547 heartbeat IPC: 0.23348 cumulative IPC: 0.53335 (Simulation time: 0 hr 15 min 37 sec) 
Heartbeat CPU  0 instructions:  367000001 cycles:  553431657 heartbeat IPC: 0.23601 cumulative IPC: 0.53085 (Simulation time: 0 hr 15 min 41 sec) 
Heartbeat CPU  0 instructions:  368000000 cycles:  557617844 heartbeat IPC: 0.23888 cumulative IPC: 0.52844 (Simulation time: 0 hr 15 min 45 sec) 
Heartbeat CPU  0 instructions:  369000000 cycles:  561865188 heartbeat IPC: 0.23544 cumulative IPC: 0.52600 (Simulation time: 0 hr 15 min 49 sec) 
Heartbeat CPU  0 instructions:  370000002 cycles:  566097281 heartbeat IPC: 0.23629 cumulative IPC: 0.52363 (Simulation time: 0 hr 15 min 53 sec) 
Heartbeat CPU  0 instructions:  371000002 cycles:  570320806 heartbeat IPC: 0.23677 cumulative IPC: 0.52130 (Simulation time: 0 hr 15 min 57 sec) 
Heartbeat CPU  0 instructions:  372000000 cycles:  574534307 heartbeat IPC: 0.23733 cumulative IPC: 0.51901 (Simulation time: 0 hr 16 min 0 sec) 
Heartbeat CPU  0 instructions:  373000002 cycles:  578724457 heartbeat IPC: 0.23866 cumulative IPC: 0.51679 (Simulation time: 0 hr 16 min 4 sec) 
Heartbeat CPU  0 instructions:  374000003 cycles:  582845241 heartbeat IPC: 0.24267 cumulative IPC: 0.51467 (Simulation time: 0 hr 16 min 8 sec) 
Heartbeat CPU  0 instructions:  375000003 cycles:  587019656 heartbeat IPC: 0.23955 cumulative IPC: 0.51253 (Simulation time: 0 hr 16 min 12 sec) 
Heartbeat CPU  0 instructions:  376000000 cycles:  591301511 heartbeat IPC: 0.23354 cumulative IPC: 0.51032 (Simulation time: 0 hr 16 min 16 sec) 
Heartbeat CPU  0 instructions:  377000003 cycles:  595494132 heartbeat IPC: 0.23852 cumulative IPC: 0.50823 (Simulation time: 0 hr 16 min 20 sec) 
Heartbeat CPU  0 instructions:  378000003 cycles:  599671635 heartbeat IPC: 0.23938 cumulative IPC: 0.50618 (Simulation time: 0 hr 16 min 24 sec) 
Heartbeat CPU  0 instructions:  379000003 cycles:  603961620 heartbeat IPC: 0.23310 cumulative IPC: 0.50407 (Simulation time: 0 hr 16 min 28 sec) 
Heartbeat CPU  0 instructions:  380000000 cycles:  608126939 heartbeat IPC: 0.24008 cumulative IPC: 0.50209 (Simulation time: 0 hr 16 min 32 sec) 
Heartbeat CPU  0 instructions:  381000002 cycles:  612356909 heartbeat IPC: 0.23641 cumulative IPC: 0.50009 (Simulation time: 0 hr 16 min 36 sec) 
Heartbeat CPU  0 instructions:  382000001 cycles:  616594003 heartbeat IPC: 0.23601 cumulative IPC: 0.49812 (Simulation time: 0 hr 16 min 40 sec) 
Heartbeat CPU  0 instructions:  383000000 cycles:  620789331 heartbeat IPC: 0.23836 cumulative IPC: 0.49621 (Simulation time: 0 hr 16 min 44 sec) 
Heartbeat CPU  0 instructions:  384000000 cycles:  625030645 heartbeat IPC: 0.23578 cumulative IPC: 0.49428 (Simulation time: 0 hr 16 min 48 sec) 
Heartbeat CPU  0 instructions:  385000000 cycles:  629245425 heartbeat IPC: 0.23726 cumulative IPC: 0.49241 (Simulation time: 0 hr 16 min 52 sec) 
Heartbeat CPU  0 instructions:  386000001 cycles:  633475215 heartbeat IPC: 0.23642 cumulative IPC: 0.49056 (Simulation time: 0 hr 16 min 56 sec) 
Heartbeat CPU  0 instructions:  387000003 cycles:  637690216 heartbeat IPC: 0.23725 cumulative IPC: 0.48874 (Simulation time: 0 hr 17 min 0 sec) 
Heartbeat CPU  0 instructions:  388000000 cycles:  641829389 heartbeat IPC: 0.24159 cumulative IPC: 0.48701 (Simulation time: 0 hr 17 min 3 sec) 
Heartbeat CPU  0 instructions:  389000001 cycles:  646049588 heartbeat IPC: 0.23696 cumulative IPC: 0.48524 (Simulation time: 0 hr 17 min 7 sec) 
Heartbeat CPU  0 instructions:  390000000 cycles:  650247191 heartbeat IPC: 0.23823 cumulative IPC: 0.48351 (Simulation time: 0 hr 17 min 11 sec) 
Heartbeat CPU  0 instructions:  391000000 cycles:  654455964 heartbeat IPC: 0.23760 cumulative IPC: 0.48179 (Simulation time: 0 hr 17 min 15 sec) 
Heartbeat CPU  0 instructions:  392000000 cycles:  658627706 heartbeat IPC: 0.23971 cumulative IPC: 0.48013 (Simulation time: 0 hr 17 min 19 sec) 
Heartbeat CPU  0 instructions:  393000003 cycles:  665935566 heartbeat IPC: 0.13684 cumulative IPC: 0.47606 (Simulation time: 0 hr 17 min 25 sec) 
Heartbeat CPU  0 instructions:  394000001 cycles:  680674020 heartbeat IPC: 0.06785 cumulative IPC: 0.46651 (Simulation time: 0 hr 17 min 34 sec) 
Heartbeat CPU  0 instructions:  395000000 cycles:  690314082 heartbeat IPC: 0.10373 cumulative IPC: 0.46104 (Simulation time: 0 hr 17 min 41 sec) 
Heartbeat CPU  0 instructions:  396000000 cycles:  693810760 heartbeat IPC: 0.28599 cumulative IPC: 0.46009 (Simulation time: 0 hr 17 min 45 sec) 
Heartbeat CPU  0 instructions:  397000000 cycles:  697676859 heartbeat IPC: 0.25866 cumulative IPC: 0.45889 (Simulation time: 0 hr 17 min 49 sec) 
Heartbeat CPU  0 instructions:  398000001 cycles:  701263595 heartbeat IPC: 0.27881 cumulative IPC: 0.45790 (Simulation time: 0 hr 17 min 53 sec) 
Heartbeat CPU  0 instructions:  399000002 cycles:  704913934 heartbeat IPC: 0.27395 cumulative IPC: 0.45687 (Simulation time: 0 hr 17 min 57 sec) 
Heartbeat CPU  0 instructions:  400000000 cycles:  708406839 heartbeat IPC: 0.28629 cumulative IPC: 0.45597 (Simulation time: 0 hr 18 min 1 sec) 
Heartbeat CPU  0 instructions:  401000003 cycles:  711965264 heartbeat IPC: 0.28102 cumulative IPC: 0.45502 (Simulation time: 0 hr 18 min 5 sec) 
Heartbeat CPU  0 instructions:  402000002 cycles:  716032174 heartbeat IPC: 0.24589 cumulative IPC: 0.45375 (Simulation time: 0 hr 18 min 9 sec) 
Heartbeat CPU  0 instructions:  403000002 cycles:  719935702 heartbeat IPC: 0.25618 cumulative IPC: 0.45260 (Simulation time: 0 hr 18 min 13 sec) 
Heartbeat CPU  0 instructions:  404000000 cycles:  723815483 heartbeat IPC: 0.25775 cumulative IPC: 0.45147 (Simulation time: 0 hr 18 min 17 sec) 
Heartbeat CPU  0 instructions:  405000000 cycles:  727657219 heartbeat IPC: 0.26030 cumulative IPC: 0.45039 (Simulation time: 0 hr 18 min 21 sec) 
Heartbeat CPU  0 instructions:  406000000 cycles:  731556152 heartbeat IPC: 0.25648 cumulative IPC: 0.44928 (Simulation time: 0 hr 18 min 25 sec) 
Heartbeat CPU  0 instructions:  407000000 cycles:  735350386 heartbeat IPC: 0.26356 cumulative IPC: 0.44825 (Simulation time: 0 hr 18 min 29 sec) 
Heartbeat CPU  0 instructions:  408000000 cycles:  739678958 heartbeat IPC: 0.23102 cumulative IPC: 0.44688 (Simulation time: 0 hr 18 min 33 sec) 
Heartbeat CPU  0 instructions:  409000001 cycles:  745079491 heartbeat IPC: 0.18517 cumulative IPC: 0.44485 (Simulation time: 0 hr 18 min 38 sec) 
Heartbeat CPU  0 instructions:  410000003 cycles:  749658998 heartbeat IPC: 0.21836 cumulative IPC: 0.44337 (Simulation time: 0 hr 18 min 42 sec) 
Heartbeat CPU  0 instructions:  411000002 cycles:  753791008 heartbeat IPC: 0.24201 cumulative IPC: 0.44218 (Simulation time: 0 hr 18 min 46 sec) 
Heartbeat CPU  0 instructions:  412000000 cycles:  755083086 heartbeat IPC: 0.77395 cumulative IPC: 0.44279 (Simulation time: 0 hr 18 min 48 sec) 
Heartbeat CPU  0 instructions:  413000003 cycles:  756215184 heartbeat IPC: 0.88332 cumulative IPC: 0.44350 (Simulation time: 0 hr 18 min 50 sec) 
Heartbeat CPU  0 instructions:  414000000 cycles:  757452136 heartbeat IPC: 0.80844 cumulative IPC: 0.44414 (Simulation time: 0 hr 18 min 53 sec) 
Heartbeat CPU  0 instructions:  415000002 cycles:  758714784 heartbeat IPC: 0.79199 cumulative IPC: 0.44476 (Simulation time: 0 hr 18 min 55 sec) 
Heartbeat CPU  0 instructions:  416000000 cycles:  759944881 heartbeat IPC: 0.81294 cumulative IPC: 0.44540 (Simulation time: 0 hr 18 min 58 sec) 
Heartbeat CPU  0 instructions:  417000000 cycles:  761113949 heartbeat IPC: 0.85538 cumulative IPC: 0.44607 (Simulation time: 0 hr 19 min 0 sec) 
Heartbeat CPU  0 instructions:  418000001 cycles:  762299751 heartbeat IPC: 0.84331 cumulative IPC: 0.44673 (Simulation time: 0 hr 19 min 2 sec) 
Heartbeat CPU  0 instructions:  419000003 cycles:  763586648 heartbeat IPC: 0.77706 cumulative IPC: 0.44733 (Simulation time: 0 hr 19 min 5 sec) 
Heartbeat CPU  0 instructions:  420000000 cycles:  764861463 heartbeat IPC: 0.78443 cumulative IPC: 0.44793 (Simulation time: 0 hr 19 min 7 sec) 
Heartbeat CPU  0 instructions:  421000001 cycles:  766273387 heartbeat IPC: 0.70825 cumulative IPC: 0.44844 (Simulation time: 0 hr 19 min 10 sec) 
Heartbeat CPU  0 instructions:  422000000 cycles:  767632570 heartbeat IPC: 0.73574 cumulative IPC: 0.44899 (Simulation time: 0 hr 19 min 12 sec) 
Heartbeat CPU  0 instructions:  423000002 cycles:  768999791 heartbeat IPC: 0.73141 cumulative IPC: 0.44952 (Simulation time: 0 hr 19 min 15 sec) 
Heartbeat CPU  0 instructions:  424000000 cycles:  770423555 heartbeat IPC: 0.70236 cumulative IPC: 0.45002 (Simulation time: 0 hr 19 min 17 sec) 
Heartbeat CPU  0 instructions:  425000000 cycles:  771875861 heartbeat IPC: 0.68856 cumulative IPC: 0.45050 (Simulation time: 0 hr 19 min 20 sec) 
Heartbeat CPU  0 instructions:  426000003 cycles:  773341737 heartbeat IPC: 0.68219 cumulative IPC: 0.45097 (Simulation time: 0 hr 19 min 22 sec) 
Heartbeat CPU  0 instructions:  427000003 cycles:  774902888 heartbeat IPC: 0.64055 cumulative IPC: 0.45138 (Simulation time: 0 hr 19 min 25 sec) 
Heartbeat CPU  0 instructions:  428000000 cycles:  776518410 heartbeat IPC: 0.61899 cumulative IPC: 0.45176 (Simulation time: 0 hr 19 min 27 sec) 
Heartbeat CPU  0 instructions:  429000002 cycles:  778122302 heartbeat IPC: 0.62348 cumulative IPC: 0.45213 (Simulation time: 0 hr 19 min 30 sec) 
Heartbeat CPU  0 instructions:  430000002 cycles:  779414096 heartbeat IPC: 0.77412 cumulative IPC: 0.45271 (Simulation time: 0 hr 19 min 33 sec) 
Heartbeat CPU  0 instructions:  431000003 cycles:  781062904 heartbeat IPC: 0.60650 cumulative IPC: 0.45305 (Simulation time: 0 hr 19 min 35 sec) 
Heartbeat CPU  0 instructions:  432000000 cycles:  782440209 heartbeat IPC: 0.72605 cumulative IPC: 0.45357 (Simulation time: 0 hr 19 min 38 sec) 
Heartbeat CPU  0 instructions:  433000001 cycles:  783916083 heartbeat IPC: 0.67757 cumulative IPC: 0.45402 (Simulation time: 0 hr 19 min 41 sec) 
Heartbeat CPU  0 instructions:  434000001 cycles:  785438672 heartbeat IPC: 0.65678 cumulative IPC: 0.45444 (Simulation time: 0 hr 19 min 43 sec) 
Heartbeat CPU  0 instructions:  435000003 cycles:  786961289 heartbeat IPC: 0.65677 cumulative IPC: 0.45486 (Simulation time: 0 hr 19 min 46 sec) 
Heartbeat CPU  0 instructions:  436000000 cycles:  788512383 heartbeat IPC: 0.64470 cumulative IPC: 0.45525 (Simulation time: 0 hr 19 min 49 sec) 
Heartbeat CPU  0 instructions:  437000002 cycles:  790085971 heartbeat IPC: 0.63549 cumulative IPC: 0.45564 (Simulation time: 0 hr 19 min 51 sec) 
Heartbeat CPU  0 instructions:  438000000 cycles:  791682627 heartbeat IPC: 0.62631 cumulative IPC: 0.45601 (Simulation time: 0 hr 19 min 54 sec) 
Heartbeat CPU  0 instructions:  439000003 cycles:  793183098 heartbeat IPC: 0.66646 cumulative IPC: 0.45643 (Simulation time: 0 hr 19 min 56 sec) 
Heartbeat CPU  0 instructions:  440000000 cycles:  794693923 heartbeat IPC: 0.66189 cumulative IPC: 0.45685 (Simulation time: 0 hr 19 min 59 sec) 
Heartbeat CPU  0 instructions:  441000000 cycles:  796279161 heartbeat IPC: 0.63082 cumulative IPC: 0.45722 (Simulation time: 0 hr 20 min 2 sec) 
Heartbeat CPU  0 instructions:  442000003 cycles:  797745533 heartbeat IPC: 0.68196 cumulative IPC: 0.45766 (Simulation time: 0 hr 20 min 4 sec) 
Heartbeat CPU  0 instructions:  443000002 cycles:  799427903 heartbeat IPC: 0.59440 cumulative IPC: 0.45797 (Simulation time: 0 hr 20 min 7 sec) 
Heartbeat CPU  0 instructions:  444000000 cycles:  800893515 heartbeat IPC: 0.68231 cumulative IPC: 0.45840 (Simulation time: 0 hr 20 min 9 sec) 
Heartbeat CPU  0 instructions:  445000003 cycles:  802481312 heartbeat IPC: 0.62981 cumulative IPC: 0.45877 (Simulation time: 0 hr 20 min 12 sec) 
Heartbeat CPU  0 instructions:  446000002 cycles:  803880786 heartbeat IPC: 0.71455 cumulative IPC: 0.45924 (Simulation time: 0 hr 20 min 14 sec) 
Heartbeat CPU  0 instructions:  447000000 cycles:  805429642 heartbeat IPC: 0.64564 cumulative IPC: 0.45962 (Simulation time: 0 hr 20 min 17 sec) 
Heartbeat CPU  0 instructions:  448000000 cycles:  806921846 heartbeat IPC: 0.67015 cumulative IPC: 0.46004 (Simulation time: 0 hr 20 min 20 sec) 
Heartbeat CPU  0 instructions:  449000003 cycles:  808513874 heartbeat IPC: 0.62813 cumulative IPC: 0.46039 (Simulation time: 0 hr 20 min 22 sec) 
Heartbeat CPU  0 instructions:  450000001 cycles:  809988716 heartbeat IPC: 0.67804 cumulative IPC: 0.46081 (Simulation time: 0 hr 20 min 25 sec) 
Heartbeat CPU  0 instructions:  451000003 cycles:  811565417 heartbeat IPC: 0.63424 cumulative IPC: 0.46117 (Simulation time: 0 hr 20 min 27 sec) 
Heartbeat CPU  0 instructions:  452000000 cycles:  813152097 heartbeat IPC: 0.63024 cumulative IPC: 0.46152 (Simulation time: 0 hr 20 min 30 sec) 
Heartbeat CPU  0 instructions:  453000000 cycles:  814738885 heartbeat IPC: 0.63020 cumulative IPC: 0.46188 (Simulation time: 0 hr 20 min 33 sec) 
Heartbeat CPU  0 instructions:  454000000 cycles:  816195290 heartbeat IPC: 0.68662 cumulative IPC: 0.46230 (Simulation time: 0 hr 20 min 35 sec) 
Heartbeat CPU  0 instructions:  455000002 cycles:  817828909 heartbeat IPC: 0.61214 cumulative IPC: 0.46262 (Simulation time: 0 hr 20 min 38 sec) 
Heartbeat CPU  0 instructions:  456000000 cycles:  819501046 heartbeat IPC: 0.59804 cumulative IPC: 0.46292 (Simulation time: 0 hr 20 min 41 sec) 
Heartbeat CPU  0 instructions:  457000000 cycles:  821075963 heartbeat IPC: 0.63495 cumulative IPC: 0.46327 (Simulation time: 0 hr 20 min 43 sec) 
Heartbeat CPU  0 instructions:  458000002 cycles:  822665970 heartbeat IPC: 0.62893 cumulative IPC: 0.46361 (Simulation time: 0 hr 20 min 46 sec) 
Heartbeat CPU  0 instructions:  459000001 cycles:  824253913 heartbeat IPC: 0.62974 cumulative IPC: 0.46395 (Simulation time: 0 hr 20 min 48 sec) 
Heartbeat CPU  0 instructions:  460000000 cycles:  825729895 heartbeat IPC: 0.67751 cumulative IPC: 0.46436 (Simulation time: 0 hr 20 min 51 sec) 
Heartbeat CPU  0 instructions:  461000003 cycles:  827214889 heartbeat IPC: 0.67341 cumulative IPC: 0.46476 (Simulation time: 0 hr 20 min 54 sec) 
Heartbeat CPU  0 instructions:  462000002 cycles:  828757877 heartbeat IPC: 0.64809 cumulative IPC: 0.46512 (Simulation time: 0 hr 20 min 56 sec) 
Heartbeat CPU  0 instructions:  463000002 cycles:  830323283 heartbeat IPC: 0.63881 cumulative IPC: 0.46547 (Simulation time: 0 hr 20 min 59 sec) 
Heartbeat CPU  0 instructions:  464000000 cycles:  831851136 heartbeat IPC: 0.65451 cumulative IPC: 0.46584 (Simulation time: 0 hr 21 min 1 sec) 
Heartbeat CPU  0 instructions:  465000001 cycles:  833380251 heartbeat IPC: 0.65397 cumulative IPC: 0.46621 (Simulation time: 0 hr 21 min 4 sec) 
Heartbeat CPU  0 instructions:  466000001 cycles:  835052123 heartbeat IPC: 0.59813 cumulative IPC: 0.46649 (Simulation time: 0 hr 21 min 7 sec) 
Heartbeat CPU  0 instructions:  467000001 cycles:  836599786 heartbeat IPC: 0.64614 cumulative IPC: 0.46684 (Simulation time: 0 hr 21 min 9 sec) 
Heartbeat CPU  0 instructions:  468000000 cycles:  838134697 heartbeat IPC: 0.65150 cumulative IPC: 0.46720 (Simulation time: 0 hr 21 min 12 sec) 
Heartbeat CPU  0 instructions:  469000000 cycles:  839888129 heartbeat IPC: 0.57031 cumulative IPC: 0.46743 (Simulation time: 0 hr 21 min 15 sec) 
Heartbeat CPU  0 instructions:  470000003 cycles:  841472789 heartbeat IPC: 0.63105 cumulative IPC: 0.46776 (Simulation time: 0 hr 21 min 17 sec) 
Heartbeat CPU  0 instructions:  471000002 cycles:  843108512 heartbeat IPC: 0.61135 cumulative IPC: 0.46805 (Simulation time: 0 hr 21 min 20 sec) 
Heartbeat CPU  0 instructions:  472000000 cycles:  844460075 heartbeat IPC: 0.73988 cumulative IPC: 0.46852 (Simulation time: 0 hr 21 min 22 sec) 
Heartbeat CPU  0 instructions:  473000001 cycles:  846150756 heartbeat IPC: 0.59148 cumulative IPC: 0.46878 (Simulation time: 0 hr 21 min 25 sec) 
Heartbeat CPU  0 instructions:  474000002 cycles:  847662726 heartbeat IPC: 0.66139 cumulative IPC: 0.46914 (Simulation time: 0 hr 21 min 28 sec) 
Heartbeat CPU  0 instructions:  475000003 cycles:  849282665 heartbeat IPC: 0.61731 cumulative IPC: 0.46944 (Simulation time: 0 hr 21 min 30 sec) 
Heartbeat CPU  0 instructions:  476000000 cycles:  850826710 heartbeat IPC: 0.64765 cumulative IPC: 0.46979 (Simulation time: 0 hr 21 min 33 sec) 
Heartbeat CPU  0 instructions:  477000002 cycles:  852405690 heartbeat IPC: 0.63332 cumulative IPC: 0.47011 (Simulation time: 0 hr 21 min 36 sec) 
Heartbeat CPU  0 instructions:  478000002 cycles:  854032656 heartbeat IPC: 0.61464 cumulative IPC: 0.47040 (Simulation time: 0 hr 21 min 38 sec) 
Heartbeat CPU  0 instructions:  479000002 cycles:  855622516 heartbeat IPC: 0.62899 cumulative IPC: 0.47071 (Simulation time: 0 hr 21 min 41 sec) 
Heartbeat CPU  0 instructions:  480000000 cycles:  857222006 heartbeat IPC: 0.62520 cumulative IPC: 0.47102 (Simulation time: 0 hr 21 min 44 sec) 
Heartbeat CPU  0 instructions:  481000001 cycles:  858888723 heartbeat IPC: 0.59998 cumulative IPC: 0.47129 (Simulation time: 0 hr 21 min 46 sec) 
Heartbeat CPU  0 instructions:  482000000 cycles:  862035639 heartbeat IPC: 0.31777 cumulative IPC: 0.47069 (Simulation time: 0 hr 21 min 50 sec) 
Heartbeat CPU  0 instructions:  483000003 cycles:  865669388 heartbeat IPC: 0.27520 cumulative IPC: 0.46982 (Simulation time: 0 hr 21 min 53 sec) 
Heartbeat CPU  0 instructions:  484000000 cycles:  868905633 heartbeat IPC: 0.30900 cumulative IPC: 0.46918 (Simulation time: 0 hr 21 min 56 sec) 
Heartbeat CPU  0 instructions:  485000003 cycles:  872486400 heartbeat IPC: 0.27927 cumulative IPC: 0.46836 (Simulation time: 0 hr 22 min 0 sec) 
Heartbeat CPU  0 instructions:  486000002 cycles:  875985681 heartbeat IPC: 0.28577 cumulative IPC: 0.46758 (Simulation time: 0 hr 22 min 3 sec) 
Heartbeat CPU  0 instructions:  487000002 cycles:  879446317 heartbeat IPC: 0.28896 cumulative IPC: 0.46684 (Simulation time: 0 hr 22 min 7 sec) 
Heartbeat CPU  0 instructions:  488000000 cycles:  883116403 heartbeat IPC: 0.27247 cumulative IPC: 0.46598 (Simulation time: 0 hr 22 min 10 sec) 
Heartbeat CPU  0 instructions:  489000001 cycles:  886534642 heartbeat IPC: 0.29255 cumulative IPC: 0.46527 (Simulation time: 0 hr 22 min 14 sec) 
Heartbeat CPU  0 instructions:  490000001 cycles:  890058611 heartbeat IPC: 0.28377 cumulative IPC: 0.46451 (Simulation time: 0 hr 22 min 17 sec) 
Heartbeat CPU  0 instructions:  491000000 cycles:  894014154 heartbeat IPC: 0.25281 cumulative IPC: 0.46352 (Simulation time: 0 hr 22 min 21 sec) 
Heartbeat CPU  0 instructions:  492000000 cycles:  897991687 heartbeat IPC: 0.25141 cumulative IPC: 0.46252 (Simulation time: 0 hr 22 min 24 sec) 
Heartbeat CPU  0 instructions:  493000002 cycles:  901314107 heartbeat IPC: 0.30099 cumulative IPC: 0.46189 (Simulation time: 0 hr 22 min 28 sec) 
Heartbeat CPU  0 instructions:  494000001 cycles:  904791570 heartbeat IPC: 0.28757 cumulative IPC: 0.46118 (Simulation time: 0 hr 22 min 31 sec) 
Heartbeat CPU  0 instructions:  495000000 cycles:  908445994 heartbeat IPC: 0.27364 cumulative IPC: 0.46038 (Simulation time: 0 hr 22 min 35 sec) 
Heartbeat CPU  0 instructions:  496000000 cycles:  911859483 heartbeat IPC: 0.29296 cumulative IPC: 0.45972 (Simulation time: 0 hr 22 min 38 sec) 
Heartbeat CPU  0 instructions:  497000000 cycles:  915190734 heartbeat IPC: 0.30019 cumulative IPC: 0.45910 (Simulation time: 0 hr 22 min 41 sec) 
Heartbeat CPU  0 instructions:  498000001 cycles:  918612788 heartbeat IPC: 0.29222 cumulative IPC: 0.45845 (Simulation time: 0 hr 22 min 45 sec) 
Heartbeat CPU  0 instructions:  499000000 cycles:  922074331 heartbeat IPC: 0.28889 cumulative IPC: 0.45777 (Simulation time: 0 hr 22 min 48 sec) 
Heartbeat CPU  0 instructions:  500000000 cycles:  925914958 heartbeat IPC: 0.26037 cumulative IPC: 0.45691 (Simulation time: 0 hr 22 min 51 sec) 
Heartbeat CPU  0 instructions:  501000002 cycles:  929699030 heartbeat IPC: 0.26427 cumulative IPC: 0.45608 (Simulation time: 0 hr 22 min 55 sec) 
Heartbeat CPU  0 instructions:  502000003 cycles:  932790550 heartbeat IPC: 0.32347 cumulative IPC: 0.45561 (Simulation time: 0 hr 22 min 58 sec) 
Heartbeat CPU  0 instructions:  503000000 cycles:  936333343 heartbeat IPC: 0.28226 cumulative IPC: 0.45492 (Simulation time: 0 hr 23 min 1 sec) 
Heartbeat CPU  0 instructions:  504000000 cycles:  939699403 heartbeat IPC: 0.29708 cumulative IPC: 0.45432 (Simulation time: 0 hr 23 min 5 sec) 
Heartbeat CPU  0 instructions:  505000003 cycles:  943157379 heartbeat IPC: 0.28919 cumulative IPC: 0.45368 (Simulation time: 0 hr 23 min 8 sec) 
Heartbeat CPU  0 instructions:  506000002 cycles:  946460648 heartbeat IPC: 0.30273 cumulative IPC: 0.45313 (Simulation time: 0 hr 23 min 11 sec) 
Heartbeat CPU  0 instructions:  507000000 cycles:  949821357 heartbeat IPC: 0.29756 cumulative IPC: 0.45254 (Simulation time: 0 hr 23 min 15 sec) 
Heartbeat CPU  0 instructions:  508000000 cycles:  952805240 heartbeat IPC: 0.33513 cumulative IPC: 0.45216 (Simulation time: 0 hr 23 min 18 sec) 
Heartbeat CPU  0 instructions:  509000002 cycles:  955499273 heartbeat IPC: 0.37119 cumulative IPC: 0.45192 (Simulation time: 0 hr 23 min 21 sec) 
Heartbeat CPU  0 instructions:  510000002 cycles:  958122979 heartbeat IPC: 0.38114 cumulative IPC: 0.45171 (Simulation time: 0 hr 23 min 25 sec) 
Heartbeat CPU  0 instructions:  511000003 cycles:  960926285 heartbeat IPC: 0.35672 cumulative IPC: 0.45142 (Simulation time: 0 hr 23 min 28 sec) 
Heartbeat CPU  0 instructions:  512000000 cycles:  963623721 heartbeat IPC: 0.37072 cumulative IPC: 0.45118 (Simulation time: 0 hr 23 min 32 sec) 
Heartbeat CPU  0 instructions:  513000003 cycles:  966302756 heartbeat IPC: 0.37327 cumulative IPC: 0.45095 (Simulation time: 0 hr 23 min 35 sec) 
Heartbeat CPU  0 instructions:  514000003 cycles:  968977401 heartbeat IPC: 0.37388 cumulative IPC: 0.45073 (Simulation time: 0 hr 23 min 39 sec) 
Heartbeat CPU  0 instructions:  515000000 cycles:  971646209 heartbeat IPC: 0.37470 cumulative IPC: 0.45051 (Simulation time: 0 hr 23 min 42 sec) 
Heartbeat CPU  0 instructions:  516000000 cycles:  974200532 heartbeat IPC: 0.39149 cumulative IPC: 0.45034 (Simulation time: 0 hr 23 min 45 sec) 
Heartbeat CPU  0 instructions:  517000001 cycles:  976819798 heartbeat IPC: 0.38179 cumulative IPC: 0.45015 (Simulation time: 0 hr 23 min 49 sec) 
Heartbeat CPU  0 instructions:  518000001 cycles:  979296777 heartbeat IPC: 0.40372 cumulative IPC: 0.45003 (Simulation time: 0 hr 23 min 52 sec) 
Heartbeat CPU  0 instructions:  519000000 cycles:  981897903 heartbeat IPC: 0.38445 cumulative IPC: 0.44984 (Simulation time: 0 hr 23 min 55 sec) 
Heartbeat CPU  0 instructions:  520000000 cycles:  984487561 heartbeat IPC: 0.38615 cumulative IPC: 0.44967 (Simulation time: 0 hr 23 min 59 sec) 
Heartbeat CPU  0 instructions:  521000003 cycles:  987064203 heartbeat IPC: 0.38810 cumulative IPC: 0.44950 (Simulation time: 0 hr 24 min 2 sec) 
Heartbeat CPU  0 instructions:  522000002 cycles:  989568108 heartbeat IPC: 0.39938 cumulative IPC: 0.44936 (Simulation time: 0 hr 24 min 5 sec) 
Heartbeat CPU  0 instructions:  523000001 cycles:  992184710 heartbeat IPC: 0.38217 cumulative IPC: 0.44918 (Simulation time: 0 hr 24 min 9 sec) 
Heartbeat CPU  0 instructions:  524000000 cycles:  994687842 heartbeat IPC: 0.39950 cumulative IPC: 0.44905 (Simulation time: 0 hr 24 min 12 sec) 
Heartbeat CPU  0 instructions:  525000000 cycles:  997300490 heartbeat IPC: 0.38275 cumulative IPC: 0.44886 (Simulation time: 0 hr 24 min 16 sec) 
Heartbeat CPU  0 instructions:  526000001 cycles:  999855445 heartbeat IPC: 0.39140 cumulative IPC: 0.44871 (Simulation time: 0 hr 24 min 19 sec) 
Heartbeat CPU  0 instructions:  527000001 cycles: 1002451827 heartbeat IPC: 0.38515 cumulative IPC: 0.44853 (Simulation time: 0 hr 24 min 22 sec) 
Heartbeat CPU  0 instructions:  528000000 cycles: 1005010796 heartbeat IPC: 0.39078 cumulative IPC: 0.44838 (Simulation time: 0 hr 24 min 26 sec) 
[...]
AAAAAAAAAAAAAAAAAAAAAAAAAAAAAAAAAAA222222222222222222IIIIIIIIIII
AAAAAAAAAAAAAAAAAAAAAAAAAAAAAAAAAAAA22222222222222222IIIIIIIIIII
AAAAAAAAAAAAAAAAAAAAAAAAAAAAAAAAAAAAA2222222222222222IIIIIIIIIII
AAAAAAAAAAAAAAAAAAAAAAAAAAAAAAAAAAAAAA2222222222222224IIIIIIIIII
AAAAAAAAAAAAAAAAAAAAAAAAAAAAAAAAAAAAAAA2222222222222244IIIIIIIII
AAAAAAAAAAAAAAAAAAAAAAAAAAAAAAAAAAAAAAAA2222222222222444IIIIIIII
AAAAAAAAAAAAAAAAAAAAAAAAAAAAAAAAAAAAAAAAA2222222222224444IIIIIII
AAAAAAAAAAAAAAAAAAAAAAAAAAAAAAAAAAAAAAAAA2222222222222224IIIIIII
AAAAAAAAAAAAAAAAAAAAAAAAAAAAAAAAAAAAAAAAAA222222222222222IIIIIII
AAAAAAAAAAAAAAAAAAAAAAAAAAAAAAAAAAAAAAAAAAA222222222222222IIIIII
AAAAAAAAAAAAAAAAAAAAAAAAAAAAAAAAAAAAAAAAAAAA222222222222222IIIII
AAAAAAAAAAAAAAAAAAAAAAAAAAAAAAAAAAAAAAAAAAAAA222222222222222IIII
AAAAAAAAAAAAAAAAAAAAAAAAAAAAAAAAAAAAAAAAAAAAAA222222222222222III
AAAAAAAAAAAAAAAAAAAAAAAAAAAAAAAAAAAAAAAAAAAAAAA222222222222222II
AAAAAAAAAAAAAAAAAAAAAAAAAAAAAAAAAAAAAAAAAAAAAAAA222222222222222I
AAAAAAAAAAAAAAAAAAAAAAAAAAAAAAAAAAAAAAAAAAAAAAAAA222222222222222
AAAAAAAAAAAAAAAAAAAAAAAAAAAAAAAAAAAAAAAAAAAAAAAAAA22222222222222
AAAAAAAAAAAAAAAAAAAAAAAAAAAAAAAAAAAAAAAAAAAAAAAAAAA2222222222222
AAAAAAAAAAAAAAAAAAAAAAAAAAAAAAAAAAAAAAAAAAAAAAAAAAAA222222222222
AAAAAAAAAAAAAAAAAAAAAAAAAAAAAAAAAAAAAAAAAAAAAAAAAAAAA22222222222
AAAAAAAAAAAAAAAAAAAAAAAAAAAAAAAAAAAAAAAAAAAAAAAAAAAAAA2222222222
AAAAAAAAAAAAAAAAAAAAAAAAAAAAAAAAAAAAAAAAAAAAAAAAAAAAAAA222222222
AAAAAAAAAAAAAAAAAAAAAAAAAAAAAAAAAAAAAAAAAAAAAAAAAAAAAAAA22222222
AAAAAAAAAAAAAAAAAAAAAAAAAAAAAAAAAAAAAAAAAAAAAAAAAAAAAAAAA2222222
AAAAAAAAAAAAAAAAAAAAAAAAAAAAAAAAAAAAAAAAAAAAAAAAAAAAAAAAAA222222
AAAAAAAAAAAAAAAAAAAAAAAAAAAAAAAAAAAAAAAAAAAAAAAAAAAAAAAAAAA22222
AAAAAAAAAAAAAAAAAAAAAAAAAAAAAAAAAAAAAAAAAAAAAAAAAAAAAAAAAAAA2222
AAAAAAAAAAAAAAAAAAAAAAAAAAAAAAAAAAAAAAAAAAAAAAAAAAAAAAAAAAAAA222
AAAAAAAAAAAAAAAAAAAAAAAAAAAAAAAAAAAAAAAAAAAAAAAAAAAAAAAAAAAAAA22
AAAAAAAAAAAAAAAAAAAAAAAAAAAAAAAAAAAAAAAAAAAAAAAAAAAAAAAAAAAAAAA2
AAAAAAAAAAAAAAAAAAAAAAAAAAAAAAAAAAAAAAAAAAAAAAAAAAAAAAAAAAAAAAAA
AIAAAAAAAAAAAAAAAAAAAAAAAAAAAAAAAAAAAAAAAAAAAAAAAAAAAAAAAAAAAAAA
AIIAAAAAAAAAAAAAAAAAAAAAAAAAAAAAAAAAAAAAAAAAAAAAAAAAAAAAAAAAAAAA
AIIIAAAAAAAAAAAAAAAAAAAAAAAAAAAAAAAAAAAAAAAAAAAAAAAAAAAAAAAAAAAA
AIIIIAAAAAAAAAAAAAAAAAAAAAAAAAAAAAAAAAAAAAAAAAAAAAAAAAAAAAAAAAAA
AIIIIIAAAAAAAAAAAAAAAAAAAAAAAAAAAAAAAAAAAAAAAAAAAAAAAAAAAAAAAAAA
AIIIIIAAAAIAAAAAAAAAAAAAAAAAAAAAAAAAAAAAAAAAAAAAAAAAAAAAAAAAAAAA
AIIIIIAAAAIIAAAAAAAAAAAAAAAAAAAAAAAAAAAAAAAAAAAAAAAAAAAAAAAAAAAA
AIIIIIAAAAIIIAAAAAAAAAAAAAAAAAAAAAAAAAAAAAAAAAAAAAAAAAAAAAAAAAAA
AIIIIIAAAAIIIIAAAAAAAAAAAAAAAAAAAAAAAAAAAAAAAAAAAAAAAAAAAAAAAAAA
AIIIIIAAAAIIIIIAAAAAAAAAAAAAAAAAAAAAAAAAAAAAAAAAAAAAAAAAAAAAAAAA
AIIIIIAAAAIIIIIIAAAAAAAAAAAAAAAAAAAAAAAAAAAAAAAAAAAAAAAAAAAAAAAA
AIIIIIAAAAIIIIIIIAAAAAAAAAAAAAAAAAAAAAAAAAAAAAAAAAAAAAAAAAAAAAAA
AIIIIIAAAAIIIIIIIIAAAAAAAAAAAAAAAAAAAAAAAAAAAAAAAAAAAAAAAAAAAAAA
AIIIIIAAAAIIIIIIIIIAAAAAAAAAAAAAAAAAAAAAAAAAAAAAAAAAAAAAAAAAAAAA
AIIIIIAAAAIIIIIIIIIAAIAAAAAAAAAAAAAAAAAAAAAAAAAAAAAAAAAAAAAAAAAA
AIIIIIAAIAIIIIIIIIIAAIAAAAAAAAAAAAAAAAAAAAAAAAAAAAAAAAAAAAAAAAAA
AIIIIIAAIIIIIIIIIIIAAIAAAAAAAAAAAAAAAAAAAAAAAAAAAAAAAAAAAAAAAAAA
AIIIIIAAIIIIIIIIIIIIAIAAAAAAAAAAAAAAAAAAAAAAAAAAAAAAAAAAAAAAAAAA
AIIIIIAAIIIIIIIIIIIIIIAAAAAAAAAAAAAAAAAAAAAAAAAAAAAAAAAAAAAAAAAA
AIIIIIAAIIIIIIIIIIIIIIIAAAAAAAAAAAAAAAAAAAAAAAAAAAAAAAAAAAAAAAAA
AIIIIIAAIIIIIIIIIIIIIIIIAAAAAAAAAAAAAAAAAAAAAAAAAAAAAAAAAAAAAAAA
AIIIIIAAIIIIIIIIIIIIIIIIAIAAAAAAAAAAAAAAAAAAAAAAAAAAAAAAAAAAAAAA
AIIIIIAAIIIIIIIIIIIIIIIIAIIAAAAAAAAAAAAAAAAAAAAAAAAAAAAAAAAAAAAA
AIIIIIAAIIIIIIIIIIIIIIIIAIIIAAAAAAAAAAAAAAAAAAAAAAAAAAAAAAAAAAAA
AIIIIIAAIIIIIIIIIIIIIIIIAIIIIAAAAAAAAAAAAAAAAAAAAAAAAAAAAAAAAAAA
AIIIIIAAIIIIIIIIIIIIIIIIAIIIIIAAAAAAAAAAAAAAAAAAAAAAAAAAAAAAAAAA
AIIIIIAAIIIIIIIIIIIIIIIIAIIIIIIAAAAAAAAAAAAAAAAAAAAAAAAAAAAAAAAA
AIIIIIAAIIIIIIIIIIIIIIIIAIIIIIIIAAAAAAAAAAAAAAAAAAAAAAAAAAAAAAAA
AIIIIIAAIIIIIIIIIIIIIIIIAIIIIIIIIAAAAAAAAAAAAAAAAAAAAAAAAAAAAAAA
AIIIIIAAIIIIIIIIIIIIIIIIAIIIIIIIIIAAAAAAAAAAAAAAAAAAAAAAAAAAAAAA
AIIIIIAAIIIIIIIIIIIIIIIIAIIIIIIIIIIAAAAAAAAAAAAAAAAAAAAAAAAAAAAA
AIIIIIAAIIIIIIIIIIIIIIIIAIIIIIIIIIIIAAAAAAAAAAAAAAAAAAAAAAAAAAAA
AIIIIIAAIIIIIIIIIIIIIIIIIIIIIIIIIIIIAAAAAAAAAAAAAAAAAAAAAAAAAAAA
AIIIIIAAIIIIIIIIIIIIIIIIIIIIIIIIIIIIAAAAAIAAAAAAAAAAAAAAAAAAAAAA
AIIIIIAAIIIIIIIIIIIIIIIIIIIIIIIIIIIIAAAAAIIAAAAAAAAAAAAAAAAAAAAA
AIIIIIAAIIIIIIIIIIIIIIIIIIIIIIIIIIIIAAAAAIIIAAAAAAAAAAAAAAAAAAAA
AIIIIIAAIIIIIIIIIIIIIIIIIIIIIIIIIIIIAAAAAIIIIAAAAAAAAAAAAAAAAAAA
AIIIIIAAIIIIIIIIIIIIIIIIIIIIIIIIIIIIAAAAAIIIIIAAAAAAAAAAAAAAAAAA
AIIIIIAAIIIIIIIIIIIIIIIIIIIIIIIIIIIIAAAAIIIIIIAAAAAAAAAAAAAAAAAA
AIIIIIAAIIIIIIIIIIIIIIIIIIIIIIIIIIIIAAAAIIIIIIAAAIAAAAAAAAAAAAAA
AIIIIIAAIIIIIIIIIIIIIIIIIIIIIIIIIIIIAAAAIIIIIIAAAIIAAAAAAAAAAAAA
AIIIIIAAIIIIIIIIIIIIIIIIIIIIIIIIIIIIAAAAIIIIIIAAAIIAAAAAAIAAAAAA
AIIIIIAAIIIIIIIIIIIIIIIIIIIIIIIIIIIIAAAAIIIIIIAAAIIAAAAAAIIAAAAA
AIIIIIAAIIIIIIIIIIIIIIIIIIIIIIIIIIIIAAAAIIIIIIAAAIIAAAAAIIIAAAAA
A22222AA22222222IIIIIIII4IIIIIIIIIIIAAAAIIIIIIAAAIIAAAAAIIIAAAAA
AA2222AA222222222IIIIIII44IIIIIIIIIIAAAAIIIIIIAAAIIAAAAAIIIAAAAA
AAA222AA2222222222IIIIII444IIIIIIIIIAAAAIIIIIIAAAIIAAAAAIIIAAAAA
AAAA22AA22222222222IIIII4444IIIIIIIIAAAAIIIIIIAAAIIAAAAAIIIAAAAA
AAAAA2AA222222222222IIII44444IIIIIIIAAAAIIIIIIAAAIIAAAAAIIIAAAAA
AAAAAAAA2222222222222III444444IIIIIIAAAAIIIIIIAAAIIAAAAAIIIAAAAA
AAAAAAAA22222222222222II4444444IIIIIAAAAIIIIIIAAAIIAAAAAIIIAAAAA
AAAAAAAA222222222222222I44444444IIIIAAAAIIIIIIAAAIIAAAAAIIIAAAAA
AAAAAAAAA222222222222222444444444IIIAAAAIIIIIIAAAIIAAAAAIIIAAAAA
AAAAAAAAAA222222222222224444444444IIAAAAIIIIIIAAAIIAAAAAIIIAAAAA
AAAAAAAAAAA222222222222244444444444IAAAAIIIIIIAAAIIAAAAAIIIAAAAA
AAAAAAAAAAAA222222222222444444444444AAAAIIIIIIAAAIIAAAAAIIIAAAAA
AAAAAAAAAAAAA22222222222444444444444AAAAIIIIIIAAAIIAAAAAIIIAAAAA
AAAAAAAAAAAAAA2222222222444444444444AAAAIIIIIIAAAIIAAAAAIIIAAAAA
AAAAAAAAAAAAAAA222222222444444444444AAAAIIIIIIAAAIIAAAAAIIIAAAAA
AAAAAAAAAAAAAAAA22222222244444444444AAAAIIIIIIAAAIIAAAAAIIIAAAAA
AAAAAAAAAAAAAAAAA2222222224444444444AAAA4IIIIIAAAIIAAAAAIIIAAAAA
AAAAAAAAAAAAAAAAAA222222222444444444AAAA44IIIIAAAIIAAAAAIIIAAAAA
AAAAAAAAAAAAAAAAAAA22222222244444444AAAA444IIIAAAIIAAAAAIIIAAAAA
AAAAAAAAAAAAAAAAAAAA2222222224444444AAAA4444IIAAAIIAAAAAIIIAAAAA
AAAAAAAAAAAAAAAAAAAAA222222222444444AAAA44444IAAAIIAAAAAIIIAAAAA
AAAAAAAAAAAAAAAAAAAAAA22222222244444AAAA444444AAAIIAAAAAIIIAAAAA
AAAAAAAAAAAAAAAAAAAAAAA2222222224444AAAA444444AAAIIAAAAAIIIAAAAA
AAAAAAAAAAAAAAAAAAAAAAAA222222222444AAAA444444AAAIIAAAAAIIIAAAAA
AAAAAAAAAAAAAAAAAAAAAAAAA22222222244AAAA444444AAAIIAAAAAIIIAAAAA
AAAAAAAAAAAAAAAAAAAAAAAAAA2222222224AAAA444444AAA4IAAAAAIIIAAAAA
AAAAAAAAAAAAAAAAAAAAAAAAAAA222222222AAAA444444AAA44AAAAAIIIAAAAA
AAAAAAAAAAAAAAAAAAAAAAAAAAAA22222222AAAA444444AAA44AAAAAIIIAAAAA
AAAAAAAAAAAAAAAAAAAAAAAAAAAAA2222222AAAA444444AAA44AAAAAIIIAAAAA
AAAAAAAAAAAAAAAAAAAAAAAAAAAAAA222222AAAA444444AAA44AAAAAIIIAAAAA
AAAAAAAAAAAAAAAAAAAAAAAAAAAAAAA22222AAAA222222AAA44AAAAAIIIAAAAA
AAAAAAAAAAAAAAAAAAAAAAAAAAAAAAAA2222AAAA222222AAA44AAAAAIIIAAAAA
AAAAAAAAAAAAAAAAAAAAAAAAAAAAAAAAA222AAAA222222AAA44AAAAAIIIAAAAA
AAAAAAAAAAAAAAAAAAAAAAAAAAAAAAAAAA22AAAA222222AAA44AAAAAIIIAAAAA
AAAAAAAAAAAAAAAAAAAAAAAAAAAAAAAAAAA2AAAA222222AAA24AAAAAIIIAAAAA
AAAAAAAAAAAAAAAAAAAAAAAAAAAAAAAAAAAAAAAA222222AAA22AAAAAIIIAAAAA
AAAAAAAAAAAAAAAAAAAAAAAAAAAAAAAAAAAAAAAAA22222AAA22AAAAA4IIAAAAA
AAAAAAAAAAAAAAAAAAAAAAAAAAAAAAAAAAAAAAAAAA2222AAA22AAAAA24IAAAAA
AAAAAAAAAAAAAAAAAAAAAAAAAAAAAAAAAAAAAAAAAAA222AAA22AAAAA224AAAAA
AAAAAAAAAAAAAAAAAAAAAAAAAAAAAAAAAAAAAAAAAAAA22AAA22AAAAA222AAAAA
AAAAAAAAAAAAAAAAAAAAAAAAAAAAAAAAAAAAAAAAAAAAA2AAA22AAAAA222AAAAA
AAAAAAAAAAAAAAAAAAAAAAAAAAAAAAAAAAAAAAAAAAAAAAAAA22AAAAA222AAAAA
AAAAAAAAAAAAAAAAAAAAAAAAAAAAAAAAAAAAAAAAAAAAAAAAAA2AAAAA222AAAAA
AAAAAAAAAAAAAAAAAAAAAAAAAAAAAAAAAAAAAAAAAAAAAAAAAAAAAAAA222AAAAA
AAAAAAAAAAAAAAAAAAAAAAAAAAAAAAAAAAAAAAAAAAAAAAAAAAAAAAAAA22AAAAA
AAAAAAAAAAAAAAAAAAAAAAAAAAAAAAAAAAAAAAAAAAAAAAAAAAAAAAAAAA2AAAAA
AAAAAAAAAAAAAAAAAAAAAAAAAAAAAAAAAAAAAAAAAAAAAAAAAAAAAAAAAAAAAAAA
AAAAAAAAAAAAAAAAAAAAAAAAAAAAAAAAAAAAIAAAAAAAAAAAAAAAAAAAAAAAAAAA
AAAAAAAAAAAAAAAAAAAAAAAAAAAAAAAAAAAAIIAAAAAAAAAAAAAAAAAAAAAAAAAA
AAAAAAAAAAAAAAAAAAAAAAAAAAAAAAAAAAAAIIIAAAAAAAAAAAAAAAAAAAAAAAAA
AAAAAAAAAAAAAAAAAAAAAAAAAAAAAAAAAAAAIIIIAAAAAAAAAAAAAAAAAAAAAAAA
AIAAAAAAAAAAAAAAAAAAAAAAAAAAAAAAAAAAIIIIAAAAAAAAAAAAAAAAAAAAAAAA
AIIAAAAAAAAAAAAAAAAAAAAAAAAAAAAAAAAAIIIIAAAAAAAAAAAAAAAAAAAAAAAA
AIIIAAAAAAAAAAAAAAAAAAAAAAAAAAAAAAAAIIIIAAAAAAAAAAAAAAAAAAAAAAAA
AIIIIAAAAAAAAAAAAAAAAAAAAAAAAAAAAAAAIIIIAAAAAAAAAAAAAAAAAAAAAAAA
AIIIIIAAAAAAAAAAAAAAAAAAAAAAAAAAAAAAIIIIAAAAAAAAAAAAAAAAAAAAAAAA
AIIIIIAAAIAAAAAAAAAAAAAAAAAAAAAAAAAAIIIIAAAAAAAAAAAAAAAAAAAAAAAA
AIIIIIAAAIIAAAAAAAAAAAAAAAAAAAAAAAAAIIIIAAAAAAAAAAAAAAAAAAAAAAAA
AIIIIIAAAIIIAAAAAAAAAAAAAAAAAAAAAAAAIIIIAAAAAAAAAAAAAAAAAAAAAAAA
AIIIIIAAAIIIIAAAAAAAAAAAAAAAAAAAAAAAIIIIAAAAAAAAAAAAAAAAAAAAAAAA
AIIIIIAAAIIIIIAAAAAAAAAAAAAAAAAAAAAAIIIIAAAAAAAAAAAAAAAAAAAAAAAA
AIIIIIAAAIIIIIIAAAAAAAAAAAAAAAAAAAAAIIIIAAAAAAAAAAAAAAAAAAAAAAAA
AIIIIIAAAIIIIIIIAAAAAAAAAAAAAAAAAAAAIIIIAAAAAAAAAAAAAAAAAAAAAAAA
AIIIIIAAAIIIIIIIIAAAAAAAAAAAAAAAAAAAIIIIAAAAAAAAAAAAAAAAAAAAAAAA
AIIIIIAAAIIIIIIIIIAAAAAAAAAAAAAAAAAAIIIIAAAAAAAAAAAAAAAAAAAAAAAA
AIIIIIAAAIIIIIIIIIIAAAAAAAAAAAAAAAAAIIIIAAAAAAAAAAAAAAAAAAAAAAAA
AIIIIIAAAIIIIIIIIIIAAIAAAAAAAAAAAAAAIIIIAAAAAAAAAAAAAAAAAAAAAAAA
AIIIIIAAAIIIIIIIIIIAAIIAAAAAAAAAAAAAIIIIAAAAAAAAAAAAAAAAAAAAAAAA
AIIIIIAAAIIIIIIIIIIAAIIAAIAAAAAAAAAAIIIIAAAAAAAAAAAAAAAAAAAAAAAA
AIIIIIAAAIIIIIIIIIIAAIIAAIIAAAAAAAAAIIIIAAAAAAAAAAAAAAAAAAAAAAAA
AIIIIIAAAIIIIIIIIIIAAIIAAIIIAAAAAAAAIIIIAAAAAAAAAAAAAAAAAAAAAAAA
AIIIIIAAAIIIIIIIIIIIAIIAAIIIAAAAAAAAIIIIAAAAAAAAAAAAAAAAAAAAAAAA
AIIIIIAAAIIIIIIIIIIIAIIAAIIIIAAAAAAAIIIIAAAAAAAAAAAAAAAAAAAAAAAA
AIIIIIAAAIIIIIIIIIIIIIIAAIIIIAAAAAAAIIIIAAAAAAAAAAAAAAAAAAAAAAAA
AIIIIIAAAIIIIIIIIIIIIIIAAIIIIIAAAAAAIIIIAAAAAAAAAAAAAAAAAAAAAAAA
AIIIIIAAAIIIIIIIIIIIIIIAAIIIIIIAAAAAIIIIAAAAAAAAAAAAAAAAAAAAAAAA
AIIIIIAAAIIIIIIIIIIIIIIAAIIIIIIIAAAAIIIIAAAAAAAAAAAAAAAAAAAAAAAA
AIIIIIAAAIIIIIIIIIIIIIIIAIIIIIIIAAAAIIIIAAAAAAAAAAAAAAAAAAAAAAAA
AIIIIIAAAIIIIIIIIIIIIIIIIIIIIIIIAAAAIIIIAAAAAAAAAAAAAAAAAAAAAAAA
AIIIIIAAAIIIIIIIIIIIIIIIIIIIIIIIAAIAIIIIAAAAAAAAAAAAAAAAAAAAAAAA
AIIIIIAAAIIIIIIIIIIIIIIIIIIIIIIIAAIIIIIIAAAAAAAAAAAAAAAAAAAAAAAA
AIIIIIAAAIIIIIIIIIIIIIIIIIIIIIIIAAIIIIIIAIAAAAAAAAAAAAAAAAAAAAAA
AIIIIIAAAIIIIIIIIIIIIIIIIIIIIIIIAAIIIIIIAIAAAAAAAAAIAAAAAAAAAAAA
AIIIIIAAAIIIIIIIIIIIIIIIIIIIIIIIAAIIIIIIAIAAAAAAAAAIIAAAAAAAAAAA
AIIIIIAAAIIIIIIIIIIIIIIIIIIIIIIIAAIIIIIIAIAAAAAAAAAIIIAAAAAAAAAA
AIIIIIAAAIIIIIIIIIIIIIIIIIIIIIIIAAIIIIIIAIAAAAAAAAAIIIIAAAAAAAAA
AIIIIIAAAIIIIIIIIIIIIIIIIIIIIIIIAAIIIIIIAIAAAAAAAAAIIIIIAAAAAAAA
AIIIIIAAAIIIIIIIIIIIIIIIIIIIIIIIIAIIIIIIAIAAAAAAAAAIIIIIAAAAAAAA
AIIIIIAAAIIIIIIIIIIIIIIIIIIIIIIIIIIIIIIIAIAAAAAAAAAIIIIIAAAAAAAA
AIIIIIAAAIIIIIIIIIIIIIIIIIIIIIIIIIIIIIIIIIAAAAAAAAAIIIIIAAAAAAAA
AIIIIIAAAIIIIIIIIIIIIIIIIIIIIIIIIIIIIIIIIIAAAAAAAIAIIIIIAAAAAAAA
AIIIIIAAAIIIIIIIIIIIIIIIIIIIIIIIIIIIIIIIIIAAAAAAAIIIIIIIAAAAAAAA
AIIIIIAAAIIIIIIIIIIIIIIIIIIIIIIIIIIIIIIIIIAAAAAAAIIIIIIIIAAAAAAA
AIIIIIAAAIIIIIIIIIIIIIIIIIIIIIIIIIIIIIIIIIAAAAAAAIIIIIIIIIAAAAAA
AIIIIIAAAIIIIIIIIIIIIIIIIIIIIIIIIIIIIIIIIIAAAAAAAIIIIIIIIIIAAAAA
AIIIIIAAAIIIIIIIIIIIIIIIIIIIIIIIIIIIIIIIIIAAAAAAAIIIIIIIIIIIAAAA
AIIIIIAAAIIIIIIIIIIIIIIIIIIIIIIIIIIIIIIIIIAAAAAAAIIIIIIIIIIIIAAA
AIIIIIAAAIIIIIIIIIIIIIIIIIIIIIIIIIIIIIIIIIAAAAAAAIIIIIIIIIIIIIAA
AIIIIIAAAIIIIIIIIIIIIIIIIIIIIIIIIIIIIIIIIIAAAAAAAIIIIIIIIIIIIIIA
A22222AAA2222222IIIIIIII2IIIIIIIIIIIIIIIIIAAAAAAAIIIIIIIIIIIIIIA
AA2222AAA22222222IIIIIII22IIIIIIIIIIIIIIIIAAAAAAAIIIIIIIIIIIIIIA
AAA222AAA222222222IIIIII222IIIIIIIIIIIIIIIAAAAAAAIIIIIIIIIIIIIIA
AAAA22AAA2222222222IIIII2222IIIIIIIIIIIIIIAAAAAAAIIIIIIIIIIIIIIA
AAAAA2AAA22222222222IIII22222IIIIIIIIIIIIIAAAAAAAIIIIIIIIIIIIIIA
AAAAAAAAA222222222222III222222IIIIIIIIIIIIAAAAAAAIIIIIIIIIIIIIIA
AAAAAAAAA2222222222222II2222222IIIIIIIIIIIAAAAAAAIIIIIIIIIIIIIIA
AAAAAAAAA22222222222222I22222222IIIIIIIIIIAAAAAAAIIIIIIIIIIIIIIA
AAAAAAAAA222222222222222222222222IIIIIIIIIAAAAAAAIIIIIIIIIIIIIIA
AAAAAAAAAA22222222222222222222222IIIIIIIIIAAAAAAAIIIIIIIIIIIIIIA
AAAAAAAAAAA2222222222222222222222IIIIIIIIIAAAAAAAIIIIIIIIIIIIIIA
AAAAAAAAAAAA222222222222222222222IIIIIIIIIAAAAAAAIIIIIIIIIIIIIIA
AAAAAAAAAAAAA22222222222222222222IIIIIIIIIAAAAAAAIIIIIIIIIIIIIIA
AAAAAAAAAAAAAA2222222222222222222IIIIIIIIIAAAAAAAIIIIIIIIIIIIIIA
AAAAAAAAAAAAAAA222222222222222222IIIIIIIIIAAAAAAAIIIIIIIIIIIIIIA
AAAAAAAAAAAAAAAA22222222222222222IIIIIIIIIAAAAAAAIIIIIIIIIIIIIIA
AAAAAAAAAAAAAAAAA2222222222222222IIIIIIIIIAAAAAAAIIIIIIIIIIIIIIA
AAAAAAAAAAAAAAAAAA2222222222222224IIIIIIIIAAAAAAAIIIIIIIIIIIIIIA
AAAAAAAAAAAAAAAAAAA2222222222222244IIIIIIIAAAAAAAIIIIIIIIIIIIIIA
AAAAAAAAAAAAAAAAAAAA2222222222222444IIIIIIAAAAAAAIIIIIIIIIIIIIIA
AAAAAAAAAAAAAAAAAAAAA2222222222224444IIIIIAAAAAAAIIIIIIIIIIIIIIA
AAAAAAAAAAAAAAAAAAAAAA2222222222244444IIIIAAAAAAAIIIIIIIIIIIIIIA
AAAAAAAAAAAAAAAAAAAAAAA2222222222444444IIIAAAAAAAIIIIIIIIIIIIIIA
AAAAAAAAAAAAAAAAAAAAAAAA2222222224444444IIAAAAAAAIIIIIIIIIIIIIIA
AAAAAAAAAAAAAAAAAAAAAAAAA2222222244444444IAAAAAAAIIIIIIIIIIIIIIA
AAAAAAAAAAAAAAAAAAAAAAAAA2222222222222224IAAAAAAAIIIIIIIIIIIIIIA
AAAAAAAAAAAAAAAAAAAAAAAAAA2222222222222224AAAAAAAIIIIIIIIIIIIIIA
AAAAAAAAAAAAAAAAAAAAAAAAAAA222222222222222AAAAAAAIIIIIIIIIIIIIIA
AAAAAAAAAAAAAAAAAAAAAAAAAAAA22222222222222AAAAAAAIIIIIIIIIIIIIIA
AAAAAAAAAAAAAAAAAAAAAAAAAAAAA2222222222222AAAAAAAIIIIIIIIIIIIIIA
AAAAAAAAAAAAAAAAAAAAAAAAAAAAAA222222222222AAAAAAAIIIIIIIIIIIIIIA
AAAAAAAAAAAAAAAAAAAAAAAAAAAAAAA22222222222AAAAAAAIIIIIIIIIIIIIIA
AAAAAAAAAAAAAAAAAAAAAAAAAAAAAAAA2222222222AAAAAAAIIIIIIIIIIIIIIA
AAAAAAAAAAAAAAAAAAAAAAAAAAAAAAAAA222222222AAAAAAAIIIIIIIIIIIIIIA
AAAAAAAAAAAAAAAAAAAAAAAAAAAAAAAAAA22222222AAAAAAA4IIIIIIIIIIIIIA
AAAAAAAAAAAAAAAAAAAAAAAAAAAAAAAAAAA2222222AAAAAAA24IIIIIIIIIIIIA
AAAAAAAAAAAAAAAAAAAAAAAAAAAAAAAAAAAA222222AAAAAAA224IIIIIIIIIIIA
AAAAAAAAAAAAAAAAAAAAAAAAAAAAAAAAAAAAA22222AAAAAAA2224IIIIIIIIIIA
AAAAAAAAAAAAAAAAAAAAAAAAAAAAAAAAAAAAAA2222AAAAAAA22224IIIIIIIIIA
AAAAAAAAAAAAAAAAAAAAAAAAAAAAAAAAAAAAAAA222AAAAAAA222224IIIIIIIIA
AAAAAAAAAAAAAAAAAAAAAAAAAAAAAAAAAAAAAAAA22AAAAAAA2222224IIIIIIIA
AAAAAAAAAAAAAAAAAAAAAAAAAAAAAAAAAAAAAAAAA2AAAAAAA22222224IIIIIIA
AAAAAAAAAAAAAAAAAAAAAAAAAAAAAAAAAAAAAAAAAAAAAAAAA222222224IIIIIA
AAAAAAAAAAAAAAAAAAAAAAAAAAAAAAAAAAAAAAAAAAAAAAAAA2222222224IIIIA
AAAAAAAAAAAAAAAAAAAAAAAAAAAAAAAAAAAAAAAAAAAAAAAAA22222222224IIIA
AAAAAAAAAAAAAAAAAAAAAAAAAAAAAAAAAAAAAAAAAAAAAAAAA222222222224IIA
AAAAAAAAAAAAAAAAAAAAAAAAAAAAAAAAAAAAAAAAAAAAAAAAA2222222222224IA
AAAAAAAAAAAAAAAAAAAAAAAAAAAAAAAAAAAAAAAAAAAAAAAAA2222222222222IA
AAAAAAAAAAAAAAAAAAAAAAAAAAAAAAAAAAAAAAAAAAAAAAAAA22222222222222A
AAAAAAAAAAAAAAAAAAAAAAAAAAAAAAAAAAAAAAAAAAAAAAAAAA2222222222222A
AAAAAAAAAAAAAAAAAAAAAAAAAAAAAAAAAAAAAAAAAAAAAAAAAAA222222222222A
AAAAAAAAAAAAAAAAAAAAAAAAAAAAAAAAAAAAAAAAAAAAAAAAAAAA22222222222A
AAAAAAAAAAAAAAAAAAAAAAAAAAAAAAAAAAAAAAAAAAAAAAAAAAAAA2222222222A
AAAAAAAAAAAAAAAAAAAAAAAAAAAAAAAAAAAAAAAAAAAAAAAAAAAAAA222222222A
AAAAAAAAAAAAAAAAAAAAAAAAAAAAAAAAAAAAAAAAAAAAAAAAAAAAAAA22222222A
AAAAAAAAAAAAAAAAAAAAAAAAAAAAAAAAAAAAAAAAAAAAAAAAAAAAAAAA2222222A
AAAAAAAAAAAAAAAAAAAAAAAAAAAAAAAAAAAAAAAAAAAAAAAAAAAAAAAAA222222A
AAAAAAAAAAAAAAAAAAAAAAAAAAAAAAAAAAAAAAAAAAAAAAAAAAAAAAAAAA22222A
AAAAAAAAAAAAAAAAAAAAAAAAAAAAAAAAAAAAAAAAAAAAAAAAAAAAAAAAAAA2222A
AAAAAAAAAAAAAAAAAAAAAAAAAAAAAAAAAAAAAAAAAAAAAAAAAAAAAAAAAAAA222A
AAAAAAAAAAAAAAAAAAAAAAAAAAAAAAAAAAAAAAAAAAAAAAAAAAAAAAAAAAAAA22A
AAAAAAAAAAAAAAAAAAAAAAAAAAAAAAAAAAAAAAAAAAAAAAAAAAAAAAAAAAAAAA2A
AAAAAAAAAAAAAAAAAAAAAAAAAAAAAAAAAAAAAAAAAAAAAAAAAAAAAAAAAAAAAAAA
AAAAAAAAAAAAAAAAAAAAAAAAAAAAAAAAAAAAIAAAAAAAAAAAAAAAAAAAAAAAAAAA
AAAAAAAAAAAAAAAAAAAAAAAAAAAAAAAAAAAAIIAAAAAAAAAAAAAAAAAAAAAAAAAA
AAAAAAAAAAAAAAAAAAAAAAAAAAAAAAAAAAAAIIIAAAAAAAAAAAAAAAAAAAAAAAAA
AAAAAAAAAAAAAAAAAAAAAAAAAAAAAAAAAAAAIIIIAAAAAAAAAAAAAAAAAAAAAAAA
AAAAIAAAAAAAAAAAAAAAAAAAAAAAAAAAAAAAIIIIAAAAAAAAAAAAAAAAAAAAAAAA
AAAAIIAAAAAAAAAAAAAAAAAAAAAAAAAAAAAAIIIIAAAAAAAAAAAAAAAAAAAAAAAA
AIAAIIAAAAAAAAAAAAAAAAAAAAAAAAAAAAAAIIIIAAAAAAAAAAAAAAAAAAAAAAAA
AIIAIIAAAAAAAAAAAAAAAAAAAAAAAAAAAAAAIIIIAAAAAAAAAAAAAAAAAAAAAAAA
AIIIIIAAAAAAAAAAAAAAAAAAAAAAAAAAAAAAIIIIAAAAAAAAAAAAAAAAAAAAAAAA
AIIIIIAAAIAAAAAAAAAAAAAAAAAAAAAAAAAAIIIIAAAAAAAAAAAAAAAAAAAAAAAA
AIIIIIAAAIIAAAAAAAAAAAAAAAAAAAAAAAAAIIIIAAAAAAAAAAAAAAAAAAAAAAAA
AIIIIIAAAIIIAAAAAAAAAAAAAAAAAAAAAAAAIIIIAAAAAAAAAAAAAAAAAAAAAAAA
AIIIIIAAAIIIIAAAAAAAAAAAAAAAAAAAAAAAIIIIAAAAAAAAAAAAAAAAAAAAAAAA
AIIIIIAAAIIIIIAAAAAAAAAAAAAAAAAAAAAAIIIIAAAAAAAAAAAAAAAAAAAAAAAA
AIIIIIAAAIIIIIIAAAAAAAAAAAAAAAAAAAAAIIIIAAAAAAAAAAAAAAAAAAAAAAAA
AIIIIIAAAIIIIIIIAAAAAAAAAAAAAAAAAAAAIIIIAAAAAAAAAAAAAAAAAAAAAAAA
AIIIIIAAAIIIIIIIIAAAAAAAAAAAAAAAAAAAIIIIAAAAAAAAAAAAAAAAAAAAAAAA
AIIIIIAAAIIIIIIIIIAAAAAAAAAAAAAAAAAAIIIIAAAAAAAAAAAAAAAAAAAAAAAA
AIIIIIAAAIIIIIIIIIIAAAAAAAAAAAAAAAAAIIIIAAAAAAAAAAAAAAAAAAAAAAAA
AIIIIIAAAIIIIIIIIIIAAIAAAAAAAAAAAAAAIIIIAAAAAAAAAAAAAAAAAAAAAAAA
AIIIIIAAAIIIIIIIIIIAIIAAAAAAAAAAAAAAIIIIAAAAAAAAAAAAAAAAAAAAAAAA
AIIIIIAAAIIIIIIIIIIAIIIAAAAAAAAAAAAAIIIIAAAAAAAAAAAAAAAAAAAAAAAA
AIIIIIAAAIIIIIIIIIIIIIIAAAAAAAAAAAAAIIIIAAAAAAAAAAAAAAAAAAAAAAAA
AIIIIIAAAIIIIIIIIIIIIIIIAAAAAAAAAAAAIIIIAAAAAAAAAAAAAAAAAAAAAAAA
AIIIIIAAAIIIIIIIIIIIIIIIIAAAAAAAAAAAIIIIAAAAAAAAAAAAAAAAAAAAAAAA
AIIIIIAAAIIIIIIIIIIIIIIIIAAAAAAAAAAAIIIIAAAAAAAAAAAIAAAAAAAAAAAA
AIIIIIAAAIIIIIIIIIIIIIIIIAAAAAAAAAAAIIIIAAAAAAAAAAAIIAAAAAAAAAAA
AIIIIIAAAIIIIIIIIIIIIIIIIAAAAAAAAAAAIIIIAAAAAAAAAAAIIIAAAAAAAAAA
AIIIIIAAAIIIIIIIIIIIIIIIIIAAAAAAAAAAIIIIAAAAAAAAAAAIIIAAAAAAAAAA
AIIIIIAAAIIIIIIIIIIIIIIIIIIAAAAAAAAAIIIIAAAAAAAAAAAIIIAAAAAAAAAA
AIIIIIAAAIIIIIIIIIIIIIIIIIIIAAAAAAAAIIIIAAAAAAAAAAAIIIAAAAAAAAAA
AIIIIIAAAIIIIIIIIIIIIIIIIIIIIAAAAAAAIIIIAAAAAAAAAAAIIIAAAAAAAAAA
AIIIIIAAAIIIIIIIIIIIIIIIIIIIIIAAAAAAIIIIAAAAAAAAAAAIIIAAAAAAAAAA
AIIIIIAAAIIIIIIIIIIIIIIIIIIIIIIAAAAAIIIIAAAAAAAAAAAIIIAAAAAAAAAA
AIIIIIAAAIIIIIIIIIIIIIIIIIIIIIIIAAAAIIIIAAAAAAAAAAAIIIAAAAAAAAAA
AIIIIIAAAIIIIIIIIIIIIIIIIIIIIIIIIAAAIIIIAAAAAAAAAAAIIIAAAAAAAAAA
AIIIIIAAAIIIIIIIIIIIIIIIIIIIIIIIIIAAIIIIAAAAAAAAAAAIIIAAAAAAAAAA
AIIIIIAAAIIIIIIIIIIIIIIIIIIIIIIIIIAIIIIIAAAAAAAAAAAIIIAAAAAAAAAA
AIIIIIAAAIIIIIIIIIIIIIIIIIIIIIIIIIIIIIIIAAAAAAAAAAAIIIAAAAAAAAAA
AIIIIIAAAIIIIIIIIIIIIIIIIIIIIIIIIIIIIIIIAAAAAAAAAAAIIIIAAAAAAAAA
AIIIIIAAAIIIIIIIIIIIIIIIIIIIIIIIIIIIIIIIAAAAAAAAAAAIIIIIAAAAAAAA
AIIIIIAAAIIIIIIIIIIIIIIIIIIIIIIIIIIIIIIIIAAAAAAAAAAIIIIIAAAAAAAA
AIIIIIAAAIIIIIIIIIIIIIIIIIIIIIIIIIIIIIIIIIAAAAAAAAAIIIIIAAAAAAAA
AIIIIIAAAIIIIIIIIIIIIIIIIIIIIIIIIIIIIIIIIIIAAAAAAAAIIIIIAAAAAAAA
AIIIIIAAAIIIIIIIIIIIIIIIIIIIIIIIIIIIIIIIIIIIAAAAAAAIIIIIAAAAAAAA
AIIIIIAAAIIIIIIIIIIIIIIIIIIIIIIIIIIIIIIIIIIIIAAAAAAIIIIIAAAAAAAA
AIIIIIAAAIIIIIIIIIIIIIIIIIIIIIIIIIIIIIIIIIIIIIAAAAAIIIIIAAAAAAAA
AIIIIIAAAIIIIIIIIIIIIIIIIIIIIIIIIIIIIIIIIIIIIIIAAAAIIIIIAAAAAAAA
AIIIIIAAAIIIIIIIIIIIIIIIIIIIIIIIIIIIIIIIIIIIIIIIAAAIIIIIAAAAAAAA
AIIIIIAAAIIIIIIIIIIIIIIIIIIIIIIIIIIIIIIIIIIIIIIIIAAIIIIIAAAAAAAA
AIIIIIAAAIIIIIIIIIIIIIIIIIIIIIIIIIIIIIIIIIIIIIIIIIAIIIIIAAAAAAAA
AIIIIIAAAIIIIIIIIIIIIIIIIIIIIIIIIIIIIIIIIIIIIIIIIIIIIIIIAAAAAAAA
AIIIIIAAAIIIIIIIIIIIIIIIIIIIIIIIIIIIIIIIIIIIIIIIIIIIIIIIIAAAAAAA
AIIIIIAAAIIIIIIIIIIIIIIIIIIIIIIIIIIIIIIIIIIIIIIIIIIIIIIIIIAAAAAA
AIIIIIAAAIIIIIIIIIIIIIIIIIIIIIIIIIIIIIIIIIIIIIIIIIIIIIIIIIIAAAAA
AIIIIIAAAIIIIIIIIIIIIIIIIIIIIIIIIIIIIIIIIIIIIIIIIIIIIIIIIIIIAAAA
AIIIIIAAAIIIIIIIIIIIIIIIIIIIIIIIIIIIIIIIIIIIIIIIIIIIIIIIIIIIIAAA
AIIIIIAAAIIIIIIIIIIIIIIIIIIIIIIIIIIIIIIIIIIIIIIIIIIIIIIIIIIIIIAA
AIIIIIAAAIIIIIIIIIIIIIIIIIIIIIIIIIIIIIIIIIIIIIIIIIIIIIIIIIIIIIIA
AIIIIIAAAIIIIIIIIIIIIIIIIIIIIIIIIIIIIIIIIIIIIIIIIIIIIIIIIIIIIIII
IIIIIIIIIIIIIIIIIIIIIIIIIIIIIIIIIIIIIIIIIIIIIIIIIIIIIIIIIIIIIIII
[MLOP] Prefetch Degree Mean: 15.59921
[MLOP] Prefetch Degree SD: 2.10023
[MLOP] Max Score Left Mean (%): 62.26201
[MLOP] Max Score Left SD (%): 21.31969
[MLOP] Max Score Right Mean (%): 98.65402
[MLOP] Max Score Right SD (%): 3.02918

Channel_0_RQ_row_buffer_hit 1474098
Channel_0_RQ_row_buffer_miss 2134033
Channel_0_WQ_row_buffer_hit 252079
Channel_0_WQ_row_buffer_miss 926055
Channel_0_WQ_full 4634
Channel_0_dbus_congested 4863267

avg_congested_cycle 192

DRAM_bw_pochs 4404691
DRAM_bw_level_0 2506288
DRAM_bw_level_1 0
DRAM_bw_level_2 0
DRAM_bw_level_3 1898403
